MODEL        1
REMARK 921   NORMALIZED FREE ENERGY PREDICTED BY IDOCK:   -6.91 KCAL/MOL
REMARK 922        TOTAL FREE ENERGY PREDICTED BY IDOCK:  -11.38 KCAL/MOL
REMARK 923 INTER-LIGAND FREE ENERGY PREDICTED BY IDOCK:  -10.54 KCAL/MOL
REMARK 924 INTRA-LIGAND FREE ENERGY PREDICTED BY IDOCK:   -0.84 KCAL/MOL
REMARK 927      BINDING AFFINITY PREDICTED BY RF-SCORE:    0.00 PKD
ROOT
HETATM    1  O   UNL     1     -12.700  13.107  65.993  1.00  0.00    -0.385 OA 
HETATM    2  C   UNL     1     -12.655  12.713  64.697  1.00  0.00    -0.440 C  
HETATM    3  C   UNL     1     -11.619  13.450  63.856  1.00  0.00    -0.354 C  
HETATM    4  O   UNL     1     -13.406  11.863  64.247  1.00  0.00    -0.610 OA 
ENDROOT
BRANCH   3   5
HETATM    5  N   UNL     1     -10.871  14.442  64.621  1.00  0.00    -0.565 N  
HETATM    6  C   UNL     1     -11.204  15.780  64.605  1.00  0.00    -0.363 C  
HETATM    7  H   UNL     1     -10.078  14.136  65.185  1.00  0.00     0.000 HD 
HETATM    8  O   UNL     1     -12.119  16.224  63.918  1.00  0.00    -0.986 OA 
BRANCH   6   9
HETATM    9  C   UNL     1     -10.325  16.690  65.473  1.00  0.00    -0.247 C  
BRANCH   9  10
HETATM   10  N   UNL     1     -10.346  16.344  66.884  1.00  0.00    -0.297 N  
HETATM   11  H   UNL     1     -10.238  15.366  67.152  1.00  0.00     0.000 HD 
HETATM   12  C   UNL     1     -10.508  17.288  67.873  1.00  0.00    -0.382 C  
HETATM   13  O   UNL     1     -10.612  18.486  67.624  1.00  0.00    -0.412 OA 
BRANCH  12  14
HETATM   14  C   UNL     1     -10.548  16.729  69.302  1.00  0.00    -0.336 C  
BRANCH  14  15
HETATM   15  N   UNL     1     -11.712  15.884  69.552  1.00  0.00    -0.343 N  
HETATM   16  C   UNL     1     -12.188  15.694  70.834  1.00  0.00    -0.419 C  
HETATM   17  H   UNL     1     -12.179  15.427  68.769  1.00  0.00     0.000 HD 
HETATM   18  O   UNL     1     -11.584  16.101  71.823  1.00  0.00    -0.459 OA 
BRANCH  16  19
HETATM   19  C   UNL     1     -13.464  14.874  70.925  1.00  0.00    -0.306 C  
BRANCH  19  20
HETATM   20  S   UNL     1     -13.235  13.371  71.899  1.00  0.00    -0.417 SA 
BRANCH  20  21
HETATM   21  C   UNL     1     -12.426  12.354  70.715  1.00  0.00    -0.267 C  
HETATM   22  O   UNL     1     -11.980  12.826  69.672  1.00  0.00    -0.314 OA 
BRANCH  21  23
HETATM   23  C   UNL     1     -12.322  10.901  71.020  1.00  0.00    -0.498 A  
HETATM   24  C   UNL     1     -13.224  10.334  71.930  1.00  0.00    -0.550 A  
HETATM   25  C   UNL     1     -13.116   8.984  72.276  1.00  0.00    -0.508 A  
HETATM   26  C   UNL     1     -12.105   8.198  71.724  1.00  0.00    -0.357 A  
HETATM   27  C   UNL     1     -11.207   8.755  70.817  1.00  0.00    -0.309 A  
HETATM   28  C   UNL     1     -11.312  10.101  70.465  1.00  0.00    -0.416 A  
ENDBRANCH  21  23
ENDBRANCH  20  21
ENDBRANCH  19  20
ENDBRANCH  16  19
ENDBRANCH  14  15
ENDBRANCH  12  14
ENDBRANCH   9  10
ENDBRANCH   6   9
ENDBRANCH   3   5
TORSDOF 9
ENDMDL
MODEL        2
REMARK 921   NORMALIZED FREE ENERGY PREDICTED BY IDOCK:   -6.75 KCAL/MOL
REMARK 922        TOTAL FREE ENERGY PREDICTED BY IDOCK:  -11.14 KCAL/MOL
REMARK 923 INTER-LIGAND FREE ENERGY PREDICTED BY IDOCK:   -9.82 KCAL/MOL
REMARK 924 INTRA-LIGAND FREE ENERGY PREDICTED BY IDOCK:   -1.32 KCAL/MOL
REMARK 927      BINDING AFFINITY PREDICTED BY RF-SCORE:    0.00 PKD
ROOT
HETATM    1  O   UNL     1     -10.862  12.973  63.703  1.00  0.00    -0.327 OA 
HETATM    2  C   UNL     1     -12.197  12.999  63.932  1.00  0.00    -0.437 C  
HETATM    3  C   UNL     1     -12.636  14.040  64.956  1.00  0.00    -0.390 C  
HETATM    4  O   UNL     1     -12.968  12.229  63.383  1.00  0.00    -0.753 OA 
ENDROOT
BRANCH   3   5
HETATM    5  N   UNL     1     -11.519  14.812  65.490  1.00  0.00    -0.342 N  
HETATM    6  C   UNL     1     -11.126  16.011  64.933  1.00  0.00    -0.370 C  
HETATM    7  H   UNL     1     -11.013  14.454  66.301  1.00  0.00     0.000 HD 
HETATM    8  O   UNL     1     -11.660  16.480  63.933  1.00  0.00    -1.175 OA 
BRANCH   6   9
HETATM    9  C   UNL     1      -9.942  16.702  65.621  1.00  0.00    -0.167 C  
BRANCH   9  10
HETATM   10  N   UNL     1      -9.042  15.782  66.293  1.00  0.00    -0.312 N  
HETATM   11  H   UNL     1      -8.478  15.146  65.729  1.00  0.00     0.000 HD 
HETATM   12  C   UNL     1      -8.922  15.735  67.664  1.00  0.00    -0.187 C  
HETATM   13  O   UNL     1      -9.547  16.491  68.403  1.00  0.00    -0.220 OA 
BRANCH  12  14
HETATM   14  C   UNL     1      -7.954  14.668  68.194  1.00  0.00    -0.136 C  
BRANCH  14  15
HETATM   15  N   UNL     1      -8.636  13.514  68.772  1.00  0.00    -0.366 N  
HETATM   16  C   UNL     1      -9.170  12.528  67.966  1.00  0.00    -0.204 C  
HETATM   17  H   UNL     1      -8.718  13.434  69.786  1.00  0.00     0.000 HD 
HETATM   18  O   UNL     1      -9.226  12.642  66.745  1.00  0.00    -0.217 OA 
BRANCH  16  19
HETATM   19  C   UNL     1      -9.756  11.342  68.714  1.00  0.00    -0.174 C  
BRANCH  19  20
HETATM   20  S   UNL     1     -11.561  11.334  68.664  1.00  0.00    -0.326 SA 
BRANCH  20  21
HETATM   21  C   UNL     1     -11.920  11.499  70.377  1.00  0.00    -0.368 C  
HETATM   22  O   UNL     1     -11.770  10.556  71.150  1.00  0.00    -0.329 OA 
BRANCH  21  23
HETATM   23  C   UNL     1     -12.427  12.818  70.845  1.00  0.00    -0.373 A  
HETATM   24  C   UNL     1     -13.314  12.856  71.929  1.00  0.00    -0.530 A  
HETATM   25  C   UNL     1     -13.848  14.075  72.356  1.00  0.00    -0.653 A  
HETATM   26  C   UNL     1     -13.508  15.257  71.699  1.00  0.00    -0.573 A  
HETATM   27  C   UNL     1     -12.625  15.226  70.622  1.00  0.00    -0.471 A  
HETATM   28  C   UNL     1     -12.087  14.013  70.193  1.00  0.00    -0.419 A  
ENDBRANCH  21  23
ENDBRANCH  20  21
ENDBRANCH  19  20
ENDBRANCH  16  19
ENDBRANCH  14  15
ENDBRANCH  12  14
ENDBRANCH   9  10
ENDBRANCH   6   9
ENDBRANCH   3   5
TORSDOF 9
ENDMDL
MODEL        3
REMARK 921   NORMALIZED FREE ENERGY PREDICTED BY IDOCK:   -6.66 KCAL/MOL
REMARK 922        TOTAL FREE ENERGY PREDICTED BY IDOCK:  -11.01 KCAL/MOL
REMARK 923 INTER-LIGAND FREE ENERGY PREDICTED BY IDOCK:   -9.51 KCAL/MOL
REMARK 924 INTRA-LIGAND FREE ENERGY PREDICTED BY IDOCK:   -1.50 KCAL/MOL
REMARK 927      BINDING AFFINITY PREDICTED BY RF-SCORE:    0.00 PKD
ROOT
HETATM    1  O   UNL     1     -13.300  12.044  64.298  1.00  0.00    -0.709 OA 
HETATM    2  C   UNL     1     -12.492  13.121  64.156  1.00  0.00    -0.274 C  
HETATM    3  C   UNL     1     -11.634  13.425  65.380  1.00  0.00    -0.314 C  
HETATM    4  O   UNL     1     -12.482  13.801  63.143  1.00  0.00    -0.786 OA 
ENDROOT
BRANCH   3   5
HETATM    5  N   UNL     1     -11.855  12.483  66.472  1.00  0.00    -0.394 N  
HETATM    6  C   UNL     1     -10.929  11.516  66.801  1.00  0.00    -0.294 C  
HETATM    7  H   UNL     1     -12.721  12.541  67.008  1.00  0.00     0.000 HD 
HETATM    8  O   UNL     1      -9.886  11.360  66.175  1.00  0.00    -0.208 OA 
BRANCH   6   9
HETATM    9  C   UNL     1     -11.308  10.613  67.982  1.00  0.00    -0.278 C  
BRANCH   9  10
HETATM   10  N   UNL     1     -11.977  11.318  69.062  1.00  0.00    -0.346 N  
HETATM   11  H   UNL     1     -12.321  12.263  68.893  1.00  0.00     0.000 HD 
HETATM   12  C   UNL     1     -12.162  10.758  70.306  1.00  0.00    -0.348 C  
HETATM   13  O   UNL     1     -11.801   9.614  70.570  1.00  0.00    -0.265 OA 
BRANCH  12  14
HETATM   14  C   UNL     1     -12.850  11.670  71.331  1.00  0.00    -0.356 C  
BRANCH  14  15
HETATM   15  N   UNL     1     -12.731  13.088  71.005  1.00  0.00    -0.309 N  
HETATM   16  C   UNL     1     -13.431  14.041  71.717  1.00  0.00    -0.392 C  
HETATM   17  H   UNL     1     -12.121  13.379  70.241  1.00  0.00     0.000 HD 
HETATM   18  O   UNL     1     -14.284  13.740  72.549  1.00  0.00    -0.706 OA 
BRANCH  16  19
HETATM   19  C   UNL     1     -13.126  15.478  71.330  1.00  0.00    -0.511 C  
BRANCH  19  20
HETATM   20  S   UNL     1     -11.385  15.712  70.914  1.00  0.00    -0.404 SA 
BRANCH  20  21
HETATM   21  C   UNL     1     -11.457  15.539  69.166  1.00  0.00    -0.348 C  
HETATM   22  O   UNL     1     -12.015  14.577  68.646  1.00  0.00    -0.322 OA 
BRANCH  21  23
HETATM   23  C   UNL     1     -10.800  16.596  68.348  1.00  0.00    -0.361 A  
HETATM   24  C   UNL     1     -10.383  17.776  68.976  1.00  0.00    -0.234 A  
HETATM   25  C   UNL     1      -9.812  18.807  68.223  1.00  0.00    -0.418 A  
HETATM   26  C   UNL     1      -9.665  18.668  66.843  1.00  0.00    -0.333 A  
HETATM   27  C   UNL     1     -10.077  17.496  66.214  1.00  0.00    -0.341 A  
HETATM   28  C   UNL     1     -10.644  16.463  66.960  1.00  0.00    -0.260 A  
ENDBRANCH  21  23
ENDBRANCH  20  21
ENDBRANCH  19  20
ENDBRANCH  16  19
ENDBRANCH  14  15
ENDBRANCH  12  14
ENDBRANCH   9  10
ENDBRANCH   6   9
ENDBRANCH   3   5
TORSDOF 9
ENDMDL
MODEL        4
REMARK 921   NORMALIZED FREE ENERGY PREDICTED BY IDOCK:   -6.60 KCAL/MOL
REMARK 922        TOTAL FREE ENERGY PREDICTED BY IDOCK:  -10.91 KCAL/MOL
REMARK 923 INTER-LIGAND FREE ENERGY PREDICTED BY IDOCK:   -9.69 KCAL/MOL
REMARK 924 INTRA-LIGAND FREE ENERGY PREDICTED BY IDOCK:   -1.22 KCAL/MOL
REMARK 927      BINDING AFFINITY PREDICTED BY RF-SCORE:    0.00 PKD
ROOT
HETATM    1  O   UNL     1     -13.211  12.406  64.744  1.00  0.00    -0.784 OA 
HETATM    2  C   UNL     1     -12.278  12.804  63.847  1.00  0.00    -0.463 C  
HETATM    3  C   UNL     1     -10.902  12.181  64.058  1.00  0.00    -0.383 C  
HETATM    4  O   UNL     1     -12.520  13.615  62.968  1.00  0.00    -0.719 OA 
ENDROOT
BRANCH   3   5
HETATM    5  N   UNL     1     -10.864  11.269  65.196  1.00  0.00    -0.241 N  
HETATM    6  C   UNL     1     -10.025  10.175  65.228  1.00  0.00    -0.311 C  
HETATM    7  H   UNL     1     -11.476  11.446  65.993  1.00  0.00     0.000 HD 
HETATM    8  O   UNL     1      -9.293   9.877  64.290  1.00  0.00    -0.266 OA 
BRANCH   6   9
HETATM    9  C   UNL     1     -10.099   9.323  66.502  1.00  0.00    -0.273 C  
BRANCH   9  10
HETATM   10  N   UNL     1     -10.923   9.908  67.545  1.00  0.00    -0.375 N  
HETATM   11  H   UNL     1     -11.820  10.320  67.290  1.00  0.00     0.000 HD 
HETATM   12  C   UNL     1     -10.537   9.926  68.867  1.00  0.00    -0.218 C  
HETATM   13  O   UNL     1      -9.486   9.421  69.250  1.00  0.00    -0.154 OA 
BRANCH  12  14
HETATM   14  C   UNL     1     -11.518  10.626  69.818  1.00  0.00    -0.302 C  
BRANCH  14  15
HETATM   15  N   UNL     1     -11.293  12.065  69.915  1.00  0.00    -0.510 N  
HETATM   16  C   UNL     1     -11.705  12.917  68.910  1.00  0.00    -0.327 C  
HETATM   17  H   UNL     1     -10.824  12.446  70.737  1.00  0.00     0.000 HD 
HETATM   18  O   UNL     1     -12.143  12.502  67.840  1.00  0.00    -0.384 OA 
BRANCH  16  19
HETATM   19  C   UNL     1     -11.494  14.393  69.200  1.00  0.00    -0.294 C  
BRANCH  19  20
HETATM   20  S   UNL     1      -9.915  14.991  68.559  1.00  0.00    -0.225 SA 
BRANCH  20  21
HETATM   21  C   UNL     1     -10.476  15.956  67.201  1.00  0.00    -0.313 C  
HETATM   22  O   UNL     1     -10.996  15.430  66.221  1.00  0.00    -0.324 OA 
BRANCH  21  23
HETATM   23  C   UNL     1     -10.278  17.429  67.283  1.00  0.00    -0.324 A  
HETATM   24  C   UNL     1     -10.033  18.011  68.534  1.00  0.00    -0.395 A  
HETATM   25  C   UNL     1      -9.896  19.397  68.648  1.00  0.00    -0.522 A  
HETATM   26  C   UNL     1     -10.014  20.208  67.519  1.00  0.00    -0.571 A  
HETATM   27  C   UNL     1     -10.256  19.635  66.273  1.00  0.00    -0.598 A  
HETATM   28  C   UNL     1     -10.390  18.252  66.152  1.00  0.00    -0.414 A  
ENDBRANCH  21  23
ENDBRANCH  20  21
ENDBRANCH  19  20
ENDBRANCH  16  19
ENDBRANCH  14  15
ENDBRANCH  12  14
ENDBRANCH   9  10
ENDBRANCH   6   9
ENDBRANCH   3   5
TORSDOF 9
ENDMDL
MODEL        5
REMARK 921   NORMALIZED FREE ENERGY PREDICTED BY IDOCK:   -6.58 KCAL/MOL
REMARK 922        TOTAL FREE ENERGY PREDICTED BY IDOCK:  -10.88 KCAL/MOL
REMARK 923 INTER-LIGAND FREE ENERGY PREDICTED BY IDOCK:   -9.61 KCAL/MOL
REMARK 924 INTRA-LIGAND FREE ENERGY PREDICTED BY IDOCK:   -1.28 KCAL/MOL
REMARK 927      BINDING AFFINITY PREDICTED BY RF-SCORE:    0.00 PKD
ROOT
HETATM    1  O   UNL     1     -11.467  16.578  63.608  1.00  0.00    -0.833 OA 
HETATM    2  C   UNL     1     -10.964  16.655  64.864  1.00  0.00    -0.150 C  
HETATM    3  C   UNL     1     -10.585  15.308  65.469  1.00  0.00    -0.373 C  
HETATM    4  O   UNL     1     -10.857  17.714  65.460  1.00  0.00    -0.462 OA 
ENDROOT
BRANCH   3   5
HETATM    5  N   UNL     1     -10.840  14.191  64.566  1.00  0.00    -0.587 N  
HETATM    6  C   UNL     1     -12.066  13.562  64.509  1.00  0.00    -0.416 C  
HETATM    7  H   UNL     1     -10.088  13.864  63.958  1.00  0.00     0.000 HD 
HETATM    8  O   UNL     1     -13.002  13.873  65.239  1.00  0.00    -0.747 OA 
BRANCH   6   9
HETATM    9  C   UNL     1     -12.173  12.413  63.498  1.00  0.00    -0.563 C  
BRANCH   9  10
HETATM   10  N   UNL     1     -11.404  11.238  63.870  1.00  0.00    -0.457 N  
HETATM   11  H   UNL     1     -11.874  10.477  64.359  1.00  0.00     0.000 HD 
HETATM   12  C   UNL     1     -10.062  11.115  63.587  1.00  0.00    -0.379 C  
HETATM   13  O   UNL     1      -9.440  11.978  62.973  1.00  0.00    -0.332 OA 
BRANCH  12  14
HETATM   14  C   UNL     1      -9.409   9.823  64.096  1.00  0.00    -0.175 C  
BRANCH  14  15
HETATM   15  N   UNL     1      -9.487   9.676  65.546  1.00  0.00    -0.248 N  
HETATM   16  C   UNL     1      -8.600  10.332  66.375  1.00  0.00    -0.133 C  
HETATM   17  H   UNL     1     -10.208   9.079  65.953  1.00  0.00     0.000 HD 
HETATM   18  O   UNL     1      -7.629  10.946  65.939  1.00  0.00    -0.135 OA 
BRANCH  16  19
HETATM   19  C   UNL     1      -8.871  10.164  67.861  1.00  0.00    -0.125 C  
BRANCH  19  20
HETATM   20  S   UNL     1     -10.513   9.481  68.176  1.00  0.00    -0.220 SA 
BRANCH  20  21
HETATM   21  C   UNL     1     -11.471  10.955  68.158  1.00  0.00    -0.295 C  
HETATM   22  O   UNL     1     -11.649  11.583  67.117  1.00  0.00    -0.516 OA 
BRANCH  21  23
HETATM   23  C   UNL     1     -12.040  11.416  69.454  1.00  0.00    -0.358 A  
HETATM   24  C   UNL     1     -11.935  12.771  69.794  1.00  0.00    -0.362 A  
HETATM   25  C   UNL     1     -12.413  13.223  71.028  1.00  0.00    -0.422 A  
HETATM   26  C   UNL     1     -12.985  12.326  71.929  1.00  0.00    -0.411 A  
HETATM   27  C   UNL     1     -13.094  10.978  71.595  1.00  0.00    -0.543 A  
HETATM   28  C   UNL     1     -12.622  10.522  70.364  1.00  0.00    -0.364 A  
ENDBRANCH  21  23
ENDBRANCH  20  21
ENDBRANCH  19  20
ENDBRANCH  16  19
ENDBRANCH  14  15
ENDBRANCH  12  14
ENDBRANCH   9  10
ENDBRANCH   6   9
ENDBRANCH   3   5
TORSDOF 9
ENDMDL
MODEL        6
REMARK 921   NORMALIZED FREE ENERGY PREDICTED BY IDOCK:   -6.56 KCAL/MOL
REMARK 922        TOTAL FREE ENERGY PREDICTED BY IDOCK:  -10.85 KCAL/MOL
REMARK 923 INTER-LIGAND FREE ENERGY PREDICTED BY IDOCK:   -9.11 KCAL/MOL
REMARK 924 INTRA-LIGAND FREE ENERGY PREDICTED BY IDOCK:   -1.75 KCAL/MOL
REMARK 927      BINDING AFFINITY PREDICTED BY RF-SCORE:    0.00 PKD
ROOT
HETATM    1  O   UNL     1      -8.926   9.321  70.892  1.00  0.00    -0.235 OA 
HETATM    2  C   UNL     1      -9.362   8.318  70.093  1.00  0.00    -0.159 C  
HETATM    3  C   UNL     1     -10.866   8.331  69.839  1.00  0.00    -0.213 C  
HETATM    4  O   UNL     1      -8.613   7.465  69.647  1.00  0.00    -0.135 OA 
ENDROOT
BRANCH   3   5
HETATM    5  N   UNL     1     -11.543   9.435  70.511  1.00  0.00    -0.348 N  
HETATM    6  C   UNL     1     -12.698   9.248  71.240  1.00  0.00    -0.299 C  
HETATM    7  H   UNL     1     -11.150  10.374  70.440  1.00  0.00     0.000 HD 
HETATM    8  O   UNL     1     -13.250   8.156  71.335  1.00  0.00    -0.296 OA 
BRANCH   6   9
HETATM    9  C   UNL     1     -13.278  10.509  71.894  1.00  0.00    -0.420 C  
BRANCH   9  10
HETATM   10  N   UNL     1     -12.780  11.745  71.316  1.00  0.00    -0.368 N  
HETATM   11  H   UNL     1     -12.083  11.694  70.573  1.00  0.00     0.000 HD 
HETATM   12  C   UNL     1     -13.216  12.982  71.733  1.00  0.00    -0.392 C  
HETATM   13  O   UNL     1     -14.076  13.117  72.599  1.00  0.00    -0.701 OA 
BRANCH  12  14
HETATM   14  C   UNL     1     -12.544  14.174  71.036  1.00  0.00    -0.369 C  
BRANCH  14  15
HETATM   15  N   UNL     1     -11.421  13.783  70.189  1.00  0.00    -0.497 N  
HETATM   16  C   UNL     1     -11.095  14.510  69.063  1.00  0.00    -0.262 C  
HETATM   17  H   UNL     1     -10.869  12.960  70.434  1.00  0.00     0.000 HD 
HETATM   18  O   UNL     1     -11.806  15.420  68.643  1.00  0.00    -0.346 OA 
BRANCH  16  19
HETATM   19  C   UNL     1      -9.841  14.042  68.343  1.00  0.00    -0.232 C  
BRANCH  19  20
HETATM   20  S   UNL     1      -9.708  12.242  68.316  1.00  0.00    -0.202 SA 
BRANCH  20  21
HETATM   21  C   UNL     1     -11.228  11.830  67.534  1.00  0.00    -0.291 C  
HETATM   22  O   UNL     1     -12.135  11.285  68.158  1.00  0.00    -0.635 OA 
BRANCH  21  23
HETATM   23  C   UNL     1     -11.361  12.152  66.087  1.00  0.00    -0.414 A  
HETATM   24  C   UNL     1     -12.217  13.191  65.701  1.00  0.00    -0.521 A  
HETATM   25  C   UNL     1     -12.402  13.481  64.346  1.00  0.00    -0.391 A  
HETATM   26  C   UNL     1     -11.744  12.730  63.373  1.00  0.00    -0.556 A  
HETATM   27  C   UNL     1     -10.890  11.696  63.751  1.00  0.00    -0.493 A  
HETATM   28  C   UNL     1     -10.698  11.405  65.101  1.00  0.00    -0.332 A  
ENDBRANCH  21  23
ENDBRANCH  20  21
ENDBRANCH  19  20
ENDBRANCH  16  19
ENDBRANCH  14  15
ENDBRANCH  12  14
ENDBRANCH   9  10
ENDBRANCH   6   9
ENDBRANCH   3   5
TORSDOF 9
ENDMDL
MODEL        7
REMARK 921   NORMALIZED FREE ENERGY PREDICTED BY IDOCK:   -6.50 KCAL/MOL
REMARK 922        TOTAL FREE ENERGY PREDICTED BY IDOCK:  -10.76 KCAL/MOL
REMARK 923 INTER-LIGAND FREE ENERGY PREDICTED BY IDOCK:   -9.18 KCAL/MOL
REMARK 924 INTRA-LIGAND FREE ENERGY PREDICTED BY IDOCK:   -1.58 KCAL/MOL
REMARK 927      BINDING AFFINITY PREDICTED BY RF-SCORE:    0.00 PKD
ROOT
HETATM    1  O   UNL     1      -9.104  15.368  68.040  1.00  0.00    -0.174 OA 
HETATM    2  C   UNL     1      -9.027  16.652  67.617  1.00  0.00    -0.205 C  
HETATM    3  C   UNL     1      -9.905  16.966  66.410  1.00  0.00    -0.305 C  
HETATM    4  O   UNL     1      -8.292  17.471  68.144  1.00  0.00    -0.233 OA 
ENDROOT
BRANCH   3   5
HETATM    5  N   UNL     1     -10.664  15.809  65.947  1.00  0.00    -0.325 N  
HETATM    6  C   UNL     1     -11.382  15.830  64.770  1.00  0.00    -0.314 C  
HETATM    7  H   UNL     1     -10.663  14.959  66.511  1.00  0.00     0.000 HD 
HETATM    8  O   UNL     1     -11.463  16.829  64.063  1.00  0.00    -1.198 OA 
BRANCH   6   9
HETATM    9  C   UNL     1     -12.115  14.528  64.421  1.00  0.00    -0.472 C  
BRANCH   9  10
HETATM   10  N   UNL     1     -11.499  13.343  64.992  1.00  0.00    -0.304 N  
HETATM   11  H   UNL     1     -10.996  13.427  65.875  1.00  0.00     0.000 HD 
HETATM   12  C   UNL     1     -11.568  12.109  64.385  1.00  0.00    -0.350 C  
HETATM   13  O   UNL     1     -12.184  11.928  63.338  1.00  0.00    -0.531 OA 
BRANCH  12  14
HETATM   14  C   UNL     1     -10.820  10.985  65.114  1.00  0.00    -0.112 C  
BRANCH  14  15
HETATM   15  N   UNL     1     -10.746  11.189  66.558  1.00  0.00    -0.267 N  
HETATM   16  C   UNL     1      -9.545  11.480  67.173  1.00  0.00    -0.177 C  
HETATM   17  H   UNL     1     -11.595  11.115  67.120  1.00  0.00     0.000 HD 
HETATM   18  O   UNL     1      -8.476  11.440  66.570  1.00  0.00    -0.167 OA 
BRANCH  16  19
HETATM   19  C   UNL     1      -9.645  11.767  68.662  1.00  0.00    -0.115 C  
BRANCH  19  20
HETATM   20  S   UNL     1     -11.335  11.592  69.273  1.00  0.00    -0.307 SA 
BRANCH  20  21
HETATM   21  C   UNL     1     -11.849  13.273  69.252  1.00  0.00    -0.331 C  
HETATM   22  O   UNL     1     -11.935  13.896  68.197  1.00  0.00    -0.355 OA 
BRANCH  21  23
HETATM   23  C   UNL     1     -12.156  13.910  70.562  1.00  0.00    -0.426 A  
HETATM   24  C   UNL     1     -11.465  15.073  70.927  1.00  0.00    -0.330 A  
HETATM   25  C   UNL     1     -11.694  15.663  72.173  1.00  0.00    -0.576 A  
HETATM   26  C   UNL     1     -12.603  15.090  73.063  1.00  0.00    -0.542 A  
HETATM   27  C   UNL     1     -13.294  13.936  72.704  1.00  0.00    -0.640 A  
HETATM   28  C   UNL     1     -13.072  13.344  71.461  1.00  0.00    -0.427 A  
ENDBRANCH  21  23
ENDBRANCH  20  21
ENDBRANCH  19  20
ENDBRANCH  16  19
ENDBRANCH  14  15
ENDBRANCH  12  14
ENDBRANCH   9  10
ENDBRANCH   6   9
ENDBRANCH   3   5
TORSDOF 9
ENDMDL
MODEL        8
REMARK 921   NORMALIZED FREE ENERGY PREDICTED BY IDOCK:   -6.48 KCAL/MOL
REMARK 922        TOTAL FREE ENERGY PREDICTED BY IDOCK:  -10.74 KCAL/MOL
REMARK 923 INTER-LIGAND FREE ENERGY PREDICTED BY IDOCK:   -9.55 KCAL/MOL
REMARK 924 INTRA-LIGAND FREE ENERGY PREDICTED BY IDOCK:   -1.19 KCAL/MOL
REMARK 927      BINDING AFFINITY PREDICTED BY RF-SCORE:    0.00 PKD
ROOT
HETATM    1  O   UNL     1     -10.433  13.517  67.133  1.00  0.00    -0.254 OA 
HETATM    2  C   UNL     1     -10.770  14.663  66.495  1.00  0.00    -0.312 C  
HETATM    3  C   UNL     1     -10.552  14.627  64.986  1.00  0.00    -0.439 C  
HETATM    4  O   UNL     1     -11.184  15.644  67.091  1.00  0.00    -0.269 OA 
ENDROOT
BRANCH   3   5
HETATM    5  N   UNL     1     -10.018  13.350  64.523  1.00  0.00    -0.635 N  
HETATM    6  C   UNL     1     -10.743  12.508  63.707  1.00  0.00    -0.445 C  
HETATM    7  H   UNL     1      -9.080  13.072  64.812  1.00  0.00     0.000 HD 
HETATM    8  O   UNL     1     -11.892  12.757  63.355  1.00  0.00    -0.513 OA 
BRANCH   6   9
HETATM    9  C   UNL     1     -10.034  11.210  63.301  1.00  0.00    -0.379 C  
BRANCH   9  10
HETATM   10  N   UNL     1     -10.271  10.106  64.215  1.00  0.00    -0.425 N  
HETATM   11  H   UNL     1     -10.975   9.409  63.972  1.00  0.00     0.000 HD 
HETATM   12  C   UNL     1      -9.582   9.967  65.399  1.00  0.00    -0.279 C  
HETATM   13  O   UNL     1      -8.700  10.751  65.739  1.00  0.00    -0.176 OA 
BRANCH  12  14
HETATM   14  C   UNL     1     -10.000   8.764  66.255  1.00  0.00    -0.245 C  
BRANCH  14  15
HETATM   15  N   UNL     1     -10.731   9.146  67.459  1.00  0.00    -0.423 N  
HETATM   16  C   UNL     1     -10.147   9.045  68.706  1.00  0.00    -0.199 C  
HETATM   17  H   UNL     1     -11.688   9.492  67.379  1.00  0.00     0.000 HD 
HETATM   18  O   UNL     1      -9.057   8.505  68.875  1.00  0.00    -0.145 OA 
BRANCH  16  19
HETATM   19  C   UNL     1     -10.993   9.576  69.851  1.00  0.00    -0.238 C  
BRANCH  19  20
HETATM   20  S   UNL     1     -11.772  11.153  69.443  1.00  0.00    -0.361 SA 
BRANCH  20  21
HETATM   21  C   UNL     1     -12.524  11.537  70.985  1.00  0.00    -0.356 C  
HETATM   22  O   UNL     1     -12.759  10.660  71.811  1.00  0.00    -0.420 OA 
BRANCH  21  23
HETATM   23  C   UNL     1     -12.877  12.961  71.237  1.00  0.00    -0.361 A  
HETATM   24  C   UNL     1     -12.362  13.947  70.385  1.00  0.00    -0.433 A  
HETATM   25  C   UNL     1     -12.634  15.296  70.629  1.00  0.00    -0.471 A  
HETATM   26  C   UNL     1     -13.409  15.667  71.727  1.00  0.00    -0.541 A  
HETATM   27  C   UNL     1     -13.925  14.691  72.576  1.00  0.00    -0.518 A  
HETATM   28  C   UNL     1     -13.660  13.343  72.336  1.00  0.00    -0.708 A  
ENDBRANCH  21  23
ENDBRANCH  20  21
ENDBRANCH  19  20
ENDBRANCH  16  19
ENDBRANCH  14  15
ENDBRANCH  12  14
ENDBRANCH   9  10
ENDBRANCH   6   9
ENDBRANCH   3   5
TORSDOF 9
ENDMDL
MODEL        9
REMARK 921   NORMALIZED FREE ENERGY PREDICTED BY IDOCK:   -6.45 KCAL/MOL
REMARK 922        TOTAL FREE ENERGY PREDICTED BY IDOCK:  -10.69 KCAL/MOL
REMARK 923 INTER-LIGAND FREE ENERGY PREDICTED BY IDOCK:   -9.48 KCAL/MOL
REMARK 924 INTRA-LIGAND FREE ENERGY PREDICTED BY IDOCK:   -1.21 KCAL/MOL
REMARK 927      BINDING AFFINITY PREDICTED BY RF-SCORE:    0.00 PKD
ROOT
HETATM    1  O   UNL     1     -10.714  14.509  64.909  1.00  0.00    -0.396 OA 
HETATM    2  C   UNL     1     -11.934  14.089  64.495  1.00  0.00    -0.448 C  
HETATM    3  C   UNL     1     -12.299  12.681  64.953  1.00  0.00    -0.498 C  
HETATM    4  O   UNL     1     -12.656  14.775  63.791  1.00  0.00    -0.806 OA 
ENDROOT
BRANCH   3   5
HETATM    5  N   UNL     1     -11.252  12.059  65.756  1.00  0.00    -0.329 N  
HETATM    6  C   UNL     1     -10.404  11.103  65.238  1.00  0.00    -0.277 C  
HETATM    7  H   UNL     1     -11.144  12.340  66.731  1.00  0.00     0.000 HD 
HETATM    8  O   UNL     1     -10.502  10.687  64.088  1.00  0.00    -0.336 OA 
BRANCH   6   9
HETATM    9  C   UNL     1      -9.351  10.557  66.211  1.00  0.00    -0.170 C  
BRANCH   9  10
HETATM   10  N   UNL     1      -9.909   9.735  67.271  1.00  0.00    -0.172 N  
HETATM   11  H   UNL     1     -10.311  10.193  68.088  1.00  0.00     0.000 HD 
HETATM   12  C   UNL     1      -9.914   8.360  67.212  1.00  0.00    -0.227 C  
HETATM   13  O   UNL     1      -9.475   7.743  66.245  1.00  0.00    -0.189 OA 
BRANCH  12  14
HETATM   14  C   UNL     1     -10.506   7.661  68.444  1.00  0.00    -0.169 C  
BRANCH  14  15
HETATM   15  N   UNL     1     -10.801   8.582  69.538  1.00  0.00    -0.384 N  
HETATM   16  C   UNL     1     -11.453   8.149  70.675  1.00  0.00    -0.231 C  
HETATM   17  H   UNL     1     -10.522   9.561  69.460  1.00  0.00     0.000 HD 
HETATM   18  O   UNL     1     -11.936   7.023  70.762  1.00  0.00    -0.349 OA 
BRANCH  16  19
HETATM   19  C   UNL     1     -11.596   9.197  71.766  1.00  0.00    -0.387 C  
BRANCH  19  20
HETATM   20  S   UNL     1     -13.052  10.236  71.519  1.00  0.00    -0.433 SA 
BRANCH  20  21
HETATM   21  C   UNL     1     -12.328  11.586  70.659  1.00  0.00    -0.364 C  
HETATM   22  O   UNL     1     -11.534  11.401  69.740  1.00  0.00    -0.280 OA 
BRANCH  21  23
HETATM   23  C   UNL     1     -12.702  12.958  71.101  1.00  0.00    -0.366 A  
HETATM   24  C   UNL     1     -12.230  14.056  70.371  1.00  0.00    -0.433 A  
HETATM   25  C   UNL     1     -12.521  15.357  70.793  1.00  0.00    -0.476 A  
HETATM   26  C   UNL     1     -13.273  15.566  71.949  1.00  0.00    -0.553 A  
HETATM   27  C   UNL     1     -13.747  14.477  72.677  1.00  0.00    -0.543 A  
HETATM   28  C   UNL     1     -13.463  13.178  72.259  1.00  0.00    -0.665 A  
ENDBRANCH  21  23
ENDBRANCH  20  21
ENDBRANCH  19  20
ENDBRANCH  16  19
ENDBRANCH  14  15
ENDBRANCH  12  14
ENDBRANCH   9  10
ENDBRANCH   6   9
ENDBRANCH   3   5
TORSDOF 9
ENDMDL
MODEL       10
REMARK 921   NORMALIZED FREE ENERGY PREDICTED BY IDOCK:   -6.40 KCAL/MOL
REMARK 922        TOTAL FREE ENERGY PREDICTED BY IDOCK:  -10.61 KCAL/MOL
REMARK 923 INTER-LIGAND FREE ENERGY PREDICTED BY IDOCK:   -9.55 KCAL/MOL
REMARK 924 INTRA-LIGAND FREE ENERGY PREDICTED BY IDOCK:   -1.06 KCAL/MOL
REMARK 927      BINDING AFFINITY PREDICTED BY RF-SCORE:    0.00 PKD
ROOT
HETATM    1  O   UNL     1     -11.888  11.303  67.832  1.00  0.00    -0.597 OA 
HETATM    2  C   UNL     1     -11.291  10.198  68.339  1.00  0.00    -0.113 C  
HETATM    3  C   UNL     1     -11.192  10.183  69.861  1.00  0.00    -0.287 C  
HETATM    4  O   UNL     1     -10.848   9.311  67.628  1.00  0.00    -0.250 OA 
ENDROOT
BRANCH   3   5
HETATM    5  N   UNL     1     -11.767  11.374  70.476  1.00  0.00    -0.470 N  
HETATM    6  C   UNL     1     -12.739  11.296  71.451  1.00  0.00    -0.396 C  
HETATM    7  H   UNL     1     -11.441  12.293  70.175  1.00  0.00     0.000 HD 
HETATM    8  O   UNL     1     -13.209  10.228  71.832  1.00  0.00    -0.437 OA 
BRANCH   6   9
HETATM    9  C   UNL     1     -13.229  12.641  72.003  1.00  0.00    -0.427 C  
BRANCH   9  10
HETATM   10  N   UNL     1     -12.277  13.724  71.828  1.00  0.00    -0.175 N  
HETATM   11  H   UNL     1     -11.284  13.532  71.963  1.00  0.00     0.000 HD 
HETATM   12  C   UNL     1     -12.664  15.000  71.487  1.00  0.00    -0.340 C  
HETATM   13  O   UNL     1     -13.838  15.295  71.279  1.00  0.00    -0.482 OA 
BRANCH  12  14
HETATM   14  C   UNL     1     -11.522  16.020  71.390  1.00  0.00    -0.398 C  
BRANCH  14  15
HETATM   15  N   UNL     1     -11.501  16.737  70.119  1.00  0.00    -0.251 N  
HETATM   16  C   UNL     1     -10.498  16.517  69.196  1.00  0.00    -0.317 C  
HETATM   17  H   UNL     1     -12.239  17.410  69.909  1.00  0.00     0.000 HD 
HETATM   18  O   UNL     1      -9.513  15.830  69.453  1.00  0.00    -0.254 OA 
BRANCH  16  19
HETATM   19  C   UNL     1     -10.668  17.258  67.881  1.00  0.00    -0.351 C  
BRANCH  19  20
HETATM   20  S   UNL     1      -9.501  16.688  66.627  1.00  0.00    -0.268 SA 
BRANCH  20  21
HETATM   21  C   UNL     1     -10.609  16.337  65.308  1.00  0.00    -0.336 C  
HETATM   22  O   UNL     1     -11.124  17.241  64.655  1.00  0.00    -1.052 OA 
BRANCH  21  23
HETATM   23  C   UNL     1     -10.908  14.906  65.029  1.00  0.00    -0.439 A  
HETATM   24  C   UNL     1     -10.002  13.929  65.461  1.00  0.00    -0.275 A  
HETATM   25  C   UNL     1     -10.230  12.581  65.167  1.00  0.00    -0.299 A  
HETATM   26  C   UNL     1     -11.355  12.205  64.433  1.00  0.00    -0.407 A  
HETATM   27  C   UNL     1     -12.260  13.172  64.002  1.00  0.00    -0.482 A  
HETATM   28  C   UNL     1     -12.039  14.518  64.296  1.00  0.00    -0.448 A  
ENDBRANCH  21  23
ENDBRANCH  20  21
ENDBRANCH  19  20
ENDBRANCH  16  19
ENDBRANCH  14  15
ENDBRANCH  12  14
ENDBRANCH   9  10
ENDBRANCH   6   9
ENDBRANCH   3   5
TORSDOF 9
ENDMDL
MODEL       11
REMARK 921   NORMALIZED FREE ENERGY PREDICTED BY IDOCK:   -6.39 KCAL/MOL
REMARK 922        TOTAL FREE ENERGY PREDICTED BY IDOCK:  -10.60 KCAL/MOL
REMARK 923 INTER-LIGAND FREE ENERGY PREDICTED BY IDOCK:   -9.32 KCAL/MOL
REMARK 924 INTRA-LIGAND FREE ENERGY PREDICTED BY IDOCK:   -1.28 KCAL/MOL
REMARK 927      BINDING AFFINITY PREDICTED BY RF-SCORE:    0.00 PKD
ROOT
HETATM    1  O   UNL     1      -7.568  10.069  69.107  1.00  0.00    -0.081 OA 
HETATM    2  C   UNL     1      -8.511   9.815  70.046  1.00  0.00    -0.206 C  
HETATM    3  C   UNL     1      -9.939  10.095  69.589  1.00  0.00    -0.232 C  
HETATM    4  O   UNL     1      -8.228   9.425  71.167  1.00  0.00    -0.314 OA 
ENDROOT
BRANCH   3   5
HETATM    5  N   UNL     1     -10.007  10.584  68.216  1.00  0.00    -0.155 N  
HETATM    6  C   UNL     1     -11.139  11.188  67.711  1.00  0.00    -0.285 C  
HETATM    7  H   UNL     1      -9.193  10.475  67.611  1.00  0.00     0.000 HD 
HETATM    8  O   UNL     1     -12.168  11.315  68.367  1.00  0.00    -0.604 OA 
BRANCH   6   9
HETATM    9  C   UNL     1     -11.043  11.656  66.253  1.00  0.00    -0.290 C  
BRANCH   9  10
HETATM   10  N   UNL     1     -10.747  13.072  66.115  1.00  0.00    -0.271 N  
HETATM   11  H   UNL     1     -10.479  13.601  66.945  1.00  0.00     0.000 HD 
HETATM   12  C   UNL     1     -10.817  13.726  64.906  1.00  0.00    -0.391 C  
HETATM   13  O   UNL     1     -11.103  13.145  63.862  1.00  0.00    -0.388 OA 
BRANCH  12  14
HETATM   14  C   UNL     1     -10.512  15.229  64.964  1.00  0.00    -0.382 C  
BRANCH  14  15
HETATM   15  N   UNL     1     -10.440  15.746  66.327  1.00  0.00    -0.300 N  
HETATM   16  C   UNL     1     -10.529  17.101  66.578  1.00  0.00    -0.255 C  
HETATM   17  H   UNL     1     -10.323  15.097  67.106  1.00  0.00     0.000 HD 
HETATM   18  O   UNL     1     -10.527  17.934  65.676  1.00  0.00    -0.610 OA 
BRANCH  16  19
HETATM   19  C   UNL     1     -10.541  17.477  68.050  1.00  0.00    -0.384 C  
BRANCH  19  20
HETATM   20  S   UNL     1     -10.024  16.104  69.104  1.00  0.00    -0.262 SA 
BRANCH  20  21
HETATM   21  C   UNL     1     -11.563  15.284  69.324  1.00  0.00    -0.332 C  
HETATM   22  O   UNL     1     -12.050  14.600  68.428  1.00  0.00    -0.284 OA 
BRANCH  21  23
HETATM   23  C   UNL     1     -12.254  15.467  70.630  1.00  0.00    -0.445 A  
HETATM   24  C   UNL     1     -11.556  16.065  71.687  1.00  0.00    -0.538 A  
HETATM   25  C   UNL     1     -12.162  16.202  72.939  1.00  0.00    -0.640 A  
HETATM   26  C   UNL     1     -13.460  15.736  73.144  1.00  0.00    -0.652 A  
HETATM   27  C   UNL     1     -14.160  15.143  72.095  1.00  0.00    -0.654 A  
HETATM   28  C   UNL     1     -13.562  15.006  70.843  1.00  0.00    -0.363 A  
ENDBRANCH  21  23
ENDBRANCH  20  21
ENDBRANCH  19  20
ENDBRANCH  16  19
ENDBRANCH  14  15
ENDBRANCH  12  14
ENDBRANCH   9  10
ENDBRANCH   6   9
ENDBRANCH   3   5
TORSDOF 9
ENDMDL
MODEL       12
REMARK 921   NORMALIZED FREE ENERGY PREDICTED BY IDOCK:   -6.39 KCAL/MOL
REMARK 922        TOTAL FREE ENERGY PREDICTED BY IDOCK:  -10.59 KCAL/MOL
REMARK 923 INTER-LIGAND FREE ENERGY PREDICTED BY IDOCK:   -9.62 KCAL/MOL
REMARK 924 INTRA-LIGAND FREE ENERGY PREDICTED BY IDOCK:   -0.97 KCAL/MOL
REMARK 927      BINDING AFFINITY PREDICTED BY RF-SCORE:    0.00 PKD
ROOT
HETATM    1  O   UNL     1     -12.999  12.312  64.080  1.00  0.00    -0.740 OA 
HETATM    2  C   UNL     1     -12.748  13.129  65.131  1.00  0.00    -0.405 C  
HETATM    3  C   UNL     1     -11.739  12.571  66.128  1.00  0.00    -0.409 C  
HETATM    4  O   UNL     1     -13.311  14.202  65.272  1.00  0.00    -0.715 OA 
ENDROOT
BRANCH   3   5
HETATM    5  N   UNL     1     -11.236  11.255  65.748  1.00  0.00    -0.097 N  
HETATM    6  C   UNL     1     -10.152  10.678  66.376  1.00  0.00    -0.225 C  
HETATM    7  H   UNL     1     -11.700  10.747  64.995  1.00  0.00     0.000 HD 
HETATM    8  O   UNL     1      -9.520  11.248  67.260  1.00  0.00    -0.171 OA 
BRANCH   6   9
HETATM    9  C   UNL     1      -9.758   9.286  65.865  1.00  0.00    -0.285 C  
BRANCH   9  10
HETATM   10  N   UNL     1     -10.474   8.203  66.518  1.00  0.00    -0.414 N  
HETATM   11  H   UNL     1     -11.493   8.222  66.525  1.00  0.00     0.000 HD 
HETATM   12  C   UNL     1      -9.826   7.152  67.127  1.00  0.00    -0.181 C  
HETATM   13  O   UNL     1      -8.603   7.049  67.129  1.00  0.00    -0.119 OA 
BRANCH  12  14
HETATM   14  C   UNL     1     -10.748   6.127  67.801  1.00  0.00    -0.303 C  
BRANCH  14  15
HETATM   15  N   UNL     1     -11.599   6.713  68.833  1.00  0.00    -0.576 N  
HETATM   16  C   UNL     1     -11.444   6.369  70.160  1.00  0.00    -0.417 C  
HETATM   17  H   UNL     1     -12.318   7.387  68.568  1.00  0.00     0.000 HD 
HETATM   18  O   UNL     1     -10.696   5.462  70.518  1.00  0.00    -0.263 OA 
BRANCH  16  19
HETATM   19  C   UNL     1     -12.330   7.137  71.126  1.00  0.00    -0.364 C  
BRANCH  19  20
HETATM   20  S   UNL     1     -11.547   8.661  71.697  1.00  0.00    -0.336 SA 
BRANCH  20  21
HETATM   21  C   UNL     1     -12.955   9.707  71.819  1.00  0.00    -0.420 C  
HETATM   22  O   UNL     1     -14.024   9.284  72.250  1.00  0.00    -0.440 OA 
BRANCH  21  23
HETATM   23  C   UNL     1     -12.800  11.116  71.362  1.00  0.00    -0.544 A  
HETATM   24  C   UNL     1     -12.015  11.378  70.232  1.00  0.00    -0.460 A  
HETATM   25  C   UNL     1     -11.810  12.696  69.812  1.00  0.00    -0.379 A  
HETATM   26  C   UNL     1     -12.376  13.754  70.521  1.00  0.00    -0.429 A  
HETATM   27  C   UNL     1     -13.159  13.499  71.645  1.00  0.00    -0.459 A  
HETATM   28  C   UNL     1     -13.371  12.186  72.067  1.00  0.00    -0.470 A  
ENDBRANCH  21  23
ENDBRANCH  20  21
ENDBRANCH  19  20
ENDBRANCH  16  19
ENDBRANCH  14  15
ENDBRANCH  12  14
ENDBRANCH   9  10
ENDBRANCH   6   9
ENDBRANCH   3   5
TORSDOF 9
ENDMDL
MODEL       13
REMARK 921   NORMALIZED FREE ENERGY PREDICTED BY IDOCK:   -6.38 KCAL/MOL
REMARK 922        TOTAL FREE ENERGY PREDICTED BY IDOCK:  -10.58 KCAL/MOL
REMARK 923 INTER-LIGAND FREE ENERGY PREDICTED BY IDOCK:  -10.00 KCAL/MOL
REMARK 924 INTRA-LIGAND FREE ENERGY PREDICTED BY IDOCK:   -0.58 KCAL/MOL
REMARK 927      BINDING AFFINITY PREDICTED BY RF-SCORE:    0.00 PKD
ROOT
HETATM    1  O   UNL     1     -11.812   7.655  70.749  1.00  0.00    -0.279 OA 
HETATM    2  C   UNL     1     -12.077   8.717  71.547  1.00  0.00    -0.329 C  
HETATM    3  C   UNL     1     -11.428  10.019  71.090  1.00  0.00    -0.354 C  
HETATM    4  O   UNL     1     -12.754   8.622  72.557  1.00  0.00    -0.385 OA 
ENDROOT
BRANCH   3   5
HETATM    5  N   UNL     1     -10.642   9.861  69.871  1.00  0.00    -0.252 N  
HETATM    6  C   UNL     1     -11.053  10.386  68.664  1.00  0.00    -0.262 C  
HETATM    7  H   UNL     1      -9.762   9.346  69.913  1.00  0.00     0.000 HD 
HETATM    8  O   UNL     1     -12.118  10.980  68.530  1.00  0.00    -0.573 OA 
BRANCH   6   9
HETATM    9  C   UNL     1     -10.106  10.142  67.481  1.00  0.00    -0.201 C  
BRANCH   9  10
HETATM   10  N   UNL     1     -10.434  10.926  66.303  1.00  0.00    -0.256 N  
HETATM   11  H   UNL     1     -10.997  11.768  66.414  1.00  0.00     0.000 HD 
HETATM   12  C   UNL     1     -10.012  10.573  65.041  1.00  0.00    -0.322 C  
HETATM   13  O   UNL     1      -9.305   9.589  64.837  1.00  0.00    -0.246 OA 
BRANCH  12  14
HETATM   14  C   UNL     1     -10.492  11.498  63.914  1.00  0.00    -0.385 C  
BRANCH  14  15
HETATM   15  N   UNL     1     -10.869  12.827  64.387  1.00  0.00    -0.344 N  
HETATM   16  C   UNL     1     -12.185  13.133  64.668  1.00  0.00    -0.414 C  
HETATM   17  H   UNL     1     -10.149  13.539  64.511  1.00  0.00     0.000 HD 
HETATM   18  O   UNL     1     -13.106  12.365  64.403  1.00  0.00    -0.786 OA 
BRANCH  16  19
HETATM   19  C   UNL     1     -12.407  14.520  65.249  1.00  0.00    -0.300 C  
BRANCH  19  20
HETATM   20  S   UNL     1     -10.938  15.143  66.093  1.00  0.00    -0.309 SA 
BRANCH  20  21
HETATM   21  C   UNL     1     -10.898  16.788  65.475  1.00  0.00    -0.129 C  
HETATM   22  O   UNL     1     -11.156  17.030  64.299  1.00  0.00    -1.092 OA 
BRANCH  21  23
HETATM   23  C   UNL     1     -10.523  17.868  66.429  1.00  0.00    -0.318 A  
HETATM   24  C   UNL     1     -10.445  17.566  67.795  1.00  0.00    -0.381 A  
HETATM   25  C   UNL     1     -10.148  18.572  68.720  1.00  0.00    -0.394 A  
HETATM   26  C   UNL     1      -9.937  19.881  68.287  1.00  0.00    -0.552 A  
HETATM   27  C   UNL     1     -10.011  20.186  66.930  1.00  0.00    -0.600 A  
HETATM   28  C   UNL     1     -10.305  19.186  66.003  1.00  0.00    -0.538 A  
ENDBRANCH  21  23
ENDBRANCH  20  21
ENDBRANCH  19  20
ENDBRANCH  16  19
ENDBRANCH  14  15
ENDBRANCH  12  14
ENDBRANCH   9  10
ENDBRANCH   6   9
ENDBRANCH   3   5
TORSDOF 9
ENDMDL
MODEL       14
REMARK 921   NORMALIZED FREE ENERGY PREDICTED BY IDOCK:   -6.37 KCAL/MOL
REMARK 922        TOTAL FREE ENERGY PREDICTED BY IDOCK:  -10.57 KCAL/MOL
REMARK 923 INTER-LIGAND FREE ENERGY PREDICTED BY IDOCK:   -9.81 KCAL/MOL
REMARK 924 INTRA-LIGAND FREE ENERGY PREDICTED BY IDOCK:   -0.75 KCAL/MOL
REMARK 927      BINDING AFFINITY PREDICTED BY RF-SCORE:    0.00 PKD
ROOT
HETATM    1  O   UNL     1     -12.909  14.446  70.653  1.00  0.00    -0.343 OA 
HETATM    2  C   UNL     1     -13.657  14.200  71.755  1.00  0.00    -0.399 C  
HETATM    3  C   UNL     1     -13.614  12.751  72.228  1.00  0.00    -0.465 C  
HETATM    4  O   UNL     1     -14.327  15.064  72.296  1.00  0.00    -0.492 OA 
ENDROOT
BRANCH   3   5
HETATM    5  N   UNL     1     -12.766  11.908  71.392  1.00  0.00    -0.345 N  
HETATM    6  C   UNL     1     -12.795  10.532  71.474  1.00  0.00    -0.463 C  
HETATM    7  H   UNL     1     -12.131  12.351  70.726  1.00  0.00     0.000 HD 
HETATM    8  O   UNL     1     -13.502   9.934  72.279  1.00  0.00    -0.430 OA 
BRANCH   6   9
HETATM    9  C   UNL     1     -11.850   9.793  70.518  1.00  0.00    -0.240 C  
BRANCH   9  10
HETATM   10  N   UNL     1     -11.672  10.465  69.242  1.00  0.00    -0.470 N  
HETATM   11  H   UNL     1     -12.131  11.363  69.091  1.00  0.00     0.000 HD 
HETATM   12  C   UNL     1     -10.904   9.935  68.229  1.00  0.00    -0.230 C  
HETATM   13  O   UNL     1     -10.298   8.874  68.354  1.00  0.00    -0.195 OA 
BRANCH  12  14
HETATM   14  C   UNL     1     -10.869  10.766  66.940  1.00  0.00    -0.229 C  
BRANCH  14  15
HETATM   15  N   UNL     1     -10.921  12.204  67.185  1.00  0.00    -0.254 N  
HETATM   16  C   UNL     1     -11.843  13.002  66.537  1.00  0.00    -0.403 C  
HETATM   17  H   UNL     1     -10.267  12.626  67.845  1.00  0.00     0.000 HD 
HETATM   18  O   UNL     1     -12.556  12.574  65.632  1.00  0.00    -0.612 OA 
BRANCH  16  19
HETATM   19  C   UNL     1     -11.844  14.458  66.971  1.00  0.00    -0.412 C  
BRANCH  19  20
HETATM   20  S   UNL     1     -10.173  15.135  67.071  1.00  0.00    -0.267 SA 
BRANCH  20  21
HETATM   21  C   UNL     1     -10.357  16.564  66.064  1.00  0.00    -0.345 C  
HETATM   22  O   UNL     1     -10.607  16.468  64.866  1.00  0.00    -0.689 OA 
BRANCH  21  23
HETATM   23  C   UNL     1     -10.179  17.889  66.719  1.00  0.00    -0.360 A  
HETATM   24  C   UNL     1     -10.206  17.961  68.118  1.00  0.00    -0.386 A  
HETATM   25  C   UNL     1     -10.095  19.198  68.759  1.00  0.00    -0.445 A  
HETATM   26  C   UNL     1      -9.967  20.367  68.009  1.00  0.00    -0.381 A  
HETATM   27  C   UNL     1      -9.937  20.301  66.618  1.00  0.00    -0.561 A  
HETATM   28  C   UNL     1     -10.044  19.069  65.973  1.00  0.00    -0.401 A  
ENDBRANCH  21  23
ENDBRANCH  20  21
ENDBRANCH  19  20
ENDBRANCH  16  19
ENDBRANCH  14  15
ENDBRANCH  12  14
ENDBRANCH   9  10
ENDBRANCH   6   9
ENDBRANCH   3   5
TORSDOF 9
ENDMDL
MODEL       15
REMARK 921   NORMALIZED FREE ENERGY PREDICTED BY IDOCK:   -6.37 KCAL/MOL
REMARK 922        TOTAL FREE ENERGY PREDICTED BY IDOCK:  -10.56 KCAL/MOL
REMARK 923 INTER-LIGAND FREE ENERGY PREDICTED BY IDOCK:   -9.75 KCAL/MOL
REMARK 924 INTRA-LIGAND FREE ENERGY PREDICTED BY IDOCK:   -0.81 KCAL/MOL
REMARK 927      BINDING AFFINITY PREDICTED BY RF-SCORE:    0.00 PKD
ROOT
HETATM    1  O   UNL     1     -11.929  14.990  69.077  1.00  0.00    -0.305 OA 
HETATM    2  C   UNL     1     -12.586  14.766  70.240  1.00  0.00    -0.315 C  
HETATM    3  C   UNL     1     -12.411  13.357  70.797  1.00  0.00    -0.354 C  
HETATM    4  O   UNL     1     -13.279  15.617  70.772  1.00  0.00    -0.517 OA 
ENDROOT
BRANCH   3   5
HETATM    5  N   UNL     1     -11.560  12.521  69.957  1.00  0.00    -0.530 N  
HETATM    6  C   UNL     1     -11.845  11.192  69.723  1.00  0.00    -0.349 C  
HETATM    7  H   UNL     1     -10.728  12.931  69.531  1.00  0.00     0.000 HD 
HETATM    8  O   UNL     1     -12.803  10.622  70.235  1.00  0.00    -0.302 OA 
BRANCH   6   9
HETATM    9  C   UNL     1     -10.857  10.456  68.809  1.00  0.00    -0.232 C  
BRANCH   9  10
HETATM   10  N   UNL     1     -10.923  10.879  67.420  1.00  0.00    -0.278 N  
HETATM   11  H   UNL     1     -11.596  11.598  67.157  1.00  0.00     0.000 HD 
HETATM   12  C   UNL     1     -10.111  10.344  66.446  1.00  0.00    -0.228 C  
HETATM   13  O   UNL     1      -9.257   9.498  66.697  1.00  0.00    -0.143 OA 
BRANCH  12  14
HETATM   14  C   UNL     1     -10.355  10.883  65.030  1.00  0.00    -0.288 C  
BRANCH  14  15
HETATM   15  N   UNL     1     -10.603  12.322  65.001  1.00  0.00    -0.277 N  
HETATM   16  C   UNL     1     -11.847  12.821  64.671  1.00  0.00    -0.374 C  
HETATM   17  H   UNL     1      -9.846  12.967  65.228  1.00  0.00     0.000 HD 
HETATM   18  O   UNL     1     -12.751  12.101  64.254  1.00  0.00    -0.504 OA 
BRANCH  16  19
HETATM   19  C   UNL     1     -11.979  14.330  64.785  1.00  0.00    -0.440 C  
BRANCH  19  20
HETATM   20  S   UNL     1     -10.554  15.074  65.607  1.00  0.00    -0.374 SA 
BRANCH  20  21
HETATM   21  C   UNL     1     -10.860  16.775  65.281  1.00  0.00    -0.138 C  
HETATM   22  O   UNL     1     -11.373  17.135  64.225  1.00  0.00    -1.126 OA 
BRANCH  21  23
HETATM   23  C   UNL     1     -10.456  17.754  66.327  1.00  0.00    -0.307 A  
HETATM   24  C   UNL     1     -10.180  17.289  67.619  1.00  0.00    -0.333 A  
HETATM   25  C   UNL     1      -9.850  18.192  68.634  1.00  0.00    -0.389 A  
HETATM   26  C   UNL     1      -9.804  19.560  68.367  1.00  0.00    -0.521 A  
HETATM   27  C   UNL     1     -10.076  20.028  67.083  1.00  0.00    -0.587 A  
HETATM   28  C   UNL     1     -10.402  19.131  66.066  1.00  0.00    -0.538 A  
ENDBRANCH  21  23
ENDBRANCH  20  21
ENDBRANCH  19  20
ENDBRANCH  16  19
ENDBRANCH  14  15
ENDBRANCH  12  14
ENDBRANCH   9  10
ENDBRANCH   6   9
ENDBRANCH   3   5
TORSDOF 9
ENDMDL
MODEL       16
REMARK 921   NORMALIZED FREE ENERGY PREDICTED BY IDOCK:   -6.37 KCAL/MOL
REMARK 922        TOTAL FREE ENERGY PREDICTED BY IDOCK:  -10.56 KCAL/MOL
REMARK 923 INTER-LIGAND FREE ENERGY PREDICTED BY IDOCK:   -9.09 KCAL/MOL
REMARK 924 INTRA-LIGAND FREE ENERGY PREDICTED BY IDOCK:   -1.46 KCAL/MOL
REMARK 927      BINDING AFFINITY PREDICTED BY RF-SCORE:    0.00 PKD
ROOT
HETATM    1  O   UNL     1     -13.183  10.731  71.636  1.00  0.00    -0.413 OA 
HETATM    2  C   UNL     1     -13.234   9.487  72.170  1.00  0.00    -0.451 C  
HETATM    3  C   UNL     1     -11.988   8.646  71.916  1.00  0.00    -0.356 C  
HETATM    4  O   UNL     1     -14.210   9.076  72.775  1.00  0.00    -0.572 OA 
ENDROOT
BRANCH   3   5
HETATM    5  N   UNL     1     -10.976   9.356  71.140  1.00  0.00    -0.331 N  
HETATM    6  C   UNL     1     -10.479   8.854  69.956  1.00  0.00    -0.213 C  
HETATM    7  H   UNL     1     -10.626  10.251  71.484  1.00  0.00     0.000 HD 
HETATM    8  O   UNL     1     -10.822   7.766  69.504  1.00  0.00    -0.230 OA 
BRANCH   6   9
HETATM    9  C   UNL     1      -9.429   9.728  69.257  1.00  0.00    -0.194 C  
BRANCH   9  10
HETATM   10  N   UNL     1      -9.985  10.605  68.241  1.00  0.00    -0.154 N  
HETATM   11  H   UNL     1     -10.217  11.565  68.494  1.00  0.00     0.000 HD 
HETATM   12  C   UNL     1     -10.211  10.187  66.949  1.00  0.00    -0.236 C  
HETATM   13  O   UNL     1      -9.927   9.055  66.567  1.00  0.00    -0.246 OA 
BRANCH  12  14
HETATM   14  C   UNL     1     -10.845  11.239  66.029  1.00  0.00    -0.213 C  
BRANCH  14  15
HETATM   15  N   UNL     1     -10.943  12.557  66.650  1.00  0.00    -0.257 N  
HETATM   16  C   UNL     1     -11.980  13.413  66.337  1.00  0.00    -0.406 C  
HETATM   17  H   UNL     1     -10.235  12.849  67.324  1.00  0.00     0.000 HD 
HETATM   18  O   UNL     1     -12.776  13.173  65.432  1.00  0.00    -0.487 OA 
BRANCH  16  19
HETATM   19  C   UNL     1     -12.004  14.704  67.138  1.00  0.00    -0.283 C  
BRANCH  19  20
HETATM   20  S   UNL     1     -10.790  14.693  68.475  1.00  0.00    -0.260 SA 
BRANCH  20  21
HETATM   21  C   UNL     1     -11.664  13.759  69.681  1.00  0.00    -0.318 C  
HETATM   22  O   UNL     1     -11.807  12.545  69.561  1.00  0.00    -0.305 OA 
BRANCH  21  23
HETATM   23  C   UNL     1     -12.235  14.501  70.838  1.00  0.00    -0.409 A  
HETATM   24  C   UNL     1     -11.475  15.517  71.432  1.00  0.00    -0.478 A  
HETATM   25  C   UNL     1     -11.964  16.194  72.553  1.00  0.00    -0.660 A  
HETATM   26  C   UNL     1     -13.206  15.855  73.090  1.00  0.00    -0.692 A  
HETATM   27  C   UNL     1     -13.967  14.848  72.502  1.00  0.00    -0.540 A  
HETATM   28  C   UNL     1     -13.485  14.171  71.382  1.00  0.00    -0.388 A  
ENDBRANCH  21  23
ENDBRANCH  20  21
ENDBRANCH  19  20
ENDBRANCH  16  19
ENDBRANCH  14  15
ENDBRANCH  12  14
ENDBRANCH   9  10
ENDBRANCH   6   9
ENDBRANCH   3   5
TORSDOF 9
ENDMDL
MODEL       17
REMARK 921   NORMALIZED FREE ENERGY PREDICTED BY IDOCK:   -6.33 KCAL/MOL
REMARK 922        TOTAL FREE ENERGY PREDICTED BY IDOCK:  -10.50 KCAL/MOL
REMARK 923 INTER-LIGAND FREE ENERGY PREDICTED BY IDOCK:   -9.68 KCAL/MOL
REMARK 924 INTRA-LIGAND FREE ENERGY PREDICTED BY IDOCK:   -0.83 KCAL/MOL
REMARK 927      BINDING AFFINITY PREDICTED BY RF-SCORE:    0.00 PKD
ROOT
HETATM    1  O   UNL     1     -10.377   7.133  72.271  1.00  0.00    -0.195 OA 
HETATM    2  C   UNL     1     -11.426   6.282  72.171  1.00  0.00    -0.307 C  
HETATM    3  C   UNL     1     -12.641   6.869  71.461  1.00  0.00    -0.367 C  
HETATM    4  O   UNL     1     -11.400   5.156  72.639  1.00  0.00    -0.243 OA 
ENDROOT
BRANCH   3   5
HETATM    5  N   UNL     1     -12.430   8.245  71.024  1.00  0.00    -0.493 N  
HETATM    6  C   UNL     1     -13.145   9.298  71.556  1.00  0.00    -0.363 C  
HETATM    7  H   UNL     1     -11.733   8.434  70.303  1.00  0.00     0.000 HD 
HETATM    8  O   UNL     1     -14.026   9.141  72.394  1.00  0.00    -0.471 OA 
BRANCH   6   9
HETATM    9  C   UNL     1     -12.794  10.683  70.996  1.00  0.00    -0.402 C  
BRANCH   9  10
HETATM   10  N   UNL     1     -12.299  10.650  69.631  1.00  0.00    -0.531 N  
HETATM   11  H   UNL     1     -12.238   9.752  69.151  1.00  0.00     0.000 HD 
HETATM   12  C   UNL     1     -11.909  11.787  68.959  1.00  0.00    -0.317 C  
HETATM   13  O   UNL     1     -11.985  12.904  69.464  1.00  0.00    -0.312 OA 
BRANCH  12  14
HETATM   14  C   UNL     1     -11.373  11.550  67.541  1.00  0.00    -0.299 C  
BRANCH  14  15
HETATM   15  N   UNL     1     -10.998  12.785  66.858  1.00  0.00    -0.254 N  
HETATM   16  C   UNL     1     -11.694  13.222  65.749  1.00  0.00    -0.359 C  
HETATM   17  H   UNL     1     -10.210  13.332  67.205  1.00  0.00     0.000 HD 
HETATM   18  O   UNL     1     -12.555  12.534  65.205  1.00  0.00    -0.631 OA 
BRANCH  16  19
HETATM   19  C   UNL     1     -11.253  14.572  65.211  1.00  0.00    -0.352 C  
BRANCH  19  20
HETATM   20  S   UNL     1      -9.776  15.186  66.049  1.00  0.00    -0.347 SA 
BRANCH  20  21
HETATM   21  C   UNL     1     -10.517  16.197  67.282  1.00  0.00    -0.309 C  
HETATM   22  O   UNL     1     -11.303  15.727  68.100  1.00  0.00    -0.350 OA 
BRANCH  21  23
HETATM   23  C   UNL     1     -10.164  17.643  67.281  1.00  0.00    -0.343 A  
HETATM   24  C   UNL     1      -9.833  18.259  68.495  1.00  0.00    -0.400 A  
HETATM   25  C   UNL     1      -9.550  19.628  68.533  1.00  0.00    -0.467 A  
HETATM   26  C   UNL     1      -9.606  20.387  67.364  1.00  0.00    -0.584 A  
HETATM   27  C   UNL     1      -9.933  19.779  66.154  1.00  0.00    -0.573 A  
HETATM   28  C   UNL     1     -10.213  18.414  66.110  1.00  0.00    -0.408 A  
ENDBRANCH  21  23
ENDBRANCH  20  21
ENDBRANCH  19  20
ENDBRANCH  16  19
ENDBRANCH  14  15
ENDBRANCH  12  14
ENDBRANCH   9  10
ENDBRANCH   6   9
ENDBRANCH   3   5
TORSDOF 9
ENDMDL
MODEL       18
REMARK 921   NORMALIZED FREE ENERGY PREDICTED BY IDOCK:   -6.29 KCAL/MOL
REMARK 922        TOTAL FREE ENERGY PREDICTED BY IDOCK:  -10.45 KCAL/MOL
REMARK 923 INTER-LIGAND FREE ENERGY PREDICTED BY IDOCK:   -9.52 KCAL/MOL
REMARK 924 INTRA-LIGAND FREE ENERGY PREDICTED BY IDOCK:   -0.92 KCAL/MOL
REMARK 927      BINDING AFFINITY PREDICTED BY RF-SCORE:    0.00 PKD
ROOT
HETATM    1  O   UNL     1     -13.381  13.877  65.286  1.00  0.00    -0.732 OA 
HETATM    2  C   UNL     1     -12.434  13.815  64.320  1.00  0.00    -0.256 C  
HETATM    3  C   UNL     1     -11.227  12.957  64.683  1.00  0.00    -0.320 C  
HETATM    4  O   UNL     1     -12.535  14.422  63.267  1.00  0.00    -0.633 OA 
ENDROOT
BRANCH   3   5
HETATM    5  N   UNL     1     -11.333  12.365  66.012  1.00  0.00    -0.335 N  
HETATM    6  C   UNL     1     -10.815  11.120  66.301  1.00  0.00    -0.205 C  
HETATM    7  H   UNL     1     -11.805  12.888  66.750  1.00  0.00     0.000 HD 
HETATM    8  O   UNL     1     -10.272  10.418  65.454  1.00  0.00    -0.292 OA 
BRANCH   6   9
HETATM    9  C   UNL     1     -11.001  10.648  67.749  1.00  0.00    -0.306 C  
BRANCH   9  10
HETATM   10  N   UNL     1     -11.479  11.688  68.643  1.00  0.00    -0.261 N  
HETATM   11  H   UNL     1     -11.360  12.664  68.371  1.00  0.00     0.000 HD 
HETATM   12  C   UNL     1     -12.088  11.406  69.845  1.00  0.00    -0.330 C  
HETATM   13  O   UNL     1     -12.292  10.255  70.222  1.00  0.00    -0.259 OA 
BRANCH  12  14
HETATM   14  C   UNL     1     -12.486  12.635  70.674  1.00  0.00    -0.239 C  
BRANCH  14  15
HETATM   15  N   UNL     1     -11.684  13.816  70.369  1.00  0.00    -0.504 N  
HETATM   16  C   UNL     1     -12.167  15.085  70.616  1.00  0.00    -0.326 C  
HETATM   17  H   UNL     1     -10.753  13.701  69.967  1.00  0.00     0.000 HD 
HETATM   18  O   UNL     1     -13.328  15.286  70.963  1.00  0.00    -0.460 OA 
BRANCH  16  19
HETATM   19  C   UNL     1     -11.180  16.207  70.343  1.00  0.00    -0.381 C  
BRANCH  19  20
HETATM   20  S   UNL     1      -9.854  15.686  69.233  1.00  0.00    -0.284 SA 
BRANCH  20  21
HETATM   21  C   UNL     1     -10.483  16.273  67.700  1.00  0.00    -0.295 C  
HETATM   22  O   UNL     1     -11.040  15.515  66.911  1.00  0.00    -0.306 OA 
BRANCH  21  23
HETATM   23  C   UNL     1     -10.297  17.718  67.393  1.00  0.00    -0.370 A  
HETATM   24  C   UNL     1      -9.938  18.589  68.431  1.00  0.00    -0.414 A  
HETATM   25  C   UNL     1      -9.809  19.959  68.183  1.00  0.00    -0.524 A  
HETATM   26  C   UNL     1     -10.046  20.465  66.906  1.00  0.00    -0.503 A  
HETATM   27  C   UNL     1     -10.401  19.604  65.870  1.00  0.00    -0.584 A  
HETATM   28  C   UNL     1     -10.528  18.236  66.110  1.00  0.00    -0.403 A  
ENDBRANCH  21  23
ENDBRANCH  20  21
ENDBRANCH  19  20
ENDBRANCH  16  19
ENDBRANCH  14  15
ENDBRANCH  12  14
ENDBRANCH   9  10
ENDBRANCH   6   9
ENDBRANCH   3   5
TORSDOF 9
ENDMDL
MODEL       19
REMARK 921   NORMALIZED FREE ENERGY PREDICTED BY IDOCK:   -6.29 KCAL/MOL
REMARK 922        TOTAL FREE ENERGY PREDICTED BY IDOCK:  -10.44 KCAL/MOL
REMARK 923 INTER-LIGAND FREE ENERGY PREDICTED BY IDOCK:   -9.40 KCAL/MOL
REMARK 924 INTRA-LIGAND FREE ENERGY PREDICTED BY IDOCK:   -1.04 KCAL/MOL
REMARK 927      BINDING AFFINITY PREDICTED BY RF-SCORE:    0.00 PKD
ROOT
HETATM    1  O   UNL     1     -11.745  11.206  67.465  1.00  0.00    -0.574 OA 
HETATM    2  C   UNL     1     -10.894  10.222  67.843  1.00  0.00    -0.284 C  
HETATM    3  C   UNL     1     -10.061   9.645  66.703  1.00  0.00    -0.239 C  
HETATM    4  O   UNL     1     -10.830   9.820  68.993  1.00  0.00    -0.219 OA 
ENDROOT
BRANCH   3   5
HETATM    5  N   UNL     1     -10.348  10.275  65.419  1.00  0.00    -0.232 N  
HETATM    6  C   UNL     1      -9.353  10.566  64.509  1.00  0.00    -0.253 C  
HETATM    7  H   UNL     1     -11.314  10.507  65.186  1.00  0.00     0.000 HD 
HETATM    8  O   UNL     1      -8.167  10.354  64.738  1.00  0.00    -0.163 OA 
BRANCH   6   9
HETATM    9  C   UNL     1      -9.823  11.217  63.202  1.00  0.00    -0.372 C  
BRANCH   9  10
HETATM   10  N   UNL     1     -10.426  12.526  63.388  1.00  0.00    -0.457 N  
HETATM   11  H   UNL     1      -9.820  13.346  63.414  1.00  0.00     0.000 HD 
HETATM   12  C   UNL     1     -11.784  12.700  63.529  1.00  0.00    -0.531 C  
HETATM   13  O   UNL     1     -12.574  11.761  63.476  1.00  0.00    -0.523 OA 
BRANCH  12  14
HETATM   14  C   UNL     1     -12.231  14.150  63.760  1.00  0.00    -0.139 C  
BRANCH  14  15
HETATM   15  N   UNL     1     -11.345  14.885  64.658  1.00  0.00    -0.566 N  
HETATM   16  C   UNL     1     -11.514  14.826  66.027  1.00  0.00    -0.316 C  
HETATM   17  H   UNL     1     -10.590  15.451  64.268  1.00  0.00     0.000 HD 
HETATM   18  O   UNL     1     -12.485  14.280  66.543  1.00  0.00    -0.428 OA 
BRANCH  16  19
HETATM   19  C   UNL     1     -10.454  15.559  66.832  1.00  0.00    -0.301 C  
BRANCH  19  20
HETATM   20  S   UNL     1     -11.115  16.223  68.376  1.00  0.00    -0.343 SA 
BRANCH  20  21
HETATM   21  C   UNL     1     -10.933  14.820  69.419  1.00  0.00    -0.265 C  
HETATM   22  O   UNL     1     -10.214  13.878  69.096  1.00  0.00    -0.117 OA 
BRANCH  21  23
HETATM   23  C   UNL     1     -11.698  14.814  70.696  1.00  0.00    -0.353 A  
HETATM   24  C   UNL     1     -12.563  13.745  70.962  1.00  0.00    -0.446 A  
HETATM   25  C   UNL     1     -13.334  13.739  72.128  1.00  0.00    -0.569 A  
HETATM   26  C   UNL     1     -13.253  14.803  73.026  1.00  0.00    -0.592 A  
HETATM   27  C   UNL     1     -12.393  15.868  72.768  1.00  0.00    -0.580 A  
HETATM   28  C   UNL     1     -11.619  15.877  71.608  1.00  0.00    -0.541 A  
ENDBRANCH  21  23
ENDBRANCH  20  21
ENDBRANCH  19  20
ENDBRANCH  16  19
ENDBRANCH  14  15
ENDBRANCH  12  14
ENDBRANCH   9  10
ENDBRANCH   6   9
ENDBRANCH   3   5
TORSDOF 9
ENDMDL
MODEL       20
REMARK 921   NORMALIZED FREE ENERGY PREDICTED BY IDOCK:   -6.29 KCAL/MOL
REMARK 922        TOTAL FREE ENERGY PREDICTED BY IDOCK:  -10.44 KCAL/MOL
REMARK 923 INTER-LIGAND FREE ENERGY PREDICTED BY IDOCK:   -9.80 KCAL/MOL
REMARK 924 INTRA-LIGAND FREE ENERGY PREDICTED BY IDOCK:   -0.64 KCAL/MOL
REMARK 927      BINDING AFFINITY PREDICTED BY RF-SCORE:    0.00 PKD
ROOT
HETATM    1  O   UNL     1     -13.165  10.585  71.643  1.00  0.00    -0.401 OA 
HETATM    2  C   UNL     1     -13.445   9.312  72.011  1.00  0.00    -0.451 C  
HETATM    3  C   UNL     1     -12.518   8.267  71.399  1.00  0.00    -0.292 C  
HETATM    4  O   UNL     1     -14.379   9.035  72.745  1.00  0.00    -0.596 OA 
ENDROOT
BRANCH   3   5
HETATM    5  N   UNL     1     -11.502   8.852  70.530  1.00  0.00    -0.365 N  
HETATM    6  C   UNL     1     -10.218   9.095  70.969  1.00  0.00    -0.302 C  
HETATM    7  H   UNL     1     -11.749   9.088  69.569  1.00  0.00     0.000 HD 
HETATM    8  O   UNL     1      -9.862   8.876  72.123  1.00  0.00    -0.312 OA 
BRANCH   6   9
HETATM    9  C   UNL     1      -9.268   9.703  69.929  1.00  0.00    -0.229 C  
BRANCH   9  10
HETATM   10  N   UNL     1      -9.861   9.838  68.609  1.00  0.00    -0.154 N  
HETATM   11  H   UNL     1     -10.205   9.002  68.137  1.00  0.00     0.000 HD 
HETATM   12  C   UNL     1      -9.976  11.053  67.973  1.00  0.00    -0.173 C  
HETATM   13  O   UNL     1      -9.612  12.104  68.495  1.00  0.00    -0.198 OA 
BRANCH  12  14
HETATM   14  C   UNL     1     -10.589  10.993  66.567  1.00  0.00    -0.254 C  
BRANCH  14  15
HETATM   15  N   UNL     1     -10.472  12.252  65.837  1.00  0.00    -0.249 N  
HETATM   16  C   UNL     1     -11.573  12.829  65.238  1.00  0.00    -0.344 C  
HETATM   17  H   UNL     1      -9.564  12.712  65.770  1.00  0.00     0.000 HD 
HETATM   18  O   UNL     1     -12.655  12.252  65.165  1.00  0.00    -0.585 OA 
BRANCH  16  19
HETATM   19  C   UNL     1     -11.317  14.187  64.606  1.00  0.00    -0.371 C  
BRANCH  19  20
HETATM   20  S   UNL     1     -10.085  15.138  65.522  1.00  0.00    -0.369 SA 
BRANCH  20  21
HETATM   21  C   UNL     1     -10.672  16.769  65.232  1.00  0.00    -0.169 C  
HETATM   22  O   UNL     1     -11.287  17.049  64.206  1.00  0.00    -1.191 OA 
BRANCH  21  23
HETATM   23  C   UNL     1     -10.380  17.795  66.270  1.00  0.00    -0.358 A  
HETATM   24  C   UNL     1     -10.199  17.383  67.597  1.00  0.00    -0.342 A  
HETATM   25  C   UNL     1      -9.976  18.329  68.601  1.00  0.00    -0.410 A  
HETATM   26  C   UNL     1      -9.942  19.688  68.289  1.00  0.00    -0.543 A  
HETATM   27  C   UNL     1     -10.119  20.103  66.971  1.00  0.00    -0.599 A  
HETATM   28  C   UNL     1     -10.339  19.163  65.964  1.00  0.00    -0.538 A  
ENDBRANCH  21  23
ENDBRANCH  20  21
ENDBRANCH  19  20
ENDBRANCH  16  19
ENDBRANCH  14  15
ENDBRANCH  12  14
ENDBRANCH   9  10
ENDBRANCH   6   9
ENDBRANCH   3   5
TORSDOF 9
ENDMDL
MODEL       21
REMARK 921   NORMALIZED FREE ENERGY PREDICTED BY IDOCK:   -6.26 KCAL/MOL
REMARK 922        TOTAL FREE ENERGY PREDICTED BY IDOCK:  -10.39 KCAL/MOL
REMARK 923 INTER-LIGAND FREE ENERGY PREDICTED BY IDOCK:   -9.15 KCAL/MOL
REMARK 924 INTRA-LIGAND FREE ENERGY PREDICTED BY IDOCK:   -1.24 KCAL/MOL
REMARK 927      BINDING AFFINITY PREDICTED BY RF-SCORE:    0.00 PKD
ROOT
HETATM    1  O   UNL     1     -12.410   6.689  70.753  1.00  0.00    -0.352 OA 
HETATM    2  C   UNL     1     -11.231   6.596  71.413  1.00  0.00    -0.274 C  
HETATM    3  C   UNL     1     -10.907   7.802  72.288  1.00  0.00    -0.283 C  
HETATM    4  O   UNL     1     -10.486   5.638  71.287  1.00  0.00    -0.219 OA 
ENDROOT
BRANCH   3   5
HETATM    5  N   UNL     1     -11.943   8.828  72.241  1.00  0.00    -0.364 N  
HETATM    6  C   UNL     1     -11.839   9.936  71.427  1.00  0.00    -0.394 C  
HETATM    7  H   UNL     1     -12.771   8.723  72.829  1.00  0.00     0.000 HD 
HETATM    8  O   UNL     1     -10.855  10.149  70.725  1.00  0.00    -0.307 OA 
BRANCH   6   9
HETATM    9  C   UNL     1     -13.020  10.913  71.487  1.00  0.00    -0.451 C  
BRANCH   9  10
HETATM   10  N   UNL     1     -12.700  12.242  70.995  1.00  0.00    -0.293 N  
HETATM   11  H   UNL     1     -12.054  12.334  70.211  1.00  0.00     0.000 HD 
HETATM   12  C   UNL     1     -13.236  13.383  71.548  1.00  0.00    -0.312 C  
HETATM   13  O   UNL     1     -14.044  13.346  72.473  1.00  0.00    -0.726 OA 
BRANCH  12  14
HETATM   14  C   UNL     1     -12.748  14.697  70.924  1.00  0.00    -0.348 C  
BRANCH  14  15
HETATM   15  N   UNL     1     -12.358  14.556  69.524  1.00  0.00    -0.520 N  
HETATM   16  C   UNL     1     -11.436  15.410  68.954  1.00  0.00    -0.342 C  
HETATM   17  H   UNL     1     -12.773  13.814  68.959  1.00  0.00     0.000 HD 
HETATM   18  O   UNL     1     -11.013  16.402  69.543  1.00  0.00    -0.309 OA 
BRANCH  16  19
HETATM   19  C   UNL     1     -11.055  15.074  67.522  1.00  0.00    -0.317 C  
BRANCH  19  20
HETATM   20  S   UNL     1     -12.369  14.179  66.665  1.00  0.00    -0.203 SA 
BRANCH  20  21
HETATM   21  C   UNL     1     -11.810  12.526  66.880  1.00  0.00    -0.334 C  
HETATM   22  O   UNL     1     -11.954  11.943  67.950  1.00  0.00    -0.556 OA 
BRANCH  21  23
HETATM   23  C   UNL     1     -11.143  11.875  65.719  1.00  0.00    -0.367 A  
HETATM   24  C   UNL     1     -10.106  10.964  65.959  1.00  0.00    -0.303 A  
HETATM   25  C   UNL     1      -9.426  10.377  64.888  1.00  0.00    -0.320 A  
HETATM   26  C   UNL     1      -9.770  10.703  63.577  1.00  0.00    -0.389 A  
HETATM   27  C   UNL     1     -10.802  11.606  63.332  1.00  0.00    -0.453 A  
HETATM   28  C   UNL     1     -11.486  12.193  64.397  1.00  0.00    -0.417 A  
ENDBRANCH  21  23
ENDBRANCH  20  21
ENDBRANCH  19  20
ENDBRANCH  16  19
ENDBRANCH  14  15
ENDBRANCH  12  14
ENDBRANCH   9  10
ENDBRANCH   6   9
ENDBRANCH   3   5
TORSDOF 9
ENDMDL
MODEL       22
REMARK 921   NORMALIZED FREE ENERGY PREDICTED BY IDOCK:   -6.24 KCAL/MOL
REMARK 922        TOTAL FREE ENERGY PREDICTED BY IDOCK:  -10.37 KCAL/MOL
REMARK 923 INTER-LIGAND FREE ENERGY PREDICTED BY IDOCK:   -9.71 KCAL/MOL
REMARK 924 INTRA-LIGAND FREE ENERGY PREDICTED BY IDOCK:   -0.67 KCAL/MOL
REMARK 927      BINDING AFFINITY PREDICTED BY RF-SCORE:    0.00 PKD
ROOT
HETATM    1  O   UNL     1     -12.408  13.979  71.342  1.00  0.00    -0.350 OA 
HETATM    2  C   UNL     1     -13.287  13.073  71.832  1.00  0.00    -0.446 C  
HETATM    3  C   UNL     1     -13.002  11.635  71.412  1.00  0.00    -0.324 C  
HETATM    4  O   UNL     1     -14.239  13.394  72.523  1.00  0.00    -0.721 OA 
ENDROOT
BRANCH   3   5
HETATM    5  N   UNL     1     -11.825  11.519  70.558  1.00  0.00    -0.468 N  
HETATM    6  C   UNL     1     -11.217  10.305  70.312  1.00  0.00    -0.323 C  
HETATM    7  H   UNL     1     -11.438  12.361  70.130  1.00  0.00     0.000 HD 
HETATM    8  O   UNL     1     -11.601   9.259  70.825  1.00  0.00    -0.273 OA 
BRANCH   6   9
HETATM    9  C   UNL     1      -9.997  10.354  69.384  1.00  0.00    -0.218 C  
BRANCH   9  10
HETATM   10  N   UNL     1     -10.315  10.759  68.025  1.00  0.00    -0.175 N  
HETATM   11  H   UNL     1     -10.964  11.532  67.882  1.00  0.00     0.000 HD 
HETATM   12  C   UNL     1      -9.773  10.136  66.923  1.00  0.00    -0.187 C  
HETATM   13  O   UNL     1      -8.962   9.219  67.021  1.00  0.00    -0.125 OA 
BRANCH  12  14
HETATM   14  C   UNL     1     -10.261  10.672  65.571  1.00  0.00    -0.262 C  
BRANCH  14  15
HETATM   15  N   UNL     1     -10.685  12.068  65.628  1.00  0.00    -0.263 N  
HETATM   16  C   UNL     1     -10.968  12.772  64.475  1.00  0.00    -0.341 C  
HETATM   17  H   UNL     1     -10.774  12.530  66.534  1.00  0.00     0.000 HD 
HETATM   18  O   UNL     1     -10.743  12.314  63.357  1.00  0.00    -0.446 OA 
BRANCH  16  19
HETATM   19  C   UNL     1     -11.495  14.179  64.700  1.00  0.00    -0.387 C  
BRANCH  19  20
HETATM   20  S   UNL     1     -10.572  15.050  65.985  1.00  0.00    -0.338 SA 
BRANCH  20  21
HETATM   21  C   UNL     1     -10.786  16.711  65.449  1.00  0.00    -0.173 C  
HETATM   22  O   UNL     1     -11.177  16.966  64.313  1.00  0.00    -1.204 OA 
BRANCH  21  23
HETATM   23  C   UNL     1     -10.459  17.790  66.422  1.00  0.00    -0.297 A  
HETATM   24  C   UNL     1     -10.122  17.437  67.735  1.00  0.00    -0.323 A  
HETATM   25  C   UNL     1      -9.862  18.431  68.683  1.00  0.00    -0.403 A  
HETATM   26  C   UNL     1      -9.945  19.777  68.328  1.00  0.00    -0.557 A  
HETATM   27  C   UNL     1     -10.277  20.133  67.023  1.00  0.00    -0.558 A  
HETATM   28  C   UNL     1     -10.535  19.146  66.072  1.00  0.00    -0.546 A  
ENDBRANCH  21  23
ENDBRANCH  20  21
ENDBRANCH  19  20
ENDBRANCH  16  19
ENDBRANCH  14  15
ENDBRANCH  12  14
ENDBRANCH   9  10
ENDBRANCH   6   9
ENDBRANCH   3   5
TORSDOF 9
ENDMDL
MODEL       23
REMARK 921   NORMALIZED FREE ENERGY PREDICTED BY IDOCK:   -6.23 KCAL/MOL
REMARK 922        TOTAL FREE ENERGY PREDICTED BY IDOCK:  -10.35 KCAL/MOL
REMARK 923 INTER-LIGAND FREE ENERGY PREDICTED BY IDOCK:   -9.36 KCAL/MOL
REMARK 924 INTRA-LIGAND FREE ENERGY PREDICTED BY IDOCK:   -0.99 KCAL/MOL
REMARK 927      BINDING AFFINITY PREDICTED BY RF-SCORE:    0.00 PKD
ROOT
HETATM    1  O   UNL     1     -11.905  16.487  72.557  1.00  0.00    -0.534 OA 
HETATM    2  C   UNL     1     -13.000  15.705  72.706  1.00  0.00    -0.480 C  
HETATM    3  C   UNL     1     -13.688  15.336  71.395  1.00  0.00    -0.518 C  
HETATM    4  O   UNL     1     -13.409  15.355  73.801  1.00  0.00    -0.344 OA 
ENDROOT
BRANCH   3   5
HETATM    5  N   UNL     1     -13.022  15.905  70.229  1.00  0.00    -0.693 N  
HETATM    6  C   UNL     1     -12.001  15.246  69.576  1.00  0.00    -0.330 C  
HETATM    7  H   UNL     1     -13.320  16.818  69.885  1.00  0.00     0.000 HD 
HETATM    8  O   UNL     1     -11.563  14.166  69.958  1.00  0.00    -0.269 OA 
BRANCH   6   9
HETATM    9  C   UNL     1     -11.415  15.975  68.360  1.00  0.00    -0.331 C  
BRANCH   9  10
HETATM   10  N   UNL     1     -11.376  15.161  67.158  1.00  0.00    -0.323 N  
HETATM   11  H   UNL     1     -11.971  14.334  67.104  1.00  0.00     0.000 HD 
HETATM   12  C   UNL     1     -10.566  15.465  66.087  1.00  0.00    -0.316 C  
HETATM   13  O   UNL     1      -9.848  16.461  66.070  1.00  0.00    -0.307 OA 
BRANCH  12  14
HETATM   14  C   UNL     1     -10.627  14.465  64.924  1.00  0.00    -0.434 C  
BRANCH  14  15
HETATM   15  N   UNL     1      -9.922  13.218  65.204  1.00  0.00    -0.518 N  
HETATM   16  C   UNL     1     -10.609  12.088  65.600  1.00  0.00    -0.265 C  
HETATM   17  H   UNL     1      -8.907  13.181  65.105  1.00  0.00     0.000 HD 
HETATM   18  O   UNL     1     -11.806  12.112  65.871  1.00  0.00    -0.504 OA 
BRANCH  16  19
HETATM   19  C   UNL     1      -9.752  10.842  65.754  1.00  0.00    -0.224 C  
BRANCH  19  20
HETATM   20  S   UNL     1     -10.432   9.700  66.976  1.00  0.00    -0.205 SA 
BRANCH  20  21
HETATM   21  C   UNL     1      -9.992  10.534  68.459  1.00  0.00    -0.170 C  
HETATM   22  O   UNL     1      -9.015  11.276  68.504  1.00  0.00    -0.161 OA 
BRANCH  21  23
HETATM   23  C   UNL     1     -10.841  10.289  69.658  1.00  0.00    -0.311 A  
HETATM   24  C   UNL     1     -10.365   9.434  70.660  1.00  0.00    -0.349 A  
HETATM   25  C   UNL     1     -11.163   9.144  71.771  1.00  0.00    -0.451 A  
HETATM   26  C   UNL     1     -12.438   9.697  71.881  1.00  0.00    -0.459 A  
HETATM   27  C   UNL     1     -12.915  10.550  70.889  1.00  0.00    -0.455 A  
HETATM   28  C   UNL     1     -12.123  10.845  69.780  1.00  0.00    -0.409 A  
ENDBRANCH  21  23
ENDBRANCH  20  21
ENDBRANCH  19  20
ENDBRANCH  16  19
ENDBRANCH  14  15
ENDBRANCH  12  14
ENDBRANCH   9  10
ENDBRANCH   6   9
ENDBRANCH   3   5
TORSDOF 9
ENDMDL
MODEL       24
REMARK 921   NORMALIZED FREE ENERGY PREDICTED BY IDOCK:   -6.23 KCAL/MOL
REMARK 922        TOTAL FREE ENERGY PREDICTED BY IDOCK:  -10.35 KCAL/MOL
REMARK 923 INTER-LIGAND FREE ENERGY PREDICTED BY IDOCK:   -9.48 KCAL/MOL
REMARK 924 INTRA-LIGAND FREE ENERGY PREDICTED BY IDOCK:   -0.87 KCAL/MOL
REMARK 927      BINDING AFFINITY PREDICTED BY RF-SCORE:    0.00 PKD
ROOT
HETATM    1  O   UNL     1     -10.939   8.200  67.274  1.00  0.00    -0.154 OA 
HETATM    2  C   UNL     1     -10.279   7.042  67.035  1.00  0.00    -0.260 C  
HETATM    3  C   UNL     1     -10.570   5.936  68.045  1.00  0.00    -0.252 C  
HETATM    4  O   UNL     1      -9.497   6.915  66.107  1.00  0.00    -0.118 OA 
ENDROOT
BRANCH   3   5
HETATM    5  N   UNL     1     -11.514   6.349  69.078  1.00  0.00    -0.591 N  
HETATM    6  C   UNL     1     -11.204   6.282  70.420  1.00  0.00    -0.373 C  
HETATM    7  H   UNL     1     -12.431   6.699  68.799  1.00  0.00     0.000 HD 
HETATM    8  O   UNL     1     -10.138   5.833  70.829  1.00  0.00    -0.184 OA 
BRANCH   6   9
HETATM    9  C   UNL     1     -12.302   6.765  71.376  1.00  0.00    -0.353 C  
BRANCH   9  10
HETATM   10  N   UNL     1     -12.838   8.071  71.034  1.00  0.00    -0.517 N  
HETATM   11  H   UNL     1     -13.705   8.121  70.499  1.00  0.00     0.000 HD 
HETATM   12  C   UNL     1     -12.218   9.243  71.404  1.00  0.00    -0.349 C  
HETATM   13  O   UNL     1     -11.190   9.258  72.075  1.00  0.00    -0.343 OA 
BRANCH  12  14
HETATM   14  C   UNL     1     -12.909  10.523  70.914  1.00  0.00    -0.394 C  
BRANCH  14  15
HETATM   15  N   UNL     1     -11.967  11.581  70.558  1.00  0.00    -0.420 N  
HETATM   16  C   UNL     1     -11.736  11.911  69.238  1.00  0.00    -0.328 C  
HETATM   17  H   UNL     1     -11.472  12.083  71.296  1.00  0.00     0.000 HD 
HETATM   18  O   UNL     1     -12.192  11.249  68.309  1.00  0.00    -0.611 OA 
BRANCH  16  19
HETATM   19  C   UNL     1     -10.810  13.098  69.030  1.00  0.00    -0.161 C  
BRANCH  19  20
HETATM   20  S   UNL     1     -11.661  14.494  68.264  1.00  0.00    -0.338 SA 
BRANCH  20  21
HETATM   21  C   UNL     1     -11.366  15.738  69.470  1.00  0.00    -0.328 C  
HETATM   22  O   UNL     1     -10.568  16.648  69.261  1.00  0.00    -0.308 OA 
BRANCH  21  23
HETATM   23  C   UNL     1     -12.108  15.632  70.757  1.00  0.00    -0.454 A  
HETATM   24  C   UNL     1     -11.583  16.258  71.894  1.00  0.00    -0.430 A  
HETATM   25  C   UNL     1     -12.230  16.131  73.127  1.00  0.00    -0.643 A  
HETATM   26  C   UNL     1     -13.395  15.372  73.231  1.00  0.00    -0.559 A  
HETATM   27  C   UNL     1     -13.923  14.749  72.103  1.00  0.00    -0.590 A  
HETATM   28  C   UNL     1     -13.284  14.875  70.870  1.00  0.00    -0.420 A  
ENDBRANCH  21  23
ENDBRANCH  20  21
ENDBRANCH  19  20
ENDBRANCH  16  19
ENDBRANCH  14  15
ENDBRANCH  12  14
ENDBRANCH   9  10
ENDBRANCH   6   9
ENDBRANCH   3   5
TORSDOF 9
ENDMDL
MODEL       25
REMARK 921   NORMALIZED FREE ENERGY PREDICTED BY IDOCK:   -6.21 KCAL/MOL
REMARK 922        TOTAL FREE ENERGY PREDICTED BY IDOCK:  -10.32 KCAL/MOL
REMARK 923 INTER-LIGAND FREE ENERGY PREDICTED BY IDOCK:   -9.53 KCAL/MOL
REMARK 924 INTRA-LIGAND FREE ENERGY PREDICTED BY IDOCK:   -0.79 KCAL/MOL
REMARK 927      BINDING AFFINITY PREDICTED BY RF-SCORE:    0.00 PKD
ROOT
HETATM    1  O   UNL     1     -10.699  19.646  66.072  1.00  0.00    -0.479 OA 
HETATM    2  C   UNL     1      -9.865  19.307  67.083  1.00  0.00    -0.339 C  
HETATM    3  C   UNL     1      -9.660  17.805  67.248  1.00  0.00    -0.272 C  
HETATM    4  O   UNL     1      -9.351  20.140  67.812  1.00  0.00    -0.350 OA 
ENDROOT
BRANCH   3   5
HETATM    5  N   UNL     1     -10.410  17.022  66.272  1.00  0.00    -0.321 N  
HETATM    6  C   UNL     1      -9.975  15.790  65.834  1.00  0.00    -0.352 C  
HETATM    7  H   UNL     1     -11.284  17.399  65.902  1.00  0.00     0.000 HD 
HETATM    8  O   UNL     1      -8.915  15.294  66.203  1.00  0.00    -0.301 OA 
BRANCH   6   9
HETATM    9  C   UNL     1     -10.885  15.091  64.815  1.00  0.00    -0.355 C  
BRANCH   9  10
HETATM   10  N   UNL     1     -10.402  13.784  64.404  1.00  0.00    -0.664 N  
HETATM   11  H   UNL     1      -9.443  13.522  64.629  1.00  0.00     0.000 HD 
HETATM   12  C   UNL     1     -11.193  12.887  63.722  1.00  0.00    -0.402 C  
HETATM   13  O   UNL     1     -12.366  13.124  63.445  1.00  0.00    -0.705 OA 
BRANCH  12  14
HETATM   14  C   UNL     1     -10.496  11.576  63.333  1.00  0.00    -0.406 C  
BRANCH  14  15
HETATM   15  N   UNL     1     -10.594  10.548  64.365  1.00  0.00    -0.269 N  
HETATM   16  C   UNL     1      -9.739  10.547  65.449  1.00  0.00    -0.257 C  
HETATM   17  H   UNL     1     -11.305   9.820  64.285  1.00  0.00     0.000 HD 
HETATM   18  O   UNL     1      -8.779  11.309  65.525  1.00  0.00    -0.148 OA 
BRANCH  16  19
HETATM   19  C   UNL     1     -10.030   9.479  66.489  1.00  0.00    -0.261 C  
BRANCH  19  20
HETATM   20  S   UNL     1      -9.966  10.136  68.170  1.00  0.00    -0.153 SA 
BRANCH  20  21
HETATM   21  C   UNL     1     -11.362  11.203  68.140  1.00  0.00    -0.309 C  
HETATM   22  O   UNL     1     -11.884  11.535  67.079  1.00  0.00    -0.568 OA 
BRANCH  21  23
HETATM   23  C   UNL     1     -11.871  11.699  69.448  1.00  0.00    -0.408 A  
HETATM   24  C   UNL     1     -12.384  10.776  70.369  1.00  0.00    -0.438 A  
HETATM   25  C   UNL     1     -12.918  11.219  71.583  1.00  0.00    -0.537 A  
HETATM   26  C   UNL     1     -12.951  12.581  71.878  1.00  0.00    -0.406 A  
HETATM   27  C   UNL     1     -12.440  13.503  70.968  1.00  0.00    -0.451 A  
HETATM   28  C   UNL     1     -11.903  13.067  69.756  1.00  0.00    -0.381 A  
ENDBRANCH  21  23
ENDBRANCH  20  21
ENDBRANCH  19  20
ENDBRANCH  16  19
ENDBRANCH  14  15
ENDBRANCH  12  14
ENDBRANCH   9  10
ENDBRANCH   6   9
ENDBRANCH   3   5
TORSDOF 9
ENDMDL
MODEL       26
REMARK 921   NORMALIZED FREE ENERGY PREDICTED BY IDOCK:   -6.20 KCAL/MOL
REMARK 922        TOTAL FREE ENERGY PREDICTED BY IDOCK:  -10.31 KCAL/MOL
REMARK 923 INTER-LIGAND FREE ENERGY PREDICTED BY IDOCK:   -8.99 KCAL/MOL
REMARK 924 INTRA-LIGAND FREE ENERGY PREDICTED BY IDOCK:   -1.32 KCAL/MOL
REMARK 927      BINDING AFFINITY PREDICTED BY RF-SCORE:    0.00 PKD
ROOT
HETATM    1  O   UNL     1     -11.101  15.109  64.809  1.00  0.00    -0.395 OA 
HETATM    2  C   UNL     1     -12.042  14.190  64.487  1.00  0.00    -0.468 C  
HETATM    3  C   UNL     1     -12.151  13.035  65.477  1.00  0.00    -0.452 C  
HETATM    4  O   UNL     1     -12.718  14.273  63.475  1.00  0.00    -0.767 OA 
ENDROOT
BRANCH   3   5
HETATM    5  N   UNL     1     -11.211  13.151  66.587  1.00  0.00    -0.296 N  
HETATM    6  C   UNL     1      -9.970  12.550  66.559  1.00  0.00    -0.244 C  
HETATM    7  H   UNL     1     -11.480  13.692  67.408  1.00  0.00     0.000 HD 
HETATM    8  O   UNL     1      -9.597  11.849  65.623  1.00  0.00    -0.233 OA 
BRANCH   6   9
HETATM    9  C   UNL     1      -9.098  12.778  67.800  1.00  0.00    -0.197 C  
BRANCH   9  10
HETATM   10  N   UNL     1      -9.205  11.720  68.789  1.00  0.00    -0.389 N  
HETATM   11  H   UNL     1     -10.027  11.691  69.391  1.00  0.00     0.000 HD 
HETATM   12  C   UNL     1      -8.236  10.753  68.943  1.00  0.00    -0.149 C  
HETATM   13  O   UNL     1      -7.236  10.709  68.232  1.00  0.00    -0.080 OA 
BRANCH  12  14
HETATM   14  C   UNL     1      -8.502   9.744  70.068  1.00  0.00    -0.206 C  
BRANCH  14  15
HETATM   15  N   UNL     1      -9.903   9.343  70.158  1.00  0.00    -0.216 N  
HETATM   16  C   UNL     1     -10.474   9.026  71.374  1.00  0.00    -0.324 C  
HETATM   17  H   UNL     1     -10.468   9.297  69.309  1.00  0.00     0.000 HD 
HETATM   18  O   UNL     1      -9.809   8.926  72.402  1.00  0.00    -0.244 OA 
BRANCH  16  19
HETATM   19  C   UNL     1     -11.963   8.728  71.321  1.00  0.00    -0.301 C  
BRANCH  19  20
HETATM   20  S   UNL     1     -12.952  10.121  71.904  1.00  0.00    -0.430 SA 
BRANCH  20  21
HETATM   21  C   UNL     1     -12.612  11.295  70.641  1.00  0.00    -0.288 C  
HETATM   22  O   UNL     1     -12.241  10.938  69.526  1.00  0.00    -0.336 OA 
BRANCH  21  23
HETATM   23  C   UNL     1     -12.774  12.735  70.984  1.00  0.00    -0.331 A  
HETATM   24  C   UNL     1     -13.502  13.079  72.131  1.00  0.00    -0.638 A  
HETATM   25  C   UNL     1     -13.716  14.424  72.448  1.00  0.00    -0.590 A  
HETATM   26  C   UNL     1     -13.214  15.427  71.620  1.00  0.00    -0.563 A  
HETATM   27  C   UNL     1     -12.487  15.091  70.481  1.00  0.00    -0.425 A  
HETATM   28  C   UNL     1     -12.268  13.751  70.160  1.00  0.00    -0.425 A  
ENDBRANCH  21  23
ENDBRANCH  20  21
ENDBRANCH  19  20
ENDBRANCH  16  19
ENDBRANCH  14  15
ENDBRANCH  12  14
ENDBRANCH   9  10
ENDBRANCH   6   9
ENDBRANCH   3   5
TORSDOF 9
ENDMDL
MODEL       27
REMARK 921   NORMALIZED FREE ENERGY PREDICTED BY IDOCK:   -6.19 KCAL/MOL
REMARK 922        TOTAL FREE ENERGY PREDICTED BY IDOCK:  -10.29 KCAL/MOL
REMARK 923 INTER-LIGAND FREE ENERGY PREDICTED BY IDOCK:   -9.51 KCAL/MOL
REMARK 924 INTRA-LIGAND FREE ENERGY PREDICTED BY IDOCK:   -0.78 KCAL/MOL
REMARK 927      BINDING AFFINITY PREDICTED BY RF-SCORE:    0.00 PKD
ROOT
HETATM    1  O   UNL     1     -13.157  14.106  65.439  1.00  0.00    -0.743 OA 
HETATM    2  C   UNL     1     -12.363  13.497  64.527  1.00  0.00    -0.355 C  
HETATM    3  C   UNL     1     -10.879  13.813  64.680  1.00  0.00    -0.406 C  
HETATM    4  O   UNL     1     -12.810  12.782  63.645  1.00  0.00    -0.701 OA 
ENDROOT
BRANCH   3   5
HETATM    5  N   UNL     1     -10.606  14.718  65.791  1.00  0.00    -0.309 N  
HETATM    6  C   UNL     1     -10.620  16.089  65.638  1.00  0.00    -0.377 C  
HETATM    7  H   UNL     1     -10.399  14.325  66.710  1.00  0.00     0.000 HD 
HETATM    8  O   UNL     1     -10.819  16.630  64.555  1.00  0.00    -0.847 OA 
BRANCH   6   9
HETATM    9  C   UNL     1     -10.323  16.898  66.907  1.00  0.00    -0.304 C  
BRANCH   9  10
HETATM   10  N   UNL     1     -11.052  16.435  68.075  1.00  0.00    -0.329 N  
HETATM   11  H   UNL     1     -12.070  16.491  68.074  1.00  0.00     0.000 HD 
HETATM   12  C   UNL     1     -10.418  15.923  69.185  1.00  0.00    -0.235 C  
HETATM   13  O   UNL     1      -9.197  15.797  69.243  1.00  0.00    -0.238 OA 
BRANCH  12  14
HETATM   14  C   UNL     1     -11.350  15.526  70.338  1.00  0.00    -0.342 C  
BRANCH  14  15
HETATM   15  N   UNL     1     -11.455  14.080  70.516  1.00  0.00    -0.510 N  
HETATM   16  C   UNL     1     -11.819  13.261  69.467  1.00  0.00    -0.327 C  
HETATM   17  H   UNL     1     -11.258  13.671  71.430  1.00  0.00     0.000 HD 
HETATM   18  O   UNL     1     -12.204  13.709  68.390  1.00  0.00    -0.332 OA 
BRANCH  16  19
HETATM   19  C   UNL     1     -11.785  11.774  69.778  1.00  0.00    -0.335 C  
BRANCH  19  20
HETATM   20  S   UNL     1     -10.708  10.869  68.646  1.00  0.00    -0.221 SA 
BRANCH  20  21
HETATM   21  C   UNL     1      -9.865   9.828  69.784  1.00  0.00    -0.234 C  
HETATM   22  O   UNL     1      -8.679  10.008  70.050  1.00  0.00    -0.191 OA 
BRANCH  21  23
HETATM   23  C   UNL     1     -10.641   8.714  70.395  1.00  0.00    -0.244 A  
HETATM   24  C   UNL     1     -11.094   8.849  71.714  1.00  0.00    -0.433 A  
HETATM   25  C   UNL     1     -11.779   7.798  72.331  1.00  0.00    -0.394 A  
HETATM   26  C   UNL     1     -12.005   6.608  71.640  1.00  0.00    -0.395 A  
HETATM   27  C   UNL     1     -11.558   6.469  70.328  1.00  0.00    -0.473 A  
HETATM   28  C   UNL     1     -10.877   7.516  69.706  1.00  0.00    -0.234 A  
ENDBRANCH  21  23
ENDBRANCH  20  21
ENDBRANCH  19  20
ENDBRANCH  16  19
ENDBRANCH  14  15
ENDBRANCH  12  14
ENDBRANCH   9  10
ENDBRANCH   6   9
ENDBRANCH   3   5
TORSDOF 9
ENDMDL
MODEL       28
REMARK 921   NORMALIZED FREE ENERGY PREDICTED BY IDOCK:   -6.19 KCAL/MOL
REMARK 922        TOTAL FREE ENERGY PREDICTED BY IDOCK:  -10.28 KCAL/MOL
REMARK 923 INTER-LIGAND FREE ENERGY PREDICTED BY IDOCK:   -9.51 KCAL/MOL
REMARK 924 INTRA-LIGAND FREE ENERGY PREDICTED BY IDOCK:   -0.77 KCAL/MOL
REMARK 927      BINDING AFFINITY PREDICTED BY RF-SCORE:    0.00 PKD
ROOT
HETATM    1  O   UNL     1     -13.265   9.850  70.849  1.00  0.00    -0.348 OA 
HETATM    2  C   UNL     1     -12.891  11.121  71.134  1.00  0.00    -0.374 C  
HETATM    3  C   UNL     1     -12.056  11.785  70.045  1.00  0.00    -0.310 C  
HETATM    4  O   UNL     1     -13.178  11.665  72.187  1.00  0.00    -0.504 OA 
ENDROOT
BRANCH   3   5
HETATM    5  N   UNL     1     -11.824  10.913  68.899  1.00  0.00    -0.434 N  
HETATM    6  C   UNL     1     -10.558  10.504  68.536  1.00  0.00    -0.206 C  
HETATM    7  H   UNL     1     -12.623  10.595  68.349  1.00  0.00     0.000 HD 
HETATM    8  O   UNL     1      -9.549  10.880  69.124  1.00  0.00    -0.186 OA 
BRANCH   6   9
HETATM    9  C   UNL     1     -10.488   9.579  67.315  1.00  0.00    -0.262 C  
BRANCH   9  10
HETATM   10  N   UNL     1     -10.729  10.260  66.054  1.00  0.00    -0.027 N  
HETATM   11  H   UNL     1     -11.574  10.822  65.953  1.00  0.00     0.000 HD 
HETATM   12  C   UNL     1      -9.859  10.175  64.991  1.00  0.00    -0.322 C  
HETATM   13  O   UNL     1      -8.808   9.543  65.053  1.00  0.00    -0.171 OA 
BRANCH  12  14
HETATM   14  C   UNL     1     -10.303  10.926  63.728  1.00  0.00    -0.317 C  
BRANCH  14  15
HETATM   15  N   UNL     1     -10.603  12.334  63.976  1.00  0.00    -0.365 N  
HETATM   16  C   UNL     1     -11.901  12.800  63.936  1.00  0.00    -0.468 C  
HETATM   17  H   UNL     1      -9.841  12.981  64.181  1.00  0.00     0.000 HD 
HETATM   18  O   UNL     1     -12.836  12.100  63.556  1.00  0.00    -0.768 OA 
BRANCH  16  19
HETATM   19  C   UNL     1     -12.064  14.263  64.315  1.00  0.00    -0.441 C  
BRANCH  19  20
HETATM   20  S   UNL     1     -10.694  14.856  65.329  1.00  0.00    -0.424 SA 
BRANCH  20  21
HETATM   21  C   UNL     1     -10.902  16.592  65.148  1.00  0.00    -0.186 C  
HETATM   22  O   UNL     1     -11.344  17.073  64.108  1.00  0.00    -1.164 OA 
BRANCH  21  23
HETATM   23  C   UNL     1     -10.503  17.452  66.296  1.00  0.00    -0.276 A  
HETATM   24  C   UNL     1      -9.883  16.857  67.403  1.00  0.00    -0.261 A  
HETATM   25  C   UNL     1      -9.546  17.631  68.517  1.00  0.00    -0.315 A  
HETATM   26  C   UNL     1      -9.835  18.995  68.537  1.00  0.00    -0.473 A  
HETATM   27  C   UNL     1     -10.450  19.592  67.439  1.00  0.00    -0.593 A  
HETATM   28  C   UNL     1     -10.786  18.826  66.322  1.00  0.00    -0.319 A  
ENDBRANCH  21  23
ENDBRANCH  20  21
ENDBRANCH  19  20
ENDBRANCH  16  19
ENDBRANCH  14  15
ENDBRANCH  12  14
ENDBRANCH   9  10
ENDBRANCH   6   9
ENDBRANCH   3   5
TORSDOF 9
ENDMDL
MODEL       29
REMARK 921   NORMALIZED FREE ENERGY PREDICTED BY IDOCK:   -6.18 KCAL/MOL
REMARK 922        TOTAL FREE ENERGY PREDICTED BY IDOCK:  -10.27 KCAL/MOL
REMARK 923 INTER-LIGAND FREE ENERGY PREDICTED BY IDOCK:   -9.52 KCAL/MOL
REMARK 924 INTRA-LIGAND FREE ENERGY PREDICTED BY IDOCK:   -0.75 KCAL/MOL
REMARK 927      BINDING AFFINITY PREDICTED BY RF-SCORE:    0.00 PKD
ROOT
HETATM    1  O   UNL     1     -12.737  15.120  71.089  1.00  0.00    -0.324 OA 
HETATM    2  C   UNL     1     -13.281  14.109  71.807  1.00  0.00    -0.373 C  
HETATM    3  C   UNL     1     -12.788  12.723  71.406  1.00  0.00    -0.275 C  
HETATM    4  O   UNL     1     -14.114  14.301  72.677  1.00  0.00    -0.585 OA 
ENDROOT
BRANCH   3   5
HETATM    5  N   UNL     1     -11.817  12.761  70.318  1.00  0.00    -0.537 N  
HETATM    6  C   UNL     1     -11.762  11.777  69.353  1.00  0.00    -0.341 C  
HETATM    7  H   UNL     1     -11.159  13.539  70.269  1.00  0.00     0.000 HD 
HETATM    8  O   UNL     1     -12.494  10.792  69.372  1.00  0.00    -0.333 OA 
BRANCH   6   9
HETATM    9  C   UNL     1     -10.692  11.972  68.271  1.00  0.00    -0.224 C  
BRANCH   9  10
HETATM   10  N   UNL     1     -10.914  13.141  67.438  1.00  0.00    -0.259 N  
HETATM   11  H   UNL     1     -10.473  14.022  67.699  1.00  0.00     0.000 HD 
HETATM   12  C   UNL     1     -11.699  13.103  66.307  1.00  0.00    -0.375 C  
HETATM   13  O   UNL     1     -12.235  12.069  65.916  1.00  0.00    -0.531 OA 
BRANCH  12  14
HETATM   14  C   UNL     1     -11.852  14.445  65.580  1.00  0.00    -0.357 C  
BRANCH  14  15
HETATM   15  N   UNL     1     -10.846  15.427  65.972  1.00  0.00    -0.321 N  
HETATM   16  C   UNL     1     -10.697  16.609  65.274  1.00  0.00    -0.204 C  
HETATM   17  H   UNL     1     -10.244  15.238  66.774  1.00  0.00     0.000 HD 
HETATM   18  O   UNL     1     -11.292  16.826  64.222  1.00  0.00    -1.170 OA 
BRANCH  16  19
HETATM   19  C   UNL     1      -9.681  17.573  65.863  1.00  0.00    -0.044 C  
BRANCH  19  20
HETATM   20  S   UNL     1     -10.469  19.035  66.574  1.00  0.00    -0.441 SA 
BRANCH  20  21
HETATM   21  C   UNL     1      -9.619  19.129  68.110  1.00  0.00    -0.348 C  
HETATM   22  O   UNL     1     -10.134  18.717  69.146  1.00  0.00    -0.359 OA 
BRANCH  21  23
HETATM   23  C   UNL     1      -8.263  19.743  68.104  1.00  0.00    -0.324 A  
HETATM   24  C   UNL     1      -7.941  20.662  67.096  1.00  0.00    -0.323 A  
HETATM   25  C   UNL     1      -6.658  21.214  67.034  1.00  0.00    -0.405 A  
HETATM   26  C   UNL     1      -5.691  20.845  67.969  1.00  0.00    -0.362 A  
HETATM   27  C   UNL     1      -6.006  19.934  68.974  1.00  0.00    -0.303 A  
HETATM   28  C   UNL     1      -7.285  19.383  69.043  1.00  0.00    -0.397 A  
ENDBRANCH  21  23
ENDBRANCH  20  21
ENDBRANCH  19  20
ENDBRANCH  16  19
ENDBRANCH  14  15
ENDBRANCH  12  14
ENDBRANCH   9  10
ENDBRANCH   6   9
ENDBRANCH   3   5
TORSDOF 9
ENDMDL
MODEL       30
REMARK 921   NORMALIZED FREE ENERGY PREDICTED BY IDOCK:   -6.18 KCAL/MOL
REMARK 922        TOTAL FREE ENERGY PREDICTED BY IDOCK:  -10.27 KCAL/MOL
REMARK 923 INTER-LIGAND FREE ENERGY PREDICTED BY IDOCK:   -9.51 KCAL/MOL
REMARK 924 INTRA-LIGAND FREE ENERGY PREDICTED BY IDOCK:   -0.76 KCAL/MOL
REMARK 927      BINDING AFFINITY PREDICTED BY RF-SCORE:    0.00 PKD
ROOT
HETATM    1  O   UNL     1     -12.765   9.615  71.442  1.00  0.00    -0.328 OA 
HETATM    2  C   UNL     1     -13.575   8.769  72.122  1.00  0.00    -0.435 C  
HETATM    3  C   UNL     1     -13.532   7.328  71.625  1.00  0.00    -0.354 C  
HETATM    4  O   UNL     1     -14.296   9.145  73.031  1.00  0.00    -0.439 OA 
ENDROOT
BRANCH   3   5
HETATM    5  N   UNL     1     -12.615   7.144  70.506  1.00  0.00    -0.602 N  
HETATM    6  C   UNL     1     -11.472   6.380  70.615  1.00  0.00    -0.362 C  
HETATM    7  H   UNL     1     -12.825   7.594  69.614  1.00  0.00     0.000 HD 
HETATM    8  O   UNL     1     -11.134   5.845  71.666  1.00  0.00    -0.266 OA 
BRANCH   6   9
HETATM    9  C   UNL     1     -10.621   6.278  69.343  1.00  0.00    -0.271 C  
BRANCH   9  10
HETATM   10  N   UNL     1     -10.939   7.288  68.348  1.00  0.00    -0.443 N  
HETATM   11  H   UNL     1     -11.650   7.082  67.647  1.00  0.00     0.000 HD 
HETATM   12  C   UNL     1     -10.315   8.515  68.318  1.00  0.00    -0.201 C  
HETATM   13  O   UNL     1      -9.473   8.843  69.149  1.00  0.00    -0.154 OA 
BRANCH  12  14
HETATM   14  C   UNL     1     -10.750   9.435  67.169  1.00  0.00    -0.163 C  
BRANCH  14  15
HETATM   15  N   UNL     1     -11.058  10.793  67.608  1.00  0.00    -0.305 N  
HETATM   16  C   UNL     1     -11.366  11.781  66.695  1.00  0.00    -0.316 C  
HETATM   17  H   UNL     1     -11.044  11.014  68.604  1.00  0.00     0.000 HD 
HETATM   18  O   UNL     1     -11.259  11.609  65.484  1.00  0.00    -0.285 OA 
BRANCH  16  19
HETATM   19  C   UNL     1     -11.764  13.113  67.308  1.00  0.00    -0.374 C  
BRANCH  19  20
HETATM   20  S   UNL     1     -11.528  13.132  69.098  1.00  0.00    -0.308 SA 
BRANCH  20  21
HETATM   21  C   UNL     1     -11.832  14.831  69.434  1.00  0.00    -0.323 C  
HETATM   22  O   UNL     1     -11.577  15.697  68.602  1.00  0.00    -0.356 OA 
BRANCH  21  23
HETATM   23  C   UNL     1     -12.392  15.173  70.770  1.00  0.00    -0.415 A  
HETATM   24  C   UNL     1     -13.779  15.107  70.960  1.00  0.00    -0.450 A  
HETATM   25  C   UNL     1     -14.337  15.474  72.188  1.00  0.00    -0.598 A  
HETATM   26  C   UNL     1     -13.517  15.918  73.225  1.00  0.00    -0.599 A  
HETATM   27  C   UNL     1     -12.138  15.984  73.043  1.00  0.00    -0.628 A  
HETATM   28  C   UNL     1     -11.575  15.615  71.821  1.00  0.00    -0.531 A  
ENDBRANCH  21  23
ENDBRANCH  20  21
ENDBRANCH  19  20
ENDBRANCH  16  19
ENDBRANCH  14  15
ENDBRANCH  12  14
ENDBRANCH   9  10
ENDBRANCH   6   9
ENDBRANCH   3   5
TORSDOF 9
ENDMDL
MODEL       31
REMARK 921   NORMALIZED FREE ENERGY PREDICTED BY IDOCK:   -6.17 KCAL/MOL
REMARK 922        TOTAL FREE ENERGY PREDICTED BY IDOCK:  -10.26 KCAL/MOL
REMARK 923 INTER-LIGAND FREE ENERGY PREDICTED BY IDOCK:   -8.69 KCAL/MOL
REMARK 924 INTRA-LIGAND FREE ENERGY PREDICTED BY IDOCK:   -1.58 KCAL/MOL
REMARK 927      BINDING AFFINITY PREDICTED BY RF-SCORE:    0.00 PKD
ROOT
HETATM    1  O   UNL     1     -12.227  14.697  66.170  1.00  0.00    -0.290 OA 
HETATM    2  C   UNL     1     -10.952  15.142  66.273  1.00  0.00    -0.335 C  
HETATM    3  C   UNL     1     -10.416  15.177  67.700  1.00  0.00    -0.253 C  
HETATM    4  O   UNL     1     -10.308  15.508  65.304  1.00  0.00    -0.371 OA 
ENDROOT
BRANCH   3   5
HETATM    5  N   UNL     1     -11.393  14.719  68.682  1.00  0.00    -0.271 N  
HETATM    6  C   UNL     1     -11.689  15.448  69.814  1.00  0.00    -0.333 C  
HETATM    7  H   UNL     1     -11.872  13.831  68.526  1.00  0.00     0.000 HD 
HETATM    8  O   UNL     1     -11.122  16.502  70.087  1.00  0.00    -0.348 OA 
BRANCH   6   9
HETATM    9  C   UNL     1     -12.747  14.833  70.739  1.00  0.00    -0.362 C  
BRANCH   9  10
HETATM   10  N   UNL     1     -12.648  13.388  70.854  1.00  0.00    -0.349 N  
HETATM   11  H   UNL     1     -12.080  12.878  70.178  1.00  0.00     0.000 HD 
HETATM   12  C   UNL     1     -13.294  12.681  71.843  1.00  0.00    -0.387 C  
HETATM   13  O   UNL     1     -13.968  13.231  72.709  1.00  0.00    -0.701 OA 
BRANCH  12  14
HETATM   14  C   UNL     1     -13.108  11.159  71.778  1.00  0.00    -0.431 C  
BRANCH  14  15
HETATM   15  N   UNL     1     -12.340  10.725  70.614  1.00  0.00    -0.340 N  
HETATM   16  C   UNL     1     -11.522   9.615  70.677  1.00  0.00    -0.306 C  
HETATM   17  H   UNL     1     -12.410  11.250  69.742  1.00  0.00     0.000 HD 
HETATM   18  O   UNL     1     -11.291   9.033  71.733  1.00  0.00    -0.334 OA 
BRANCH  16  19
HETATM   19  C   UNL     1     -10.870   9.229  69.360  1.00  0.00    -0.169 C  
BRANCH  19  20
HETATM   20  S   UNL     1      -9.843  10.559  68.698  1.00  0.00    -0.187 SA 
BRANCH  20  21
HETATM   21  C   UNL     1     -10.864  11.111  67.377  1.00  0.00    -0.266 C  
HETATM   22  O   UNL     1     -11.940  11.661  67.595  1.00  0.00    -0.618 OA 
BRANCH  21  23
HETATM   23  C   UNL     1     -10.378  10.869  65.991  1.00  0.00    -0.304 A  
HETATM   24  C   UNL     1     -10.825  11.707  64.961  1.00  0.00    -0.346 A  
HETATM   25  C   UNL     1     -10.428  11.470  63.642  1.00  0.00    -0.483 A  
HETATM   26  C   UNL     1      -9.593  10.394  63.344  1.00  0.00    -0.361 A  
HETATM   27  C   UNL     1      -9.143   9.559  64.364  1.00  0.00    -0.234 A  
HETATM   28  C   UNL     1      -9.534   9.791  65.683  1.00  0.00    -0.307 A  
ENDBRANCH  21  23
ENDBRANCH  20  21
ENDBRANCH  19  20
ENDBRANCH  16  19
ENDBRANCH  14  15
ENDBRANCH  12  14
ENDBRANCH   9  10
ENDBRANCH   6   9
ENDBRANCH   3   5
TORSDOF 9
ENDMDL
MODEL       32
REMARK 921   NORMALIZED FREE ENERGY PREDICTED BY IDOCK:   -6.13 KCAL/MOL
REMARK 922        TOTAL FREE ENERGY PREDICTED BY IDOCK:  -10.19 KCAL/MOL
REMARK 923 INTER-LIGAND FREE ENERGY PREDICTED BY IDOCK:   -8.54 KCAL/MOL
REMARK 924 INTRA-LIGAND FREE ENERGY PREDICTED BY IDOCK:   -1.65 KCAL/MOL
REMARK 927      BINDING AFFINITY PREDICTED BY RF-SCORE:    0.00 PKD
ROOT
HETATM    1  O   UNL     1     -10.614  19.771  68.107  1.00  0.00    -0.413 OA 
HETATM    2  C   UNL     1     -10.566  19.191  66.884  1.00  0.00    -0.448 C  
HETATM    3  C   UNL     1     -10.350  17.682  66.916  1.00  0.00    -0.329 C  
HETATM    4  O   UNL     1     -10.658  19.835  65.852  1.00  0.00    -0.510 OA 
ENDROOT
BRANCH   3   5
HETATM    5  N   UNL     1     -10.238  17.156  68.272  1.00  0.00    -0.313 N  
HETATM    6  C   UNL     1     -11.083  16.175  68.747  1.00  0.00    -0.354 C  
HETATM    7  H   UNL     1      -9.513  17.524  68.888  1.00  0.00     0.000 HD 
HETATM    8  O   UNL     1     -12.003  15.715  68.078  1.00  0.00    -0.157 OA 
BRANCH   6   9
HETATM    9  C   UNL     1     -10.825  15.723  70.190  1.00  0.00    -0.351 C  
BRANCH   9  10
HETATM   10  N   UNL     1     -11.164  14.332  70.433  1.00  0.00    -0.487 N  
HETATM   11  H   UNL     1     -10.441  13.622  70.317  1.00  0.00     0.000 HD 
HETATM   12  C   UNL     1     -12.426  13.935  70.814  1.00  0.00    -0.375 C  
HETATM   13  O   UNL     1     -13.337  14.737  71.002  1.00  0.00    -0.376 OA 
BRANCH  12  14
HETATM   14  C   UNL     1     -12.606  12.420  70.981  1.00  0.00    -0.254 C  
BRANCH  14  15
HETATM   15  N   UNL     1     -11.431  11.656  70.574  1.00  0.00    -0.386 N  
HETATM   16  C   UNL     1     -11.450  10.878  69.434  1.00  0.00    -0.302 C  
HETATM   17  H   UNL     1     -10.583  11.697  71.140  1.00  0.00     0.000 HD 
HETATM   18  O   UNL     1     -12.481  10.679  68.796  1.00  0.00    -0.278 OA 
BRANCH  16  19
HETATM   19  C   UNL     1     -10.123  10.225  69.085  1.00  0.00    -0.218 C  
BRANCH  19  20
HETATM   20  S   UNL     1      -9.586  10.638  67.411  1.00  0.00    -0.159 SA 
BRANCH  20  21
HETATM   21  C   UNL     1      -9.816  12.381  67.431  1.00  0.00    -0.199 C  
HETATM   22  O   UNL     1      -9.359  13.070  68.339  1.00  0.00    -0.206 OA 
BRANCH  21  23
HETATM   23  C   UNL     1     -10.599  12.979  66.316  1.00  0.00    -0.283 A  
HETATM   24  C   UNL     1     -11.731  12.302  65.844  1.00  0.00    -0.451 A  
HETATM   25  C   UNL     1     -12.455  12.814  64.763  1.00  0.00    -0.539 A  
HETATM   26  C   UNL     1     -12.047  13.995  64.143  1.00  0.00    -0.456 A  
HETATM   27  C   UNL     1     -10.923  14.673  64.609  1.00  0.00    -0.340 A  
HETATM   28  C   UNL     1     -10.199  14.169  65.689  1.00  0.00    -0.357 A  
ENDBRANCH  21  23
ENDBRANCH  20  21
ENDBRANCH  19  20
ENDBRANCH  16  19
ENDBRANCH  14  15
ENDBRANCH  12  14
ENDBRANCH   9  10
ENDBRANCH   6   9
ENDBRANCH   3   5
TORSDOF 9
ENDMDL
MODEL       33
REMARK 921   NORMALIZED FREE ENERGY PREDICTED BY IDOCK:   -6.12 KCAL/MOL
REMARK 922        TOTAL FREE ENERGY PREDICTED BY IDOCK:  -10.19 KCAL/MOL
REMARK 923 INTER-LIGAND FREE ENERGY PREDICTED BY IDOCK:   -9.24 KCAL/MOL
REMARK 924 INTRA-LIGAND FREE ENERGY PREDICTED BY IDOCK:   -0.95 KCAL/MOL
REMARK 927      BINDING AFFINITY PREDICTED BY RF-SCORE:    0.00 PKD
ROOT
HETATM    1  O   UNL     1     -10.601  17.432  68.273  1.00  0.00    -0.365 OA 
HETATM    2  C   UNL     1     -10.568  18.479  67.414  1.00  0.00    -0.424 C  
HETATM    3  C   UNL     1     -10.397  18.081  65.952  1.00  0.00    -0.271 C  
HETATM    4  O   UNL     1     -10.640  19.636  67.792  1.00  0.00    -0.435 OA 
ENDROOT
BRANCH   3   5
HETATM    5  N   UNL     1     -10.304  16.637  65.766  1.00  0.00    -0.347 N  
HETATM    6  C   UNL     1     -10.915  15.996  64.709  1.00  0.00    -0.356 C  
HETATM    7  H   UNL     1      -9.770  16.085  66.438  1.00  0.00     0.000 HD 
HETATM    8  O   UNL     1     -11.606  16.589  63.887  1.00  0.00    -1.175 OA 
BRANCH   6   9
HETATM    9  C   UNL     1     -10.710  14.476  64.652  1.00  0.00    -0.310 C  
BRANCH   9  10
HETATM   10  N   UNL     1     -10.911  13.814  65.929  1.00  0.00    -0.281 N  
HETATM   11  H   UNL     1     -10.317  14.074  66.716  1.00  0.00     0.000 HD 
HETATM   12  C   UNL     1     -11.874  12.847  66.116  1.00  0.00    -0.429 C  
HETATM   13  O   UNL     1     -12.644  12.508  65.221  1.00  0.00    -0.645 OA 
BRANCH  12  14
HETATM   14  C   UNL     1     -11.908  12.229  67.520  1.00  0.00    -0.261 C  
BRANCH  14  15
HETATM   15  N   UNL     1     -10.892  11.199  67.717  1.00  0.00    -0.221 N  
HETATM   16  C   UNL     1      -9.655  11.514  68.242  1.00  0.00    -0.189 C  
HETATM   17  H   UNL     1     -11.099  10.233  67.462  1.00  0.00     0.000 HD 
HETATM   18  O   UNL     1      -9.301  12.675  68.432  1.00  0.00    -0.205 OA 
BRANCH  16  19
HETATM   19  C   UNL     1      -8.743  10.322  68.483  1.00  0.00    -0.130 C  
BRANCH  19  20
HETATM   20  S   UNL     1      -9.676   8.819  68.846  1.00  0.00    -0.176 SA 
BRANCH  20  21
HETATM   21  C   UNL     1     -10.050   9.088  70.542  1.00  0.00    -0.215 C  
HETATM   22  O   UNL     1      -9.183   9.448  71.334  1.00  0.00    -0.277 OA 
BRANCH  21  23
HETATM   23  C   UNL     1     -11.453   8.844  70.979  1.00  0.00    -0.351 A  
HETATM   24  C   UNL     1     -12.247   9.939  71.346  1.00  0.00    -0.499 A  
HETATM   25  C   UNL     1     -13.549   9.735  71.811  1.00  0.00    -0.397 A  
HETATM   26  C   UNL     1     -14.060   8.442  71.920  1.00  0.00    -0.516 A  
HETATM   27  C   UNL     1     -13.276   7.351  71.555  1.00  0.00    -0.426 A  
HETATM   28  C   UNL     1     -11.977   7.548  71.088  1.00  0.00    -0.334 A  
ENDBRANCH  21  23
ENDBRANCH  20  21
ENDBRANCH  19  20
ENDBRANCH  16  19
ENDBRANCH  14  15
ENDBRANCH  12  14
ENDBRANCH   9  10
ENDBRANCH   6   9
ENDBRANCH   3   5
TORSDOF 9
ENDMDL
MODEL       34
REMARK 921   NORMALIZED FREE ENERGY PREDICTED BY IDOCK:   -6.12 KCAL/MOL
REMARK 922        TOTAL FREE ENERGY PREDICTED BY IDOCK:  -10.18 KCAL/MOL
REMARK 923 INTER-LIGAND FREE ENERGY PREDICTED BY IDOCK:   -8.96 KCAL/MOL
REMARK 924 INTRA-LIGAND FREE ENERGY PREDICTED BY IDOCK:   -1.22 KCAL/MOL
REMARK 927      BINDING AFFINITY PREDICTED BY RF-SCORE:    0.00 PKD
ROOT
HETATM    1  O   UNL     1     -14.275  15.685  71.351  1.00  0.00    -0.535 OA 
HETATM    2  C   UNL     1     -13.705  14.512  71.716  1.00  0.00    -0.418 C  
HETATM    3  C   UNL     1     -12.658  13.995  70.735  1.00  0.00    -0.360 C  
HETATM    4  O   UNL     1     -14.030  13.915  72.728  1.00  0.00    -0.697 OA 
ENDROOT
BRANCH   3   5
HETATM    5  N   UNL     1     -12.476  14.876  69.586  1.00  0.00    -0.564 N  
HETATM    6  C   UNL     1     -11.277  15.509  69.335  1.00  0.00    -0.300 C  
HETATM    7  H   UNL     1     -13.259  15.029  68.950  1.00  0.00     0.000 HD 
HETATM    8  O   UNL     1     -10.306  15.405  70.078  1.00  0.00    -0.294 OA 
BRANCH   6   9
HETATM    9  C   UNL     1     -11.247  16.392  68.081  1.00  0.00    -0.273 C  
BRANCH   9  10
HETATM   10  N   UNL     1     -10.551  15.786  66.959  1.00  0.00    -0.314 N  
HETATM   11  H   UNL     1      -9.611  16.107  66.732  1.00  0.00     0.000 HD 
HETATM   12  C   UNL     1     -11.116  14.793  66.190  1.00  0.00    -0.339 C  
HETATM   13  O   UNL     1     -12.231  14.336  66.425  1.00  0.00    -0.436 OA 
BRANCH  12  14
HETATM   14  C   UNL     1     -10.248  14.305  65.022  1.00  0.00    -0.372 C  
BRANCH  14  15
HETATM   15  N   UNL     1      -9.984  12.870  65.065  1.00  0.00    -0.493 N  
HETATM   16  C   UNL     1     -10.429  12.037  64.058  1.00  0.00    -0.372 C  
HETATM   17  H   UNL     1      -9.465  12.477  65.850  1.00  0.00     0.000 HD 
HETATM   18  O   UNL     1     -11.177  12.430  63.167  1.00  0.00    -0.387 OA 
BRANCH  16  19
HETATM   19  C   UNL     1      -9.990  10.588  64.189  1.00  0.00    -0.318 C  
BRANCH  19  20
HETATM   20  S   UNL     1      -8.791  10.362  65.521  1.00  0.00    -0.184 SA 
BRANCH  20  21
HETATM   21  C   UNL     1      -9.600   9.114  66.459  1.00  0.00    -0.227 C  
HETATM   22  O   UNL     1      -9.558   7.936  66.116  1.00  0.00    -0.159 OA 
BRANCH  21  23
HETATM   23  C   UNL     1     -10.349   9.548  67.670  1.00  0.00    -0.299 A  
HETATM   24  C   UNL     1     -11.121  10.716  67.606  1.00  0.00    -0.385 A  
HETATM   25  C   UNL     1     -11.792  11.176  68.742  1.00  0.00    -0.388 A  
HETATM   26  C   UNL     1     -11.688  10.481  69.947  1.00  0.00    -0.372 A  
HETATM   27  C   UNL     1     -10.924   9.318  70.016  1.00  0.00    -0.254 A  
HETATM   28  C   UNL     1     -10.255   8.852  68.884  1.00  0.00    -0.220 A  
ENDBRANCH  21  23
ENDBRANCH  20  21
ENDBRANCH  19  20
ENDBRANCH  16  19
ENDBRANCH  14  15
ENDBRANCH  12  14
ENDBRANCH   9  10
ENDBRANCH   6   9
ENDBRANCH   3   5
TORSDOF 9
ENDMDL
MODEL       35
REMARK 921   NORMALIZED FREE ENERGY PREDICTED BY IDOCK:   -6.11 KCAL/MOL
REMARK 922        TOTAL FREE ENERGY PREDICTED BY IDOCK:  -10.16 KCAL/MOL
REMARK 923 INTER-LIGAND FREE ENERGY PREDICTED BY IDOCK:   -9.40 KCAL/MOL
REMARK 924 INTRA-LIGAND FREE ENERGY PREDICTED BY IDOCK:   -0.76 KCAL/MOL
REMARK 927      BINDING AFFINITY PREDICTED BY RF-SCORE:    0.00 PKD
ROOT
HETATM    1  O   UNL     1     -12.327  16.033  71.864  1.00  0.00    -0.447 OA 
HETATM    2  C   UNL     1     -13.291  15.596  72.710  1.00  0.00    -0.549 C  
HETATM    3  C   UNL     1     -13.648  14.123  72.543  1.00  0.00    -0.541 C  
HETATM    4  O   UNL     1     -13.839  16.334  73.511  1.00  0.00    -0.531 OA 
ENDROOT
BRANCH   3   5
HETATM    5  N   UNL     1     -12.872  13.469  71.495  1.00  0.00    -0.361 N  
HETATM    6  C   UNL     1     -12.788  12.096  71.397  1.00  0.00    -0.276 C  
HETATM    7  H   UNL     1     -12.377  14.045  70.813  1.00  0.00     0.000 HD 
HETATM    8  O   UNL     1     -13.322  11.343  72.205  1.00  0.00    -0.469 OA 
BRANCH   6   9
HETATM    9  C   UNL     1     -11.942  11.568  70.232  1.00  0.00    -0.368 C  
BRANCH   9  10
HETATM   10  N   UNL     1     -11.751  12.536  69.166  1.00  0.00    -0.309 N  
HETATM   11  H   UNL     1     -11.600  13.514  69.412  1.00  0.00     0.000 HD 
HETATM   12  C   UNL     1     -11.765  12.182  67.836  1.00  0.00    -0.336 C  
HETATM   13  O   UNL     1     -11.909  11.019  67.468  1.00  0.00    -0.571 OA 
BRANCH  12  14
HETATM   14  C   UNL     1     -11.590  13.348  66.853  1.00  0.00    -0.365 C  
BRANCH  14  15
HETATM   15  N   UNL     1     -10.340  14.078  67.047  1.00  0.00    -0.266 N  
HETATM   16  C   UNL     1      -9.796  14.837  66.031  1.00  0.00    -0.324 C  
HETATM   17  H   UNL     1      -9.862  14.025  67.947  1.00  0.00     0.000 HD 
HETATM   18  O   UNL     1     -10.250  14.822  64.889  1.00  0.00    -0.388 OA 
BRANCH  16  19
HETATM   19  C   UNL     1      -8.551  15.618  66.415  1.00  0.00    -0.284 C  
BRANCH  19  20
HETATM   20  S   UNL     1      -8.231  15.550  68.191  1.00  0.00    -0.147 SA 
BRANCH  20  21
HETATM   21  C   UNL     1      -7.687  17.198  68.472  1.00  0.00    -0.248 C  
HETATM   22  O   UNL     1      -6.696  17.430  69.159  1.00  0.00    -0.232 OA 
BRANCH  21  23
HETATM   23  C   UNL     1      -8.487  18.294  67.860  1.00  0.00    -0.263 A  
HETATM   24  C   UNL     1      -9.813  18.477  68.274  1.00  0.00    -0.394 A  
HETATM   25  C   UNL     1     -10.604  19.464  67.678  1.00  0.00    -0.575 A  
HETATM   26  C   UNL     1     -10.079  20.265  66.664  1.00  0.00    -0.538 A  
HETATM   27  C   UNL     1      -8.761  20.089  66.250  1.00  0.00    -0.346 A  
HETATM   28  C   UNL     1      -7.966  19.108  66.843  1.00  0.00    -0.273 A  
ENDBRANCH  21  23
ENDBRANCH  20  21
ENDBRANCH  19  20
ENDBRANCH  16  19
ENDBRANCH  14  15
ENDBRANCH  12  14
ENDBRANCH   9  10
ENDBRANCH   6   9
ENDBRANCH   3   5
TORSDOF 9
ENDMDL
MODEL       36
REMARK 921   NORMALIZED FREE ENERGY PREDICTED BY IDOCK:   -6.10 KCAL/MOL
REMARK 922        TOTAL FREE ENERGY PREDICTED BY IDOCK:  -10.15 KCAL/MOL
REMARK 923 INTER-LIGAND FREE ENERGY PREDICTED BY IDOCK:   -9.21 KCAL/MOL
REMARK 924 INTRA-LIGAND FREE ENERGY PREDICTED BY IDOCK:   -0.94 KCAL/MOL
REMARK 927      BINDING AFFINITY PREDICTED BY RF-SCORE:    0.00 PKD
ROOT
HETATM    1  O   UNL     1     -12.111  11.069  68.100  1.00  0.00    -0.610 OA 
HETATM    2  C   UNL     1     -10.957  10.671  68.685  1.00  0.00    -0.246 C  
HETATM    3  C   UNL     1      -9.737  10.739  67.773  1.00  0.00    -0.162 C  
HETATM    4  O   UNL     1     -10.914  10.266  69.835  1.00  0.00    -0.260 OA 
ENDROOT
BRANCH   3   5
HETATM    5  N   UNL     1     -10.059  11.226  66.436  1.00  0.00    -0.213 N  
HETATM    6  C   UNL     1      -9.996  10.410  65.326  1.00  0.00    -0.309 C  
HETATM    7  H   UNL     1     -10.339  12.201  66.318  1.00  0.00     0.000 HD 
HETATM    8  O   UNL     1      -9.628   9.242  65.386  1.00  0.00    -0.259 OA 
BRANCH   6   9
HETATM    9  C   UNL     1     -10.377  11.074  63.996  1.00  0.00    -0.371 C  
BRANCH   9  10
HETATM   10  N   UNL     1     -10.757  12.469  64.130  1.00  0.00    -0.360 N  
HETATM   11  H   UNL     1     -10.046  13.149  64.397  1.00  0.00     0.000 HD 
HETATM   12  C   UNL     1     -12.044  12.908  63.911  1.00  0.00    -0.480 C  
HETATM   13  O   UNL     1     -12.943  12.150  63.558  1.00  0.00    -0.794 OA 
BRANCH  12  14
HETATM   14  C   UNL     1     -12.266  14.408  64.145  1.00  0.00    -0.363 C  
BRANCH  14  15
HETATM   15  N   UNL     1     -11.318  14.986  65.093  1.00  0.00    -0.372 N  
HETATM   16  C   UNL     1     -11.405  14.706  66.442  1.00  0.00    -0.348 C  
HETATM   17  H   UNL     1     -10.582  15.605  64.754  1.00  0.00     0.000 HD 
HETATM   18  O   UNL     1     -12.351  14.086  66.922  1.00  0.00    -0.418 OA 
BRANCH  16  19
HETATM   19  C   UNL     1     -10.289  15.296  67.288  1.00  0.00    -0.264 C  
BRANCH  19  20
HETATM   20  S   UNL     1     -10.745  16.897  67.989  1.00  0.00    -0.341 SA 
BRANCH  20  21
HETATM   21  C   UNL     1     -10.038  17.973  66.791  1.00  0.00    -0.356 C  
HETATM   22  O   UNL     1     -10.442  17.984  65.632  1.00  0.00    -0.619 OA 
BRANCH  21  23
HETATM   23  C   UNL     1      -8.922  18.852  67.237  1.00  0.00    -0.298 A  
HETATM   24  C   UNL     1      -8.319  19.705  66.304  1.00  0.00    -0.372 A  
HETATM   25  C   UNL     1      -7.234  20.503  66.681  1.00  0.00    -0.304 A  
HETATM   26  C   UNL     1      -6.742  20.444  67.984  1.00  0.00    -0.336 A  
HETATM   27  C   UNL     1      -7.339  19.599  68.917  1.00  0.00    -0.373 A  
HETATM   28  C   UNL     1      -8.423  18.804  68.547  1.00  0.00    -0.379 A  
ENDBRANCH  21  23
ENDBRANCH  20  21
ENDBRANCH  19  20
ENDBRANCH  16  19
ENDBRANCH  14  15
ENDBRANCH  12  14
ENDBRANCH   9  10
ENDBRANCH   6   9
ENDBRANCH   3   5
TORSDOF 9
ENDMDL
MODEL       37
REMARK 921   NORMALIZED FREE ENERGY PREDICTED BY IDOCK:   -6.09 KCAL/MOL
REMARK 922        TOTAL FREE ENERGY PREDICTED BY IDOCK:  -10.13 KCAL/MOL
REMARK 923 INTER-LIGAND FREE ENERGY PREDICTED BY IDOCK:   -9.38 KCAL/MOL
REMARK 924 INTRA-LIGAND FREE ENERGY PREDICTED BY IDOCK:   -0.76 KCAL/MOL
REMARK 927      BINDING AFFINITY PREDICTED BY RF-SCORE:    0.00 PKD
ROOT
HETATM    1  O   UNL     1     -13.139  13.347  65.135  1.00  0.00    -0.724 OA 
HETATM    2  C   UNL     1     -12.227  13.156  64.153  1.00  0.00    -0.398 C  
HETATM    3  C   UNL     1     -10.830  13.667  64.489  1.00  0.00    -0.406 C  
HETATM    4  O   UNL     1     -12.516  12.645  63.083  1.00  0.00    -0.586 OA 
ENDROOT
BRANCH   3   5
HETATM    5  N   UNL     1     -10.752  14.266  65.817  1.00  0.00    -0.295 N  
HETATM    6  C   UNL     1     -10.715  15.632  66.001  1.00  0.00    -0.317 C  
HETATM    7  H   UNL     1     -10.723  13.656  66.634  1.00  0.00     0.000 HD 
HETATM    8  O   UNL     1     -10.704  16.425  65.064  1.00  0.00    -0.638 OA 
BRANCH   6   9
HETATM    9  C   UNL     1     -10.645  16.100  67.460  1.00  0.00    -0.314 C  
BRANCH   9  10
HETATM   10  N   UNL     1     -11.620  15.457  68.325  1.00  0.00    -0.361 N  
HETATM   11  H   UNL     1     -12.320  14.845  67.906  1.00  0.00     0.000 HD 
HETATM   12  C   UNL     1     -11.633  15.642  69.689  1.00  0.00    -0.356 C  
HETATM   13  O   UNL     1     -10.800  16.339  70.263  1.00  0.00    -0.319 OA 
BRANCH  12  14
HETATM   14  C   UNL     1     -12.763  14.916  70.431  1.00  0.00    -0.321 C  
BRANCH  14  15
HETATM   15  N   UNL     1     -12.507  13.490  70.609  1.00  0.00    -0.349 N  
HETATM   16  C   UNL     1     -13.096  12.787  71.640  1.00  0.00    -0.331 C  
HETATM   17  H   UNL     1     -11.883  13.006  69.963  1.00  0.00     0.000 HD 
HETATM   18  O   UNL     1     -13.739  13.343  72.528  1.00  0.00    -0.613 OA 
BRANCH  16  19
HETATM   19  C   UNL     1     -12.816  11.293  71.635  1.00  0.00    -0.405 C  
BRANCH  19  20
HETATM   20  S   UNL     1     -12.345  10.699  69.997  1.00  0.00    -0.205 SA 
BRANCH  20  21
HETATM   21  C   UNL     1     -10.861   9.843  70.392  1.00  0.00    -0.319 C  
HETATM   22  O   UNL     1      -9.772  10.241  69.987  1.00  0.00    -0.160 OA 
BRANCH  21  23
HETATM   23  C   UNL     1     -10.983   8.611  71.219  1.00  0.00    -0.333 A  
HETATM   24  C   UNL     1     -11.937   7.649  70.864  1.00  0.00    -0.252 A  
HETATM   25  C   UNL     1     -12.110   6.508  71.653  1.00  0.00    -0.381 A  
HETATM   26  C   UNL     1     -11.341   6.328  72.802  1.00  0.00    -0.236 A  
HETATM   27  C   UNL     1     -10.389   7.280  73.159  1.00  0.00    -0.359 A  
HETATM   28  C   UNL     1     -10.210   8.419  72.374  1.00  0.00    -0.399 A  
ENDBRANCH  21  23
ENDBRANCH  20  21
ENDBRANCH  19  20
ENDBRANCH  16  19
ENDBRANCH  14  15
ENDBRANCH  12  14
ENDBRANCH   9  10
ENDBRANCH   6   9
ENDBRANCH   3   5
TORSDOF 9
ENDMDL
MODEL       38
REMARK 921   NORMALIZED FREE ENERGY PREDICTED BY IDOCK:   -6.08 KCAL/MOL
REMARK 922        TOTAL FREE ENERGY PREDICTED BY IDOCK:  -10.12 KCAL/MOL
REMARK 923 INTER-LIGAND FREE ENERGY PREDICTED BY IDOCK:   -9.20 KCAL/MOL
REMARK 924 INTRA-LIGAND FREE ENERGY PREDICTED BY IDOCK:   -0.92 KCAL/MOL
REMARK 927      BINDING AFFINITY PREDICTED BY RF-SCORE:    0.00 PKD
ROOT
HETATM    1  O   UNL     1     -11.879   6.349  70.925  1.00  0.00    -0.350 OA 
HETATM    2  C   UNL     1     -11.570   6.268  72.242  1.00  0.00    -0.309 C  
HETATM    3  C   UNL     1     -11.335   7.617  72.912  1.00  0.00    -0.341 C  
HETATM    4  O   UNL     1     -11.464   5.201  72.823  1.00  0.00    -0.268 OA 
ENDROOT
BRANCH   3   5
HETATM    5  N   UNL     1     -11.491   8.740  71.994  1.00  0.00    -0.361 N  
HETATM    6  C   UNL     1     -12.677   9.436  71.887  1.00  0.00    -0.401 C  
HETATM    7  H   UNL     1     -10.700   9.018  71.413  1.00  0.00     0.000 HD 
HETATM    8  O   UNL     1     -13.681   9.132  72.522  1.00  0.00    -0.474 OA 
BRANCH   6   9
HETATM    9  C   UNL     1     -12.672  10.597  70.883  1.00  0.00    -0.404 C  
BRANCH   9  10
HETATM   10  N   UNL     1     -11.361  10.876  70.323  1.00  0.00    -0.424 N  
HETATM   11  H   UNL     1     -10.558  10.922  70.950  1.00  0.00     0.000 HD 
HETATM   12  C   UNL     1     -11.162  11.082  68.976  1.00  0.00    -0.258 C  
HETATM   13  O   UNL     1     -12.077  11.010  68.160  1.00  0.00    -0.610 OA 
BRANCH  12  14
HETATM   14  C   UNL     1      -9.717  11.407  68.577  1.00  0.00    -0.197 C  
BRANCH  14  15
HETATM   15  N   UNL     1      -9.422  12.836  68.609  1.00  0.00    -0.408 N  
HETATM   16  C   UNL     1      -9.443  13.591  67.454  1.00  0.00    -0.225 C  
HETATM   17  H   UNL     1      -9.198  13.284  69.499  1.00  0.00     0.000 HD 
HETATM   18  O   UNL     1      -9.566  13.083  66.343  1.00  0.00    -0.262 OA 
BRANCH  16  19
HETATM   19  C   UNL     1      -9.218  15.080  67.661  1.00  0.00    -0.182 C  
BRANCH  19  20
HETATM   20  S   UNL     1      -9.438  15.564  69.387  1.00  0.00    -0.274 SA 
BRANCH  20  21
HETATM   21  C   UNL     1     -11.187  15.728  69.443  1.00  0.00    -0.324 C  
HETATM   22  O   UNL     1     -11.823  16.085  68.455  1.00  0.00    -0.343 OA 
BRANCH  21  23
HETATM   23  C   UNL     1     -11.859  15.434  70.739  1.00  0.00    -0.394 A  
HETATM   24  C   UNL     1     -13.025  14.657  70.734  1.00  0.00    -0.405 A  
HETATM   25  C   UNL     1     -13.707  14.409  71.930  1.00  0.00    -0.518 A  
HETATM   26  C   UNL     1     -13.235  14.942  73.129  1.00  0.00    -0.568 A  
HETATM   27  C   UNL     1     -12.076  15.714  73.139  1.00  0.00    -0.598 A  
HETATM   28  C   UNL     1     -11.389  15.961  71.950  1.00  0.00    -0.306 A  
ENDBRANCH  21  23
ENDBRANCH  20  21
ENDBRANCH  19  20
ENDBRANCH  16  19
ENDBRANCH  14  15
ENDBRANCH  12  14
ENDBRANCH   9  10
ENDBRANCH   6   9
ENDBRANCH   3   5
TORSDOF 9
ENDMDL
MODEL       39
REMARK 921   NORMALIZED FREE ENERGY PREDICTED BY IDOCK:   -6.08 KCAL/MOL
REMARK 922        TOTAL FREE ENERGY PREDICTED BY IDOCK:  -10.12 KCAL/MOL
REMARK 923 INTER-LIGAND FREE ENERGY PREDICTED BY IDOCK:   -8.52 KCAL/MOL
REMARK 924 INTRA-LIGAND FREE ENERGY PREDICTED BY IDOCK:   -1.60 KCAL/MOL
REMARK 927      BINDING AFFINITY PREDICTED BY RF-SCORE:    0.00 PKD
ROOT
HETATM    1  O   UNL     1     -11.853   7.063  70.817  1.00  0.00    -0.337 OA 
HETATM    2  C   UNL     1     -11.545   8.131  71.592  1.00  0.00    -0.279 C  
HETATM    3  C   UNL     1     -11.213   9.396  70.808  1.00  0.00    -0.302 C  
HETATM    4  O   UNL     1     -11.510   8.066  72.809  1.00  0.00    -0.402 OA 
ENDROOT
BRANCH   3   5
HETATM    5  N   UNL     1     -11.295   9.204  69.364  1.00  0.00    -0.432 N  
HETATM    6  C   UNL     1     -10.171   9.162  68.567  1.00  0.00    -0.198 C  
HETATM    7  H   UNL     1     -12.213   9.098  68.931  1.00  0.00     0.000 HD 
HETATM    8  O   UNL     1      -9.039   9.324  69.013  1.00  0.00    -0.142 OA 
BRANCH   6   9
HETATM    9  C   UNL     1     -10.429   8.942  67.071  1.00  0.00    -0.256 C  
BRANCH   9  10
HETATM   10  N   UNL     1     -10.526  10.176  66.310  1.00  0.00    -0.167 N  
HETATM   11  H   UNL     1     -11.027  10.966  66.716  1.00  0.00     0.000 HD 
HETATM   12  C   UNL     1      -9.965  10.318  65.061  1.00  0.00    -0.323 C  
HETATM   13  O   UNL     1      -9.321   9.419  64.525  1.00  0.00    -0.189 OA 
BRANCH  12  14
HETATM   14  C   UNL     1     -10.208  11.678  64.393  1.00  0.00    -0.300 C  
BRANCH  14  15
HETATM   15  N   UNL     1     -10.792  12.664  65.298  1.00  0.00    -0.281 N  
HETATM   16  C   UNL     1     -12.072  13.139  65.099  1.00  0.00    -0.421 C  
HETATM   17  H   UNL     1     -10.245  13.007  66.088  1.00  0.00     0.000 HD 
HETATM   18  O   UNL     1     -12.720  12.871  64.090  1.00  0.00    -0.653 OA 
BRANCH  16  19
HETATM   19  C   UNL     1     -12.578  14.080  66.179  1.00  0.00    -0.367 C  
BRANCH  19  20
HETATM   20  S   UNL     1     -11.265  14.569  67.319  1.00  0.00    -0.345 SA 
BRANCH  20  21
HETATM   21  C   UNL     1     -11.528  13.407  68.612  1.00  0.00    -0.310 C  
HETATM   22  O   UNL     1     -11.207  12.229  68.481  1.00  0.00    -0.231 OA 
BRANCH  21  23
HETATM   23  C   UNL     1     -12.170  13.907  69.859  1.00  0.00    -0.393 A  
HETATM   24  C   UNL     1     -12.220  15.288  70.088  1.00  0.00    -0.402 A  
HETATM   25  C   UNL     1     -12.769  15.783  71.275  1.00  0.00    -0.498 A  
HETATM   26  C   UNL     1     -13.260  14.904  72.239  1.00  0.00    -0.468 A  
HETATM   27  C   UNL     1     -13.215  13.530  72.016  1.00  0.00    -0.529 A  
HETATM   28  C   UNL     1     -12.672  13.030  70.833  1.00  0.00    -0.299 A  
ENDBRANCH  21  23
ENDBRANCH  20  21
ENDBRANCH  19  20
ENDBRANCH  16  19
ENDBRANCH  14  15
ENDBRANCH  12  14
ENDBRANCH   9  10
ENDBRANCH   6   9
ENDBRANCH   3   5
TORSDOF 9
ENDMDL
MODEL       40
REMARK 921   NORMALIZED FREE ENERGY PREDICTED BY IDOCK:   -6.08 KCAL/MOL
REMARK 922        TOTAL FREE ENERGY PREDICTED BY IDOCK:  -10.12 KCAL/MOL
REMARK 923 INTER-LIGAND FREE ENERGY PREDICTED BY IDOCK:   -9.55 KCAL/MOL
REMARK 924 INTRA-LIGAND FREE ENERGY PREDICTED BY IDOCK:   -0.57 KCAL/MOL
REMARK 927      BINDING AFFINITY PREDICTED BY RF-SCORE:    0.00 PKD
ROOT
HETATM    1  O   UNL     1     -11.528   4.618  73.166  1.00  0.00    -0.286 OA 
HETATM    2  C   UNL     1     -10.372   5.129  73.652  1.00  0.00    -0.223 C  
HETATM    3  C   UNL     1     -10.342   6.652  73.723  1.00  0.00    -0.349 C  
HETATM    4  O   UNL     1      -9.431   4.422  73.975  1.00  0.00    -0.112 OA 
ENDROOT
BRANCH   3   5
HETATM    5  N   UNL     1     -11.579   7.263  73.248  1.00  0.00    -0.496 N  
HETATM    6  C   UNL     1     -11.578   8.323  72.366  1.00  0.00    -0.396 C  
HETATM    7  H   UNL     1     -12.471   6.896  73.579  1.00  0.00     0.000 HD 
HETATM    8  O   UNL     1     -10.544   8.843  71.959  1.00  0.00    -0.341 OA 
BRANCH   6   9
HETATM    9  C   UNL     1     -12.963   8.843  71.957  1.00  0.00    -0.399 C  
BRANCH   9  10
HETATM   10  N   UNL     1     -13.211  10.216  72.363  1.00  0.00    -0.550 N  
HETATM   11  H   UNL     1     -13.554  10.395  73.306  1.00  0.00     0.000 HD 
HETATM   12  C   UNL     1     -13.001  11.284  71.520  1.00  0.00    -0.415 C  
HETATM   13  O   UNL     1     -12.560  11.144  70.382  1.00  0.00    -0.293 OA 
BRANCH  12  14
HETATM   14  C   UNL     1     -13.361  12.654  72.109  1.00  0.00    -0.466 C  
BRANCH  14  15
HETATM   15  N   UNL     1     -12.637  13.755  71.480  1.00  0.00    -0.341 N  
HETATM   16  C   UNL     1     -12.553  14.990  72.091  1.00  0.00    -0.330 C  
HETATM   17  H   UNL     1     -12.188  13.610  70.575  1.00  0.00     0.000 HD 
HETATM   18  O   UNL     1     -13.190  15.263  73.105  1.00  0.00    -0.461 OA 
BRANCH  16  19
HETATM   19  C   UNL     1     -11.682  16.002  71.365  1.00  0.00    -0.473 C  
BRANCH  19  20
HETATM   20  S   UNL     1     -11.775  15.813  69.572  1.00  0.00    -0.342 SA 
BRANCH  20  21
HETATM   21  C   UNL     1     -10.203  16.449  69.110  1.00  0.00    -0.280 C  
HETATM   22  O   UNL     1      -9.165  15.930  69.513  1.00  0.00    -0.255 OA 
BRANCH  21  23
HETATM   23  C   UNL     1     -10.183  17.649  68.229  1.00  0.00    -0.374 A  
HETATM   24  C   UNL     1      -9.954  18.906  68.803  1.00  0.00    -0.466 A  
HETATM   25  C   UNL     1      -9.983  20.056  68.008  1.00  0.00    -0.550 A  
HETATM   26  C   UNL     1     -10.249  19.957  66.643  1.00  0.00    -0.609 A  
HETATM   27  C   UNL     1     -10.475  18.709  66.066  1.00  0.00    -0.456 A  
HETATM   28  C   UNL     1     -10.445  17.558  66.854  1.00  0.00    -0.285 A  
ENDBRANCH  21  23
ENDBRANCH  20  21
ENDBRANCH  19  20
ENDBRANCH  16  19
ENDBRANCH  14  15
ENDBRANCH  12  14
ENDBRANCH   9  10
ENDBRANCH   6   9
ENDBRANCH   3   5
TORSDOF 9
ENDMDL
MODEL       41
REMARK 921   NORMALIZED FREE ENERGY PREDICTED BY IDOCK:   -6.08 KCAL/MOL
REMARK 922        TOTAL FREE ENERGY PREDICTED BY IDOCK:  -10.11 KCAL/MOL
REMARK 923 INTER-LIGAND FREE ENERGY PREDICTED BY IDOCK:   -8.97 KCAL/MOL
REMARK 924 INTRA-LIGAND FREE ENERGY PREDICTED BY IDOCK:   -1.15 KCAL/MOL
REMARK 927      BINDING AFFINITY PREDICTED BY RF-SCORE:    0.00 PKD
ROOT
HETATM    1  O   UNL     1     -11.521   8.994  72.088  1.00  0.00    -0.355 OA 
HETATM    2  C   UNL     1     -10.509   8.198  72.508  1.00  0.00    -0.339 C  
HETATM    3  C   UNL     1      -9.203   8.393  71.746  1.00  0.00    -0.220 C  
HETATM    4  O   UNL     1     -10.650   7.378  73.400  1.00  0.00    -0.362 OA 
ENDROOT
BRANCH   3   5
HETATM    5  N   UNL     1      -9.303   9.410  70.705  1.00  0.00    -0.260 N  
HETATM    6  C   UNL     1      -9.370   9.082  69.367  1.00  0.00    -0.158 C  
HETATM    7  H   UNL     1      -9.323  10.394  70.974  1.00  0.00     0.000 HD 
HETATM    8  O   UNL     1      -9.308   7.924  68.967  1.00  0.00    -0.151 OA 
BRANCH   6   9
HETATM    9  C   UNL     1      -9.483  10.269  68.401  1.00  0.00    -0.146 C  
BRANCH   9  10
HETATM   10  N   UNL     1     -10.124  11.434  68.985  1.00  0.00    -0.379 N  
HETATM   11  H   UNL     1      -9.628  11.958  69.706  1.00  0.00     0.000 HD 
HETATM   12  C   UNL     1     -11.376  11.859  68.601  1.00  0.00    -0.276 C  
HETATM   13  O   UNL     1     -12.016  11.295  67.717  1.00  0.00    -0.637 OA 
BRANCH  12  14
HETATM   14  C   UNL     1     -11.907  13.082  69.360  1.00  0.00    -0.322 C  
BRANCH  14  15
HETATM   15  N   UNL     1     -11.986  14.280  68.530  1.00  0.00    -0.479 N  
HETATM   16  C   UNL     1     -10.971  15.216  68.536  1.00  0.00    -0.262 C  
HETATM   17  H   UNL     1     -12.803  14.428  67.937  1.00  0.00     0.000 HD 
HETATM   18  O   UNL     1     -10.037  15.161  69.331  1.00  0.00    -0.234 OA 
BRANCH  16  19
HETATM   19  C   UNL     1     -11.148  16.355  67.546  1.00  0.00    -0.109 C  
BRANCH  19  20
HETATM   20  S   UNL     1      -9.909  16.308  66.233  1.00  0.00    -0.334 SA 
BRANCH  20  21
HETATM   21  C   UNL     1     -10.905  15.783  64.883  1.00  0.00    -0.413 C  
HETATM   22  O   UNL     1     -11.528  16.593  64.202  1.00  0.00    -1.131 OA 
BRANCH  21  23
HETATM   23  C   UNL     1     -10.976  14.320  64.615  1.00  0.00    -0.379 A  
HETATM   24  C   UNL     1     -12.028  13.826  63.832  1.00  0.00    -0.414 A  
HETATM   25  C   UNL     1     -12.149  12.452  63.608  1.00  0.00    -0.648 A  
HETATM   26  C   UNL     1     -11.229  11.566  64.170  1.00  0.00    -0.393 A  
HETATM   27  C   UNL     1     -10.180  12.052  64.947  1.00  0.00    -0.302 A  
HETATM   28  C   UNL     1     -10.052  13.423  65.171  1.00  0.00    -0.266 A  
ENDBRANCH  21  23
ENDBRANCH  20  21
ENDBRANCH  19  20
ENDBRANCH  16  19
ENDBRANCH  14  15
ENDBRANCH  12  14
ENDBRANCH   9  10
ENDBRANCH   6   9
ENDBRANCH   3   5
TORSDOF 9
ENDMDL
MODEL       42
REMARK 921   NORMALIZED FREE ENERGY PREDICTED BY IDOCK:   -6.05 KCAL/MOL
REMARK 922        TOTAL FREE ENERGY PREDICTED BY IDOCK:  -10.08 KCAL/MOL
REMARK 923 INTER-LIGAND FREE ENERGY PREDICTED BY IDOCK:   -9.40 KCAL/MOL
REMARK 924 INTRA-LIGAND FREE ENERGY PREDICTED BY IDOCK:   -0.68 KCAL/MOL
REMARK 927      BINDING AFFINITY PREDICTED BY RF-SCORE:    0.00 PKD
ROOT
HETATM    1  O   UNL     1     -10.326   5.505  71.445  1.00  0.00    -0.212 OA 
HETATM    2  C   UNL     1     -11.061   5.857  72.526  1.00  0.00    -0.283 C  
HETATM    3  C   UNL     1     -11.260   7.360  72.683  1.00  0.00    -0.332 C  
HETATM    4  O   UNL     1     -11.495   5.035  73.316  1.00  0.00    -0.332 OA 
ENDROOT
BRANCH   3   5
HETATM    5  N   UNL     1     -10.615   8.130  71.625  1.00  0.00    -0.222 N  
HETATM    6  C   UNL     1     -11.087   9.363  71.226  1.00  0.00    -0.376 C  
HETATM    7  H   UNL     1      -9.789   7.744  71.166  1.00  0.00     0.000 HD 
HETATM    8  O   UNL     1     -12.097   9.869  71.704  1.00  0.00    -0.389 OA 
BRANCH   6   9
HETATM    9  C   UNL     1     -10.287  10.046  70.109  1.00  0.00    -0.266 C  
BRANCH   9  10
HETATM   10  N   UNL     1     -10.899  11.269  69.621  1.00  0.00    -0.445 N  
HETATM   11  H   UNL     1     -10.978  12.066  70.252  1.00  0.00     0.000 HD 
HETATM   12  C   UNL     1     -11.378  11.393  68.336  1.00  0.00    -0.281 C  
HETATM   13  O   UNL     1     -11.288  10.485  67.513  1.00  0.00    -0.396 OA 
BRANCH  12  14
HETATM   14  C   UNL     1     -12.031  12.744  68.015  1.00  0.00    -0.264 C  
BRANCH  14  15
HETATM   15  N   UNL     1     -11.360  13.461  66.934  1.00  0.00    -0.311 N  
HETATM   16  C   UNL     1     -11.943  13.573  65.688  1.00  0.00    -0.397 C  
HETATM   17  H   UNL     1     -10.447  13.885  67.102  1.00  0.00     0.000 HD 
HETATM   18  O   UNL     1     -12.968  12.965  65.388  1.00  0.00    -0.615 OA 
BRANCH  16  19
HETATM   19  C   UNL     1     -11.174  14.433  64.699  1.00  0.00    -0.360 C  
BRANCH  19  20
HETATM   20  S   UNL     1      -9.839  15.351  65.496  1.00  0.00    -0.284 SA 
BRANCH  20  21
HETATM   21  C   UNL     1     -10.514  16.973  65.465  1.00  0.00    -0.166 C  
HETATM   22  O   UNL     1     -11.197  17.358  64.519  1.00  0.00    -1.018 OA 
BRANCH  21  23
HETATM   23  C   UNL     1     -10.209  17.863  66.619  1.00  0.00    -0.371 A  
HETATM   24  C   UNL     1      -9.737  17.290  67.808  1.00  0.00    -0.270 A  
HETATM   25  C   UNL     1      -9.494  18.095  68.925  1.00  0.00    -0.216 A  
HETATM   26  C   UNL     1      -9.728  19.468  68.864  1.00  0.00    -0.497 A  
HETATM   27  C   UNL     1     -10.195  20.043  67.684  1.00  0.00    -0.548 A  
HETATM   28  C   UNL     1     -10.437  19.246  66.565  1.00  0.00    -0.552 A  
ENDBRANCH  21  23
ENDBRANCH  20  21
ENDBRANCH  19  20
ENDBRANCH  16  19
ENDBRANCH  14  15
ENDBRANCH  12  14
ENDBRANCH   9  10
ENDBRANCH   6   9
ENDBRANCH   3   5
TORSDOF 9
ENDMDL
MODEL       43
REMARK 921   NORMALIZED FREE ENERGY PREDICTED BY IDOCK:   -6.04 KCAL/MOL
REMARK 922        TOTAL FREE ENERGY PREDICTED BY IDOCK:  -10.05 KCAL/MOL
REMARK 923 INTER-LIGAND FREE ENERGY PREDICTED BY IDOCK:   -8.89 KCAL/MOL
REMARK 924 INTRA-LIGAND FREE ENERGY PREDICTED BY IDOCK:   -1.16 KCAL/MOL
REMARK 927      BINDING AFFINITY PREDICTED BY RF-SCORE:    0.00 PKD
ROOT
HETATM    1  O   UNL     1     -10.747   9.709  68.495  1.00  0.00    -0.219 OA 
HETATM    2  C   UNL     1     -10.403   8.686  69.312  1.00  0.00    -0.221 C  
HETATM    3  C   UNL     1     -10.668   8.949  70.790  1.00  0.00    -0.233 C  
HETATM    4  O   UNL     1      -9.896   7.658  68.893  1.00  0.00    -0.158 OA 
ENDROOT
BRANCH   3   5
HETATM    5  N   UNL     1     -11.249  10.265  71.034  1.00  0.00    -0.316 N  
HETATM    6  C   UNL     1     -12.515  10.419  71.560  1.00  0.00    -0.404 C  
HETATM    7  H   UNL     1     -10.703  11.097  70.808  1.00  0.00     0.000 HD 
HETATM    8  O   UNL     1     -13.244   9.466  71.816  1.00  0.00    -0.358 OA 
BRANCH   6   9
HETATM    9  C   UNL     1     -12.972  11.869  71.766  1.00  0.00    -0.350 C  
BRANCH   9  10
HETATM   10  N   UNL     1     -12.267  12.825  70.929  1.00  0.00    -0.447 N  
HETATM   11  H   UNL     1     -11.414  12.529  70.456  1.00  0.00     0.000 HD 
HETATM   12  C   UNL     1     -12.710  14.117  70.751  1.00  0.00    -0.344 C  
HETATM   13  O   UNL     1     -13.746  14.531  71.265  1.00  0.00    -0.378 OA 
BRANCH  12  14
HETATM   14  C   UNL     1     -11.811  14.993  69.869  1.00  0.00    -0.324 C  
BRANCH  14  15
HETATM   15  N   UNL     1     -12.222  15.005  68.468  1.00  0.00    -0.602 N  
HETATM   16  C   UNL     1     -11.777  14.038  67.589  1.00  0.00    -0.377 C  
HETATM   17  H   UNL     1     -12.847  15.739  68.133  1.00  0.00     0.000 HD 
HETATM   18  O   UNL     1     -10.916  13.219  67.900  1.00  0.00    -0.238 OA 
BRANCH  16  19
HETATM   19  C   UNL     1     -12.371  14.123  66.194  1.00  0.00    -0.436 C  
BRANCH  19  20
HETATM   20  S   UNL     1     -11.097  14.279  64.924  1.00  0.00    -0.402 SA 
BRANCH  20  21
HETATM   21  C   UNL     1     -11.470  12.876  63.934  1.00  0.00    -0.446 C  
HETATM   22  O   UNL     1     -12.466  12.853  63.215  1.00  0.00    -0.685 OA 
BRANCH  21  23
HETATM   23  C   UNL     1     -10.542  11.714  64.017  1.00  0.00    -0.426 A  
HETATM   24  C   UNL     1      -9.830  11.335  62.871  1.00  0.00    -0.317 A  
HETATM   25  C   UNL     1      -8.992  10.216  62.906  1.00  0.00    -0.262 A  
HETATM   26  C   UNL     1      -8.869   9.468  64.076  1.00  0.00    -0.243 A  
HETATM   27  C   UNL     1      -9.573   9.843  65.218  1.00  0.00    -0.361 A  
HETATM   28  C   UNL     1     -10.408  10.960  65.191  1.00  0.00    -0.344 A  
ENDBRANCH  21  23
ENDBRANCH  20  21
ENDBRANCH  19  20
ENDBRANCH  16  19
ENDBRANCH  14  15
ENDBRANCH  12  14
ENDBRANCH   9  10
ENDBRANCH   6   9
ENDBRANCH   3   5
TORSDOF 9
ENDMDL
MODEL       44
REMARK 921   NORMALIZED FREE ENERGY PREDICTED BY IDOCK:   -6.04 KCAL/MOL
REMARK 922        TOTAL FREE ENERGY PREDICTED BY IDOCK:  -10.05 KCAL/MOL
REMARK 923 INTER-LIGAND FREE ENERGY PREDICTED BY IDOCK:   -8.75 KCAL/MOL
REMARK 924 INTRA-LIGAND FREE ENERGY PREDICTED BY IDOCK:   -1.31 KCAL/MOL
REMARK 927      BINDING AFFINITY PREDICTED BY RF-SCORE:    0.00 PKD
ROOT
HETATM    1  O   UNL     1     -13.144  14.240  65.550  1.00  0.00    -0.639 OA 
HETATM    2  C   UNL     1     -12.256  14.238  64.527  1.00  0.00    -0.455 C  
HETATM    3  C   UNL     1     -10.832  14.600  64.936  1.00  0.00    -0.419 C  
HETATM    4  O   UNL     1     -12.584  13.997  63.377  1.00  0.00    -0.845 OA 
ENDROOT
BRANCH   3   5
HETATM    5  N   UNL     1     -10.706  14.877  66.363  1.00  0.00    -0.309 N  
HETATM    6  C   UNL     1      -9.647  14.405  67.109  1.00  0.00    -0.250 C  
HETATM    7  H   UNL     1     -11.425  15.437  66.823  1.00  0.00     0.000 HD 
HETATM    8  O   UNL     1      -8.770  13.691  66.632  1.00  0.00    -0.137 OA 
BRANCH   6   9
HETATM    9  C   UNL     1      -9.658  14.795  68.592  1.00  0.00    -0.218 C  
BRANCH   9  10
HETATM   10  N   UNL     1     -10.487  13.929  69.414  1.00  0.00    -0.438 N  
HETATM   11  H   UNL     1     -10.081  13.072  69.789  1.00  0.00     0.000 HD 
HETATM   12  C   UNL     1     -11.799  14.225  69.706  1.00  0.00    -0.324 C  
HETATM   13  O   UNL     1     -12.342  15.254  69.315  1.00  0.00    -0.212 OA 
BRANCH  12  14
HETATM   14  C   UNL     1     -12.528  13.171  70.552  1.00  0.00    -0.248 C  
BRANCH  14  15
HETATM   15  N   UNL     1     -11.882  11.862  70.516  1.00  0.00    -0.510 N  
HETATM   16  C   UNL     1     -12.374  10.808  71.258  1.00  0.00    -0.365 C  
HETATM   17  H   UNL     1     -11.056  11.725  69.933  1.00  0.00     0.000 HD 
HETATM   18  O   UNL     1     -13.274  10.951  72.082  1.00  0.00    -0.474 OA 
BRANCH  16  19
HETATM   19  C   UNL     1     -11.659   9.485  71.038  1.00  0.00    -0.344 C  
BRANCH  19  20
HETATM   20  S   UNL     1     -10.067   9.705  70.215  1.00  0.00    -0.279 SA 
BRANCH  20  21
HETATM   21  C   UNL     1     -10.306   8.692  68.798  1.00  0.00    -0.208 C  
HETATM   22  O   UNL     1     -10.453   7.477  68.905  1.00  0.00    -0.209 OA 
BRANCH  21  23
HETATM   23  C   UNL     1     -10.306   9.364  67.470  1.00  0.00    -0.314 A  
HETATM   24  C   UNL     1      -9.583   8.785  66.419  1.00  0.00    -0.316 A  
HETATM   25  C   UNL     1      -9.521   9.422  65.176  1.00  0.00    -0.255 A  
HETATM   26  C   UNL     1     -10.170  10.640  64.980  1.00  0.00    -0.380 A  
HETATM   27  C   UNL     1     -10.892  11.220  66.021  1.00  0.00    -0.273 A  
HETATM   28  C   UNL     1     -10.960  10.588  67.262  1.00  0.00    -0.325 A  
ENDBRANCH  21  23
ENDBRANCH  20  21
ENDBRANCH  19  20
ENDBRANCH  16  19
ENDBRANCH  14  15
ENDBRANCH  12  14
ENDBRANCH   9  10
ENDBRANCH   6   9
ENDBRANCH   3   5
TORSDOF 9
ENDMDL
MODEL       45
REMARK 921   NORMALIZED FREE ENERGY PREDICTED BY IDOCK:   -6.03 KCAL/MOL
REMARK 922        TOTAL FREE ENERGY PREDICTED BY IDOCK:  -10.05 KCAL/MOL
REMARK 923 INTER-LIGAND FREE ENERGY PREDICTED BY IDOCK:   -9.09 KCAL/MOL
REMARK 924 INTRA-LIGAND FREE ENERGY PREDICTED BY IDOCK:   -0.96 KCAL/MOL
REMARK 927      BINDING AFFINITY PREDICTED BY RF-SCORE:    0.00 PKD
ROOT
HETATM    1  O   UNL     1     -12.393  15.006  74.482  1.00  0.00    -0.541 OA 
HETATM    2  C   UNL     1     -12.337  16.209  73.863  1.00  0.00    -0.569 C  
HETATM    3  C   UNL     1     -12.089  16.128  72.361  1.00  0.00    -0.540 C  
HETATM    4  O   UNL     1     -12.445  17.261  74.471  1.00  0.00    -0.421 OA 
ENDROOT
BRANCH   3   5
HETATM    5  N   UNL     1     -11.963  14.756  71.882  1.00  0.00    -0.345 N  
HETATM    6  C   UNL     1     -13.056  14.020  71.476  1.00  0.00    -0.363 C  
HETATM    7  H   UNL     1     -11.038  14.327  71.847  1.00  0.00     0.000 HD 
HETATM    8  O   UNL     1     -14.202  14.455  71.530  1.00  0.00    -0.403 OA 
BRANCH   6   9
HETATM    9  C   UNL     1     -12.751  12.597  70.990  1.00  0.00    -0.226 C  
BRANCH   9  10
HETATM   10  N   UNL     1     -11.543  12.503  70.188  1.00  0.00    -0.543 N  
HETATM   11  H   UNL     1     -10.765  13.127  70.397  1.00  0.00     0.000 HD 
HETATM   12  C   UNL     1     -11.412  11.603  69.155  1.00  0.00    -0.300 C  
HETATM   13  O   UNL     1     -12.296  10.801  68.867  1.00  0.00    -0.433 OA 
BRANCH  12  14
HETATM   14  C   UNL     1     -10.082  11.681  68.393  1.00  0.00    -0.206 C  
BRANCH  14  15
HETATM   15  N   UNL     1      -9.583  13.046  68.250  1.00  0.00    -0.226 N  
HETATM   16  C   UNL     1      -8.330  13.292  67.727  1.00  0.00    -0.171 C  
HETATM   17  H   UNL     1     -10.169  13.828  68.542  1.00  0.00     0.000 HD 
HETATM   18  O   UNL     1      -7.530  12.390  67.493  1.00  0.00    -0.128 OA 
BRANCH  16  19
HETATM   19  C   UNL     1      -7.993  14.763  67.545  1.00  0.00    -0.188 C  
BRANCH  19  20
HETATM   20  S   UNL     1      -8.948  15.515  66.209  1.00  0.00    -0.289 SA 
BRANCH  20  21
HETATM   21  C   UNL     1     -10.166  16.373  67.143  1.00  0.00    -0.282 C  
HETATM   22  O   UNL     1     -11.043  15.765  67.751  1.00  0.00    -0.331 OA 
BRANCH  21  23
HETATM   23  C   UNL     1     -10.099  17.860  67.151  1.00  0.00    -0.340 A  
HETATM   24  C   UNL     1     -10.473  18.560  65.996  1.00  0.00    -0.433 A  
HETATM   25  C   UNL     1     -10.369  19.954  65.956  1.00  0.00    -0.591 A  
HETATM   26  C   UNL     1      -9.885  20.652  67.062  1.00  0.00    -0.449 A  
HETATM   27  C   UNL     1      -9.513  19.962  68.213  1.00  0.00    -0.403 A  
HETATM   28  C   UNL     1      -9.617  18.571  68.260  1.00  0.00    -0.370 A  
ENDBRANCH  21  23
ENDBRANCH  20  21
ENDBRANCH  19  20
ENDBRANCH  16  19
ENDBRANCH  14  15
ENDBRANCH  12  14
ENDBRANCH   9  10
ENDBRANCH   6   9
ENDBRANCH   3   5
TORSDOF 9
ENDMDL
MODEL       46
REMARK 921   NORMALIZED FREE ENERGY PREDICTED BY IDOCK:   -6.02 KCAL/MOL
REMARK 922        TOTAL FREE ENERGY PREDICTED BY IDOCK:  -10.03 KCAL/MOL
REMARK 923 INTER-LIGAND FREE ENERGY PREDICTED BY IDOCK:   -9.21 KCAL/MOL
REMARK 924 INTRA-LIGAND FREE ENERGY PREDICTED BY IDOCK:   -0.82 KCAL/MOL
REMARK 927      BINDING AFFINITY PREDICTED BY RF-SCORE:    0.00 PKD
ROOT
HETATM    1  O   UNL     1     -12.270  10.641  70.500  1.00  0.00    -0.300 OA 
HETATM    2  C   UNL     1     -13.084  10.689  71.581  1.00  0.00    -0.450 C  
HETATM    3  C   UNL     1     -13.574   9.325  72.055  1.00  0.00    -0.452 C  
HETATM    4  O   UNL     1     -13.415  11.741  72.103  1.00  0.00    -0.446 OA 
ENDROOT
BRANCH   3   5
HETATM    5  N   UNL     1     -13.062   8.227  71.243  1.00  0.00    -0.502 N  
HETATM    6  C   UNL     1     -12.028   7.422  71.671  1.00  0.00    -0.307 C  
HETATM    7  H   UNL     1     -13.481   8.049  70.330  1.00  0.00     0.000 HD 
HETATM    8  O   UNL     1     -11.449   7.602  72.738  1.00  0.00    -0.355 OA 
BRANCH   6   9
HETATM    9  C   UNL     1     -11.616   6.305  70.703  1.00  0.00    -0.281 C  
BRANCH   9  10
HETATM   10  N   UNL     1     -11.615   6.715  69.310  1.00  0.00    -0.646 N  
HETATM   11  H   UNL     1     -12.507   6.863  68.840  1.00  0.00     0.000 HD 
HETATM   12  C   UNL     1     -10.452   6.909  68.599  1.00  0.00    -0.195 C  
HETATM   13  O   UNL     1      -9.342   6.779  69.109  1.00  0.00    -0.137 OA 
BRANCH  12  14
HETATM   14  C   UNL     1     -10.649   7.298  67.127  1.00  0.00    -0.346 C  
BRANCH  14  15
HETATM   15  N   UNL     1     -10.762   8.739  66.926  1.00  0.00    -0.267 N  
HETATM   16  C   UNL     1      -9.847   9.421  66.149  1.00  0.00    -0.285 C  
HETATM   17  H   UNL     1     -11.527   9.250  67.367  1.00  0.00     0.000 HD 
HETATM   18  O   UNL     1      -8.831   8.885  65.714  1.00  0.00    -0.162 OA 
BRANCH  16  19
HETATM   19  C   UNL     1     -10.154  10.896  65.949  1.00  0.00    -0.252 C  
BRANCH  19  20
HETATM   20  S   UNL     1     -10.869  11.224  64.323  1.00  0.00    -0.269 SA 
BRANCH  20  21
HETATM   21  C   UNL     1     -12.058  12.447  64.748  1.00  0.00    -0.416 C  
HETATM   22  O   UNL     1     -13.232  12.338  64.403  1.00  0.00    -0.806 OA 
BRANCH  21  23
HETATM   23  C   UNL     1     -11.580  13.624  65.525  1.00  0.00    -0.337 A  
HETATM   24  C   UNL     1     -10.628  14.474  64.948  1.00  0.00    -0.450 A  
HETATM   25  C   UNL     1     -10.121  15.556  65.674  1.00  0.00    -0.406 A  
HETATM   26  C   UNL     1     -10.554  15.787  66.979  1.00  0.00    -0.316 A  
HETATM   27  C   UNL     1     -11.502  14.946  67.558  1.00  0.00    -0.361 A  
HETATM   28  C   UNL     1     -12.013  13.867  66.837  1.00  0.00    -0.467 A  
ENDBRANCH  21  23
ENDBRANCH  20  21
ENDBRANCH  19  20
ENDBRANCH  16  19
ENDBRANCH  14  15
ENDBRANCH  12  14
ENDBRANCH   9  10
ENDBRANCH   6   9
ENDBRANCH   3   5
TORSDOF 9
ENDMDL
MODEL       47
REMARK 921   NORMALIZED FREE ENERGY PREDICTED BY IDOCK:   -6.01 KCAL/MOL
REMARK 922        TOTAL FREE ENERGY PREDICTED BY IDOCK:  -10.02 KCAL/MOL
REMARK 923 INTER-LIGAND FREE ENERGY PREDICTED BY IDOCK:   -8.99 KCAL/MOL
REMARK 924 INTRA-LIGAND FREE ENERGY PREDICTED BY IDOCK:   -1.03 KCAL/MOL
REMARK 927      BINDING AFFINITY PREDICTED BY RF-SCORE:    0.00 PKD
ROOT
HETATM    1  O   UNL     1     -12.288  14.958  74.349  1.00  0.00    -0.560 OA 
HETATM    2  C   UNL     1     -12.192  16.127  73.672  1.00  0.00    -0.516 C  
HETATM    3  C   UNL     1     -11.916  15.964  72.181  1.00  0.00    -0.518 C  
HETATM    4  O   UNL     1     -12.290  17.211  74.223  1.00  0.00    -0.456 OA 
ENDROOT
BRANCH   3   5
HETATM    5  N   UNL     1     -11.810  14.567  71.775  1.00  0.00    -0.385 N  
HETATM    6  C   UNL     1     -12.884  13.872  71.260  1.00  0.00    -0.360 C  
HETATM    7  H   UNL     1     -10.914  14.089  71.876  1.00  0.00     0.000 HD 
HETATM    8  O   UNL     1     -14.001  14.370  71.150  1.00  0.00    -0.303 OA 
BRANCH   6   9
HETATM    9  C   UNL     1     -12.603  12.415  70.871  1.00  0.00    -0.246 C  
BRANCH   9  10
HETATM   10  N   UNL     1     -11.459  12.259  69.990  1.00  0.00    -0.528 N  
HETATM   11  H   UNL     1     -10.965  13.092  69.674  1.00  0.00     0.000 HD 
HETATM   12  C   UNL     1     -11.017  11.026  69.566  1.00  0.00    -0.243 C  
HETATM   13  O   UNL     1     -11.545   9.979  69.932  1.00  0.00    -0.235 OA 
BRANCH  12  14
HETATM   14  C   UNL     1      -9.822  11.061  68.603  1.00  0.00    -0.193 C  
BRANCH  14  15
HETATM   15  N   UNL     1     -10.220  11.155  67.202  1.00  0.00    -0.194 N  
HETATM   16  C   UNL     1      -9.549  11.987  66.328  1.00  0.00    -0.231 C  
HETATM   17  H   UNL     1     -11.004  10.597  66.863  1.00  0.00     0.000 HD 
HETATM   18  O   UNL     1      -8.695  12.783  66.709  1.00  0.00    -0.197 OA 
BRANCH  16  19
HETATM   19  C   UNL     1     -10.011  11.899  64.883  1.00  0.00    -0.241 C  
BRANCH  19  20
HETATM   20  S   UNL     1     -11.807  12.007  64.738  1.00  0.00    -0.201 SA 
BRANCH  20  21
HETATM   21  C   UNL     1     -12.002  13.748  64.587  1.00  0.00    -0.416 C  
HETATM   22  O   UNL     1     -12.504  14.245  63.582  1.00  0.00    -0.816 OA 
BRANCH  21  23
HETATM   23  C   UNL     1     -11.519  14.590  65.715  1.00  0.00    -0.342 A  
HETATM   24  C   UNL     1     -12.017  14.347  67.002  1.00  0.00    -0.424 A  
HETATM   25  C   UNL     1     -11.622  15.157  68.071  1.00  0.00    -0.345 A  
HETATM   26  C   UNL     1     -10.738  16.215  67.859  1.00  0.00    -0.321 A  
HETATM   27  C   UNL     1     -10.238  16.460  66.582  1.00  0.00    -0.296 A  
HETATM   28  C   UNL     1     -10.627  15.653  65.512  1.00  0.00    -0.422 A  
ENDBRANCH  21  23
ENDBRANCH  20  21
ENDBRANCH  19  20
ENDBRANCH  16  19
ENDBRANCH  14  15
ENDBRANCH  12  14
ENDBRANCH   9  10
ENDBRANCH   6   9
ENDBRANCH   3   5
TORSDOF 9
ENDMDL
MODEL       48
REMARK 921   NORMALIZED FREE ENERGY PREDICTED BY IDOCK:   -6.01 KCAL/MOL
REMARK 922        TOTAL FREE ENERGY PREDICTED BY IDOCK:  -10.02 KCAL/MOL
REMARK 923 INTER-LIGAND FREE ENERGY PREDICTED BY IDOCK:   -9.51 KCAL/MOL
REMARK 924 INTRA-LIGAND FREE ENERGY PREDICTED BY IDOCK:   -0.51 KCAL/MOL
REMARK 927      BINDING AFFINITY PREDICTED BY RF-SCORE:    0.00 PKD
ROOT
HETATM    1  O   UNL     1     -11.955   6.583  70.211  1.00  0.00    -0.394 OA 
HETATM    2  C   UNL     1     -11.161   6.196  71.238  1.00  0.00    -0.291 C  
HETATM    3  C   UNL     1     -11.315   7.039  72.499  1.00  0.00    -0.263 C  
HETATM    4  O   UNL     1     -10.372   5.271  71.140  1.00  0.00    -0.217 OA 
ENDROOT
BRANCH   3   5
HETATM    5  N   UNL     1     -12.299   8.105  72.349  1.00  0.00    -0.514 N  
HETATM    6  C   UNL     1     -11.969   9.335  71.820  1.00  0.00    -0.385 C  
HETATM    7  H   UNL     1     -13.261   7.936  72.646  1.00  0.00     0.000 HD 
HETATM    8  O   UNL     1     -10.826   9.623  71.481  1.00  0.00    -0.329 OA 
BRANCH   6   9
HETATM    9  C   UNL     1     -13.122  10.342  71.720  1.00  0.00    -0.465 C  
BRANCH   9  10
HETATM   10  N   UNL     1     -12.727  11.625  71.166  1.00  0.00    -0.370 N  
HETATM   11  H   UNL     1     -12.090  11.642  70.370  1.00  0.00     0.000 HD 
HETATM   12  C   UNL     1     -13.182  12.820  71.675  1.00  0.00    -0.317 C  
HETATM   13  O   UNL     1     -13.976  12.875  72.611  1.00  0.00    -0.589 OA 
BRANCH  12  14
HETATM   14  C   UNL     1     -12.622  14.073  70.988  1.00  0.00    -0.366 C  
BRANCH  14  15
HETATM   15  N   UNL     1     -12.400  13.889  69.556  1.00  0.00    -0.382 N  
HETATM   16  C   UNL     1     -11.977  14.937  68.763  1.00  0.00    -0.249 C  
HETATM   17  H   UNL     1     -12.560  12.973  69.136  1.00  0.00     0.000 HD 
HETATM   18  O   UNL     1     -11.907  16.089  69.185  1.00  0.00    -0.356 OA 
BRANCH  16  19
HETATM   19  C   UNL     1     -11.691  14.567  67.318  1.00  0.00    -0.406 C  
BRANCH  19  20
HETATM   20  S   UNL     1     -10.000  14.978  66.836  1.00  0.00    -0.250 SA 
BRANCH  20  21
HETATM   21  C   UNL     1     -10.280  16.480  65.967  1.00  0.00    -0.356 C  
HETATM   22  O   UNL     1     -10.874  16.489  64.892  1.00  0.00    -0.684 OA 
BRANCH  21  23
HETATM   23  C   UNL     1      -9.754  17.731  66.578  1.00  0.00    -0.324 A  
HETATM   24  C   UNL     1     -10.656  18.629  67.164  1.00  0.00    -0.468 A  
HETATM   25  C   UNL     1     -10.197  19.837  67.698  1.00  0.00    -0.569 A  
HETATM   26  C   UNL     1      -8.841  20.157  67.641  1.00  0.00    -0.396 A  
HETATM   27  C   UNL     1      -7.939  19.267  67.062  1.00  0.00    -0.277 A  
HETATM   28  C   UNL     1      -8.391  18.059  66.531  1.00  0.00    -0.293 A  
ENDBRANCH  21  23
ENDBRANCH  20  21
ENDBRANCH  19  20
ENDBRANCH  16  19
ENDBRANCH  14  15
ENDBRANCH  12  14
ENDBRANCH   9  10
ENDBRANCH   6   9
ENDBRANCH   3   5
TORSDOF 9
ENDMDL
MODEL       49
REMARK 921   NORMALIZED FREE ENERGY PREDICTED BY IDOCK:   -6.01 KCAL/MOL
REMARK 922        TOTAL FREE ENERGY PREDICTED BY IDOCK:  -10.01 KCAL/MOL
REMARK 923 INTER-LIGAND FREE ENERGY PREDICTED BY IDOCK:   -8.61 KCAL/MOL
REMARK 924 INTRA-LIGAND FREE ENERGY PREDICTED BY IDOCK:   -1.40 KCAL/MOL
REMARK 927      BINDING AFFINITY PREDICTED BY RF-SCORE:    0.00 PKD
ROOT
HETATM    1  O   UNL     1     -10.945  11.584  63.939  1.00  0.00    -0.364 OA 
HETATM    2  C   UNL     1     -11.951  12.430  64.267  1.00  0.00    -0.410 C  
HETATM    3  C   UNL     1     -11.904  12.926  65.708  1.00  0.00    -0.419 C  
HETATM    4  O   UNL     1     -12.829  12.737  63.479  1.00  0.00    -0.693 OA 
ENDROOT
BRANCH   3   5
HETATM    5  N   UNL     1     -10.773  12.386  66.455  1.00  0.00    -0.232 N  
HETATM    6  C   UNL     1     -10.928  11.395  67.401  1.00  0.00    -0.273 C  
HETATM    7  H   UNL     1      -9.839  12.754  66.273  1.00  0.00     0.000 HD 
HETATM    8  O   UNL     1     -12.025  10.935  67.702  1.00  0.00    -0.512 OA 
BRANCH   6   9
HETATM    9  C   UNL     1      -9.637  10.930  68.088  1.00  0.00    -0.164 C  
BRANCH   9  10
HETATM   10  N   UNL     1      -8.916  12.000  68.755  1.00  0.00    -0.386 N  
HETATM   11  H   UNL     1      -9.251  12.329  69.660  1.00  0.00     0.000 HD 
HETATM   12  C   UNL     1      -7.797  12.588  68.209  1.00  0.00    -0.144 C  
HETATM   13  O   UNL     1      -7.320  12.221  67.138  1.00  0.00    -0.148 OA 
BRANCH  12  14
HETATM   14  C   UNL     1      -7.196  13.731  69.038  1.00  0.00    -0.063 C  
BRANCH  14  15
HETATM   15  N   UNL     1      -8.190  14.713  69.464  1.00  0.00    -0.392 N  
HETATM   16  C   UNL     1      -8.455  15.831  68.700  1.00  0.00    -0.193 C  
HETATM   17  H   UNL     1      -8.695  14.569  70.338  1.00  0.00     0.000 HD 
HETATM   18  O   UNL     1      -7.781  16.127  67.717  1.00  0.00    -0.133 OA 
BRANCH  16  19
HETATM   19  C   UNL     1      -9.585  16.705  69.220  1.00  0.00    -0.148 C  
BRANCH  19  20
HETATM   20  S   UNL     1     -11.187  16.206  68.553  1.00  0.00    -0.344 SA 
BRANCH  20  21
HETATM   21  C   UNL     1     -11.562  14.859  69.619  1.00  0.00    -0.303 C  
HETATM   22  O   UNL     1     -11.260  13.708  69.316  1.00  0.00    -0.255 OA 
BRANCH  21  23
HETATM   23  C   UNL     1     -12.272  15.171  70.890  1.00  0.00    -0.398 A  
HETATM   24  C   UNL     1     -13.655  14.956  70.962  1.00  0.00    -0.402 A  
HETATM   25  C   UNL     1     -14.357  15.290  72.124  1.00  0.00    -0.651 A  
HETATM   26  C   UNL     1     -13.686  15.847  73.212  1.00  0.00    -0.409 A  
HETATM   27  C   UNL     1     -12.311  16.061  73.147  1.00  0.00    -0.637 A  
HETATM   28  C   UNL     1     -11.605  15.727  71.991  1.00  0.00    -0.541 A  
ENDBRANCH  21  23
ENDBRANCH  20  21
ENDBRANCH  19  20
ENDBRANCH  16  19
ENDBRANCH  14  15
ENDBRANCH  12  14
ENDBRANCH   9  10
ENDBRANCH   6   9
ENDBRANCH   3   5
TORSDOF 9
ENDMDL
MODEL       50
REMARK 921   NORMALIZED FREE ENERGY PREDICTED BY IDOCK:   -6.00 KCAL/MOL
REMARK 922        TOTAL FREE ENERGY PREDICTED BY IDOCK:   -9.99 KCAL/MOL
REMARK 923 INTER-LIGAND FREE ENERGY PREDICTED BY IDOCK:   -9.23 KCAL/MOL
REMARK 924 INTRA-LIGAND FREE ENERGY PREDICTED BY IDOCK:   -0.77 KCAL/MOL
REMARK 927      BINDING AFFINITY PREDICTED BY RF-SCORE:    0.00 PKD
ROOT
HETATM    1  O   UNL     1     -12.251  11.727  63.235  1.00  0.00    -0.489 OA 
HETATM    2  C   UNL     1     -11.947  12.998  63.591  1.00  0.00    -0.539 C  
HETATM    3  C   UNL     1     -10.601  13.145  64.291  1.00  0.00    -0.412 C  
HETATM    4  O   UNL     1     -12.707  13.931  63.392  1.00  0.00    -0.806 OA 
ENDROOT
BRANCH   3   5
HETATM    5  N   UNL     1      -9.898  11.875  64.438  1.00  0.00    -0.404 N  
HETATM    6  C   UNL     1     -10.063  11.073  65.548  1.00  0.00    -0.261 C  
HETATM    7  H   UNL     1      -9.266  11.571  63.697  1.00  0.00     0.000 HD 
HETATM    8  O   UNL     1     -10.774  11.394  66.495  1.00  0.00    -0.256 OA 
BRANCH   6   9
HETATM    9  C   UNL     1      -9.261   9.765  65.542  1.00  0.00    -0.215 C  
BRANCH   9  10
HETATM   10  N   UNL     1     -10.058   8.594  65.865  1.00  0.00    -0.378 N  
HETATM   11  H   UNL     1     -10.901   8.408  65.323  1.00  0.00     0.000 HD 
HETATM   12  C   UNL     1      -9.716   7.725  66.877  1.00  0.00    -0.216 C  
HETATM   13  O   UNL     1      -8.698   7.870  67.549  1.00  0.00    -0.124 OA 
BRANCH  12  14
HETATM   14  C   UNL     1     -10.701   6.570  67.100  1.00  0.00    -0.368 C  
BRANCH  14  15
HETATM   15  N   UNL     1     -11.485   6.714  68.323  1.00  0.00    -0.525 N  
HETATM   16  C   UNL     1     -11.041   6.184  69.517  1.00  0.00    -0.420 C  
HETATM   17  H   UNL     1     -12.374   7.215  68.294  1.00  0.00     0.000 HD 
HETATM   18  O   UNL     1     -10.055   5.454  69.582  1.00  0.00    -0.203 OA 
BRANCH  16  19
HETATM   19  C   UNL     1     -11.913   6.504  70.720  1.00  0.00    -0.287 C  
BRANCH  19  20
HETATM   20  S   UNL     1     -10.992   6.403  72.270  1.00  0.00    -0.267 SA 
BRANCH  20  21
HETATM   21  C   UNL     1     -10.307   8.021  72.331  1.00  0.00    -0.289 C  
HETATM   22  O   UNL     1      -9.265   8.246  72.941  1.00  0.00    -0.253 OA 
BRANCH  21  23
HETATM   23  C   UNL     1     -11.049   9.104  71.629  1.00  0.00    -0.445 A  
HETATM   24  C   UNL     1     -10.452   9.729  70.527  1.00  0.00    -0.366 A  
HETATM   25  C   UNL     1     -11.103  10.785  69.882  1.00  0.00    -0.339 A  
HETATM   26  C   UNL     1     -12.344  11.226  70.338  1.00  0.00    -0.415 A  
HETATM   27  C   UNL     1     -12.944  10.606  71.432  1.00  0.00    -0.545 A  
HETATM   28  C   UNL     1     -12.301   9.550  72.078  1.00  0.00    -0.404 A  
ENDBRANCH  21  23
ENDBRANCH  20  21
ENDBRANCH  19  20
ENDBRANCH  16  19
ENDBRANCH  14  15
ENDBRANCH  12  14
ENDBRANCH   9  10
ENDBRANCH   6   9
ENDBRANCH   3   5
TORSDOF 9
ENDMDL
MODEL       51
REMARK 921   NORMALIZED FREE ENERGY PREDICTED BY IDOCK:   -5.99 KCAL/MOL
REMARK 922        TOTAL FREE ENERGY PREDICTED BY IDOCK:   -9.99 KCAL/MOL
REMARK 923 INTER-LIGAND FREE ENERGY PREDICTED BY IDOCK:   -9.04 KCAL/MOL
REMARK 924 INTRA-LIGAND FREE ENERGY PREDICTED BY IDOCK:   -0.95 KCAL/MOL
REMARK 927      BINDING AFFINITY PREDICTED BY RF-SCORE:    0.00 PKD
ROOT
HETATM    1  O   UNL     1      -9.956   8.900  71.791  1.00  0.00    -0.300 OA 
HETATM    2  C   UNL     1     -11.302   9.030  71.715  1.00  0.00    -0.377 C  
HETATM    3  C   UNL     1     -11.784   9.854  70.525  1.00  0.00    -0.295 C  
HETATM    4  O   UNL     1     -12.052   8.551  72.549  1.00  0.00    -0.389 OA 
ENDROOT
BRANCH   3   5
HETATM    5  N   UNL     1     -10.688  10.342  69.695  1.00  0.00    -0.246 N  
HETATM    6  C   UNL     1     -10.901  10.869  68.439  1.00  0.00    -0.222 C  
HETATM    7  H   UNL     1      -9.734  10.292  70.055  1.00  0.00     0.000 HD 
HETATM    8  O   UNL     1     -12.015  10.923  67.926  1.00  0.00    -0.585 OA 
BRANCH   6   9
HETATM    9  C   UNL     1      -9.644  11.348  67.701  1.00  0.00    -0.169 C  
BRANCH   9  10
HETATM   10  N   UNL     1      -9.931  12.107  66.496  1.00  0.00    -0.209 N  
HETATM   11  H   UNL     1      -9.918  13.125  66.541  1.00  0.00     0.000 HD 
HETATM   12  C   UNL     1     -10.221  11.501  65.294  1.00  0.00    -0.267 C  
HETATM   13  O   UNL     1     -10.224  10.280  65.160  1.00  0.00    -0.314 OA 
BRANCH  12  14
HETATM   14  C   UNL     1     -10.541  12.464  64.143  1.00  0.00    -0.385 C  
BRANCH  14  15
HETATM   15  N   UNL     1     -10.275  13.861  64.476  1.00  0.00    -0.678 N  
HETATM   16  C   UNL     1     -11.310  14.754  64.667  1.00  0.00    -0.366 C  
HETATM   17  H   UNL     1      -9.310  14.181  64.568  1.00  0.00     0.000 HD 
HETATM   18  O   UNL     1     -12.479  14.460  64.430  1.00  0.00    -0.635 OA 
BRANCH  16  19
HETATM   19  C   UNL     1     -10.880  16.143  65.108  1.00  0.00    -0.361 C  
BRANCH  19  20
HETATM   20  S   UNL     1      -9.675  16.083  66.452  1.00  0.00    -0.309 SA 
BRANCH  20  21
HETATM   21  C   UNL     1     -10.608  16.835  67.739  1.00  0.00    -0.341 C  
HETATM   22  O   UNL     1     -10.864  18.035  67.718  1.00  0.00    -0.383 OA 
BRANCH  21  23
HETATM   23  C   UNL     1     -11.057  15.960  68.857  1.00  0.00    -0.316 A  
HETATM   24  C   UNL     1     -11.585  14.697  68.559  1.00  0.00    -0.346 A  
HETATM   25  C   UNL     1     -12.063  13.877  69.585  1.00  0.00    -0.404 A  
HETATM   26  C   UNL     1     -12.025  14.316  70.908  1.00  0.00    -0.389 A  
HETATM   27  C   UNL     1     -11.500  15.570  71.211  1.00  0.00    -0.462 A  
HETATM   28  C   UNL     1     -11.018  16.392  70.191  1.00  0.00    -0.291 A  
ENDBRANCH  21  23
ENDBRANCH  20  21
ENDBRANCH  19  20
ENDBRANCH  16  19
ENDBRANCH  14  15
ENDBRANCH  12  14
ENDBRANCH   9  10
ENDBRANCH   6   9
ENDBRANCH   3   5
TORSDOF 9
ENDMDL
MODEL       52
REMARK 921   NORMALIZED FREE ENERGY PREDICTED BY IDOCK:   -5.98 KCAL/MOL
REMARK 922        TOTAL FREE ENERGY PREDICTED BY IDOCK:   -9.96 KCAL/MOL
REMARK 923 INTER-LIGAND FREE ENERGY PREDICTED BY IDOCK:   -8.24 KCAL/MOL
REMARK 924 INTRA-LIGAND FREE ENERGY PREDICTED BY IDOCK:   -1.72 KCAL/MOL
REMARK 927      BINDING AFFINITY PREDICTED BY RF-SCORE:    0.00 PKD
ROOT
HETATM    1  O   UNL     1     -13.128  13.536  65.385  1.00  0.00    -0.663 OA 
HETATM    2  C   UNL     1     -12.333  14.043  64.413  1.00  0.00    -0.367 C  
HETATM    3  C   UNL     1     -11.220  14.951  64.926  1.00  0.00    -0.410 C  
HETATM    4  O   UNL     1     -12.519  13.812  63.230  1.00  0.00    -0.819 OA 
ENDROOT
BRANCH   3   5
HETATM    5  N   UNL     1     -11.231  15.092  66.378  1.00  0.00    -0.317 N  
HETATM    6  C   UNL     1     -10.823  16.253  67.002  1.00  0.00    -0.173 C  
HETATM    7  H   UNL     1     -11.550  14.310  66.949  1.00  0.00     0.000 HD 
HETATM    8  O   UNL     1     -10.388  17.218  66.381  1.00  0.00    -0.331 OA 
BRANCH   6   9
HETATM    9  C   UNL     1     -10.907  16.243  68.533  1.00  0.00    -0.330 C  
BRANCH   9  10
HETATM   10  N   UNL     1     -11.232  14.941  69.090  1.00  0.00    -0.264 N  
HETATM   11  H   UNL     1     -10.752  14.118  68.727  1.00  0.00     0.000 HD 
HETATM   12  C   UNL     1     -12.164  14.778  70.090  1.00  0.00    -0.337 C  
HETATM   13  O   UNL     1     -12.757  15.728  70.595  1.00  0.00    -0.439 OA 
BRANCH  12  14
HETATM   14  C   UNL     1     -12.406  13.325  70.519  1.00  0.00    -0.316 C  
BRANCH  14  15
HETATM   15  N   UNL     1     -11.634  12.362  69.739  1.00  0.00    -0.469 N  
HETATM   16  C   UNL     1     -11.810  11.004  69.913  1.00  0.00    -0.353 C  
HETATM   17  H   UNL     1     -10.956  12.697  69.055  1.00  0.00     0.000 HD 
HETATM   18  O   UNL     1     -12.504  10.545  70.817  1.00  0.00    -0.320 OA 
BRANCH  16  19
HETATM   19  C   UNL     1     -11.013  10.130  68.959  1.00  0.00    -0.226 C  
BRANCH  19  20
HETATM   20  S   UNL     1      -9.272  10.607  68.898  1.00  0.00    -0.170 SA 
BRANCH  20  21
HETATM   21  C   UNL     1      -9.319  11.791  67.600  1.00  0.00    -0.180 C  
HETATM   22  O   UNL     1      -9.424  12.991  67.839  1.00  0.00    -0.203 OA 
BRANCH  21  23
HETATM   23  C   UNL     1      -9.246  11.278  66.204  1.00  0.00    -0.222 A  
HETATM   24  C   UNL     1     -10.395  11.325  65.405  1.00  0.00    -0.328 A  
HETATM   25  C   UNL     1     -10.370  10.802  64.109  1.00  0.00    -0.382 A  
HETATM   26  C   UNL     1      -9.204  10.222  63.610  1.00  0.00    -0.315 A  
HETATM   27  C   UNL     1      -8.057  10.174  64.400  1.00  0.00    -0.163 A  
HETATM   28  C   UNL     1      -8.076  10.698  65.692  1.00  0.00    -0.146 A  
ENDBRANCH  21  23
ENDBRANCH  20  21
ENDBRANCH  19  20
ENDBRANCH  16  19
ENDBRANCH  14  15
ENDBRANCH  12  14
ENDBRANCH   9  10
ENDBRANCH   6   9
ENDBRANCH   3   5
TORSDOF 9
ENDMDL
MODEL       53
REMARK 921   NORMALIZED FREE ENERGY PREDICTED BY IDOCK:   -5.97 KCAL/MOL
REMARK 922        TOTAL FREE ENERGY PREDICTED BY IDOCK:   -9.95 KCAL/MOL
REMARK 923 INTER-LIGAND FREE ENERGY PREDICTED BY IDOCK:   -8.39 KCAL/MOL
REMARK 924 INTRA-LIGAND FREE ENERGY PREDICTED BY IDOCK:   -1.57 KCAL/MOL
REMARK 927      BINDING AFFINITY PREDICTED BY RF-SCORE:    0.00 PKD
ROOT
HETATM    1  O   UNL     1     -13.137  11.832  63.642  1.00  0.00    -0.595 OA 
HETATM    2  C   UNL     1     -12.234  12.815  63.414  1.00  0.00    -0.504 C  
HETATM    3  C   UNL     1     -10.790  12.416  63.702  1.00  0.00    -0.462 C  
HETATM    4  O   UNL     1     -12.561  13.929  63.039  1.00  0.00    -0.694 OA 
ENDROOT
BRANCH   3   5
HETATM    5  N   UNL     1     -10.667  11.040  64.170  1.00  0.00    -0.433 N  
HETATM    6  C   UNL     1      -9.859  10.700  65.234  1.00  0.00    -0.275 C  
HETATM    7  H   UNL     1     -11.194  10.307  63.695  1.00  0.00     0.000 HD 
HETATM    8  O   UNL     1      -9.165  11.521  65.825  1.00  0.00    -0.223 OA 
BRANCH   6   9
HETATM    9  C   UNL     1      -9.850   9.212  65.607  1.00  0.00    -0.094 C  
BRANCH   9  10
HETATM   10  N   UNL     1     -10.032   8.968  67.028  1.00  0.00    -0.209 N  
HETATM   11  H   UNL     1     -10.038   9.763  67.666  1.00  0.00     0.000 HD 
HETATM   12  C   UNL     1     -10.196   7.702  67.544  1.00  0.00    -0.227 C  
HETATM   13  O   UNL     1     -10.231   6.703  66.830  1.00  0.00    -0.190 OA 
BRANCH  12  14
HETATM   14  C   UNL     1     -10.330   7.637  69.071  1.00  0.00    -0.213 C  
BRANCH  14  15
HETATM   15  N   UNL     1     -11.402   8.483  69.588  1.00  0.00    -0.435 N  
HETATM   16  C   UNL     1     -11.130   9.528  70.448  1.00  0.00    -0.277 C  
HETATM   17  H   UNL     1     -12.367   8.299  69.309  1.00  0.00     0.000 HD 
HETATM   18  O   UNL     1     -10.013   9.706  70.926  1.00  0.00    -0.262 OA 
BRANCH  16  19
HETATM   19  C   UNL     1     -12.333  10.379  70.817  1.00  0.00    -0.367 C  
BRANCH  19  20
HETATM   20  S   UNL     1     -12.072  12.124  70.432  1.00  0.00    -0.215 SA 
BRANCH  20  21
HETATM   21  C   UNL     1     -11.783  12.020  68.701  1.00  0.00    -0.326 C  
HETATM   22  O   UNL     1     -12.034  10.993  68.076  1.00  0.00    -0.623 OA 
BRANCH  21  23
HETATM   23  C   UNL     1     -11.206  13.218  68.031  1.00  0.00    -0.307 A  
HETATM   24  C   UNL     1     -11.920  13.818  66.986  1.00  0.00    -0.452 A  
HETATM   25  C   UNL     1     -11.378  14.912  66.304  1.00  0.00    -0.306 A  
HETATM   26  C   UNL     1     -10.122  15.404  66.655  1.00  0.00    -0.273 A  
HETATM   27  C   UNL     1      -9.408  14.813  67.695  1.00  0.00    -0.195 A  
HETATM   28  C   UNL     1      -9.945  13.723  68.381  1.00  0.00    -0.229 A  
ENDBRANCH  21  23
ENDBRANCH  20  21
ENDBRANCH  19  20
ENDBRANCH  16  19
ENDBRANCH  14  15
ENDBRANCH  12  14
ENDBRANCH   9  10
ENDBRANCH   6   9
ENDBRANCH   3   5
TORSDOF 9
ENDMDL
MODEL       54
REMARK 921   NORMALIZED FREE ENERGY PREDICTED BY IDOCK:   -5.97 KCAL/MOL
REMARK 922        TOTAL FREE ENERGY PREDICTED BY IDOCK:   -9.95 KCAL/MOL
REMARK 923 INTER-LIGAND FREE ENERGY PREDICTED BY IDOCK:   -9.36 KCAL/MOL
REMARK 924 INTRA-LIGAND FREE ENERGY PREDICTED BY IDOCK:   -0.60 KCAL/MOL
REMARK 927      BINDING AFFINITY PREDICTED BY RF-SCORE:    0.00 PKD
ROOT
HETATM    1  O   UNL     1     -13.278  12.877  64.881  1.00  0.00    -0.782 OA 
HETATM    2  C   UNL     1     -12.098  12.413  64.405  1.00  0.00    -0.426 C  
HETATM    3  C   UNL     1     -10.884  12.836  65.224  1.00  0.00    -0.291 C  
HETATM    4  O   UNL     1     -12.023  11.741  63.390  1.00  0.00    -0.474 OA 
ENDROOT
BRANCH   3   5
HETATM    5  N   UNL     1     -11.238  13.665  66.372  1.00  0.00    -0.304 N  
HETATM    6  C   UNL     1     -11.103  15.037  66.351  1.00  0.00    -0.329 C  
HETATM    7  H   UNL     1     -11.595  13.215  67.215  1.00  0.00     0.000 HD 
HETATM    8  O   UNL     1     -10.642  15.641  65.388  1.00  0.00    -0.363 OA 
BRANCH   6   9
HETATM    9  C   UNL     1     -11.530  15.762  67.634  1.00  0.00    -0.119 C  
BRANCH   9  10
HETATM   10  N   UNL     1     -11.951  14.864  68.696  1.00  0.00    -0.525 N  
HETATM   11  H   UNL     1     -12.340  13.956  68.447  1.00  0.00     0.000 HD 
HETATM   12  C   UNL     1     -11.843  15.195  70.028  1.00  0.00    -0.325 C  
HETATM   13  O   UNL     1     -11.355  16.259  70.402  1.00  0.00    -0.371 OA 
BRANCH  12  14
HETATM   14  C   UNL     1     -12.380  14.139  71.004  1.00  0.00    -0.366 C  
BRANCH  14  15
HETATM   15  N   UNL     1     -12.147  12.771  70.551  1.00  0.00    -0.508 N  
HETATM   16  C   UNL     1     -12.781  11.705  71.156  1.00  0.00    -0.325 C  
HETATM   17  H   UNL     1     -11.506  12.600  69.775  1.00  0.00     0.000 HD 
HETATM   18  O   UNL     1     -13.449  11.836  72.179  1.00  0.00    -0.446 OA 
BRANCH  16  19
HETATM   19  C   UNL     1     -12.519  10.355  70.508  1.00  0.00    -0.317 C  
BRANCH  19  20
HETATM   20  S   UNL     1     -11.453   9.312  71.526  1.00  0.00    -0.403 SA 
BRANCH  20  21
HETATM   21  C   UNL     1     -12.328   7.790  71.433  1.00  0.00    -0.323 C  
HETATM   22  O   UNL     1     -13.555   7.759  71.491  1.00  0.00    -0.354 OA 
BRANCH  21  23
HETATM   23  C   UNL     1     -11.522   6.546  71.299  1.00  0.00    -0.371 A  
HETATM   24  C   UNL     1     -11.176   5.836  72.456  1.00  0.00    -0.347 A  
HETATM   25  C   UNL     1     -10.375   4.694  72.365  1.00  0.00    -0.262 A  
HETATM   26  C   UNL     1      -9.909   4.262  71.124  1.00  0.00    -0.250 A  
HETATM   27  C   UNL     1     -10.252   4.962  69.970  1.00  0.00    -0.313 A  
HETATM   28  C   UNL     1     -11.053   6.101  70.054  1.00  0.00    -0.462 A  
ENDBRANCH  21  23
ENDBRANCH  20  21
ENDBRANCH  19  20
ENDBRANCH  16  19
ENDBRANCH  14  15
ENDBRANCH  12  14
ENDBRANCH   9  10
ENDBRANCH   6   9
ENDBRANCH   3   5
TORSDOF 9
ENDMDL
MODEL       55
REMARK 921   NORMALIZED FREE ENERGY PREDICTED BY IDOCK:   -5.96 KCAL/MOL
REMARK 922        TOTAL FREE ENERGY PREDICTED BY IDOCK:   -9.94 KCAL/MOL
REMARK 923 INTER-LIGAND FREE ENERGY PREDICTED BY IDOCK:   -9.01 KCAL/MOL
REMARK 924 INTRA-LIGAND FREE ENERGY PREDICTED BY IDOCK:   -0.93 KCAL/MOL
REMARK 927      BINDING AFFINITY PREDICTED BY RF-SCORE:    0.00 PKD
ROOT
HETATM    1  O   UNL     1     -11.142  16.337  68.730  1.00  0.00    -0.323 OA 
HETATM    2  C   UNL     1     -10.382  17.293  68.145  1.00  0.00    -0.357 C  
HETATM    3  C   UNL     1     -10.139  17.074  66.655  1.00  0.00    -0.306 C  
HETATM    4  O   UNL     1      -9.913  18.228  68.772  1.00  0.00    -0.363 OA 
ENDROOT
BRANCH   3   5
HETATM    5  N   UNL     1     -10.781  15.866  66.150  1.00  0.00    -0.301 N  
HETATM    6  C   UNL     1     -11.347  15.810  64.893  1.00  0.00    -0.280 C  
HETATM    7  H   UNL     1     -10.813  15.037  66.744  1.00  0.00     0.000 HD 
HETATM    8  O   UNL     1     -11.382  16.779  64.142  1.00  0.00    -1.194 OA 
BRANCH   6   9
HETATM    9  C   UNL     1     -11.971  14.462  64.510  1.00  0.00    -0.472 C  
BRANCH   9  10
HETATM   10  N   UNL     1     -10.996  13.403  64.318  1.00  0.00    -0.474 N  
HETATM   11  H   UNL     1     -10.072  13.503  64.739  1.00  0.00     0.000 HD 
HETATM   12  C   UNL     1     -11.272  12.268  63.589  1.00  0.00    -0.466 C  
HETATM   13  O   UNL     1     -12.372  12.067  63.082  1.00  0.00    -0.486 OA 
BRANCH  12  14
HETATM   14  C   UNL     1     -10.104  11.281  63.460  1.00  0.00    -0.396 C  
BRANCH  14  15
HETATM   15  N   UNL     1      -9.648  10.763  64.746  1.00  0.00    -0.239 N  
HETATM   16  C   UNL     1      -8.868   9.626  64.817  1.00  0.00    -0.207 C  
HETATM   17  H   UNL     1      -9.908  11.248  65.605  1.00  0.00     0.000 HD 
HETATM   18  O   UNL     1      -8.645   8.924  63.833  1.00  0.00    -0.175 OA 
BRANCH  16  19
HETATM   19  C   UNL     1      -8.386   9.269  66.213  1.00  0.00    -0.122 C  
BRANCH  19  20
HETATM   20  S   UNL     1      -9.748   8.797  67.299  1.00  0.00    -0.200 SA 
BRANCH  20  21
HETATM   21  C   UNL     1      -9.901  10.261  68.260  1.00  0.00    -0.146 C  
HETATM   22  O   UNL     1      -9.311  11.291  67.946  1.00  0.00    -0.153 OA 
BRANCH  21  23
HETATM   23  C   UNL     1     -10.759  10.194  69.476  1.00  0.00    -0.277 A  
HETATM   24  C   UNL     1     -10.618   9.103  70.344  1.00  0.00    -0.275 A  
HETATM   25  C   UNL     1     -11.446   8.987  71.464  1.00  0.00    -0.407 A  
HETATM   26  C   UNL     1     -12.422   9.950  71.717  1.00  0.00    -0.487 A  
HETATM   27  C   UNL     1     -12.564  11.038  70.859  1.00  0.00    -0.488 A  
HETATM   28  C   UNL     1     -11.739  11.161  69.741  1.00  0.00    -0.419 A  
ENDBRANCH  21  23
ENDBRANCH  20  21
ENDBRANCH  19  20
ENDBRANCH  16  19
ENDBRANCH  14  15
ENDBRANCH  12  14
ENDBRANCH   9  10
ENDBRANCH   6   9
ENDBRANCH   3   5
TORSDOF 9
ENDMDL
MODEL       56
REMARK 921   NORMALIZED FREE ENERGY PREDICTED BY IDOCK:   -5.96 KCAL/MOL
REMARK 922        TOTAL FREE ENERGY PREDICTED BY IDOCK:   -9.94 KCAL/MOL
REMARK 923 INTER-LIGAND FREE ENERGY PREDICTED BY IDOCK:   -9.11 KCAL/MOL
REMARK 924 INTRA-LIGAND FREE ENERGY PREDICTED BY IDOCK:   -0.83 KCAL/MOL
REMARK 927      BINDING AFFINITY PREDICTED BY RF-SCORE:    0.00 PKD
ROOT
HETATM    1  O   UNL     1     -10.697   9.052  71.934  1.00  0.00    -0.347 OA 
HETATM    2  C   UNL     1     -10.759   7.740  72.264  1.00  0.00    -0.269 C  
HETATM    3  C   UNL     1     -10.959   6.806  71.075  1.00  0.00    -0.255 C  
HETATM    4  O   UNL     1     -10.691   7.353  73.418  1.00  0.00    -0.379 OA 
ENDROOT
BRANCH   3   5
HETATM    5  N   UNL     1     -11.043   7.519  69.804  1.00  0.00    -0.416 N  
HETATM    6  C   UNL     1     -10.036   7.457  68.864  1.00  0.00    -0.169 C  
HETATM    7  H   UNL     1     -11.871   8.080  69.606  1.00  0.00     0.000 HD 
HETATM    8  O   UNL     1      -8.994   6.837  69.053  1.00  0.00    -0.132 OA 
BRANCH   6   9
HETATM    9  C   UNL     1     -10.284   8.255  67.577  1.00  0.00    -0.243 C  
BRANCH   9  10
HETATM   10  N   UNL     1     -11.080   9.453  67.780  1.00  0.00    -0.487 N  
HETATM   11  H   UNL     1     -11.895   9.404  68.391  1.00  0.00     0.000 HD 
HETATM   12  C   UNL     1     -10.774  10.653  67.179  1.00  0.00    -0.272 C  
HETATM   13  O   UNL     1      -9.790  10.792  66.457  1.00  0.00    -0.190 OA 
BRANCH  12  14
HETATM   14  C   UNL     1     -11.755  11.795  67.477  1.00  0.00    -0.240 C  
BRANCH  14  15
HETATM   15  N   UNL     1     -11.403  13.042  66.802  1.00  0.00    -0.309 N  
HETATM   16  C   UNL     1     -12.121  13.485  65.710  1.00  0.00    -0.433 C  
HETATM   17  H   UNL     1     -10.614  13.593  67.143  1.00  0.00     0.000 HD 
HETATM   18  O   UNL     1     -12.984  12.796  65.172  1.00  0.00    -0.768 OA 
BRANCH  16  19
HETATM   19  C   UNL     1     -11.701  14.846  65.181  1.00  0.00    -0.295 C  
BRANCH  19  20
HETATM   20  S   UNL     1     -10.157  15.414  65.924  1.00  0.00    -0.375 SA 
BRANCH  20  21
HETATM   21  C   UNL     1     -10.786  16.340  67.280  1.00  0.00    -0.265 C  
HETATM   22  O   UNL     1     -11.463  15.804  68.153  1.00  0.00    -0.352 OA 
BRANCH  21  23
HETATM   23  C   UNL     1     -10.479  17.796  67.314  1.00  0.00    -0.356 A  
HETATM   24  C   UNL     1     -10.460  18.512  66.110  1.00  0.00    -0.447 A  
HETATM   25  C   UNL     1     -10.122  19.869  66.106  1.00  0.00    -0.611 A  
HETATM   26  C   UNL     1      -9.794  20.512  67.299  1.00  0.00    -0.581 A  
HETATM   27  C   UNL     1      -9.814  19.806  68.499  1.00  0.00    -0.506 A  
HETATM   28  C   UNL     1     -10.153  18.453  68.510  1.00  0.00    -0.413 A  
ENDBRANCH  21  23
ENDBRANCH  20  21
ENDBRANCH  19  20
ENDBRANCH  16  19
ENDBRANCH  14  15
ENDBRANCH  12  14
ENDBRANCH   9  10
ENDBRANCH   6   9
ENDBRANCH   3   5
TORSDOF 9
ENDMDL
MODEL       57
REMARK 921   NORMALIZED FREE ENERGY PREDICTED BY IDOCK:   -5.96 KCAL/MOL
REMARK 922        TOTAL FREE ENERGY PREDICTED BY IDOCK:   -9.93 KCAL/MOL
REMARK 923 INTER-LIGAND FREE ENERGY PREDICTED BY IDOCK:   -8.86 KCAL/MOL
REMARK 924 INTRA-LIGAND FREE ENERGY PREDICTED BY IDOCK:   -1.07 KCAL/MOL
REMARK 927      BINDING AFFINITY PREDICTED BY RF-SCORE:    0.00 PKD
ROOT
HETATM    1  O   UNL     1     -12.132   9.742  71.626  1.00  0.00    -0.378 OA 
HETATM    2  C   UNL     1     -10.992   9.059  71.366  1.00  0.00    -0.324 C  
HETATM    3  C   UNL     1     -10.541   9.127  69.910  1.00  0.00    -0.230 C  
HETATM    4  O   UNL     1     -10.401   8.424  72.223  1.00  0.00    -0.287 OA 
ENDROOT
BRANCH   3   5
HETATM    5  N   UNL     1     -11.437   9.923  69.078  1.00  0.00    -0.475 N  
HETATM    6  C   UNL     1     -10.962  10.811  68.136  1.00  0.00    -0.257 C  
HETATM    7  H   UNL     1     -12.445   9.820  69.197  1.00  0.00     0.000 HD 
HETATM    8  O   UNL     1      -9.764  11.017  67.967  1.00  0.00    -0.164 OA 
BRANCH   6   9
HETATM    9  C   UNL     1     -12.035  11.562  67.336  1.00  0.00     0.158 C  
BRANCH   9  10
HETATM   10  N   UNL     1     -11.504  12.644  66.525  1.00  0.00    -0.333 N  
HETATM   11  H   UNL     1     -10.780  13.244  66.919  1.00  0.00     0.000 HD 
HETATM   12  C   UNL     1     -11.943  12.889  65.244  1.00  0.00    -0.419 C  
HETATM   13  O   UNL     1     -12.789  12.188  64.695  1.00  0.00    -0.586 OA 
BRANCH  12  14
HETATM   14  C   UNL     1     -11.298  14.102  64.559  1.00  0.00    -0.348 C  
BRANCH  14  15
HETATM   15  N   UNL     1     -10.511  14.924  65.473  1.00  0.00    -0.332 N  
HETATM   16  C   UNL     1     -10.545  16.302  65.397  1.00  0.00    -0.352 C  
HETATM   17  H   UNL     1      -9.928  14.473  66.179  1.00  0.00     0.000 HD 
HETATM   18  O   UNL     1     -11.114  16.892  64.482  1.00  0.00    -1.054 OA 
BRANCH  16  19
HETATM   19  C   UNL     1      -9.756  17.020  66.479  1.00  0.00    -0.282 C  
BRANCH  19  20
HETATM   20  S   UNL     1     -10.777  17.407  67.917  1.00  0.00    -0.283 SA 
BRANCH  20  21
HETATM   21  C   UNL     1     -10.069  16.320  69.103  1.00  0.00    -0.264 C  
HETATM   22  O   UNL     1      -8.853  16.161  69.170  1.00  0.00    -0.246 OA 
BRANCH  21  23
HETATM   23  C   UNL     1     -11.002  15.592  70.006  1.00  0.00    -0.336 A  
HETATM   24  C   UNL     1     -11.391  14.289  69.669  1.00  0.00    -0.292 A  
HETATM   25  C   UNL     1     -12.308  13.602  70.470  1.00  0.00    -0.425 A  
HETATM   26  C   UNL     1     -12.846  14.213  71.602  1.00  0.00    -0.428 A  
HETATM   27  C   UNL     1     -12.461  15.508  71.943  1.00  0.00    -0.475 A  
HETATM   28  C   UNL     1     -11.544  16.198  71.150  1.00  0.00    -0.453 A  
ENDBRANCH  21  23
ENDBRANCH  20  21
ENDBRANCH  19  20
ENDBRANCH  16  19
ENDBRANCH  14  15
ENDBRANCH  12  14
ENDBRANCH   9  10
ENDBRANCH   6   9
ENDBRANCH   3   5
TORSDOF 9
ENDMDL
MODEL       58
REMARK 921   NORMALIZED FREE ENERGY PREDICTED BY IDOCK:   -5.95 KCAL/MOL
REMARK 922        TOTAL FREE ENERGY PREDICTED BY IDOCK:   -9.92 KCAL/MOL
REMARK 923 INTER-LIGAND FREE ENERGY PREDICTED BY IDOCK:   -9.27 KCAL/MOL
REMARK 924 INTRA-LIGAND FREE ENERGY PREDICTED BY IDOCK:   -0.65 KCAL/MOL
REMARK 927      BINDING AFFINITY PREDICTED BY RF-SCORE:    0.00 PKD
ROOT
HETATM    1  O   UNL     1     -11.288   6.092  68.933  1.00  0.00    -0.367 OA 
HETATM    2  C   UNL     1     -10.917   6.802  70.025  1.00  0.00    -0.295 C  
HETATM    3  C   UNL     1     -10.146   8.080  69.708  1.00  0.00    -0.196 C  
HETATM    4  O   UNL     1     -11.157   6.427  71.161  1.00  0.00    -0.264 OA 
ENDROOT
BRANCH   3   5
HETATM    5  N   UNL     1      -9.961   8.287  68.276  1.00  0.00    -0.184 N  
HETATM    6  C   UNL     1     -10.482   9.384  67.623  1.00  0.00    -0.268 C  
HETATM    7  H   UNL     1      -9.431   7.598  67.741  1.00  0.00     0.000 HD 
HETATM    8  O   UNL     1     -11.164  10.230  68.193  1.00  0.00    -0.278 OA 
BRANCH   6   9
HETATM    9  C   UNL     1     -10.187   9.459  66.119  1.00  0.00    -0.194 C  
BRANCH   9  10
HETATM   10  N   UNL     1     -10.449  10.766  65.540  1.00  0.00    -0.230 N  
HETATM   11  H   UNL     1     -10.812  11.505  66.140  1.00  0.00     0.000 HD 
HETATM   12  C   UNL     1     -10.223  11.042  64.210  1.00  0.00    -0.352 C  
HETATM   13  O   UNL     1      -9.757  10.208  63.437  1.00  0.00    -0.271 OA 
BRANCH  12  14
HETATM   14  C   UNL     1     -10.600  12.463  63.771  1.00  0.00    -0.452 C  
BRANCH  14  15
HETATM   15  N   UNL     1     -10.548  13.432  64.862  1.00  0.00    -0.362 N  
HETATM   16  C   UNL     1     -11.703  13.874  65.474  1.00  0.00    -0.349 C  
HETATM   17  H   UNL     1      -9.644  13.787  65.176  1.00  0.00     0.000 HD 
HETATM   18  O   UNL     1     -12.819  13.591  65.046  1.00  0.00    -0.684 OA 
BRANCH  16  19
HETATM   19  C   UNL     1     -11.482  14.800  66.658  1.00  0.00    -0.335 C  
BRANCH  19  20
HETATM   20  S   UNL     1     -11.821  13.979  68.231  1.00  0.00    -0.360 SA 
BRANCH  20  21
HETATM   21  C   UNL     1     -11.780  15.361  69.317  1.00  0.00    -0.349 C  
HETATM   22  O   UNL     1     -11.394  16.461  68.930  1.00  0.00    -0.332 OA 
BRANCH  21  23
HETATM   23  C   UNL     1     -12.214  15.138  70.724  1.00  0.00    -0.392 A  
HETATM   24  C   UNL     1     -11.934  16.121  71.682  1.00  0.00    -0.528 A  
HETATM   25  C   UNL     1     -12.283  15.914  73.020  1.00  0.00    -0.609 A  
HETATM   26  C   UNL     1     -12.900  14.726  73.408  1.00  0.00    -0.597 A  
HETATM   27  C   UNL     1     -13.183  13.746  72.459  1.00  0.00    -0.599 A  
HETATM   28  C   UNL     1     -12.840  13.947  71.122  1.00  0.00    -0.423 A  
ENDBRANCH  21  23
ENDBRANCH  20  21
ENDBRANCH  19  20
ENDBRANCH  16  19
ENDBRANCH  14  15
ENDBRANCH  12  14
ENDBRANCH   9  10
ENDBRANCH   6   9
ENDBRANCH   3   5
TORSDOF 9
ENDMDL
MODEL       59
REMARK 921   NORMALIZED FREE ENERGY PREDICTED BY IDOCK:   -5.94 KCAL/MOL
REMARK 922        TOTAL FREE ENERGY PREDICTED BY IDOCK:   -9.91 KCAL/MOL
REMARK 923 INTER-LIGAND FREE ENERGY PREDICTED BY IDOCK:   -8.72 KCAL/MOL
REMARK 924 INTRA-LIGAND FREE ENERGY PREDICTED BY IDOCK:   -1.19 KCAL/MOL
REMARK 927      BINDING AFFINITY PREDICTED BY RF-SCORE:    0.00 PKD
ROOT
HETATM    1  O   UNL     1     -12.440   8.320  72.757  1.00  0.00    -0.265 OA 
HETATM    2  C   UNL     1     -11.113   8.083  72.632  1.00  0.00    -0.387 C  
HETATM    3  C   UNL     1     -10.402   9.006  71.649  1.00  0.00    -0.350 C  
HETATM    4  O   UNL     1     -10.550   7.185  73.237  1.00  0.00    -0.295 OA 
ENDROOT
BRANCH   3   5
HETATM    5  N   UNL     1     -11.302   9.974  71.031  1.00  0.00    -0.365 N  
HETATM    6  C   UNL     1     -11.026  10.554  69.811  1.00  0.00    -0.294 C  
HETATM    7  H   UNL     1     -12.163  10.230  71.517  1.00  0.00     0.000 HD 
HETATM    8  O   UNL     1      -9.992  10.326  69.191  1.00  0.00    -0.199 OA 
BRANCH   6   9
HETATM    9  C   UNL     1     -12.081  11.542  69.296  1.00  0.00    -0.278 C  
BRANCH   9  10
HETATM   10  N   UNL     1     -11.868  12.907  69.747  1.00  0.00    -0.375 N  
HETATM   11  H   UNL     1     -11.306  13.533  69.171  1.00  0.00     0.000 HD 
HETATM   12  C   UNL     1     -12.398  13.386  70.923  1.00  0.00    -0.353 C  
HETATM   13  O   UNL     1     -13.111  12.698  71.650  1.00  0.00    -0.402 OA 
BRANCH  12  14
HETATM   14  C   UNL     1     -12.030  14.838  71.256  1.00  0.00    -0.349 C  
BRANCH  14  15
HETATM   15  N   UNL     1     -10.766  15.259  70.659  1.00  0.00    -0.503 N  
HETATM   16  C   UNL     1     -10.739  15.937  69.457  1.00  0.00    -0.288 C  
HETATM   17  H   UNL     1      -9.889  15.048  71.138  1.00  0.00     0.000 HD 
HETATM   18  O   UNL     1     -11.746  16.091  68.771  1.00  0.00    -0.385 OA 
BRANCH  16  19
HETATM   19  C   UNL     1      -9.360  16.398  69.016  1.00  0.00    -0.248 C  
BRANCH  19  20
HETATM   20  S   UNL     1      -8.536  15.171  67.979  1.00  0.00    -0.153 SA 
BRANCH  20  21
HETATM   21  C   UNL     1      -9.230  15.571  66.414  1.00  0.00    -0.305 C  
HETATM   22  O   UNL     1      -8.880  16.578  65.804  1.00  0.00    -0.474 OA 
BRANCH  21  23
HETATM   23  C   UNL     1     -10.268  14.651  65.872  1.00  0.00    -0.344 A  
HETATM   24  C   UNL     1     -11.169  15.137  64.915  1.00  0.00    -0.424 A  
HETATM   25  C   UNL     1     -12.187  14.312  64.428  1.00  0.00    -0.471 A  
HETATM   26  C   UNL     1     -12.316  13.006  64.899  1.00  0.00    -0.512 A  
HETATM   27  C   UNL     1     -11.421  12.517  65.849  1.00  0.00    -0.417 A  
HETATM   28  C   UNL     1     -10.401  13.335  66.336  1.00  0.00    -0.286 A  
ENDBRANCH  21  23
ENDBRANCH  20  21
ENDBRANCH  19  20
ENDBRANCH  16  19
ENDBRANCH  14  15
ENDBRANCH  12  14
ENDBRANCH   9  10
ENDBRANCH   6   9
ENDBRANCH   3   5
TORSDOF 9
ENDMDL
MODEL       60
REMARK 921   NORMALIZED FREE ENERGY PREDICTED BY IDOCK:   -5.94 KCAL/MOL
REMARK 922        TOTAL FREE ENERGY PREDICTED BY IDOCK:   -9.90 KCAL/MOL
REMARK 923 INTER-LIGAND FREE ENERGY PREDICTED BY IDOCK:   -8.87 KCAL/MOL
REMARK 924 INTRA-LIGAND FREE ENERGY PREDICTED BY IDOCK:   -1.03 KCAL/MOL
REMARK 927      BINDING AFFINITY PREDICTED BY RF-SCORE:    0.00 PKD
ROOT
HETATM    1  O   UNL     1     -11.530   6.056  69.357  1.00  0.00    -0.372 OA 
HETATM    2  C   UNL     1     -10.271   6.495  69.593  1.00  0.00    -0.187 C  
HETATM    3  C   UNL     1     -10.201   7.870  70.248  1.00  0.00    -0.200 C  
HETATM    4  O   UNL     1      -9.284   5.851  69.276  1.00  0.00    -0.122 OA 
ENDROOT
BRANCH   3   5
HETATM    5  N   UNL     1     -11.518   8.446  70.495  1.00  0.00    -0.402 N  
HETATM    6  C   UNL     1     -12.038   8.563  71.767  1.00  0.00    -0.333 C  
HETATM    7  H   UNL     1     -12.073   8.772  69.703  1.00  0.00     0.000 HD 
HETATM    8  O   UNL     1     -11.447   8.155  72.762  1.00  0.00    -0.408 OA 
BRANCH   6   9
HETATM    9  C   UNL     1     -13.431   9.201  71.856  1.00  0.00    -0.430 C  
BRANCH   9  10
HETATM   10  N   UNL     1     -13.402  10.617  72.179  1.00  0.00    -0.580 N  
HETATM   11  H   UNL     1     -13.727  10.918  73.097  1.00  0.00     0.000 HD 
HETATM   12  C   UNL     1     -12.953  11.567  71.291  1.00  0.00    -0.297 C  
HETATM   13  O   UNL     1     -12.518  11.274  70.180  1.00  0.00    -0.275 OA 
BRANCH  12  14
HETATM   14  C   UNL     1     -13.039  13.015  71.793  1.00  0.00    -0.373 C  
BRANCH  14  15
HETATM   15  N   UNL     1     -12.040  13.891  71.187  1.00  0.00    -0.454 N  
HETATM   16  C   UNL     1     -12.373  15.163  70.766  1.00  0.00    -0.360 C  
HETATM   17  H   UNL     1     -11.082  13.558  71.073  1.00  0.00     0.000 HD 
HETATM   18  O   UNL     1     -13.535  15.562  70.747  1.00  0.00    -0.475 OA 
BRANCH  16  19
HETATM   19  C   UNL     1     -11.207  15.990  70.252  1.00  0.00    -0.389 C  
BRANCH  19  20
HETATM   20  S   UNL     1     -11.239  16.162  68.455  1.00  0.00    -0.330 SA 
BRANCH  20  21
HETATM   21  C   UNL     1     -10.631  14.582  67.981  1.00  0.00    -0.237 C  
HETATM   22  O   UNL     1      -9.912  13.928  68.731  1.00  0.00    -0.213 OA 
BRANCH  21  23
HETATM   23  C   UNL     1     -11.011  14.081  66.631  1.00  0.00    -0.300 A  
HETATM   24  C   UNL     1     -12.360  13.814  66.363  1.00  0.00    -0.460 A  
HETATM   25  C   UNL     1     -12.738  13.292  65.123  1.00  0.00    -0.464 A  
HETATM   26  C   UNL     1     -11.774  13.027  64.151  1.00  0.00    -0.470 A  
HETATM   27  C   UNL     1     -10.432  13.292  64.411  1.00  0.00    -0.424 A  
HETATM   28  C   UNL     1     -10.048  13.816  65.645  1.00  0.00    -0.315 A  
ENDBRANCH  21  23
ENDBRANCH  20  21
ENDBRANCH  19  20
ENDBRANCH  16  19
ENDBRANCH  14  15
ENDBRANCH  12  14
ENDBRANCH   9  10
ENDBRANCH   6   9
ENDBRANCH   3   5
TORSDOF 9
ENDMDL
MODEL       61
REMARK 921   NORMALIZED FREE ENERGY PREDICTED BY IDOCK:   -5.93 KCAL/MOL
REMARK 922        TOTAL FREE ENERGY PREDICTED BY IDOCK:   -9.89 KCAL/MOL
REMARK 923 INTER-LIGAND FREE ENERGY PREDICTED BY IDOCK:   -8.75 KCAL/MOL
REMARK 924 INTRA-LIGAND FREE ENERGY PREDICTED BY IDOCK:   -1.14 KCAL/MOL
REMARK 927      BINDING AFFINITY PREDICTED BY RF-SCORE:    0.00 PKD
ROOT
HETATM    1  O   UNL     1     -11.006  10.938  69.592  1.00  0.00    -0.251 OA 
HETATM    2  C   UNL     1     -11.983  11.390  70.414  1.00  0.00    -0.374 C  
HETATM    3  C   UNL     1     -12.839  10.289  71.031  1.00  0.00    -0.397 C  
HETATM    4  O   UNL     1     -12.171  12.579  70.612  1.00  0.00    -0.369 OA 
ENDROOT
BRANCH   3   5
HETATM    5  N   UNL     1     -12.430   8.953  70.611  1.00  0.00    -0.476 N  
HETATM    6  C   UNL     1     -11.938   8.025  71.503  1.00  0.00    -0.297 C  
HETATM    7  H   UNL     1     -12.512   8.698  69.626  1.00  0.00     0.000 HD 
HETATM    8  O   UNL     1     -11.773   8.276  72.693  1.00  0.00    -0.403 OA 
BRANCH   6   9
HETATM    9  C   UNL     1     -11.565   6.664  70.902  1.00  0.00    -0.361 C  
BRANCH   9  10
HETATM   10  N   UNL     1     -11.623   6.634  69.451  1.00  0.00    -0.652 N  
HETATM   11  H   UNL     1     -12.405   7.088  68.981  1.00  0.00     0.000 HD 
HETATM   12  C   UNL     1     -10.660   6.014  68.687  1.00  0.00    -0.266 C  
HETATM   13  O   UNL     1      -9.675   5.475  69.184  1.00  0.00    -0.136 OA 
BRANCH  12  14
HETATM   14  C   UNL     1     -10.913   6.048  67.173  1.00  0.00    -0.268 C  
BRANCH  14  15
HETATM   15  N   UNL     1      -9.870   6.754  66.434  1.00  0.00    -0.380 N  
HETATM   16  C   UNL     1      -9.710   8.119  66.563  1.00  0.00    -0.239 C  
HETATM   17  H   UNL     1      -9.251   6.231  65.814  1.00  0.00     0.000 HD 
HETATM   18  O   UNL     1     -10.511   8.816  67.180  1.00  0.00    -0.282 OA 
BRANCH  16  19
HETATM   19  C   UNL     1      -8.520   8.694  65.813  1.00  0.00    -0.151 C  
BRANCH  19  20
HETATM   20  S   UNL     1      -8.508  10.500  65.847  1.00  0.00    -0.166 SA 
BRANCH  20  21
HETATM   21  C   UNL     1      -9.669  10.842  64.572  1.00  0.00    -0.282 C  
HETATM   22  O   UNL     1      -9.612  10.263  63.490  1.00  0.00    -0.293 OA 
BRANCH  21  23
HETATM   23  C   UNL     1     -10.708  11.871  64.852  1.00  0.00    -0.350 A  
HETATM   24  C   UNL     1     -11.152  12.687  63.804  1.00  0.00    -0.504 A  
HETATM   25  C   UNL     1     -12.088  13.696  64.049  1.00  0.00    -0.474 A  
HETATM   26  C   UNL     1     -12.574  13.902  65.339  1.00  0.00    -0.538 A  
HETATM   27  C   UNL     1     -12.138  13.093  66.385  1.00  0.00    -0.447 A  
HETATM   28  C   UNL     1     -11.207  12.082  66.146  1.00  0.00    -0.394 A  
ENDBRANCH  21  23
ENDBRANCH  20  21
ENDBRANCH  19  20
ENDBRANCH  16  19
ENDBRANCH  14  15
ENDBRANCH  12  14
ENDBRANCH   9  10
ENDBRANCH   6   9
ENDBRANCH   3   5
TORSDOF 9
ENDMDL
MODEL       62
REMARK 921   NORMALIZED FREE ENERGY PREDICTED BY IDOCK:   -5.93 KCAL/MOL
REMARK 922        TOTAL FREE ENERGY PREDICTED BY IDOCK:   -9.89 KCAL/MOL
REMARK 923 INTER-LIGAND FREE ENERGY PREDICTED BY IDOCK:   -8.86 KCAL/MOL
REMARK 924 INTRA-LIGAND FREE ENERGY PREDICTED BY IDOCK:   -1.02 KCAL/MOL
REMARK 927      BINDING AFFINITY PREDICTED BY RF-SCORE:    0.00 PKD
ROOT
HETATM    1  O   UNL     1     -10.173  19.938  66.558  1.00  0.00    -0.429 OA 
HETATM    2  C   UNL     1      -9.169  20.032  67.462  1.00  0.00    -0.364 C  
HETATM    3  C   UNL     1      -9.322  19.106  68.664  1.00  0.00    -0.388 C  
HETATM    4  O   UNL     1      -8.243  20.815  67.330  1.00  0.00    -0.314 OA 
ENDROOT
BRANCH   3   5
HETATM    5  N   UNL     1     -10.531  18.293  68.601  1.00  0.00    -0.392 N  
HETATM    6  C   UNL     1     -10.506  16.929  68.803  1.00  0.00    -0.343 C  
HETATM    7  H   UNL     1     -11.423  18.748  68.402  1.00  0.00     0.000 HD 
HETATM    8  O   UNL     1      -9.466  16.311  69.006  1.00  0.00    -0.239 OA 
BRANCH   6   9
HETATM    9  C   UNL     1     -11.866  16.224  68.714  1.00  0.00    -0.024 C  
BRANCH   9  10
HETATM   10  N   UNL     1     -11.915  14.963  69.434  1.00  0.00    -0.390 N  
HETATM   11  H   UNL     1     -11.356  14.181  69.095  1.00  0.00     0.000 HD 
HETATM   12  C   UNL     1     -12.688  14.786  70.559  1.00  0.00    -0.343 C  
HETATM   13  O   UNL     1     -13.361  15.692  71.042  1.00  0.00    -0.545 OA 
BRANCH  12  14
HETATM   14  C   UNL     1     -12.646  13.373  71.159  1.00  0.00    -0.345 C  
BRANCH  14  15
HETATM   15  N   UNL     1     -11.891  12.427  70.341  1.00  0.00    -0.541 N  
HETATM   16  C   UNL     1     -12.203  11.083  70.342  1.00  0.00    -0.373 C  
HETATM   17  H   UNL     1     -11.123  12.766  69.761  1.00  0.00     0.000 HD 
HETATM   18  O   UNL     1     -13.020  10.601  71.123  1.00  0.00    -0.365 OA 
BRANCH  16  19
HETATM   19  C   UNL     1     -11.399  10.242  69.365  1.00  0.00    -0.221 C  
BRANCH  19  20
HETATM   20  S   UNL     1     -10.203  11.233  68.443  1.00  0.00    -0.202 SA 
BRANCH  20  21
HETATM   21  C   UNL     1     -11.234  11.853  67.162  1.00  0.00    -0.319 C  
HETATM   22  O   UNL     1     -12.284  12.435  67.419  1.00  0.00    -0.459 OA 
BRANCH  21  23
HETATM   23  C   UNL     1     -10.792  11.626  65.759  1.00  0.00    -0.334 A  
HETATM   24  C   UNL     1     -11.288  12.461  64.749  1.00  0.00    -0.360 A  
HETATM   25  C   UNL     1     -10.931  12.238  63.416  1.00  0.00    -0.467 A  
HETATM   26  C   UNL     1     -10.088  11.178  63.084  1.00  0.00    -0.373 A  
HETATM   27  C   UNL     1      -9.590  10.346  64.084  1.00  0.00    -0.381 A  
HETATM   28  C   UNL     1      -9.940  10.565  65.416  1.00  0.00    -0.353 A  
ENDBRANCH  21  23
ENDBRANCH  20  21
ENDBRANCH  19  20
ENDBRANCH  16  19
ENDBRANCH  14  15
ENDBRANCH  12  14
ENDBRANCH   9  10
ENDBRANCH   6   9
ENDBRANCH   3   5
TORSDOF 9
ENDMDL
MODEL       63
REMARK 921   NORMALIZED FREE ENERGY PREDICTED BY IDOCK:   -5.92 KCAL/MOL
REMARK 922        TOTAL FREE ENERGY PREDICTED BY IDOCK:   -9.88 KCAL/MOL
REMARK 923 INTER-LIGAND FREE ENERGY PREDICTED BY IDOCK:   -8.82 KCAL/MOL
REMARK 924 INTRA-LIGAND FREE ENERGY PREDICTED BY IDOCK:   -1.05 KCAL/MOL
REMARK 927      BINDING AFFINITY PREDICTED BY RF-SCORE:    0.00 PKD
ROOT
HETATM    1  O   UNL     1     -10.763   8.174  66.743  1.00  0.00    -0.278 OA 
HETATM    2  C   UNL     1      -9.426   7.984  66.634  1.00  0.00    -0.212 C  
HETATM    3  C   UNL     1      -8.764   8.813  65.539  1.00  0.00    -0.185 C  
HETATM    4  O   UNL     1      -8.820   7.192  67.336  1.00  0.00    -0.119 OA 
ENDROOT
BRANCH   3   5
HETATM    5  N   UNL     1      -9.711   9.658  64.820  1.00  0.00    -0.431 N  
HETATM    6  C   UNL     1      -9.316  10.485  63.789  1.00  0.00    -0.281 C  
HETATM    7  H   UNL     1     -10.696   9.637  65.087  1.00  0.00     0.000 HD 
HETATM    8  O   UNL     1      -8.144  10.593  63.441  1.00  0.00    -0.115 OA 
BRANCH   6   9
HETATM    9  C   UNL     1     -10.437  11.298  63.129  1.00  0.00    -0.227 C  
BRANCH   9  10
HETATM   10  N   UNL     1     -10.728  12.547  63.812  1.00  0.00    -0.434 N  
HETATM   11  H   UNL     1      -9.952  13.113  64.154  1.00  0.00     0.000 HD 
HETATM   12  C   UNL     1     -12.014  12.995  64.014  1.00  0.00    -0.456 C  
HETATM   13  O   UNL     1     -12.995  12.381  63.601  1.00  0.00    -0.758 OA 
BRANCH  12  14
HETATM   14  C   UNL     1     -12.127  14.312  64.793  1.00  0.00    -0.446 C  
BRANCH  14  15
HETATM   15  N   UNL     1     -12.286  14.115  66.231  1.00  0.00    -0.458 N  
HETATM   16  C   UNL     1     -11.190  13.917  67.045  1.00  0.00    -0.313 C  
HETATM   17  H   UNL     1     -13.221  14.123  66.639  1.00  0.00     0.000 HD 
HETATM   18  O   UNL     1     -10.059  13.756  66.593  1.00  0.00    -0.265 OA 
BRANCH  16  19
HETATM   19  C   UNL     1     -11.506  13.830  68.529  1.00  0.00    -0.307 C  
BRANCH  19  20
HETATM   20  S   UNL     1     -11.783  15.459  69.258  1.00  0.00    -0.355 SA 
BRANCH  20  21
HETATM   21  C   UNL     1     -10.247  16.230  68.889  1.00  0.00    -0.256 C  
HETATM   22  O   UNL     1      -9.185  15.735  69.256  1.00  0.00    -0.238 OA 
BRANCH  21  23
HETATM   23  C   UNL     1     -10.290  17.512  68.133  1.00  0.00    -0.375 A  
HETATM   24  C   UNL     1     -10.433  17.470  66.739  1.00  0.00    -0.270 A  
HETATM   25  C   UNL     1     -10.423  18.655  65.998  1.00  0.00    -0.456 A  
HETATM   26  C   UNL     1     -10.262  19.882  66.641  1.00  0.00    -0.609 A  
HETATM   27  C   UNL     1     -10.122  19.929  68.026  1.00  0.00    -0.572 A  
HETATM   28  C   UNL     1     -10.134  18.751  68.771  1.00  0.00    -0.407 A  
ENDBRANCH  21  23
ENDBRANCH  20  21
ENDBRANCH  19  20
ENDBRANCH  16  19
ENDBRANCH  14  15
ENDBRANCH  12  14
ENDBRANCH   9  10
ENDBRANCH   6   9
ENDBRANCH   3   5
TORSDOF 9
ENDMDL
MODEL       64
REMARK 921   NORMALIZED FREE ENERGY PREDICTED BY IDOCK:   -5.92 KCAL/MOL
REMARK 922        TOTAL FREE ENERGY PREDICTED BY IDOCK:   -9.87 KCAL/MOL
REMARK 923 INTER-LIGAND FREE ENERGY PREDICTED BY IDOCK:   -9.20 KCAL/MOL
REMARK 924 INTRA-LIGAND FREE ENERGY PREDICTED BY IDOCK:   -0.67 KCAL/MOL
REMARK 927      BINDING AFFINITY PREDICTED BY RF-SCORE:    0.00 PKD
ROOT
HETATM    1  O   UNL     1      -9.218   8.595  72.899  1.00  0.00    -0.280 OA 
HETATM    2  C   UNL     1     -10.100   7.595  73.137  1.00  0.00    -0.323 C  
HETATM    3  C   UNL     1     -11.501   7.855  72.593  1.00  0.00    -0.395 C  
HETATM    4  O   UNL     1      -9.798   6.592  73.761  1.00  0.00    -0.180 OA 
ENDROOT
BRANCH   3   5
HETATM    5  N   UNL     1     -11.613   9.142  71.914  1.00  0.00    -0.370 N  
HETATM    6  C   UNL     1     -12.818   9.802  71.794  1.00  0.00    -0.434 C  
HETATM    7  H   UNL     1     -10.775   9.566  71.516  1.00  0.00     0.000 HD 
HETATM    8  O   UNL     1     -13.872   9.333  72.210  1.00  0.00    -0.453 OA 
BRANCH   6   9
HETATM    9  C   UNL     1     -12.763  11.149  71.062  1.00  0.00    -0.378 C  
BRANCH   9  10
HETATM   10  N   UNL     1     -11.495  11.398  70.397  1.00  0.00    -0.486 N  
HETATM   11  H   UNL     1     -10.670  11.583  70.966  1.00  0.00     0.000 HD 
HETATM   12  C   UNL     1     -11.368  11.394  69.026  1.00  0.00    -0.280 C  
HETATM   13  O   UNL     1     -12.313  11.148  68.281  1.00  0.00    -0.532 OA 
BRANCH  12  14
HETATM   14  C   UNL     1      -9.962  11.721  68.505  1.00  0.00    -0.199 C  
BRANCH  14  15
HETATM   15  N   UNL     1      -9.915  12.950  67.719  1.00  0.00    -0.224 N  
HETATM   16  C   UNL     1      -9.928  12.911  66.339  1.00  0.00    -0.267 C  
HETATM   17  H   UNL     1      -9.872  13.851  68.196  1.00  0.00     0.000 HD 
HETATM   18  O   UNL     1      -9.835  11.858  65.714  1.00  0.00    -0.230 OA 
BRANCH  16  19
HETATM   19  C   UNL     1      -9.978  14.271  65.664  1.00  0.00    -0.320 C  
BRANCH  19  20
HETATM   20  S   UNL     1     -11.070  15.418  66.532  1.00  0.00    -0.160 SA 
BRANCH  20  21
HETATM   21  C   UNL     1     -10.723  16.901  65.655  1.00  0.00    -0.167 C  
HETATM   22  O   UNL     1     -11.056  17.037  64.481  1.00  0.00    -1.098 OA 
BRANCH  21  23
HETATM   23  C   UNL     1      -9.996  17.974  66.388  1.00  0.00    -0.362 A  
HETATM   24  C   UNL     1     -10.458  19.293  66.291  1.00  0.00    -0.567 A  
HETATM   25  C   UNL     1      -9.764  20.328  66.925  1.00  0.00    -0.584 A  
HETATM   26  C   UNL     1      -8.605  20.053  67.649  1.00  0.00    -0.385 A  
HETATM   27  C   UNL     1      -8.142  18.743  67.752  1.00  0.00    -0.276 A  
HETATM   28  C   UNL     1      -8.832  17.706  67.124  1.00  0.00    -0.251 A  
ENDBRANCH  21  23
ENDBRANCH  20  21
ENDBRANCH  19  20
ENDBRANCH  16  19
ENDBRANCH  14  15
ENDBRANCH  12  14
ENDBRANCH   9  10
ENDBRANCH   6   9
ENDBRANCH   3   5
TORSDOF 9
ENDMDL
MODEL       65
REMARK 921   NORMALIZED FREE ENERGY PREDICTED BY IDOCK:   -5.91 KCAL/MOL
REMARK 922        TOTAL FREE ENERGY PREDICTED BY IDOCK:   -9.86 KCAL/MOL
REMARK 923 INTER-LIGAND FREE ENERGY PREDICTED BY IDOCK:   -8.76 KCAL/MOL
REMARK 924 INTRA-LIGAND FREE ENERGY PREDICTED BY IDOCK:   -1.10 KCAL/MOL
REMARK 927      BINDING AFFINITY PREDICTED BY RF-SCORE:    0.00 PKD
ROOT
HETATM    1  O   UNL     1     -12.640  13.859  70.462  1.00  0.00    -0.333 OA 
HETATM    2  C   UNL     1     -12.260  15.140  70.243  1.00  0.00    -0.350 C  
HETATM    3  C   UNL     1     -12.029  15.482  68.775  1.00  0.00    -0.243 C  
HETATM    4  O   UNL     1     -12.091  15.936  71.153  1.00  0.00    -0.393 OA 
ENDROOT
BRANCH   3   5
HETATM    5  N   UNL     1     -12.268  14.349  67.887  1.00  0.00    -0.620 N  
HETATM    6  C   UNL     1     -11.428  14.057  66.834  1.00  0.00    -0.356 C  
HETATM    7  H   UNL     1     -13.081  13.755  68.051  1.00  0.00     0.000 HD 
HETATM    8  O   UNL     1     -10.456  14.751  66.552  1.00  0.00    -0.280 OA 
BRANCH   6   9
HETATM    9  C   UNL     1     -11.813  12.825  66.004  1.00  0.00    -0.439 C  
BRANCH   9  10
HETATM   10  N   UNL     1     -10.987  11.661  66.273  1.00  0.00    -0.288 N  
HETATM   11  H   UNL     1     -10.220  11.445  65.637  1.00  0.00     0.000 HD 
HETATM   12  C   UNL     1     -11.201  10.839  67.356  1.00  0.00    -0.241 C  
HETATM   13  O   UNL     1     -12.086  11.057  68.180  1.00  0.00    -0.610 OA 
BRANCH  12  14
HETATM   14  C   UNL     1     -10.256   9.634  67.452  1.00  0.00    -0.227 C  
BRANCH  14  15
HETATM   15  N   UNL     1     -10.813   8.530  68.228  1.00  0.00    -0.450 N  
HETATM   16  C   UNL     1     -10.394   7.231  68.016  1.00  0.00    -0.197 C  
HETATM   17  H   UNL     1     -11.522   8.720  68.937  1.00  0.00     0.000 HD 
HETATM   18  O   UNL     1      -9.654   6.927  67.084  1.00  0.00    -0.135 OA 
BRANCH  16  19
HETATM   19  C   UNL     1     -10.988   6.207  68.968  1.00  0.00    -0.367 C  
BRANCH  19  20
HETATM   20  S   UNL     1      -9.989   6.011  70.460  1.00  0.00    -0.192 SA 
BRANCH  20  21
HETATM   21  C   UNL     1     -11.235   6.166  71.690  1.00  0.00    -0.286 C  
HETATM   22  O   UNL     1     -11.384   5.306  72.554  1.00  0.00    -0.243 OA 
BRANCH  21  23
HETATM   23  C   UNL     1     -12.108   7.370  71.630  1.00  0.00    -0.349 A  
HETATM   24  C   UNL     1     -11.516   8.639  71.680  1.00  0.00    -0.375 A  
HETATM   25  C   UNL     1     -12.314   9.786  71.679  1.00  0.00    -0.495 A  
HETATM   26  C   UNL     1     -13.703   9.673  71.638  1.00  0.00    -0.328 A  
HETATM   27  C   UNL     1     -14.298   8.414  71.586  1.00  0.00    -0.536 A  
HETATM   28  C   UNL     1     -13.506   7.266  71.584  1.00  0.00    -0.428 A  
ENDBRANCH  21  23
ENDBRANCH  20  21
ENDBRANCH  19  20
ENDBRANCH  16  19
ENDBRANCH  14  15
ENDBRANCH  12  14
ENDBRANCH   9  10
ENDBRANCH   6   9
ENDBRANCH   3   5
TORSDOF 9
ENDMDL
MODEL       66
REMARK 921   NORMALIZED FREE ENERGY PREDICTED BY IDOCK:   -5.89 KCAL/MOL
REMARK 922        TOTAL FREE ENERGY PREDICTED BY IDOCK:   -9.83 KCAL/MOL
REMARK 923 INTER-LIGAND FREE ENERGY PREDICTED BY IDOCK:   -8.45 KCAL/MOL
REMARK 924 INTRA-LIGAND FREE ENERGY PREDICTED BY IDOCK:   -1.38 KCAL/MOL
REMARK 927      BINDING AFFINITY PREDICTED BY RF-SCORE:    0.00 PKD
ROOT
HETATM    1  O   UNL     1     -13.492  13.907  65.623  1.00  0.00    -0.590 OA 
HETATM    2  C   UNL     1     -12.421  13.608  64.850  1.00  0.00    -0.384 C  
HETATM    3  C   UNL     1     -11.149  13.305  65.634  1.00  0.00    -0.282 C  
HETATM    4  O   UNL     1     -12.474  13.613  63.631  1.00  0.00    -0.728 OA 
ENDROOT
BRANCH   3   5
HETATM    5  N   UNL     1     -11.339  13.397  67.077  1.00  0.00    -0.305 N  
HETATM    6  C   UNL     1     -11.736  12.313  67.832  1.00  0.00    -0.347 C  
HETATM    7  H   UNL     1     -11.175  14.290  67.542  1.00  0.00     0.000 HD 
HETATM    8  O   UNL     1     -11.992  11.221  67.336  1.00  0.00    -0.581 OA 
BRANCH   6   9
HETATM    9  C   UNL     1     -11.879  12.574  69.337  1.00  0.00    -0.308 C  
BRANCH   9  10
HETATM   10  N   UNL     1     -12.018  11.362  70.127  1.00  0.00    -0.352 N  
HETATM   11  H   UNL     1     -11.532  10.519  69.822  1.00  0.00     0.000 HD 
HETATM   12  C   UNL     1     -12.782  11.310  71.270  1.00  0.00    -0.405 C  
HETATM   13  O   UNL     1     -13.369  12.295  71.712  1.00  0.00    -0.410 OA 
BRANCH  12  14
HETATM   14  C   UNL     1     -12.845   9.934  71.946  1.00  0.00    -0.429 C  
BRANCH  14  15
HETATM   15  N   UNL     1     -12.686   8.828  71.006  1.00  0.00    -0.496 N  
HETATM   16  C   UNL     1     -11.604   7.974  71.091  1.00  0.00    -0.282 C  
HETATM   17  H   UNL     1     -13.384   8.684  70.275  1.00  0.00     0.000 HD 
HETATM   18  O   UNL     1     -10.665   8.183  71.855  1.00  0.00    -0.233 OA 
BRANCH  16  19
HETATM   19  C   UNL     1     -11.630   6.813  70.112  1.00  0.00    -0.341 C  
BRANCH  19  20
HETATM   20  S   UNL     1     -10.049   6.608  69.264  1.00  0.00    -0.176 SA 
BRANCH  20  21
HETATM   21  C   UNL     1     -10.442   7.308  67.700  1.00  0.00    -0.242 C  
HETATM   22  O   UNL     1     -11.281   6.792  66.967  1.00  0.00    -0.393 OA 
BRANCH  21  23
HETATM   23  C   UNL     1      -9.705   8.537  67.297  1.00  0.00    -0.239 A  
HETATM   24  C   UNL     1      -9.081   9.307  68.288  1.00  0.00    -0.128 A  
HETATM   25  C   UNL     1      -8.427  10.494  67.945  1.00  0.00    -0.119 A  
HETATM   26  C   UNL     1      -8.402  10.922  66.618  1.00  0.00    -0.143 A  
HETATM   27  C   UNL     1      -9.018  10.160  65.629  1.00  0.00    -0.199 A  
HETATM   28  C   UNL     1      -9.669   8.973  65.964  1.00  0.00    -0.339 A  
ENDBRANCH  21  23
ENDBRANCH  20  21
ENDBRANCH  19  20
ENDBRANCH  16  19
ENDBRANCH  14  15
ENDBRANCH  12  14
ENDBRANCH   9  10
ENDBRANCH   6   9
ENDBRANCH   3   5
TORSDOF 9
ENDMDL
MODEL       67
REMARK 921   NORMALIZED FREE ENERGY PREDICTED BY IDOCK:   -5.88 KCAL/MOL
REMARK 922        TOTAL FREE ENERGY PREDICTED BY IDOCK:   -9.82 KCAL/MOL
REMARK 923 INTER-LIGAND FREE ENERGY PREDICTED BY IDOCK:   -8.96 KCAL/MOL
REMARK 924 INTRA-LIGAND FREE ENERGY PREDICTED BY IDOCK:   -0.86 KCAL/MOL
REMARK 927      BINDING AFFINITY PREDICTED BY RF-SCORE:    0.00 PKD
ROOT
HETATM    1  O   UNL     1     -10.708  19.161  65.490  1.00  0.00    -0.507 OA 
HETATM    2  C   UNL     1     -10.299  18.806  66.731  1.00  0.00    -0.412 C  
HETATM    3  C   UNL     1     -10.189  17.301  66.946  1.00  0.00    -0.322 C  
HETATM    4  O   UNL     1     -10.071  19.628  67.603  1.00  0.00    -0.365 OA 
ENDROOT
BRANCH   3   5
HETATM    5  N   UNL     1     -10.548  16.533  65.759  1.00  0.00    -0.333 N  
HETATM    6  C   UNL     1     -11.394  15.445  65.820  1.00  0.00    -0.115 C  
HETATM    7  H   UNL     1     -10.161  16.808  64.856  1.00  0.00     0.000 HD 
HETATM    8  O   UNL     1     -11.862  15.032  66.876  1.00  0.00    -0.259 OA 
BRANCH   6   9
HETATM    9  C   UNL     1     -11.679  14.754  64.480  1.00  0.00    -0.391 C  
BRANCH   9  10
HETATM   10  N   UNL     1     -10.890  13.554  64.266  1.00  0.00    -0.535 N  
HETATM   11  H   UNL     1      -9.887  13.586  64.448  1.00  0.00     0.000 HD 
HETATM   12  C   UNL     1     -11.446  12.374  63.826  1.00  0.00    -0.467 C  
HETATM   13  O   UNL     1     -12.650  12.255  63.617  1.00  0.00    -0.649 OA 
BRANCH  12  14
HETATM   14  C   UNL     1     -10.448  11.226  63.615  1.00  0.00    -0.405 C  
BRANCH  14  15
HETATM   15  N   UNL     1     -10.278  10.392  64.801  1.00  0.00    -0.318 N  
HETATM   16  C   UNL     1      -9.547  10.837  65.883  1.00  0.00    -0.208 C  
HETATM   17  H   UNL     1     -10.706   9.466  64.829  1.00  0.00     0.000 HD 
HETATM   18  O   UNL     1      -8.895  11.877  65.848  1.00  0.00    -0.095 OA 
BRANCH  16  19
HETATM   19  C   UNL     1      -9.546   9.901  67.080  1.00  0.00    -0.162 C  
BRANCH  19  20
HETATM   20  S   UNL     1      -9.453  10.801  68.643  1.00  0.00    -0.193 SA 
BRANCH  20  21
HETATM   21  C   UNL     1     -11.163  10.926  69.031  1.00  0.00    -0.266 C  
HETATM   22  O   UNL     1     -11.920  11.610  68.348  1.00  0.00    -0.483 OA 
BRANCH  21  23
HETATM   23  C   UNL     1     -11.648  10.186  70.228  1.00  0.00    -0.379 A  
HETATM   24  C   UNL     1     -12.839  10.596  70.841  1.00  0.00    -0.473 A  
HETATM   25  C   UNL     1     -13.291   9.953  71.997  1.00  0.00    -0.532 A  
HETATM   26  C   UNL     1     -12.552   8.908  72.551  1.00  0.00    -0.363 A  
HETATM   27  C   UNL     1     -11.368   8.494  71.945  1.00  0.00    -0.399 A  
HETATM   28  C   UNL     1     -10.915   9.130  70.790  1.00  0.00    -0.332 A  
ENDBRANCH  21  23
ENDBRANCH  20  21
ENDBRANCH  19  20
ENDBRANCH  16  19
ENDBRANCH  14  15
ENDBRANCH  12  14
ENDBRANCH   9  10
ENDBRANCH   6   9
ENDBRANCH   3   5
TORSDOF 9
ENDMDL
MODEL       68
REMARK 921   NORMALIZED FREE ENERGY PREDICTED BY IDOCK:   -5.88 KCAL/MOL
REMARK 922        TOTAL FREE ENERGY PREDICTED BY IDOCK:   -9.81 KCAL/MOL
REMARK 923 INTER-LIGAND FREE ENERGY PREDICTED BY IDOCK:   -8.41 KCAL/MOL
REMARK 924 INTRA-LIGAND FREE ENERGY PREDICTED BY IDOCK:   -1.40 KCAL/MOL
REMARK 927      BINDING AFFINITY PREDICTED BY RF-SCORE:    0.00 PKD
ROOT
HETATM    1  O   UNL     1      -9.443  18.190  65.796  1.00  0.00    -0.483 OA 
HETATM    2  C   UNL     1     -10.047  19.227  66.424  1.00  0.00    -0.429 C  
HETATM    3  C   UNL     1      -9.714  19.340  67.907  1.00  0.00    -0.338 C  
HETATM    4  O   UNL     1     -10.813  19.982  65.848  1.00  0.00    -0.364 OA 
ENDROOT
BRANCH   3   5
HETATM    5  N   UNL     1      -8.800  18.297  68.362  1.00  0.00    -0.300 N  
HETATM    6  C   UNL     1      -7.518  18.582  68.782  1.00  0.00    -0.286 C  
HETATM    7  H   UNL     1      -9.119  17.328  68.369  1.00  0.00     0.000 HD 
HETATM    8  O   UNL     1      -7.053  19.717  68.761  1.00  0.00    -0.322 OA 
BRANCH   6   9
HETATM    9  C   UNL     1      -6.689  17.374  69.239  1.00  0.00    -0.222 C  
BRANCH   9  10
HETATM   10  N   UNL     1      -7.319  16.096  68.955  1.00  0.00    -0.173 N  
HETATM   11  H   UNL     1      -7.996  15.723  69.620  1.00  0.00     0.000 HD 
HETATM   12  C   UNL     1      -7.035  15.370  67.820  1.00  0.00    -0.163 C  
HETATM   13  O   UNL     1      -6.255  15.774  66.961  1.00  0.00    -0.312 OA 
BRANCH  12  14
HETATM   14  C   UNL     1      -7.765  14.024  67.712  1.00  0.00    -0.172 C  
BRANCH  14  15
HETATM   15  N   UNL     1      -8.799  14.014  66.682  1.00  0.00    -0.435 N  
HETATM   16  C   UNL     1      -9.875  14.877  66.749  1.00  0.00    -0.246 C  
HETATM   17  H   UNL     1      -8.726  13.360  65.902  1.00  0.00     0.000 HD 
HETATM   18  O   UNL     1     -10.088  15.582  67.732  1.00  0.00    -0.229 OA 
BRANCH  16  19
HETATM   19  C   UNL     1     -10.812  14.820  65.554  1.00  0.00    -0.351 C  
BRANCH  19  20
HETATM   20  S   UNL     1     -12.395  14.059  65.970  1.00  0.00    -0.441 SA 
BRANCH  20  21
HETATM   21  C   UNL     1     -12.321  12.618  64.966  1.00  0.00    -0.497 C  
HETATM   22  O   UNL     1     -13.129  12.434  64.061  1.00  0.00    -0.763 OA 
BRANCH  21  23
HETATM   23  C   UNL     1     -11.252  11.627  65.272  1.00  0.00    -0.263 A  
HETATM   24  C   UNL     1     -10.495  11.102  64.216  1.00  0.00    -0.427 A  
HETATM   25  C   UNL     1      -9.522  10.131  64.467  1.00  0.00    -0.364 A  
HETATM   26  C   UNL     1      -9.307   9.674  65.767  1.00  0.00    -0.286 A  
HETATM   27  C   UNL     1     -10.055  10.194  66.820  1.00  0.00    -0.277 A  
HETATM   28  C   UNL     1     -11.026  11.166  66.577  1.00  0.00    -0.270 A  
ENDBRANCH  21  23
ENDBRANCH  20  21
ENDBRANCH  19  20
ENDBRANCH  16  19
ENDBRANCH  14  15
ENDBRANCH  12  14
ENDBRANCH   9  10
ENDBRANCH   6   9
ENDBRANCH   3   5
TORSDOF 9
ENDMDL
MODEL       69
REMARK 921   NORMALIZED FREE ENERGY PREDICTED BY IDOCK:   -5.88 KCAL/MOL
REMARK 922        TOTAL FREE ENERGY PREDICTED BY IDOCK:   -9.81 KCAL/MOL
REMARK 923 INTER-LIGAND FREE ENERGY PREDICTED BY IDOCK:   -8.72 KCAL/MOL
REMARK 924 INTRA-LIGAND FREE ENERGY PREDICTED BY IDOCK:   -1.09 KCAL/MOL
REMARK 927      BINDING AFFINITY PREDICTED BY RF-SCORE:    0.00 PKD
ROOT
HETATM    1  O   UNL     1     -12.783  12.265  65.264  1.00  0.00    -0.543 OA 
HETATM    2  C   UNL     1     -12.406  12.168  63.967  1.00  0.00    -0.451 C  
HETATM    3  C   UNL     1     -10.968  12.599  63.700  1.00  0.00    -0.416 C  
HETATM    4  O   UNL     1     -13.169  11.794  63.092  1.00  0.00    -0.538 OA 
ENDROOT
BRANCH   3   5
HETATM    5  N   UNL     1     -10.275  13.035  64.908  1.00  0.00    -0.451 N  
HETATM    6  C   UNL     1     -10.404  14.316  65.402  1.00  0.00    -0.370 C  
HETATM    7  H   UNL     1      -9.678  12.372  65.402  1.00  0.00     0.000 HD 
HETATM    8  O   UNL     1     -11.071  15.178  64.838  1.00  0.00    -0.389 OA 
BRANCH   6   9
HETATM    9  C   UNL     1      -9.618  14.610  66.687  1.00  0.00    -0.278 C  
BRANCH   9  10
HETATM   10  N   UNL     1      -9.346  13.427  67.485  1.00  0.00    -0.209 N  
HETATM   11  H   UNL     1     -10.132  12.886  67.846  1.00  0.00     0.000 HD 
HETATM   12  C   UNL     1      -8.066  13.009  67.772  1.00  0.00    -0.168 C  
HETATM   13  O   UNL     1      -7.074  13.593  67.344  1.00  0.00    -0.168 OA 
BRANCH  12  14
HETATM   14  C   UNL     1      -7.976  11.764  68.665  1.00  0.00    -0.116 C  
BRANCH  14  15
HETATM   15  N   UNL     1      -9.229  11.017  68.733  1.00  0.00    -0.229 N  
HETATM   16  C   UNL     1      -9.431  10.057  69.704  1.00  0.00    -0.223 C  
HETATM   17  H   UNL     1      -9.965  11.207  68.053  1.00  0.00     0.000 HD 
HETATM   18  O   UNL     1      -8.532   9.688  70.456  1.00  0.00    -0.190 OA 
BRANCH  16  19
HETATM   19  C   UNL     1     -10.819   9.439  69.710  1.00  0.00    -0.232 C  
BRANCH  19  20
HETATM   20  S   UNL     1     -11.971  10.374  70.739  1.00  0.00    -0.390 SA 
BRANCH  20  21
HETATM   21  C   UNL     1     -12.141  11.831  69.771  1.00  0.00    -0.269 C  
HETATM   22  O   UNL     1     -12.054  11.792  68.546  1.00  0.00    -0.454 OA 
BRANCH  21  23
HETATM   23  C   UNL     1     -12.376  13.110  70.496  1.00  0.00    -0.380 A  
HETATM   24  C   UNL     1     -12.789  13.063  71.834  1.00  0.00    -0.316 A  
HETATM   25  C   UNL     1     -13.069  14.246  72.523  1.00  0.00    -0.550 A  
HETATM   26  C   UNL     1     -12.947  15.477  71.879  1.00  0.00    -0.522 A  
HETATM   27  C   UNL     1     -12.535  15.530  70.550  1.00  0.00    -0.472 A  
HETATM   28  C   UNL     1     -12.251  14.353  69.858  1.00  0.00    -0.394 A  
ENDBRANCH  21  23
ENDBRANCH  20  21
ENDBRANCH  19  20
ENDBRANCH  16  19
ENDBRANCH  14  15
ENDBRANCH  12  14
ENDBRANCH   9  10
ENDBRANCH   6   9
ENDBRANCH   3   5
TORSDOF 9
ENDMDL
MODEL       70
REMARK 921   NORMALIZED FREE ENERGY PREDICTED BY IDOCK:   -5.86 KCAL/MOL
REMARK 922        TOTAL FREE ENERGY PREDICTED BY IDOCK:   -9.79 KCAL/MOL
REMARK 923 INTER-LIGAND FREE ENERGY PREDICTED BY IDOCK:   -8.99 KCAL/MOL
REMARK 924 INTRA-LIGAND FREE ENERGY PREDICTED BY IDOCK:   -0.80 KCAL/MOL
REMARK 927      BINDING AFFINITY PREDICTED BY RF-SCORE:    0.00 PKD
ROOT
HETATM    1  O   UNL     1      -8.894   8.817  72.309  1.00  0.00    -0.367 OA 
HETATM    2  C   UNL     1      -8.771   8.606  70.977  1.00  0.00    -0.186 C  
HETATM    3  C   UNL     1      -9.811   9.332  70.130  1.00  0.00    -0.215 C  
HETATM    4  O   UNL     1      -7.916   7.874  70.508  1.00  0.00    -0.093 OA 
ENDROOT
BRANCH   3   5
HETATM    5  N   UNL     1     -10.743  10.118  70.932  1.00  0.00    -0.347 N  
HETATM    6  C   UNL     1     -11.797  10.802  70.365  1.00  0.00    -0.358 C  
HETATM    7  H   UNL     1     -10.610  10.164  71.943  1.00  0.00     0.000 HD 
HETATM    8  O   UNL     1     -11.994  10.827  69.154  1.00  0.00    -0.304 OA 
BRANCH   6   9
HETATM    9  C   UNL     1     -12.690  11.572  71.348  1.00  0.00    -0.364 C  
BRANCH   9  10
HETATM   10  N   UNL     1     -12.658  13.011  71.157  1.00  0.00    -0.353 N  
HETATM   11  H   UNL     1     -12.000  13.404  70.485  1.00  0.00     0.000 HD 
HETATM   12  C   UNL     1     -13.485  13.866  71.851  1.00  0.00    -0.427 C  
HETATM   13  O   UNL     1     -14.323  13.461  72.653  1.00  0.00    -0.709 OA 
BRANCH  12  14
HETATM   14  C   UNL     1     -13.277  15.356  71.549  1.00  0.00    -0.490 C  
BRANCH  14  15
HETATM   15  N   UNL     1     -12.914  15.613  70.158  1.00  0.00    -0.662 N  
HETATM   16  C   UNL     1     -11.593  15.607  69.757  1.00  0.00    -0.352 C  
HETATM   17  H   UNL     1     -13.647  15.799  69.473  1.00  0.00     0.000 HD 
HETATM   18  O   UNL     1     -10.666  15.531  70.560  1.00  0.00    -0.320 OA 
BRANCH  16  19
HETATM   19  C   UNL     1     -11.380  15.787  68.263  1.00  0.00    -0.354 C  
BRANCH  19  20
HETATM   20  S   UNL     1     -11.826  14.305  67.333  1.00  0.00    -0.397 SA 
BRANCH  20  21
HETATM   21  C   UNL     1     -10.248  13.840  66.714  1.00  0.00    -0.268 C  
HETATM   22  O   UNL     1      -9.224  14.392  67.109  1.00  0.00    -0.203 OA 
BRANCH  21  23
HETATM   23  C   UNL     1     -10.207  12.766  65.684  1.00  0.00    -0.292 A  
HETATM   24  C   UNL     1     -10.524  13.088  64.358  1.00  0.00    -0.426 A  
HETATM   25  C   UNL     1     -10.546  12.090  63.380  1.00  0.00    -0.478 A  
HETATM   26  C   UNL     1     -10.262  10.768  63.722  1.00  0.00    -0.354 A  
HETATM   27  C   UNL     1      -9.943  10.442  65.038  1.00  0.00    -0.399 A  
HETATM   28  C   UNL     1      -9.916  11.435  66.018  1.00  0.00    -0.269 A  
ENDBRANCH  21  23
ENDBRANCH  20  21
ENDBRANCH  19  20
ENDBRANCH  16  19
ENDBRANCH  14  15
ENDBRANCH  12  14
ENDBRANCH   9  10
ENDBRANCH   6   9
ENDBRANCH   3   5
TORSDOF 9
ENDMDL
MODEL       71
REMARK 921   NORMALIZED FREE ENERGY PREDICTED BY IDOCK:   -5.83 KCAL/MOL
REMARK 922        TOTAL FREE ENERGY PREDICTED BY IDOCK:   -9.74 KCAL/MOL
REMARK 923 INTER-LIGAND FREE ENERGY PREDICTED BY IDOCK:   -9.03 KCAL/MOL
REMARK 924 INTRA-LIGAND FREE ENERGY PREDICTED BY IDOCK:   -0.71 KCAL/MOL
REMARK 927      BINDING AFFINITY PREDICTED BY RF-SCORE:    0.00 PKD
ROOT
HETATM    1  O   UNL     1     -12.882  12.854  65.333  1.00  0.00    -0.599 OA 
HETATM    2  C   UNL     1     -12.150  13.486  64.386  1.00  0.00    -0.420 C  
HETATM    3  C   UNL     1     -10.681  13.671  64.751  1.00  0.00    -0.410 C  
HETATM    4  O   UNL     1     -12.640  13.895  63.346  1.00  0.00    -0.853 OA 
ENDROOT
BRANCH   3   5
HETATM    5  N   UNL     1     -10.352  13.124  66.063  1.00  0.00    -0.282 N  
HETATM    6  C   UNL     1      -9.642  11.950  66.208  1.00  0.00    -0.229 C  
HETATM    7  H   UNL     1     -10.657  13.624  66.899  1.00  0.00     0.000 HD 
HETATM    8  O   UNL     1      -9.281  11.275  65.249  1.00  0.00    -0.218 OA 
BRANCH   6   9
HETATM    9  C   UNL     1      -9.370  11.517  67.654  1.00  0.00    -0.171 C  
BRANCH   9  10
HETATM   10  N   UNL     1     -10.031  12.350  68.644  1.00  0.00    -0.382 N  
HETATM   11  H   UNL     1      -9.487  13.061  69.131  1.00  0.00     0.000 HD 
HETATM   12  C   UNL     1     -11.367  12.213  68.949  1.00  0.00    -0.283 C  
HETATM   13  O   UNL     1     -12.089  11.399  68.380  1.00  0.00    -0.575 OA 
BRANCH  12  14
HETATM   14  C   UNL     1     -11.878  13.150  70.052  1.00  0.00    -0.290 C  
BRANCH  14  15
HETATM   15  N   UNL     1     -11.192  14.439  70.071  1.00  0.00    -0.435 N  
HETATM   16  C   UNL     1     -11.285  15.308  69.004  1.00  0.00    -0.280 C  
HETATM   17  H   UNL     1     -10.637  14.700  70.886  1.00  0.00     0.000 HD 
HETATM   18  O   UNL     1     -11.820  14.989  67.945  1.00  0.00    -0.334 OA 
BRANCH  16  19
HETATM   19  C   UNL     1     -10.604  16.650  69.213  1.00  0.00    -0.343 C  
BRANCH  19  20
HETATM   20  S   UNL     1     -10.277  17.494  67.651  1.00  0.00    -0.357 SA 
BRANCH  20  21
HETATM   21  C   UNL     1      -9.822  19.085  68.246  1.00  0.00    -0.378 C  
HETATM   22  O   UNL     1     -10.642  19.814  68.798  1.00  0.00    -0.229 OA 
BRANCH  21  23
HETATM   23  C   UNL     1      -8.412  19.514  68.038  1.00  0.00    -0.358 A  
HETATM   24  C   UNL     1      -7.410  18.962  68.847  1.00  0.00    -0.345 A  
HETATM   25  C   UNL     1      -6.085  19.387  68.709  1.00  0.00    -0.266 A  
HETATM   26  C   UNL     1      -5.757  20.367  67.774  1.00  0.00    -0.241 A  
HETATM   27  C   UNL     1      -6.748  20.918  66.966  1.00  0.00    -0.396 A  
HETATM   28  C   UNL     1      -8.071  20.496  67.096  1.00  0.00    -0.358 A  
ENDBRANCH  21  23
ENDBRANCH  20  21
ENDBRANCH  19  20
ENDBRANCH  16  19
ENDBRANCH  14  15
ENDBRANCH  12  14
ENDBRANCH   9  10
ENDBRANCH   6   9
ENDBRANCH   3   5
TORSDOF 9
ENDMDL
MODEL       72
REMARK 921   NORMALIZED FREE ENERGY PREDICTED BY IDOCK:   -5.82 KCAL/MOL
REMARK 922        TOTAL FREE ENERGY PREDICTED BY IDOCK:   -9.72 KCAL/MOL
REMARK 923 INTER-LIGAND FREE ENERGY PREDICTED BY IDOCK:   -9.04 KCAL/MOL
REMARK 924 INTRA-LIGAND FREE ENERGY PREDICTED BY IDOCK:   -0.68 KCAL/MOL
REMARK 927      BINDING AFFINITY PREDICTED BY RF-SCORE:    0.00 PKD
ROOT
HETATM    1  O   UNL     1      -8.413   9.950  67.136  1.00  0.00    -0.121 OA 
HETATM    2  C   UNL     1      -9.268   9.365  66.263  1.00  0.00    -0.180 C  
HETATM    3  C   UNL     1     -10.657   9.099  66.832  1.00  0.00    -0.167 C  
HETATM    4  O   UNL     1      -8.934   9.054  65.132  1.00  0.00    -0.200 OA 
ENDROOT
BRANCH   3   5
HETATM    5  N   UNL     1     -10.793   9.535  68.218  1.00  0.00    -0.420 N  
HETATM    6  C   UNL     1     -11.501  10.668  68.562  1.00  0.00    -0.265 C  
HETATM    7  H   UNL     1     -10.351   8.985  68.955  1.00  0.00     0.000 HD 
HETATM    8  O   UNL     1     -12.022  11.399  67.726  1.00  0.00    -0.637 OA 
BRANCH   6   9
HETATM    9  C   UNL     1     -11.558  10.980  70.063  1.00  0.00    -0.344 C  
BRANCH   9  10
HETATM   10  N   UNL     1     -11.815  12.380  70.355  1.00  0.00    -0.541 N  
HETATM   11  H   UNL     1     -11.323  13.093  69.817  1.00  0.00     0.000 HD 
HETATM   12  C   UNL     1     -12.697  12.779  71.334  1.00  0.00    -0.255 C  
HETATM   13  O   UNL     1     -13.346  11.976  71.999  1.00  0.00    -0.495 OA 
BRANCH  12  14
HETATM   14  C   UNL     1     -12.805  14.298  71.529  1.00  0.00    -0.346 C  
BRANCH  14  15
HETATM   15  N   UNL     1     -12.719  15.043  70.276  1.00  0.00    -0.555 N  
HETATM   16  C   UNL     1     -11.503  15.491  69.799  1.00  0.00    -0.331 C  
HETATM   17  H   UNL     1     -13.569  15.235  69.746  1.00  0.00     0.000 HD 
HETATM   18  O   UNL     1     -10.472  15.413  70.462  1.00  0.00    -0.280 OA 
BRANCH  16  19
HETATM   19  C   UNL     1     -11.561  16.159  68.436  1.00  0.00    -0.228 C  
BRANCH  19  20
HETATM   20  S   UNL     1     -10.770  15.158  67.158  1.00  0.00    -0.314 SA 
BRANCH  20  21
HETATM   21  C   UNL     1     -10.395  16.404  65.975  1.00  0.00    -0.352 C  
HETATM   22  O   UNL     1     -10.594  16.221  64.777  1.00  0.00    -0.658 OA 
BRANCH  21  23
HETATM   23  C   UNL     1      -9.814  17.676  66.484  1.00  0.00    -0.323 A  
HETATM   24  C   UNL     1      -8.625  17.628  67.224  1.00  0.00    -0.238 A  
HETATM   25  C   UNL     1      -8.084  18.801  67.759  1.00  0.00    -0.276 A  
HETATM   26  C   UNL     1      -8.731  20.021  67.568  1.00  0.00    -0.415 A  
HETATM   27  C   UNL     1      -9.912  20.075  66.831  1.00  0.00    -0.584 A  
HETATM   28  C   UNL     1     -10.455  18.909  66.292  1.00  0.00    -0.510 A  
ENDBRANCH  21  23
ENDBRANCH  20  21
ENDBRANCH  19  20
ENDBRANCH  16  19
ENDBRANCH  14  15
ENDBRANCH  12  14
ENDBRANCH   9  10
ENDBRANCH   6   9
ENDBRANCH   3   5
TORSDOF 9
ENDMDL
MODEL       73
REMARK 921   NORMALIZED FREE ENERGY PREDICTED BY IDOCK:   -5.80 KCAL/MOL
REMARK 922        TOTAL FREE ENERGY PREDICTED BY IDOCK:   -9.70 KCAL/MOL
REMARK 923 INTER-LIGAND FREE ENERGY PREDICTED BY IDOCK:   -8.93 KCAL/MOL
REMARK 924 INTRA-LIGAND FREE ENERGY PREDICTED BY IDOCK:   -0.77 KCAL/MOL
REMARK 927      BINDING AFFINITY PREDICTED BY RF-SCORE:    0.00 PKD
ROOT
HETATM    1  O   UNL     1     -10.688  17.970  68.165  1.00  0.00    -0.355 OA 
HETATM    2  C   UNL     1     -10.448  18.823  67.141  1.00  0.00    -0.427 C  
HETATM    3  C   UNL     1     -10.309  18.146  65.782  1.00  0.00    -0.172 C  
HETATM    4  O   UNL     1     -10.326  20.025  67.309  1.00  0.00    -0.421 OA 
ENDROOT
BRANCH   3   5
HETATM    5  N   UNL     1     -10.465  16.697  65.855  1.00  0.00    -0.340 N  
HETATM    6  C   UNL     1     -11.106  15.981  64.866  1.00  0.00    -0.370 C  
HETATM    7  H   UNL     1     -10.089  16.198  66.662  1.00  0.00     0.000 HD 
HETATM    8  O   UNL     1     -11.618  16.518  63.889  1.00  0.00    -1.175 OA 
BRANCH   6   9
HETATM    9  C   UNL     1     -11.175  14.464  65.088  1.00  0.00    -0.359 C  
BRANCH   9  10
HETATM   10  N   UNL     1     -11.830  14.088  66.329  1.00  0.00    -0.391 N  
HETATM   11  H   UNL     1     -12.842  13.967  66.333  1.00  0.00     0.000 HD 
HETATM   12  C   UNL     1     -11.134  13.890  67.500  1.00  0.00    -0.286 C  
HETATM   13  O   UNL     1      -9.911  13.988  67.560  1.00  0.00    -0.232 OA 
BRANCH  12  14
HETATM   14  C   UNL     1     -12.001  13.540  68.717  1.00  0.00    -0.339 C  
BRANCH  14  15
HETATM   15  N   UNL     1     -11.365  12.581  69.616  1.00  0.00    -0.479 N  
HETATM   16  C   UNL     1     -11.518  11.222  69.427  1.00  0.00    -0.301 C  
HETATM   17  H   UNL     1     -10.799  12.920  70.394  1.00  0.00     0.000 HD 
HETATM   18  O   UNL     1     -12.299  10.761  68.597  1.00  0.00    -0.430 OA 
BRANCH  16  19
HETATM   19  C   UNL     1     -10.715  10.351  70.378  1.00  0.00    -0.121 C  
BRANCH  19  20
HETATM   20  S   UNL     1     -10.839   8.599  69.960  1.00  0.00    -0.190 SA 
BRANCH  20  21
HETATM   21  C   UNL     1     -11.919   8.052  71.235  1.00  0.00    -0.296 C  
HETATM   22  O   UNL     1     -13.103   8.377  71.246  1.00  0.00    -0.259 OA 
BRANCH  21  23
HETATM   23  C   UNL     1     -11.336   7.197  72.304  1.00  0.00    -0.303 A  
HETATM   24  C   UNL     1     -10.290   7.708  73.084  1.00  0.00    -0.411 A  
HETATM   25  C   UNL     1      -9.687   6.909  74.060  1.00  0.00    -0.326 A  
HETATM   26  C   UNL     1     -10.117   5.597  74.254  1.00  0.00    -0.276 A  
HETATM   27  C   UNL     1     -11.158   5.084  73.483  1.00  0.00    -0.386 A  
HETATM   28  C   UNL     1     -11.765   5.877  72.510  1.00  0.00    -0.288 A  
ENDBRANCH  21  23
ENDBRANCH  20  21
ENDBRANCH  19  20
ENDBRANCH  16  19
ENDBRANCH  14  15
ENDBRANCH  12  14
ENDBRANCH   9  10
ENDBRANCH   6   9
ENDBRANCH   3   5
TORSDOF 9
ENDMDL
MODEL       74
REMARK 921   NORMALIZED FREE ENERGY PREDICTED BY IDOCK:   -5.79 KCAL/MOL
REMARK 922        TOTAL FREE ENERGY PREDICTED BY IDOCK:   -9.68 KCAL/MOL
REMARK 923 INTER-LIGAND FREE ENERGY PREDICTED BY IDOCK:   -8.71 KCAL/MOL
REMARK 924 INTRA-LIGAND FREE ENERGY PREDICTED BY IDOCK:   -0.98 KCAL/MOL
REMARK 927      BINDING AFFINITY PREDICTED BY RF-SCORE:    0.00 PKD
ROOT
HETATM    1  O   UNL     1     -10.339   6.897  70.441  1.00  0.00    -0.198 OA 
HETATM    2  C   UNL     1     -10.655   5.811  71.186  1.00  0.00    -0.251 C  
HETATM    3  C   UNL     1     -11.657   6.089  72.301  1.00  0.00    -0.307 C  
HETATM    4  O   UNL     1     -10.151   4.717  70.992  1.00  0.00    -0.207 OA 
ENDROOT
BRANCH   3   5
HETATM    5  N   UNL     1     -12.083   7.483  72.344  1.00  0.00    -0.495 N  
HETATM    6  C   UNL     1     -13.290   7.895  71.818  1.00  0.00    -0.328 C  
HETATM    7  H   UNL     1     -11.470   8.175  72.775  1.00  0.00     0.000 HD 
HETATM    8  O   UNL     1     -14.058   7.127  71.248  1.00  0.00    -0.351 OA 
BRANCH   6   9
HETATM    9  C   UNL     1     -13.592   9.393  71.954  1.00  0.00    -0.410 C  
BRANCH   9  10
HETATM   10  N   UNL     1     -13.329  10.152  70.743  1.00  0.00    -0.518 N  
HETATM   11  H   UNL     1     -14.112  10.406  70.142  1.00  0.00     0.000 HD 
HETATM   12  C   UNL     1     -12.060  10.541  70.378  1.00  0.00    -0.329 C  
HETATM   13  O   UNL     1     -11.075  10.297  71.070  1.00  0.00    -0.276 OA 
BRANCH  12  14
HETATM   14  C   UNL     1     -11.972  11.296  69.045  1.00  0.00    -0.325 C  
BRANCH  14  15
HETATM   15  N   UNL     1     -11.032  12.412  69.080  1.00  0.00    -0.402 N  
HETATM   16  C   UNL     1     -10.029  12.526  68.138  1.00  0.00    -0.224 C  
HETATM   17  H   UNL     1     -11.117  13.118  69.812  1.00  0.00     0.000 HD 
HETATM   18  O   UNL     1      -9.792  11.636  67.325  1.00  0.00    -0.186 OA 
BRANCH  16  19
HETATM   19  C   UNL     1      -9.196  13.792  68.244  1.00  0.00    -0.204 C  
BRANCH  19  20
HETATM   20  S   UNL     1      -9.549  14.948  66.902  1.00  0.00    -0.256 SA 
BRANCH  20  21
HETATM   21  C   UNL     1     -10.691  16.016  67.706  1.00  0.00    -0.323 C  
HETATM   22  O   UNL     1     -11.690  15.571  68.265  1.00  0.00    -0.360 OA 
BRANCH  21  23
HETATM   23  C   UNL     1     -10.406  17.477  67.665  1.00  0.00    -0.360 A  
HETATM   24  C   UNL     1     -10.509  18.152  66.441  1.00  0.00    -0.364 A  
HETATM   25  C   UNL     1     -10.196  19.512  66.362  1.00  0.00    -0.576 A  
HETATM   26  C   UNL     1      -9.770  20.200  67.498  1.00  0.00    -0.557 A  
HETATM   27  C   UNL     1      -9.668  19.534  68.717  1.00  0.00    -0.513 A  
HETATM   28  C   UNL     1      -9.982  18.178  68.803  1.00  0.00    -0.389 A  
ENDBRANCH  21  23
ENDBRANCH  20  21
ENDBRANCH  19  20
ENDBRANCH  16  19
ENDBRANCH  14  15
ENDBRANCH  12  14
ENDBRANCH   9  10
ENDBRANCH   6   9
ENDBRANCH   3   5
TORSDOF 9
ENDMDL
MODEL       75
REMARK 921   NORMALIZED FREE ENERGY PREDICTED BY IDOCK:   -5.78 KCAL/MOL
REMARK 922        TOTAL FREE ENERGY PREDICTED BY IDOCK:   -9.67 KCAL/MOL
REMARK 923 INTER-LIGAND FREE ENERGY PREDICTED BY IDOCK:   -8.75 KCAL/MOL
REMARK 924 INTRA-LIGAND FREE ENERGY PREDICTED BY IDOCK:   -0.92 KCAL/MOL
REMARK 927      BINDING AFFINITY PREDICTED BY RF-SCORE:    0.00 PKD
ROOT
HETATM    1  O   UNL     1     -12.280  13.837  67.911  1.00  0.00    -0.327 OA 
HETATM    2  C   UNL     1     -11.639  14.988  67.596  1.00  0.00    -0.312 C  
HETATM    3  C   UNL     1     -10.998  14.988  66.213  1.00  0.00    -0.338 C  
HETATM    4  O   UNL     1     -11.563  15.926  68.372  1.00  0.00    -0.371 OA 
ENDROOT
BRANCH   3   5
HETATM    5  N   UNL     1     -11.205  13.735  65.494  1.00  0.00    -0.297 N  
HETATM    6  C   UNL     1     -11.990  13.663  64.362  1.00  0.00    -0.437 C  
HETATM    7  H   UNL     1     -10.756  12.887  65.840  1.00  0.00     0.000 HD 
HETATM    8  O   UNL     1     -12.593  14.633  63.914  1.00  0.00    -0.834 OA 
BRANCH   6   9
HETATM    9  C   UNL     1     -12.096  12.274  63.720  1.00  0.00    -0.532 C  
BRANCH   9  10
HETATM   10  N   UNL     1     -11.180  11.300  64.287  1.00  0.00    -0.293 N  
HETATM   11  H   UNL     1     -11.392  10.899  65.200  1.00  0.00     0.000 HD 
HETATM   12  C   UNL     1     -10.035  10.897  63.637  1.00  0.00    -0.359 C  
HETATM   13  O   UNL     1      -9.733  11.315  62.522  1.00  0.00    -0.214 OA 
BRANCH  12  14
HETATM   14  C   UNL     1      -9.169   9.894  64.412  1.00  0.00    -0.264 C  
BRANCH  14  15
HETATM   15  N   UNL     1      -9.901   9.203  65.469  1.00  0.00    -0.452 N  
HETATM   16  C   UNL     1      -9.233   8.565  66.494  1.00  0.00    -0.190 C  
HETATM   17  H   UNL     1     -10.921   9.191  65.449  1.00  0.00     0.000 HD 
HETATM   18  O   UNL     1      -8.013   8.426  66.493  1.00  0.00    -0.094 OA 
BRANCH  16  19
HETATM   19  C   UNL     1     -10.130   7.980  67.573  1.00  0.00    -0.219 C  
BRANCH  19  20
HETATM   20  S   UNL     1      -9.434   8.199  69.224  1.00  0.00    -0.159 SA 
BRANCH  20  21
HETATM   21  C   UNL     1     -10.866   7.919  70.205  1.00  0.00    -0.243 C  
HETATM   22  O   UNL     1     -11.221   6.780  70.497  1.00  0.00    -0.277 OA 
BRANCH  21  23
HETATM   23  C   UNL     1     -11.635   9.114  70.648  1.00  0.00    -0.282 A  
HETATM   24  C   UNL     1     -11.398  10.343  70.018  1.00  0.00    -0.384 A  
HETATM   25  C   UNL     1     -12.067  11.492  70.449  1.00  0.00    -0.471 A  
HETATM   26  C   UNL     1     -12.965  11.422  71.513  1.00  0.00    -0.505 A  
HETATM   27  C   UNL     1     -13.206  10.203  72.142  1.00  0.00    -0.463 A  
HETATM   28  C   UNL     1     -12.544   9.052  71.714  1.00  0.00    -0.434 A  
ENDBRANCH  21  23
ENDBRANCH  20  21
ENDBRANCH  19  20
ENDBRANCH  16  19
ENDBRANCH  14  15
ENDBRANCH  12  14
ENDBRANCH   9  10
ENDBRANCH   6   9
ENDBRANCH   3   5
TORSDOF 9
ENDMDL
MODEL       76
REMARK 921   NORMALIZED FREE ENERGY PREDICTED BY IDOCK:   -5.78 KCAL/MOL
REMARK 922        TOTAL FREE ENERGY PREDICTED BY IDOCK:   -9.67 KCAL/MOL
REMARK 923 INTER-LIGAND FREE ENERGY PREDICTED BY IDOCK:   -8.90 KCAL/MOL
REMARK 924 INTRA-LIGAND FREE ENERGY PREDICTED BY IDOCK:   -0.76 KCAL/MOL
REMARK 927      BINDING AFFINITY PREDICTED BY RF-SCORE:    0.00 PKD
ROOT
HETATM    1  O   UNL     1     -12.305  14.842  74.445  1.00  0.00    -0.510 OA 
HETATM    2  C   UNL     1     -12.301  16.070  73.875  1.00  0.00    -0.584 C  
HETATM    3  C   UNL     1     -11.945  16.069  72.392  1.00  0.00    -0.544 C  
HETATM    4  O   UNL     1     -12.533  17.086  74.510  1.00  0.00    -0.611 OA 
ENDROOT
BRANCH   3   5
HETATM    5  N   UNL     1     -11.679  14.731  71.876  1.00  0.00    -0.418 N  
HETATM    6  C   UNL     1     -12.665  13.964  71.292  1.00  0.00    -0.367 C  
HETATM    7  H   UNL     1     -10.734  14.351  71.949  1.00  0.00     0.000 HD 
HETATM    8  O   UNL     1     -13.830  14.338  71.208  1.00  0.00    -0.329 OA 
BRANCH   6   9
HETATM    9  C   UNL     1     -12.218  12.584  70.791  1.00  0.00    -0.240 C  
BRANCH   9  10
HETATM   10  N   UNL     1     -11.547  12.623  69.503  1.00  0.00    -0.382 N  
HETATM   11  H   UNL     1     -10.884  13.376  69.317  1.00  0.00     0.000 HD 
HETATM   12  C   UNL     1     -11.772  11.682  68.524  1.00  0.00    -0.315 C  
HETATM   13  O   UNL     1     -12.532  10.731  68.692  1.00  0.00    -0.348 OA 
BRANCH  12  14
HETATM   14  C   UNL     1     -11.006  11.912  67.215  1.00  0.00    -0.268 C  
BRANCH  14  15
HETATM   15  N   UNL     1     -11.139  13.274  66.706  1.00  0.00    -0.287 N  
HETATM   16  C   UNL     1     -10.173  14.225  66.963  1.00  0.00    -0.260 C  
HETATM   17  H   UNL     1     -11.958  13.526  66.152  1.00  0.00     0.000 HD 
HETATM   18  O   UNL     1      -9.242  14.019  67.738  1.00  0.00    -0.182 OA 
BRANCH  16  19
HETATM   19  C   UNL     1     -10.399  15.564  66.282  1.00  0.00    -0.302 C  
BRANCH  19  20
HETATM   20  S   UNL     1      -8.889  16.552  66.211  1.00  0.00    -0.320 SA 
BRANCH  20  21
HETATM   21  C   UNL     1      -9.302  17.832  67.343  1.00  0.00    -0.252 C  
HETATM   22  O   UNL     1     -10.436  17.932  67.802  1.00  0.00    -0.371 OA 
BRANCH  21  23
HETATM   23  C   UNL     1      -8.226  18.796  67.705  1.00  0.00    -0.285 A  
HETATM   24  C   UNL     1      -7.321  18.450  68.717  1.00  0.00    -0.304 A  
HETATM   25  C   UNL     1      -6.335  19.357  69.115  1.00  0.00    -0.321 A  
HETATM   26  C   UNL     1      -6.253  20.613  68.513  1.00  0.00    -0.355 A  
HETATM   27  C   UNL     1      -7.149  20.961  67.505  1.00  0.00    -0.389 A  
HETATM   28  C   UNL     1      -8.134  20.059  67.102  1.00  0.00    -0.357 A  
ENDBRANCH  21  23
ENDBRANCH  20  21
ENDBRANCH  19  20
ENDBRANCH  16  19
ENDBRANCH  14  15
ENDBRANCH  12  14
ENDBRANCH   9  10
ENDBRANCH   6   9
ENDBRANCH   3   5
TORSDOF 9
ENDMDL
MODEL       77
REMARK 921   NORMALIZED FREE ENERGY PREDICTED BY IDOCK:   -5.77 KCAL/MOL
REMARK 922        TOTAL FREE ENERGY PREDICTED BY IDOCK:   -9.65 KCAL/MOL
REMARK 923 INTER-LIGAND FREE ENERGY PREDICTED BY IDOCK:   -8.72 KCAL/MOL
REMARK 924 INTRA-LIGAND FREE ENERGY PREDICTED BY IDOCK:   -0.93 KCAL/MOL
REMARK 927      BINDING AFFINITY PREDICTED BY RF-SCORE:    0.00 PKD
ROOT
HETATM    1  O   UNL     1     -12.218  14.111  69.277  1.00  0.00    -0.332 OA 
HETATM    2  C   UNL     1     -11.803  15.066  70.144  1.00  0.00    -0.314 C  
HETATM    3  C   UNL     1     -11.108  16.251  69.483  1.00  0.00    -0.330 C  
HETATM    4  O   UNL     1     -11.952  14.961  71.350  1.00  0.00    -0.310 OA 
ENDROOT
BRANCH   3   5
HETATM    5  N   UNL     1     -11.028  16.122  68.032  1.00  0.00    -0.342 N  
HETATM    6  C   UNL     1     -10.680  17.182  67.222  1.00  0.00    -0.208 C  
HETATM    7  H   UNL     1     -11.235  15.219  67.603  1.00  0.00     0.000 HD 
HETATM    8  O   UNL     1     -10.458  18.305  67.663  1.00  0.00    -0.380 OA 
BRANCH   6   9
HETATM    9  C   UNL     1     -10.631  16.876  65.719  1.00  0.00    -0.230 C  
BRANCH   9  10
HETATM   10  N   UNL     1     -10.812  15.469  65.406  1.00  0.00    -0.374 N  
HETATM   11  H   UNL     1     -10.251  14.779  65.904  1.00  0.00     0.000 HD 
HETATM   12  C   UNL     1     -11.713  15.034  64.460  1.00  0.00    -0.368 C  
HETATM   13  O   UNL     1     -12.443  15.807  63.845  1.00  0.00    -0.744 OA 
BRANCH  12  14
HETATM   14  C   UNL     1     -11.733  13.516  64.235  1.00  0.00    -0.416 C  
BRANCH  14  15
HETATM   15  N   UNL     1     -10.714  12.810  65.005  1.00  0.00    -0.287 N  
HETATM   16  C   UNL     1     -11.045  12.109  66.147  1.00  0.00    -0.312 C  
HETATM   17  H   UNL     1      -9.742  12.835  64.694  1.00  0.00     0.000 HD 
HETATM   18  O   UNL     1     -12.167  12.163  66.644  1.00  0.00    -0.566 OA 
BRANCH  16  19
HETATM   19  C   UNL     1      -9.897  11.343  66.781  1.00  0.00    -0.206 C  
BRANCH  19  20
HETATM   20  S   UNL     1      -9.506  11.953  68.434  1.00  0.00    -0.157 SA 
BRANCH  20  21
HETATM   21  C   UNL     1      -9.545  10.447  69.339  1.00  0.00    -0.192 C  
HETATM   22  O   UNL     1      -8.616   9.647  69.280  1.00  0.00    -0.132 OA 
BRANCH  21  23
HETATM   23  C   UNL     1     -10.756  10.176  70.162  1.00  0.00    -0.355 A  
HETATM   24  C   UNL     1     -11.703  11.195  70.328  1.00  0.00    -0.431 A  
HETATM   25  C   UNL     1     -12.823  10.986  71.138  1.00  0.00    -0.491 A  
HETATM   26  C   UNL     1     -12.997   9.767  71.792  1.00  0.00    -0.536 A  
HETATM   27  C   UNL     1     -12.060   8.750  71.629  1.00  0.00    -0.401 A  
HETATM   28  C   UNL     1     -10.942   8.951  70.820  1.00  0.00    -0.305 A  
ENDBRANCH  21  23
ENDBRANCH  20  21
ENDBRANCH  19  20
ENDBRANCH  16  19
ENDBRANCH  14  15
ENDBRANCH  12  14
ENDBRANCH   9  10
ENDBRANCH   6   9
ENDBRANCH   3   5
TORSDOF 9
ENDMDL
MODEL       78
REMARK 921   NORMALIZED FREE ENERGY PREDICTED BY IDOCK:   -5.77 KCAL/MOL
REMARK 922        TOTAL FREE ENERGY PREDICTED BY IDOCK:   -9.64 KCAL/MOL
REMARK 923 INTER-LIGAND FREE ENERGY PREDICTED BY IDOCK:   -8.54 KCAL/MOL
REMARK 924 INTRA-LIGAND FREE ENERGY PREDICTED BY IDOCK:   -1.10 KCAL/MOL
REMARK 927      BINDING AFFINITY PREDICTED BY RF-SCORE:    0.00 PKD
ROOT
HETATM    1  O   UNL     1      -9.432   6.684  71.076  1.00  0.00    -0.164 OA 
HETATM    2  C   UNL     1     -10.714   6.276  70.918  1.00  0.00    -0.259 C  
HETATM    3  C   UNL     1     -11.271   6.491  69.515  1.00  0.00    -0.372 C  
HETATM    4  O   UNL     1     -11.367   5.805  71.835  1.00  0.00    -0.266 OA 
ENDROOT
BRANCH   3   5
HETATM    5  N   UNL     1     -10.301   7.100  68.610  1.00  0.00    -0.183 N  
HETATM    6  C   UNL     1     -10.343   6.892  67.248  1.00  0.00    -0.251 C  
HETATM    7  H   UNL     1      -9.570   7.697  68.998  1.00  0.00     0.000 HD 
HETATM    8  O   UNL     1     -11.167   6.154  66.717  1.00  0.00    -0.279 OA 
BRANCH   6   9
HETATM    9  C   UNL     1      -9.259   7.613  66.436  1.00  0.00    -0.175 C  
BRANCH   9  10
HETATM   10  N   UNL     1      -9.758   8.745  65.676  1.00  0.00    -0.455 N  
HETATM   11  H   UNL     1      -9.875   8.647  64.667  1.00  0.00     0.000 HD 
HETATM   12  C   UNL     1     -10.081   9.946  66.266  1.00  0.00    -0.241 C  
HETATM   13  O   UNL     1      -9.995  10.125  67.478  1.00  0.00    -0.177 OA 
BRANCH  12  14
HETATM   14  C   UNL     1     -10.550  11.040  65.296  1.00  0.00    -0.214 C  
BRANCH  14  15
HETATM   15  N   UNL     1     -10.798  12.319  65.954  1.00  0.00    -0.262 N  
HETATM   16  C   UNL     1     -12.018  12.955  65.833  1.00  0.00    -0.448 C  
HETATM   17  H   UNL     1     -10.059  12.751  66.510  1.00  0.00     0.000 HD 
HETATM   18  O   UNL     1     -12.890  12.556  65.066  1.00  0.00    -0.742 OA 
BRANCH  16  19
HETATM   19  C   UNL     1     -12.159  14.224  66.657  1.00  0.00    -0.420 C  
BRANCH  19  20
HETATM   20  S   UNL     1     -10.881  14.354  67.925  1.00  0.00    -0.256 SA 
BRANCH  20  21
HETATM   21  C   UNL     1     -11.882  14.567  69.354  1.00  0.00    -0.325 C  
HETATM   22  O   UNL     1     -12.276  15.680  69.693  1.00  0.00    -0.352 OA 
BRANCH  21  23
HETATM   23  C   UNL     1     -12.216  13.348  70.143  1.00  0.00    -0.385 A  
HETATM   24  C   UNL     1     -11.846  12.095  69.639  1.00  0.00    -0.391 A  
HETATM   25  C   UNL     1     -12.193  10.931  70.332  1.00  0.00    -0.453 A  
HETATM   26  C   UNL     1     -12.916  11.013  71.521  1.00  0.00    -0.553 A  
HETATM   27  C   UNL     1     -13.283  12.257  72.028  1.00  0.00    -0.508 A  
HETATM   28  C   UNL     1     -12.938  13.422  71.343  1.00  0.00    -0.412 A  
ENDBRANCH  21  23
ENDBRANCH  20  21
ENDBRANCH  19  20
ENDBRANCH  16  19
ENDBRANCH  14  15
ENDBRANCH  12  14
ENDBRANCH   9  10
ENDBRANCH   6   9
ENDBRANCH   3   5
TORSDOF 9
ENDMDL
MODEL       79
REMARK 921   NORMALIZED FREE ENERGY PREDICTED BY IDOCK:   -5.76 KCAL/MOL
REMARK 922        TOTAL FREE ENERGY PREDICTED BY IDOCK:   -9.62 KCAL/MOL
REMARK 923 INTER-LIGAND FREE ENERGY PREDICTED BY IDOCK:   -8.27 KCAL/MOL
REMARK 924 INTRA-LIGAND FREE ENERGY PREDICTED BY IDOCK:   -1.35 KCAL/MOL
REMARK 927      BINDING AFFINITY PREDICTED BY RF-SCORE:    0.00 PKD
ROOT
HETATM    1  O   UNL     1     -12.486  12.358  65.765  1.00  0.00    -0.615 OA 
HETATM    2  C   UNL     1     -12.137  12.523  64.467  1.00  0.00    -0.425 C  
HETATM    3  C   UNL     1     -10.660  12.834  64.251  1.00  0.00    -0.400 C  
HETATM    4  O   UNL     1     -12.950  12.455  63.559  1.00  0.00    -0.750 OA 
ENDROOT
BRANCH   3   5
HETATM    5  N   UNL     1      -9.907  12.893  65.499  1.00  0.00    -0.437 N  
HETATM    6  C   UNL     1      -9.211  11.806  65.984  1.00  0.00    -0.194 C  
HETATM    7  H   UNL     1      -9.896  13.764  66.030  1.00  0.00     0.000 HD 
HETATM    8  O   UNL     1      -9.214  10.715  65.422  1.00  0.00    -0.175 OA 
BRANCH   6   9
HETATM    9  C   UNL     1      -8.462  12.037  67.303  1.00  0.00    -0.175 C  
BRANCH   9  10
HETATM   10  N   UNL     1      -8.345  13.438  67.668  1.00  0.00    -0.165 N  
HETATM   11  H   UNL     1      -9.131  14.061  67.485  1.00  0.00     0.000 HD 
HETATM   12  C   UNL     1      -7.210  13.956  68.251  1.00  0.00    -0.112 C  
HETATM   13  O   UNL     1      -6.238  13.259  68.528  1.00  0.00    -0.070 OA 
BRANCH  12  14
HETATM   14  C   UNL     1      -7.255  15.466  68.524  1.00  0.00    -0.114 C  
BRANCH  14  15
HETATM   15  N   UNL     1      -8.573  15.933  68.943  1.00  0.00    -0.206 N  
HETATM   16  C   UNL     1      -9.371  16.665  68.087  1.00  0.00    -0.224 C  
HETATM   17  H   UNL     1      -8.909  15.716  69.881  1.00  0.00     0.000 HD 
HETATM   18  O   UNL     1      -8.963  17.076  67.003  1.00  0.00    -0.210 OA 
BRANCH  16  19
HETATM   19  C   UNL     1     -10.754  16.990  68.627  1.00  0.00    -0.333 C  
BRANCH  19  20
HETATM   20  S   UNL     1     -11.187  15.959  70.044  1.00  0.00    -0.378 SA 
BRANCH  20  21
HETATM   21  C   UNL     1     -11.536  14.441  69.229  1.00  0.00    -0.304 C  
HETATM   22  O   UNL     1     -11.326  14.304  68.027  1.00  0.00    -0.268 OA 
BRANCH  21  23
HETATM   23  C   UNL     1     -12.111  13.341  70.051  1.00  0.00    -0.385 A  
HETATM   24  C   UNL     1     -12.847  13.667  71.197  1.00  0.00    -0.399 A  
HETATM   25  C   UNL     1     -13.353  12.653  72.017  1.00  0.00    -0.555 A  
HETATM   26  C   UNL     1     -13.119  11.315  71.702  1.00  0.00    -0.513 A  
HETATM   27  C   UNL     1     -12.390  10.986  70.562  1.00  0.00    -0.462 A  
HETATM   28  C   UNL     1     -11.885  11.992  69.739  1.00  0.00    -0.401 A  
ENDBRANCH  21  23
ENDBRANCH  20  21
ENDBRANCH  19  20
ENDBRANCH  16  19
ENDBRANCH  14  15
ENDBRANCH  12  14
ENDBRANCH   9  10
ENDBRANCH   6   9
ENDBRANCH   3   5
TORSDOF 9
ENDMDL
MODEL       80
REMARK 921   NORMALIZED FREE ENERGY PREDICTED BY IDOCK:   -5.75 KCAL/MOL
REMARK 922        TOTAL FREE ENERGY PREDICTED BY IDOCK:   -9.62 KCAL/MOL
REMARK 923 INTER-LIGAND FREE ENERGY PREDICTED BY IDOCK:   -7.68 KCAL/MOL
REMARK 924 INTRA-LIGAND FREE ENERGY PREDICTED BY IDOCK:   -1.94 KCAL/MOL
REMARK 927      BINDING AFFINITY PREDICTED BY RF-SCORE:    0.00 PKD
ROOT
HETATM    1  O   UNL     1      -8.561  14.743  68.954  1.00  0.00    -0.170 OA 
HETATM    2  C   UNL     1      -7.280  15.079  68.671  1.00  0.00    -0.115 C  
HETATM    3  C   UNL     1      -6.597  14.151  67.671  1.00  0.00    -0.155 C  
HETATM    4  O   UNL     1      -6.721  16.026  69.198  1.00  0.00    -0.150 OA 
ENDROOT
BRANCH   3   5
HETATM    5  N   UNL     1      -7.469  13.075  67.213  1.00  0.00    -0.326 N  
HETATM    6  C   UNL     1      -6.993  11.805  66.962  1.00  0.00    -0.135 C  
HETATM    7  H   UNL     1      -8.461  13.268  67.072  1.00  0.00     0.000 HD 
HETATM    8  O   UNL     1      -5.806  11.512  67.069  1.00  0.00    -0.089 OA 
BRANCH   6   9
HETATM    9  C   UNL     1      -8.041  10.786  66.497  1.00  0.00    -0.146 C  
BRANCH   9  10
HETATM   10  N   UNL     1      -8.782  11.210  65.322  1.00  0.00    -0.370 N  
HETATM   11  H   UNL     1      -9.102  12.177  65.265  1.00  0.00     0.000 HD 
HETATM   12  C   UNL     1      -9.070  10.355  64.283  1.00  0.00    -0.238 C  
HETATM   13  O   UNL     1      -8.690   9.187  64.271  1.00  0.00    -0.199 OA 
BRANCH  12  14
HETATM   14  C   UNL     1      -9.900  10.970  63.148  1.00  0.00    -0.363 C  
BRANCH  14  15
HETATM   15  N   UNL     1     -10.381  12.314  63.454  1.00  0.00    -0.438 N  
HETATM   16  C   UNL     1     -11.732  12.575  63.568  1.00  0.00    -0.518 C  
HETATM   17  H   UNL     1      -9.709  13.070  63.587  1.00  0.00     0.000 HD 
HETATM   18  O   UNL     1     -12.586  11.740  63.281  1.00  0.00    -0.561 OA 
BRANCH  16  19
HETATM   19  C   UNL     1     -12.073  13.994  63.992  1.00  0.00    -0.376 C  
BRANCH  19  20
HETATM   20  S   UNL     1     -12.766  14.054  65.659  1.00  0.00    -0.375 SA 
BRANCH  20  21
HETATM   21  C   UNL     1     -11.364  13.556  66.596  1.00  0.00    -0.322 C  
HETATM   22  O   UNL     1     -10.224  13.812  66.216  1.00  0.00    -0.282 OA 
BRANCH  21  23
HETATM   23  C   UNL     1     -11.616  12.800  67.854  1.00  0.00    -0.400 A  
HETATM   24  C   UNL     1     -11.959  13.510  69.012  1.00  0.00    -0.376 A  
HETATM   25  C   UNL     1     -12.150  12.831  70.219  1.00  0.00    -0.373 A  
HETATM   26  C   UNL     1     -11.990  11.447  70.278  1.00  0.00    -0.460 A  
HETATM   27  C   UNL     1     -11.651  10.737  69.129  1.00  0.00    -0.376 A  
HETATM   28  C   UNL     1     -11.463  11.408  67.921  1.00  0.00    -0.361 A  
ENDBRANCH  21  23
ENDBRANCH  20  21
ENDBRANCH  19  20
ENDBRANCH  16  19
ENDBRANCH  14  15
ENDBRANCH  12  14
ENDBRANCH   9  10
ENDBRANCH   6   9
ENDBRANCH   3   5
TORSDOF 9
ENDMDL
MODEL       81
REMARK 921   NORMALIZED FREE ENERGY PREDICTED BY IDOCK:   -5.74 KCAL/MOL
REMARK 922        TOTAL FREE ENERGY PREDICTED BY IDOCK:   -9.60 KCAL/MOL
REMARK 923 INTER-LIGAND FREE ENERGY PREDICTED BY IDOCK:   -8.01 KCAL/MOL
REMARK 924 INTRA-LIGAND FREE ENERGY PREDICTED BY IDOCK:   -1.59 KCAL/MOL
REMARK 927      BINDING AFFINITY PREDICTED BY RF-SCORE:    0.00 PKD
ROOT
HETATM    1  O   UNL     1     -12.964  12.311  64.513  1.00  0.00    -0.738 OA 
HETATM    2  C   UNL     1     -12.341  13.423  64.054  1.00  0.00    -0.337 C  
HETATM    3  C   UNL     1     -11.274  13.974  64.993  1.00  0.00    -0.352 C  
HETATM    4  O   UNL     1     -12.638  13.946  62.993  1.00  0.00    -0.694 OA 
ENDROOT
BRANCH   3   5
HETATM    5  N   UNL     1     -11.132  13.186  66.212  1.00  0.00    -0.284 N  
HETATM    6  C   UNL     1     -11.466  13.691  67.452  1.00  0.00    -0.336 C  
HETATM    7  H   UNL     1     -10.776  12.232  66.147  1.00  0.00     0.000 HD 
HETATM    8  O   UNL     1     -11.861  14.841  67.611  1.00  0.00    -0.358 OA 
BRANCH   6   9
HETATM    9  C   UNL     1     -11.269  12.729  68.631  1.00  0.00    -0.282 C  
BRANCH   9  10
HETATM   10  N   UNL     1      -9.881  12.578  69.032  1.00  0.00    -0.396 N  
HETATM   11  H   UNL     1      -9.484  13.248  69.690  1.00  0.00     0.000 HD 
HETATM   12  C   UNL     1      -9.082  11.563  68.557  1.00  0.00    -0.157 C  
HETATM   13  O   UNL     1      -9.503  10.703  67.787  1.00  0.00    -0.151 OA 
BRANCH  12  14
HETATM   14  C   UNL     1      -7.632  11.591  69.059  1.00  0.00    -0.058 C  
BRANCH  14  15
HETATM   15  N   UNL     1      -7.158  12.937  69.365  1.00  0.00    -0.319 N  
HETATM   16  C   UNL     1      -6.513  13.697  68.410  1.00  0.00    -0.095 C  
HETATM   17  H   UNL     1      -7.306  13.323  70.298  1.00  0.00     0.000 HD 
HETATM   18  O   UNL     1      -6.183  13.235  67.321  1.00  0.00    -0.309 OA 
BRANCH  16  19
HETATM   19  C   UNL     1      -6.172  15.112  68.844  1.00  0.00    -0.093 C  
BRANCH  19  20
HETATM   20  S   UNL     1      -6.838  16.348  67.709  1.00  0.00    -0.145 SA 
BRANCH  20  21
HETATM   21  C   UNL     1      -8.495  16.443  68.289  1.00  0.00    -0.195 C  
HETATM   22  O   UNL     1      -8.955  15.583  69.035  1.00  0.00    -0.201 OA 
BRANCH  21  23
HETATM   23  C   UNL     1      -9.316  17.594  67.824  1.00  0.00    -0.255 A  
HETATM   24  C   UNL     1      -9.900  17.539  66.552  1.00  0.00    -0.315 A  
HETATM   25  C   UNL     1     -10.632  18.627  66.069  1.00  0.00    -0.410 A  
HETATM   26  C   UNL     1     -10.777  19.776  66.847  1.00  0.00    -0.541 A  
HETATM   27  C   UNL     1     -10.200  19.835  68.114  1.00  0.00    -0.577 A  
HETATM   28  C   UNL     1      -9.471  18.751  68.602  1.00  0.00    -0.412 A  
ENDBRANCH  21  23
ENDBRANCH  20  21
ENDBRANCH  19  20
ENDBRANCH  16  19
ENDBRANCH  14  15
ENDBRANCH  12  14
ENDBRANCH   9  10
ENDBRANCH   6   9
ENDBRANCH   3   5
TORSDOF 9
ENDMDL
MODEL       82
REMARK 921   NORMALIZED FREE ENERGY PREDICTED BY IDOCK:   -5.71 KCAL/MOL
REMARK 922        TOTAL FREE ENERGY PREDICTED BY IDOCK:   -9.55 KCAL/MOL
REMARK 923 INTER-LIGAND FREE ENERGY PREDICTED BY IDOCK:   -8.27 KCAL/MOL
REMARK 924 INTRA-LIGAND FREE ENERGY PREDICTED BY IDOCK:   -1.29 KCAL/MOL
REMARK 927      BINDING AFFINITY PREDICTED BY RF-SCORE:    0.00 PKD
ROOT
HETATM    1  O   UNL     1     -12.179  11.420  68.337  1.00  0.00    -0.571 OA 
HETATM    2  C   UNL     1     -11.826  10.943  69.555  1.00  0.00    -0.332 C  
HETATM    3  C   UNL     1     -10.996   9.665  69.508  1.00  0.00    -0.208 C  
HETATM    4  O   UNL     1     -12.173  11.482  70.593  1.00  0.00    -0.364 OA 
ENDROOT
BRANCH   3   5
HETATM    5  N   UNL     1     -10.742   9.205  68.147  1.00  0.00    -0.415 N  
HETATM    6  C   UNL     1      -9.558   9.473  67.494  1.00  0.00    -0.144 C  
HETATM    7  H   UNL     1     -11.463   8.669  67.664  1.00  0.00     0.000 HD 
HETATM    8  O   UNL     1      -8.664  10.146  67.997  1.00  0.00    -0.121 OA 
BRANCH   6   9
HETATM    9  C   UNL     1      -9.446   8.908  66.072  1.00  0.00    -0.252 C  
BRANCH   9  10
HETATM   10  N   UNL     1     -10.062   9.751  65.062  1.00  0.00    -0.334 N  
HETATM   11  H   UNL     1     -11.064   9.929  65.114  1.00  0.00     0.000 HD 
HETATM   12  C   UNL     1      -9.341  10.319  64.035  1.00  0.00    -0.289 C  
HETATM   13  O   UNL     1      -8.127  10.173  63.927  1.00  0.00    -0.152 OA 
BRANCH  12  14
HETATM   14  C   UNL     1     -10.170  11.141  63.039  1.00  0.00    -0.214 C  
BRANCH  14  15
HETATM   15  N   UNL     1     -10.563  12.447  63.562  1.00  0.00    -0.440 N  
HETATM   16  C   UNL     1     -11.894  12.783  63.705  1.00  0.00    -0.532 C  
HETATM   17  H   UNL     1      -9.843  13.120  63.827  1.00  0.00     0.000 HD 
HETATM   18  O   UNL     1     -12.798  12.072  63.272  1.00  0.00    -0.732 OA 
BRANCH  16  19
HETATM   19  C   UNL     1     -12.145  14.132  64.358  1.00  0.00    -0.463 C  
BRANCH  19  20
HETATM   20  S   UNL     1     -12.285  13.999  66.153  1.00  0.00    -0.450 SA 
BRANCH  20  21
HETATM   21  C   UNL     1     -10.586  14.043  66.602  1.00  0.00    -0.274 C  
HETATM   22  O   UNL     1      -9.871  13.053  66.473  1.00  0.00    -0.251 OA 
BRANCH  21  23
HETATM   23  C   UNL     1     -10.059  15.319  67.159  1.00  0.00    -0.240 A  
HETATM   24  C   UNL     1     -10.882  16.081  67.999  1.00  0.00    -0.335 A  
HETATM   25  C   UNL     1     -10.434  17.309  68.493  1.00  0.00    -0.375 A  
HETATM   26  C   UNL     1      -9.170  17.785  68.146  1.00  0.00    -0.277 A  
HETATM   27  C   UNL     1      -8.346  17.030  67.314  1.00  0.00    -0.204 A  
HETATM   28  C   UNL     1      -8.787  15.802  66.820  1.00  0.00    -0.299 A  
ENDBRANCH  21  23
ENDBRANCH  20  21
ENDBRANCH  19  20
ENDBRANCH  16  19
ENDBRANCH  14  15
ENDBRANCH  12  14
ENDBRANCH   9  10
ENDBRANCH   6   9
ENDBRANCH   3   5
TORSDOF 9
ENDMDL
MODEL       83
REMARK 921   NORMALIZED FREE ENERGY PREDICTED BY IDOCK:   -5.68 KCAL/MOL
REMARK 922        TOTAL FREE ENERGY PREDICTED BY IDOCK:   -9.51 KCAL/MOL
REMARK 923 INTER-LIGAND FREE ENERGY PREDICTED BY IDOCK:   -8.22 KCAL/MOL
REMARK 924 INTRA-LIGAND FREE ENERGY PREDICTED BY IDOCK:   -1.29 KCAL/MOL
REMARK 927      BINDING AFFINITY PREDICTED BY RF-SCORE:    0.00 PKD
ROOT
HETATM    1  O   UNL     1     -11.843   8.863  72.398  1.00  0.00    -0.334 OA 
HETATM    2  C   UNL     1     -13.065   9.220  71.938  1.00  0.00    -0.415 C  
HETATM    3  C   UNL     1     -13.033  10.264  70.826  1.00  0.00    -0.330 C  
HETATM    4  O   UNL     1     -14.097   8.762  72.400  1.00  0.00    -0.447 OA 
ENDROOT
BRANCH   3   5
HETATM    5  N   UNL     1     -11.678  10.674  70.475  1.00  0.00    -0.333 N  
HETATM    6  C   UNL     1     -11.339  11.055  69.194  1.00  0.00    -0.280 C  
HETATM    7  H   UNL     1     -10.959  10.679  71.199  1.00  0.00     0.000 HD 
HETATM    8  O   UNL     1     -12.140  11.034  68.265  1.00  0.00    -0.604 OA 
BRANCH   6   9
HETATM    9  C   UNL     1      -9.875  11.469  68.993  1.00  0.00     0.007 C  
BRANCH   9  10
HETATM   10  N   UNL     1      -9.436  11.400  67.610  1.00  0.00    -0.160 N  
HETATM   11  H   UNL     1      -9.874  12.014  66.924  1.00  0.00     0.000 HD 
HETATM   12  C   UNL     1      -8.450  10.535  67.191  1.00  0.00    -0.127 C  
HETATM   13  O   UNL     1      -7.858   9.790  67.968  1.00  0.00    -0.086 OA 
BRANCH  12  14
HETATM   14  C   UNL     1      -8.151  10.574  65.687  1.00  0.00    -0.161 C  
BRANCH  14  15
HETATM   15  N   UNL     1      -9.012  11.499  64.956  1.00  0.00    -0.406 N  
HETATM   16  C   UNL     1      -9.670  11.101  63.810  1.00  0.00    -0.301 C  
HETATM   17  H   UNL     1      -9.128  12.453  65.297  1.00  0.00     0.000 HD 
HETATM   18  O   UNL     1      -9.457  10.015  63.277  1.00  0.00    -0.295 OA 
BRANCH  16  19
HETATM   19  C   UNL     1     -10.609  12.140  63.220  1.00  0.00    -0.319 C  
BRANCH  19  20
HETATM   20  S   UNL     1     -12.133  12.296  64.176  1.00  0.00    -0.442 SA 
BRANCH  20  21
HETATM   21  C   UNL     1     -12.054  13.998  64.610  1.00  0.00    -0.440 C  
HETATM   22  O   UNL     1     -12.564  14.858  63.897  1.00  0.00    -0.831 OA 
BRANCH  21  23
HETATM   23  C   UNL     1     -11.331  14.352  65.862  1.00  0.00    -0.332 A  
HETATM   24  C   UNL     1     -12.014  14.270  67.083  1.00  0.00    -0.449 A  
HETATM   25  C   UNL     1     -11.376  14.646  68.269  1.00  0.00    -0.317 A  
HETATM   26  C   UNL     1     -10.063  15.114  68.241  1.00  0.00    -0.223 A  
HETATM   27  C   UNL     1      -9.379  15.195  67.030  1.00  0.00    -0.244 A  
HETATM   28  C   UNL     1     -10.008  14.817  65.844  1.00  0.00    -0.351 A  
ENDBRANCH  21  23
ENDBRANCH  20  21
ENDBRANCH  19  20
ENDBRANCH  16  19
ENDBRANCH  14  15
ENDBRANCH  12  14
ENDBRANCH   9  10
ENDBRANCH   6   9
ENDBRANCH   3   5
TORSDOF 9
ENDMDL
MODEL       84
REMARK 921   NORMALIZED FREE ENERGY PREDICTED BY IDOCK:   -5.67 KCAL/MOL
REMARK 922        TOTAL FREE ENERGY PREDICTED BY IDOCK:   -9.50 KCAL/MOL
REMARK 923 INTER-LIGAND FREE ENERGY PREDICTED BY IDOCK:   -8.66 KCAL/MOL
REMARK 924 INTRA-LIGAND FREE ENERGY PREDICTED BY IDOCK:   -0.84 KCAL/MOL
REMARK 927      BINDING AFFINITY PREDICTED BY RF-SCORE:    0.00 PKD
ROOT
HETATM    1  O   UNL     1     -13.088  13.397  65.159  1.00  0.00    -0.724 OA 
HETATM    2  C   UNL     1     -12.270  14.312  64.586  1.00  0.00    -0.454 C  
HETATM    3  C   UNL     1     -10.807  14.187  64.997  1.00  0.00    -0.398 C  
HETATM    4  O   UNL     1     -12.685  15.176  63.831  1.00  0.00    -0.759 OA 
ENDROOT
BRANCH   3   5
HETATM    5  N   UNL     1     -10.575  13.094  65.935  1.00  0.00    -0.276 N  
HETATM    6  C   UNL     1      -9.546  13.125  66.853  1.00  0.00    -0.248 C  
HETATM    7  H   UNL     1     -11.192  12.282  65.910  1.00  0.00     0.000 HD 
HETATM    8  O   UNL     1      -8.741  14.049  66.912  1.00  0.00    -0.220 OA 
BRANCH   6   9
HETATM    9  C   UNL     1      -9.446  11.903  67.774  1.00  0.00    -0.184 C  
BRANCH   9  10
HETATM   10  N   UNL     1     -10.214  12.035  69.001  1.00  0.00    -0.420 N  
HETATM   11  H   UNL     1      -9.736  12.335  69.850  1.00  0.00     0.000 HD 
HETATM   12  C   UNL     1     -11.564  11.769  69.059  1.00  0.00    -0.311 C  
HETATM   13  O   UNL     1     -12.209  11.434  68.069  1.00  0.00    -0.607 OA 
BRANCH  12  14
HETATM   14  C   UNL     1     -12.195  11.921  70.450  1.00  0.00    -0.314 C  
BRANCH  14  15
HETATM   15  N   UNL     1     -12.662  10.656  71.007  1.00  0.00    -0.384 N  
HETATM   16  C   UNL     1     -11.770   9.666  71.367  1.00  0.00    -0.404 C  
HETATM   17  H   UNL     1     -13.663  10.501  71.133  1.00  0.00     0.000 HD 
HETATM   18  O   UNL     1     -10.571   9.741  71.108  1.00  0.00    -0.297 OA 
BRANCH  16  19
HETATM   19  C   UNL     1     -12.398   8.450  72.028  1.00  0.00    -0.361 C  
BRANCH  19  20
HETATM   20  S   UNL     1     -11.162   7.221  72.499  1.00  0.00    -0.307 SA 
BRANCH  20  21
HETATM   21  C   UNL     1     -11.162   6.213  71.059  1.00  0.00    -0.296 C  
HETATM   22  O   UNL     1     -11.796   6.536  70.059  1.00  0.00    -0.404 OA 
BRANCH  21  23
HETATM   23  C   UNL     1     -10.379   4.947  71.112  1.00  0.00    -0.222 A  
HETATM   24  C   UNL     1      -9.778   4.475  69.937  1.00  0.00    -0.288 A  
HETATM   25  C   UNL     1      -9.082   3.262  69.945  1.00  0.00    -0.199 A  
HETATM   26  C   UNL     1      -8.990   2.515  71.118  1.00  0.00    -0.149 A  
HETATM   27  C   UNL     1      -9.583   2.981  72.289  1.00  0.00    -0.204 A  
HETATM   28  C   UNL     1     -10.277   4.191  72.289  1.00  0.00    -0.234 A  
ENDBRANCH  21  23
ENDBRANCH  20  21
ENDBRANCH  19  20
ENDBRANCH  16  19
ENDBRANCH  14  15
ENDBRANCH  12  14
ENDBRANCH   9  10
ENDBRANCH   6   9
ENDBRANCH   3   5
TORSDOF 9
ENDMDL
MODEL       85
REMARK 921   NORMALIZED FREE ENERGY PREDICTED BY IDOCK:   -5.67 KCAL/MOL
REMARK 922        TOTAL FREE ENERGY PREDICTED BY IDOCK:   -9.50 KCAL/MOL
REMARK 923 INTER-LIGAND FREE ENERGY PREDICTED BY IDOCK:   -8.51 KCAL/MOL
REMARK 924 INTRA-LIGAND FREE ENERGY PREDICTED BY IDOCK:   -0.99 KCAL/MOL
REMARK 927      BINDING AFFINITY PREDICTED BY RF-SCORE:    0.00 PKD
ROOT
HETATM    1  O   UNL     1     -10.098   6.456  72.976  1.00  0.00    -0.176 OA 
HETATM    2  C   UNL     1     -11.298   5.900  72.683  1.00  0.00    -0.292 C  
HETATM    3  C   UNL     1     -12.104   6.668  71.641  1.00  0.00    -0.355 C  
HETATM    4  O   UNL     1     -11.702   4.889  73.234  1.00  0.00    -0.312 OA 
ENDROOT
BRANCH   3   5
HETATM    5  N   UNL     1     -11.415   7.860  71.160  1.00  0.00    -0.270 N  
HETATM    6  C   UNL     1     -10.833   7.914  69.911  1.00  0.00    -0.221 C  
HETATM    7  H   UNL     1     -11.362   8.680  71.766  1.00  0.00     0.000 HD 
HETATM    8  O   UNL     1     -10.821   6.955  69.146  1.00  0.00    -0.233 OA 
BRANCH   6   9
HETATM    9  C   UNL     1     -10.158   9.245  69.553  1.00  0.00    -0.198 C  
BRANCH   9  10
HETATM   10  N   UNL     1     -10.747  10.393  70.222  1.00  0.00    -0.436 N  
HETATM   11  H   UNL     1     -10.380  10.673  71.131  1.00  0.00     0.000 HD 
HETATM   12  C   UNL     1     -11.781  11.117  69.672  1.00  0.00    -0.339 C  
HETATM   13  O   UNL     1     -12.250  10.855  68.568  1.00  0.00    -0.535 OA 
BRANCH  12  14
HETATM   14  C   UNL     1     -12.301  12.268  70.544  1.00  0.00    -0.264 C  
BRANCH  14  15
HETATM   15  N   UNL     1     -11.491  13.478  70.437  1.00  0.00    -0.502 N  
HETATM   16  C   UNL     1     -12.048  14.725  70.637  1.00  0.00    -0.310 C  
HETATM   17  H   UNL     1     -10.499  13.400  70.211  1.00  0.00     0.000 HD 
HETATM   18  O   UNL     1     -13.259  14.886  70.770  1.00  0.00    -0.371 OA 
BRANCH  16  19
HETATM   19  C   UNL     1     -11.060  15.878  70.594  1.00  0.00    -0.346 C  
BRANCH  19  20
HETATM   20  S   UNL     1      -9.738  15.593  69.398  1.00  0.00    -0.299 SA 
BRANCH  20  21
HETATM   21  C   UNL     1     -10.520  16.160  67.929  1.00  0.00    -0.290 C  
HETATM   22  O   UNL     1     -10.819  17.343  67.786  1.00  0.00    -0.361 OA 
BRANCH  21  23
HETATM   23  C   UNL     1     -10.819  15.147  66.879  1.00  0.00    -0.317 A  
HETATM   24  C   UNL     1     -10.001  15.089  65.743  1.00  0.00    -0.376 A  
HETATM   25  C   UNL     1     -10.290  14.185  64.717  1.00  0.00    -0.387 A  
HETATM   26  C   UNL     1     -11.397  13.344  64.816  1.00  0.00    -0.356 A  
HETATM   27  C   UNL     1     -12.212  13.395  65.944  1.00  0.00    -0.502 A  
HETATM   28  C   UNL     1     -11.928  14.294  66.972  1.00  0.00    -0.463 A  
ENDBRANCH  21  23
ENDBRANCH  20  21
ENDBRANCH  19  20
ENDBRANCH  16  19
ENDBRANCH  14  15
ENDBRANCH  12  14
ENDBRANCH   9  10
ENDBRANCH   6   9
ENDBRANCH   3   5
TORSDOF 9
ENDMDL
MODEL       86
REMARK 921   NORMALIZED FREE ENERGY PREDICTED BY IDOCK:   -5.67 KCAL/MOL
REMARK 922        TOTAL FREE ENERGY PREDICTED BY IDOCK:   -9.49 KCAL/MOL
REMARK 923 INTER-LIGAND FREE ENERGY PREDICTED BY IDOCK:   -8.27 KCAL/MOL
REMARK 924 INTRA-LIGAND FREE ENERGY PREDICTED BY IDOCK:   -1.22 KCAL/MOL
REMARK 927      BINDING AFFINITY PREDICTED BY RF-SCORE:    0.00 PKD
ROOT
HETATM    1  O   UNL     1     -11.127  12.133  64.423  1.00  0.00    -0.301 OA 
HETATM    2  C   UNL     1     -12.378  12.634  64.283  1.00  0.00    -0.435 C  
HETATM    3  C   UNL     1     -12.636  13.903  65.090  1.00  0.00    -0.434 C  
HETATM    4  O   UNL     1     -13.225  12.093  63.593  1.00  0.00    -0.770 OA 
ENDROOT
BRANCH   3   5
HETATM    5  N   UNL     1     -11.473  14.330  65.859  1.00  0.00    -0.329 N  
HETATM    6  C   UNL     1     -10.735  15.442  65.511  1.00  0.00    -0.384 C  
HETATM    7  H   UNL     1     -11.196  13.790  66.679  1.00  0.00     0.000 HD 
HETATM    8  O   UNL     1     -10.983  16.113  64.515  1.00  0.00    -0.645 OA 
BRANCH   6   9
HETATM    9  C   UNL     1      -9.549  15.761  66.430  1.00  0.00    -0.285 C  
BRANCH   9  10
HETATM   10  N   UNL     1      -8.541  14.716  66.463  1.00  0.00    -0.443 N  
HETATM   11  H   UNL     1      -7.783  14.742  65.781  1.00  0.00     0.000 HD 
HETATM   12  C   UNL     1      -8.570  13.691  67.382  1.00  0.00    -0.209 C  
HETATM   13  O   UNL     1      -9.435  13.614  68.251  1.00  0.00    -0.208 OA 
BRANCH  12  14
HETATM   14  C   UNL     1      -7.447  12.656  67.235  1.00  0.00    -0.109 C  
BRANCH  14  15
HETATM   15  N   UNL     1      -7.803  11.345  67.768  1.00  0.00    -0.112 N  
HETATM   16  C   UNL     1      -8.257  10.340  66.938  1.00  0.00    -0.123 C  
HETATM   17  H   UNL     1      -7.715  11.169  68.769  1.00  0.00     0.000 HD 
HETATM   18  O   UNL     1      -8.516  10.538  65.753  1.00  0.00    -0.162 OA 
BRANCH  16  19
HETATM   19  C   UNL     1      -8.488   9.003  67.622  1.00  0.00    -0.117 C  
BRANCH  19  20
HETATM   20  S   UNL     1     -10.205   8.797  68.142  1.00  0.00    -0.208 SA 
BRANCH  20  21
HETATM   21  C   UNL     1     -10.104   9.393  69.793  1.00  0.00    -0.211 C  
HETATM   22  O   UNL     1      -9.051   9.838  70.242  1.00  0.00    -0.237 OA 
BRANCH  21  23
HETATM   23  C   UNL     1     -11.337   9.318  70.623  1.00  0.00    -0.330 A  
HETATM   24  C   UNL     1     -11.972  10.509  71.000  1.00  0.00    -0.466 A  
HETATM   25  C   UNL     1     -13.101  10.472  71.824  1.00  0.00    -0.570 A  
HETATM   26  C   UNL     1     -13.594   9.250  72.281  1.00  0.00    -0.544 A  
HETATM   27  C   UNL     1     -12.969   8.063  71.907  1.00  0.00    -0.335 A  
HETATM   28  C   UNL     1     -11.844   8.094  71.083  1.00  0.00    -0.303 A  
ENDBRANCH  21  23
ENDBRANCH  20  21
ENDBRANCH  19  20
ENDBRANCH  16  19
ENDBRANCH  14  15
ENDBRANCH  12  14
ENDBRANCH   9  10
ENDBRANCH   6   9
ENDBRANCH   3   5
TORSDOF 9
ENDMDL
MODEL       87
REMARK 921   NORMALIZED FREE ENERGY PREDICTED BY IDOCK:   -5.66 KCAL/MOL
REMARK 922        TOTAL FREE ENERGY PREDICTED BY IDOCK:   -9.48 KCAL/MOL
REMARK 923 INTER-LIGAND FREE ENERGY PREDICTED BY IDOCK:   -8.49 KCAL/MOL
REMARK 924 INTRA-LIGAND FREE ENERGY PREDICTED BY IDOCK:   -0.99 KCAL/MOL
REMARK 927      BINDING AFFINITY PREDICTED BY RF-SCORE:    0.00 PKD
ROOT
HETATM    1  O   UNL     1      -9.272   9.677  62.911  1.00  0.00    -0.266 OA 
HETATM    2  C   UNL     1      -9.746  10.703  63.658  1.00  0.00    -0.330 C  
HETATM    3  C   UNL     1     -10.002  10.348  65.118  1.00  0.00    -0.322 C  
HETATM    4  O   UNL     1      -9.973  11.804  63.184  1.00  0.00    -0.409 OA 
ENDROOT
BRANCH   3   5
HETATM    5  N   UNL     1      -9.680   8.958  65.426  1.00  0.00    -0.420 N  
HETATM    6  C   UNL     1      -8.663   8.618  66.292  1.00  0.00    -0.143 C  
HETATM    7  H   UNL     1     -10.225   8.215  64.987  1.00  0.00     0.000 HD 
HETATM    8  O   UNL     1      -7.940   9.455  66.823  1.00  0.00    -0.107 OA 
BRANCH   6   9
HETATM    9  C   UNL     1      -8.462   7.114  66.517  1.00  0.00    -0.125 C  
BRANCH   9  10
HETATM   10  N   UNL     1      -9.090   6.618  67.730  1.00  0.00    -0.115 N  
HETATM   11  H   UNL     1      -8.517   6.492  68.564  1.00  0.00     0.000 HD 
HETATM   12  C   UNL     1     -10.431   6.313  67.794  1.00  0.00    -0.232 C  
HETATM   13  O   UNL     1     -11.186   6.470  66.838  1.00  0.00    -0.387 OA 
BRANCH  12  14
HETATM   14  C   UNL     1     -10.905   5.761  69.146  1.00  0.00    -0.285 C  
BRANCH  14  15
HETATM   15  N   UNL     1     -11.610   6.752  69.953  1.00  0.00    -0.585 N  
HETATM   16  C   UNL     1     -10.918   7.722  70.651  1.00  0.00    -0.249 C  
HETATM   17  H   UNL     1     -12.629   6.729  70.001  1.00  0.00     0.000 HD 
HETATM   18  O   UNL     1      -9.693   7.711  70.743  1.00  0.00    -0.174 OA 
BRANCH  16  19
HETATM   19  C   UNL     1     -11.792   8.743  71.359  1.00  0.00    -0.308 C  
BRANCH  19  20
HETATM   20  S   UNL     1     -11.673  10.378  70.602  1.00  0.00    -0.369 SA 
BRANCH  20  21
HETATM   21  C   UNL     1     -12.856  11.253  71.563  1.00  0.00    -0.414 C  
HETATM   22  O   UNL     1     -13.649  10.658  72.288  1.00  0.00    -0.253 OA 
BRANCH  21  23
HETATM   23  C   UNL     1     -12.868  12.737  71.446  1.00  0.00    -0.371 A  
HETATM   24  C   UNL     1     -13.581  13.484  72.394  1.00  0.00    -0.709 A  
HETATM   25  C   UNL     1     -13.654  14.875  72.278  1.00  0.00    -0.538 A  
HETATM   26  C   UNL     1     -13.026  15.524  71.216  1.00  0.00    -0.565 A  
HETATM   27  C   UNL     1     -12.314  14.787  70.273  1.00  0.00    -0.400 A  
HETATM   28  C   UNL     1     -12.235  13.398  70.384  1.00  0.00    -0.415 A  
ENDBRANCH  21  23
ENDBRANCH  20  21
ENDBRANCH  19  20
ENDBRANCH  16  19
ENDBRANCH  14  15
ENDBRANCH  12  14
ENDBRANCH   9  10
ENDBRANCH   6   9
ENDBRANCH   3   5
TORSDOF 9
ENDMDL
MODEL       88
REMARK 921   NORMALIZED FREE ENERGY PREDICTED BY IDOCK:   -5.66 KCAL/MOL
REMARK 922        TOTAL FREE ENERGY PREDICTED BY IDOCK:   -9.47 KCAL/MOL
REMARK 923 INTER-LIGAND FREE ENERGY PREDICTED BY IDOCK:   -8.63 KCAL/MOL
REMARK 924 INTRA-LIGAND FREE ENERGY PREDICTED BY IDOCK:   -0.85 KCAL/MOL
REMARK 927      BINDING AFFINITY PREDICTED BY RF-SCORE:    0.00 PKD
ROOT
HETATM    1  O   UNL     1     -13.199  14.063  65.435  1.00  0.00    -0.761 OA 
HETATM    2  C   UNL     1     -12.213  14.322  64.543  1.00  0.00    -0.455 C  
HETATM    3  C   UNL     1     -10.883  14.713  65.179  1.00  0.00    -0.401 C  
HETATM    4  O   UNL     1     -12.393  14.274  63.338  1.00  0.00    -0.678 OA 
ENDROOT
BRANCH   3   5
HETATM    5  N   UNL     1     -10.937  14.729  66.637  1.00  0.00    -0.321 N  
HETATM    6  C   UNL     1     -10.683  15.872  67.365  1.00  0.00    -0.313 C  
HETATM    7  H   UNL     1     -11.169  13.867  67.133  1.00  0.00     0.000 HD 
HETATM    8  O   UNL     1     -10.358  16.931  66.839  1.00  0.00    -0.306 OA 
BRANCH   6   9
HETATM    9  C   UNL     1     -10.792  15.722  68.888  1.00  0.00    -0.260 C  
BRANCH   9  10
HETATM   10  N   UNL     1     -11.038  14.358  69.322  1.00  0.00    -0.265 N  
HETATM   11  H   UNL     1     -10.388  13.626  69.036  1.00  0.00     0.000 HD 
HETATM   12  C   UNL     1     -12.117  14.016  70.105  1.00  0.00    -0.351 C  
HETATM   13  O   UNL     1     -12.923  14.849  70.512  1.00  0.00    -0.347 OA 
BRANCH  12  14
HETATM   14  C   UNL     1     -12.236  12.520  70.427  1.00  0.00    -0.286 C  
BRANCH  14  15
HETATM   15  N   UNL     1     -11.179  11.718  69.817  1.00  0.00    -0.477 N  
HETATM   16  C   UNL     1     -11.183  11.450  68.463  1.00  0.00    -0.250 C  
HETATM   17  H   UNL     1     -10.427  11.350  70.401  1.00  0.00     0.000 HD 
HETATM   18  O   UNL     1     -12.132  11.745  67.741  1.00  0.00    -0.595 OA 
BRANCH  16  19
HETATM   19  C   UNL     1      -9.966  10.693  67.960  1.00  0.00    -0.160 C  
BRANCH  19  20
HETATM   20  S   UNL     1      -9.119   9.812  69.290  1.00  0.00    -0.197 SA 
BRANCH  20  21
HETATM   21  C   UNL     1      -9.976   8.278  69.242  1.00  0.00    -0.192 C  
HETATM   22  O   UNL     1     -10.245   7.735  68.174  1.00  0.00    -0.190 OA 
BRANCH  21  23
HETATM   23  C   UNL     1     -10.377   7.679  70.545  1.00  0.00    -0.211 A  
HETATM   24  C   UNL     1     -10.601   6.298  70.613  1.00  0.00    -0.301 A  
HETATM   25  C   UNL     1     -11.029   5.715  71.810  1.00  0.00    -0.290 A  
HETATM   26  C   UNL     1     -11.245   6.507  72.937  1.00  0.00    -0.215 A  
HETATM   27  C   UNL     1     -11.021   7.881  72.875  1.00  0.00    -0.452 A  
HETATM   28  C   UNL     1     -10.591   8.467  71.685  1.00  0.00    -0.353 A  
ENDBRANCH  21  23
ENDBRANCH  20  21
ENDBRANCH  19  20
ENDBRANCH  16  19
ENDBRANCH  14  15
ENDBRANCH  12  14
ENDBRANCH   9  10
ENDBRANCH   6   9
ENDBRANCH   3   5
TORSDOF 9
ENDMDL
MODEL       89
REMARK 921   NORMALIZED FREE ENERGY PREDICTED BY IDOCK:   -5.64 KCAL/MOL
REMARK 922        TOTAL FREE ENERGY PREDICTED BY IDOCK:   -9.44 KCAL/MOL
REMARK 923 INTER-LIGAND FREE ENERGY PREDICTED BY IDOCK:   -8.64 KCAL/MOL
REMARK 924 INTRA-LIGAND FREE ENERGY PREDICTED BY IDOCK:   -0.80 KCAL/MOL
REMARK 927      BINDING AFFINITY PREDICTED BY RF-SCORE:    0.00 PKD
ROOT
HETATM    1  O   UNL     1     -12.129   8.890  70.919  1.00  0.00    -0.270 OA 
HETATM    2  C   UNL     1     -11.727   7.882  71.728  1.00  0.00    -0.287 C  
HETATM    3  C   UNL     1     -11.437   6.574  71.001  1.00  0.00    -0.336 C  
HETATM    4  O   UNL     1     -11.637   8.012  72.938  1.00  0.00    -0.397 OA 
ENDROOT
BRANCH   3   5
HETATM    5  N   UNL     1     -11.651   6.669  69.561  1.00  0.00    -0.640 N  
HETATM    6  C   UNL     1     -10.728   6.197  68.652  1.00  0.00    -0.307 C  
HETATM    7  H   UNL     1     -12.510   7.098  69.215  1.00  0.00     0.000 HD 
HETATM    8  O   UNL     1      -9.656   5.707  68.994  1.00  0.00    -0.125 OA 
BRANCH   6   9
HETATM    9  C   UNL     1     -11.110   6.363  67.175  1.00  0.00    -0.341 C  
BRANCH   9  10
HETATM   10  N   UNL     1     -10.294   7.336  66.470  1.00  0.00    -0.495 N  
HETATM   11  H   UNL     1      -9.742   7.027  65.670  1.00  0.00     0.000 HD 
HETATM   12  C   UNL     1     -10.237   8.660  66.841  1.00  0.00    -0.296 C  
HETATM   13  O   UNL     1     -10.899   9.108  67.774  1.00  0.00    -0.217 OA 
BRANCH  12  14
HETATM   14  C   UNL     1      -9.287   9.528  66.005  1.00  0.00    -0.216 C  
BRANCH  14  15
HETATM   15  N   UNL     1      -9.948  10.682  65.403  1.00  0.00    -0.263 N  
HETATM   16  C   UNL     1     -10.081  10.788  64.033  1.00  0.00    -0.345 C  
HETATM   17  H   UNL     1     -10.316  11.421  66.003  1.00  0.00     0.000 HD 
HETATM   18  O   UNL     1      -9.535  10.005  63.260  1.00  0.00    -0.295 OA 
BRANCH  16  19
HETATM   19  C   UNL     1     -10.880  11.991  63.562  1.00  0.00    -0.444 C  
BRANCH  19  20
HETATM   20  S   UNL     1     -12.070  12.542  64.803  1.00  0.00    -0.432 SA 
BRANCH  20  21
HETATM   21  C   UNL     1     -11.828  14.281  64.716  1.00  0.00    -0.429 C  
HETATM   22  O   UNL     1     -12.438  14.966  63.898  1.00  0.00    -0.806 OA 
BRANCH  21  23
HETATM   23  C   UNL     1     -10.844  14.883  65.658  1.00  0.00    -0.347 A  
HETATM   24  C   UNL     1     -10.650  16.270  65.638  1.00  0.00    -0.360 A  
HETATM   25  C   UNL     1      -9.695  16.856  66.474  1.00  0.00    -0.295 A  
HETATM   26  C   UNL     1      -8.925  16.061  67.323  1.00  0.00    -0.211 A  
HETATM   27  C   UNL     1      -9.115  14.682  67.347  1.00  0.00    -0.203 A  
HETATM   28  C   UNL     1     -10.069  14.092  66.518  1.00  0.00    -0.287 A  
ENDBRANCH  21  23
ENDBRANCH  20  21
ENDBRANCH  19  20
ENDBRANCH  16  19
ENDBRANCH  14  15
ENDBRANCH  12  14
ENDBRANCH   9  10
ENDBRANCH   6   9
ENDBRANCH   3   5
TORSDOF 9
ENDMDL
MODEL       90
REMARK 921   NORMALIZED FREE ENERGY PREDICTED BY IDOCK:   -5.63 KCAL/MOL
REMARK 922        TOTAL FREE ENERGY PREDICTED BY IDOCK:   -9.44 KCAL/MOL
REMARK 923 INTER-LIGAND FREE ENERGY PREDICTED BY IDOCK:   -8.58 KCAL/MOL
REMARK 924 INTRA-LIGAND FREE ENERGY PREDICTED BY IDOCK:   -0.86 KCAL/MOL
REMARK 927      BINDING AFFINITY PREDICTED BY RF-SCORE:    0.00 PKD
ROOT
HETATM    1  O   UNL     1     -13.005  12.526  64.920  1.00  0.00    -0.821 OA 
HETATM    2  C   UNL     1     -12.511  13.634  64.319  1.00  0.00    -0.248 C  
HETATM    3  C   UNL     1     -11.985  14.688  65.287  1.00  0.00    -0.302 C  
HETATM    4  O   UNL     1     -12.518  13.777  63.107  1.00  0.00    -0.786 OA 
ENDROOT
BRANCH   3   5
HETATM    5  N   UNL     1     -12.119  14.290  66.684  1.00  0.00    -0.436 N  
HETATM    6  C   UNL     1     -11.142  14.562  67.618  1.00  0.00    -0.304 C  
HETATM    7  H   UNL     1     -12.961  13.794  66.978  1.00  0.00     0.000 HD 
HETATM    8  O   UNL     1     -10.087  15.117  67.328  1.00  0.00    -0.233 OA 
BRANCH   6   9
HETATM    9  C   UNL     1     -11.442  14.086  69.045  1.00  0.00    -0.296 C  
BRANCH   9  10
HETATM   10  N   UNL     1     -10.779  12.842  69.395  1.00  0.00    -0.431 N  
HETATM   11  H   UNL     1     -10.006  12.867  70.060  1.00  0.00     0.000 HD 
HETATM   12  C   UNL     1     -11.154  11.630  68.861  1.00  0.00    -0.232 C  
HETATM   13  O   UNL     1     -12.095  11.522  68.079  1.00  0.00    -0.617 OA 
BRANCH  12  14
HETATM   14  C   UNL     1     -10.309  10.432  69.314  1.00  0.00    -0.230 C  
BRANCH  14  15
HETATM   15  N   UNL     1     -10.935   9.663  70.385  1.00  0.00    -0.275 N  
HETATM   16  C   UNL     1     -10.188   9.170  71.436  1.00  0.00    -0.332 C  
HETATM   17  H   UNL     1     -11.940   9.487  70.357  1.00  0.00     0.000 HD 
HETATM   18  O   UNL     1      -8.961   9.228  71.449  1.00  0.00    -0.311 OA 
BRANCH  16  19
HETATM   19  C   UNL     1     -10.994   8.480  72.523  1.00  0.00    -0.253 C  
BRANCH  19  20
HETATM   20  S   UNL     1     -10.890   6.681  72.404  1.00  0.00    -0.246 SA 
BRANCH  20  21
HETATM   21  C   UNL     1     -11.681   6.426  70.855  1.00  0.00    -0.303 C  
HETATM   22  O   UNL     1     -12.861   6.720  70.690  1.00  0.00    -0.138 OA 
BRANCH  21  23
HETATM   23  C   UNL     1     -10.867   5.824  69.764  1.00  0.00    -0.419 A  
HETATM   24  C   UNL     1     -11.067   6.265  68.449  1.00  0.00    -0.371 A  
HETATM   25  C   UNL     1     -10.355   5.680  67.397  1.00  0.00    -0.284 A  
HETATM   26  C   UNL     1      -9.450   4.650  67.651  1.00  0.00    -0.186 A  
HETATM   27  C   UNL     1      -9.246   4.209  68.957  1.00  0.00    -0.213 A  
HETATM   28  C   UNL     1      -9.951   4.791  70.010  1.00  0.00    -0.314 A  
ENDBRANCH  21  23
ENDBRANCH  20  21
ENDBRANCH  19  20
ENDBRANCH  16  19
ENDBRANCH  14  15
ENDBRANCH  12  14
ENDBRANCH   9  10
ENDBRANCH   6   9
ENDBRANCH   3   5
TORSDOF 9
ENDMDL
MODEL       91
REMARK 921   NORMALIZED FREE ENERGY PREDICTED BY IDOCK:   -5.63 KCAL/MOL
REMARK 922        TOTAL FREE ENERGY PREDICTED BY IDOCK:   -9.44 KCAL/MOL
REMARK 923 INTER-LIGAND FREE ENERGY PREDICTED BY IDOCK:   -8.31 KCAL/MOL
REMARK 924 INTRA-LIGAND FREE ENERGY PREDICTED BY IDOCK:   -1.13 KCAL/MOL
REMARK 927      BINDING AFFINITY PREDICTED BY RF-SCORE:    0.00 PKD
ROOT
HETATM    1  O   UNL     1      -8.555  14.768  69.144  1.00  0.00    -0.160 OA 
HETATM    2  C   UNL     1      -7.364  15.319  68.809  1.00  0.00    -0.131 C  
HETATM    3  C   UNL     1      -6.680  14.651  67.620  1.00  0.00    -0.174 C  
HETATM    4  O   UNL     1      -6.876  16.249  69.430  1.00  0.00    -0.202 OA 
ENDROOT
BRANCH   3   5
HETATM    5  N   UNL     1      -7.453  13.541  67.074  1.00  0.00    -0.327 N  
HETATM    6  C   UNL     1      -6.938  12.265  66.989  1.00  0.00    -0.033 C  
HETATM    7  H   UNL     1      -8.403  13.715  66.744  1.00  0.00     0.000 HD 
HETATM    8  O   UNL     1      -5.791  11.991  67.327  1.00  0.00    -0.113 OA 
BRANCH   6   9
HETATM    9  C   UNL     1      -7.884  11.210  66.400  1.00  0.00    -0.136 C  
BRANCH   9  10
HETATM   10  N   UNL     1      -8.724  11.715  65.328  1.00  0.00    -0.371 N  
HETATM   11  H   UNL     1      -8.919  12.715  65.286  1.00  0.00     0.000 HD 
HETATM   12  C   UNL     1      -9.265  10.894  64.365  1.00  0.00    -0.198 C  
HETATM   13  O   UNL     1      -9.046   9.686  64.335  1.00  0.00    -0.237 OA 
BRANCH  12  14
HETATM   14  C   UNL     1     -10.161  11.601  63.339  1.00  0.00    -0.440 C  
BRANCH  14  15
HETATM   15  N   UNL     1     -10.564  12.940  63.758  1.00  0.00    -0.498 N  
HETATM   16  C   UNL     1     -11.830  13.178  64.252  1.00  0.00    -0.406 C  
HETATM   17  H   UNL     1      -9.899  13.711  63.685  1.00  0.00     0.000 HD 
HETATM   18  O   UNL     1     -12.712  12.323  64.229  1.00  0.00    -0.584 OA 
BRANCH  16  19
HETATM   19  C   UNL     1     -12.067  14.597  64.742  1.00  0.00    -0.421 C  
BRANCH  19  20
HETATM   20  S   UNL     1     -10.671  15.223  65.701  1.00  0.00    -0.388 SA 
BRANCH  20  21
HETATM   21  C   UNL     1     -10.866  16.951  65.440  1.00  0.00    -0.106 C  
HETATM   22  O   UNL     1     -11.353  17.384  64.399  1.00  0.00    -0.949 OA 
BRANCH  21  23
HETATM   23  C   UNL     1     -10.401  17.862  66.522  1.00  0.00    -0.362 A  
HETATM   24  C   UNL     1      -9.833  19.094  66.172  1.00  0.00    -0.397 A  
HETATM   25  C   UNL     1      -9.340  19.946  67.164  1.00  0.00    -0.479 A  
HETATM   26  C   UNL     1      -9.402  19.569  68.506  1.00  0.00    -0.435 A  
HETATM   27  C   UNL     1      -9.968  18.347  68.860  1.00  0.00    -0.374 A  
HETATM   28  C   UNL     1     -10.465  17.494  67.874  1.00  0.00    -0.384 A  
ENDBRANCH  21  23
ENDBRANCH  20  21
ENDBRANCH  19  20
ENDBRANCH  16  19
ENDBRANCH  14  15
ENDBRANCH  12  14
ENDBRANCH   9  10
ENDBRANCH   6   9
ENDBRANCH   3   5
TORSDOF 9
ENDMDL
MODEL       92
REMARK 921   NORMALIZED FREE ENERGY PREDICTED BY IDOCK:   -5.63 KCAL/MOL
REMARK 922        TOTAL FREE ENERGY PREDICTED BY IDOCK:   -9.43 KCAL/MOL
REMARK 923 INTER-LIGAND FREE ENERGY PREDICTED BY IDOCK:   -8.65 KCAL/MOL
REMARK 924 INTRA-LIGAND FREE ENERGY PREDICTED BY IDOCK:   -0.77 KCAL/MOL
REMARK 927      BINDING AFFINITY PREDICTED BY RF-SCORE:    0.00 PKD
ROOT
HETATM    1  O   UNL     1      -9.981  16.193  65.313  1.00  0.00    -0.487 OA 
HETATM    2  C   UNL     1     -11.174  15.844  64.775  1.00  0.00    -0.355 C  
HETATM    3  C   UNL     1     -11.819  14.624  65.423  1.00  0.00    -0.304 C  
HETATM    4  O   UNL     1     -11.665  16.444  63.833  1.00  0.00    -1.085 OA 
ENDROOT
BRANCH   3   5
HETATM    5  N   UNL     1     -11.016  14.069  66.507  1.00  0.00    -0.303 N  
HETATM    6  C   UNL     1     -10.259  12.928  66.345  1.00  0.00    -0.267 C  
HETATM    7  H   UNL     1     -11.014  14.539  67.412  1.00  0.00     0.000 HD 
HETATM    8  O   UNL     1     -10.245  12.288  65.298  1.00  0.00    -0.270 OA 
BRANCH   6   9
HETATM    9  C   UNL     1      -9.463  12.483  67.579  1.00  0.00    -0.185 C  
BRANCH   9  10
HETATM   10  N   UNL     1     -10.289  12.258  68.753  1.00  0.00    -0.373 N  
HETATM   11  H   UNL     1     -10.109  12.809  69.592  1.00  0.00     0.000 HD 
HETATM   12  C   UNL     1     -11.305  11.330  68.774  1.00  0.00    -0.270 C  
HETATM   13  O   UNL     1     -11.596  10.654  67.791  1.00  0.00    -0.501 OA 
BRANCH  12  14
HETATM   14  C   UNL     1     -12.038  11.203  70.116  1.00  0.00    -0.362 C  
BRANCH  14  15
HETATM   15  N   UNL     1     -11.611  10.044  70.894  1.00  0.00    -0.350 N  
HETATM   16  C   UNL     1     -12.451   9.465  71.825  1.00  0.00    -0.391 C  
HETATM   17  H   UNL     1     -10.679   9.656  70.748  1.00  0.00     0.000 HD 
HETATM   18  O   UNL     1     -13.523   9.973  72.143  1.00  0.00    -0.428 OA 
BRANCH  16  19
HETATM   19  C   UNL     1     -11.906   8.207  72.480  1.00  0.00    -0.376 C  
BRANCH  19  20
HETATM   20  S   UNL     1     -10.161   7.946  72.097  1.00  0.00    -0.241 SA 
BRANCH  20  21
HETATM   21  C   UNL     1     -10.289   6.613  70.958  1.00  0.00    -0.207 C  
HETATM   22  O   UNL     1     -10.472   5.462  71.347  1.00  0.00    -0.223 OA 
BRANCH  21  23
HETATM   23  C   UNL     1     -10.148   6.934  69.511  1.00  0.00    -0.183 A  
HETATM   24  C   UNL     1      -9.226   7.914  69.122  1.00  0.00    -0.144 A  
HETATM   25  C   UNL     1      -9.111   8.274  67.776  1.00  0.00    -0.138 A  
HETATM   26  C   UNL     1      -9.920   7.666  66.817  1.00  0.00    -0.317 A  
HETATM   27  C   UNL     1     -10.836   6.689  67.197  1.00  0.00    -0.471 A  
HETATM   28  C   UNL     1     -10.954   6.324  68.538  1.00  0.00    -0.421 A  
ENDBRANCH  21  23
ENDBRANCH  20  21
ENDBRANCH  19  20
ENDBRANCH  16  19
ENDBRANCH  14  15
ENDBRANCH  12  14
ENDBRANCH   9  10
ENDBRANCH   6   9
ENDBRANCH   3   5
TORSDOF 9
ENDMDL
MODEL       93
REMARK 921   NORMALIZED FREE ENERGY PREDICTED BY IDOCK:   -5.62 KCAL/MOL
REMARK 922        TOTAL FREE ENERGY PREDICTED BY IDOCK:   -9.42 KCAL/MOL
REMARK 923 INTER-LIGAND FREE ENERGY PREDICTED BY IDOCK:   -8.02 KCAL/MOL
REMARK 924 INTRA-LIGAND FREE ENERGY PREDICTED BY IDOCK:   -1.40 KCAL/MOL
REMARK 927      BINDING AFFINITY PREDICTED BY RF-SCORE:    0.00 PKD
ROOT
HETATM    1  O   UNL     1     -12.608  12.220  63.873  1.00  0.00    -0.591 OA 
HETATM    2  C   UNL     1     -12.304  13.123  64.835  1.00  0.00    -0.441 C  
HETATM    3  C   UNL     1     -10.893  12.985  65.398  1.00  0.00    -0.284 C  
HETATM    4  O   UNL     1     -13.107  13.951  65.230  1.00  0.00    -0.777 OA 
ENDROOT
BRANCH   3   5
HETATM    5  N   UNL     1     -10.143  11.897  64.781  1.00  0.00    -0.260 N  
HETATM    6  C   UNL     1      -9.996  10.670  65.394  1.00  0.00    -0.281 C  
HETATM    7  H   UNL     1      -9.713  12.048  63.868  1.00  0.00     0.000 HD 
HETATM    8  O   UNL     1     -10.450  10.431  66.509  1.00  0.00    -0.236 OA 
BRANCH   6   9
HETATM    9  C   UNL     1      -9.188   9.631  64.607  1.00  0.00    -0.234 C  
BRANCH   9  10
HETATM   10  N   UNL     1      -9.244   8.297  65.179  1.00  0.00    -0.361 N  
HETATM   11  H   UNL     1     -10.051   7.708  64.974  1.00  0.00     0.000 HD 
HETATM   12  C   UNL     1      -8.247   7.797  65.986  1.00  0.00    -0.123 C  
HETATM   13  O   UNL     1      -7.233   8.438  66.248  1.00  0.00    -0.076 OA 
BRANCH  12  14
HETATM   14  C   UNL     1      -8.503   6.385  66.532  1.00  0.00    -0.118 C  
BRANCH  14  15
HETATM   15  N   UNL     1      -9.210   6.385  67.810  1.00  0.00    -0.114 N  
HETATM   16  C   UNL     1     -10.589   6.433  67.857  1.00  0.00    -0.258 C  
HETATM   17  H   UNL     1      -8.678   6.350  68.679  1.00  0.00     0.000 HD 
HETATM   18  O   UNL     1     -11.271   6.620  66.853  1.00  0.00    -0.391 OA 
BRANCH  16  19
HETATM   19  C   UNL     1     -11.183   6.322  69.251  1.00  0.00    -0.389 C  
BRANCH  19  20
HETATM   20  S   UNL     1     -10.078   6.991  70.513  1.00  0.00    -0.191 SA 
BRANCH  20  21
HETATM   21  C   UNL     1     -10.122   8.697  70.092  1.00  0.00    -0.185 C  
HETATM   22  O   UNL     1      -9.262   9.195  69.370  1.00  0.00    -0.148 OA 
BRANCH  21  23
HETATM   23  C   UNL     1     -11.231   9.513  70.659  1.00  0.00    -0.364 A  
HETATM   24  C   UNL     1     -11.343  10.858  70.283  1.00  0.00    -0.342 A  
HETATM   25  C   UNL     1     -12.342  11.661  70.841  1.00  0.00    -0.436 A  
HETATM   26  C   UNL     1     -13.225  11.130  71.780  1.00  0.00    -0.486 A  
HETATM   27  C   UNL     1     -13.120   9.793  72.156  1.00  0.00    -0.513 A  
HETATM   28  C   UNL     1     -12.127   8.985  71.601  1.00  0.00    -0.422 A  
ENDBRANCH  21  23
ENDBRANCH  20  21
ENDBRANCH  19  20
ENDBRANCH  16  19
ENDBRANCH  14  15
ENDBRANCH  12  14
ENDBRANCH   9  10
ENDBRANCH   6   9
ENDBRANCH   3   5
TORSDOF 9
ENDMDL
MODEL       94
REMARK 921   NORMALIZED FREE ENERGY PREDICTED BY IDOCK:   -5.62 KCAL/MOL
REMARK 922        TOTAL FREE ENERGY PREDICTED BY IDOCK:   -9.41 KCAL/MOL
REMARK 923 INTER-LIGAND FREE ENERGY PREDICTED BY IDOCK:   -8.56 KCAL/MOL
REMARK 924 INTRA-LIGAND FREE ENERGY PREDICTED BY IDOCK:   -0.86 KCAL/MOL
REMARK 927      BINDING AFFINITY PREDICTED BY RF-SCORE:    0.00 PKD
ROOT
HETATM    1  O   UNL     1     -12.832  13.983  65.471  1.00  0.00    -0.615 OA 
HETATM    2  C   UNL     1     -12.112  13.035  64.827  1.00  0.00    -0.415 C  
HETATM    3  C   UNL     1     -11.513  11.974  65.744  1.00  0.00    -0.320 C  
HETATM    4  O   UNL     1     -11.938  13.054  63.619  1.00  0.00    -0.481 OA 
ENDROOT
BRANCH   3   5
HETATM    5  N   UNL     1     -11.840  12.192  67.149  1.00  0.00    -0.296 N  
HETATM    6  C   UNL     1     -11.627  11.225  68.108  1.00  0.00    -0.289 C  
HETATM    7  H   UNL     1     -12.238  13.089  67.431  1.00  0.00     0.000 HD 
HETATM    8  O   UNL     1     -11.191  10.110  67.836  1.00  0.00    -0.282 OA 
BRANCH   6   9
HETATM    9  C   UNL     1     -12.013  11.617  69.540  1.00  0.00    -0.317 C  
BRANCH   9  10
HETATM   10  N   UNL     1     -12.542  10.514  70.323  1.00  0.00    -0.470 N  
HETATM   11  H   UNL     1     -12.442   9.565  69.964  1.00  0.00     0.000 HD 
HETATM   12  C   UNL     1     -13.175  10.703  71.531  1.00  0.00    -0.360 C  
HETATM   13  O   UNL     1     -13.302  11.815  72.037  1.00  0.00    -0.487 OA 
BRANCH  12  14
HETATM   14  C   UNL     1     -13.706   9.423  72.191  1.00  0.00    -0.420 C  
BRANCH  14  15
HETATM   15  N   UNL     1     -12.644   8.526  72.638  1.00  0.00    -0.572 N  
HETATM   16  C   UNL     1     -12.260   7.444  71.871  1.00  0.00    -0.310 C  
HETATM   17  H   UNL     1     -12.179   8.702  73.529  1.00  0.00     0.000 HD 
HETATM   18  O   UNL     1     -12.878   7.104  70.866  1.00  0.00    -0.294 OA 
BRANCH  16  19
HETATM   19  C   UNL     1     -11.075   6.665  72.417  1.00  0.00    -0.259 C  
BRANCH  19  20
HETATM   20  S   UNL     1      -9.677   6.672  71.274  1.00  0.00    -0.172 SA 
BRANCH  20  21
HETATM   21  C   UNL     1      -9.929   5.131  70.466  1.00  0.00    -0.234 C  
HETATM   22  O   UNL     1      -9.921   4.076  71.095  1.00  0.00    -0.188 OA 
BRANCH  21  23
HETATM   23  C   UNL     1     -10.135   5.158  68.991  1.00  0.00    -0.257 A  
HETATM   24  C   UNL     1      -9.618   4.111  68.217  1.00  0.00    -0.191 A  
HETATM   25  C   UNL     1      -9.749   4.137  66.826  1.00  0.00    -0.234 A  
HETATM   26  C   UNL     1     -10.386   5.210  66.202  1.00  0.00    -0.280 A  
HETATM   27  C   UNL     1     -10.904   6.252  66.967  1.00  0.00    -0.458 A  
HETATM   28  C   UNL     1     -10.779   6.230  68.356  1.00  0.00    -0.356 A  
ENDBRANCH  21  23
ENDBRANCH  20  21
ENDBRANCH  19  20
ENDBRANCH  16  19
ENDBRANCH  14  15
ENDBRANCH  12  14
ENDBRANCH   9  10
ENDBRANCH   6   9
ENDBRANCH   3   5
TORSDOF 9
ENDMDL
MODEL       95
REMARK 921   NORMALIZED FREE ENERGY PREDICTED BY IDOCK:   -5.59 KCAL/MOL
REMARK 922        TOTAL FREE ENERGY PREDICTED BY IDOCK:   -9.37 KCAL/MOL
REMARK 923 INTER-LIGAND FREE ENERGY PREDICTED BY IDOCK:   -8.54 KCAL/MOL
REMARK 924 INTRA-LIGAND FREE ENERGY PREDICTED BY IDOCK:   -0.83 KCAL/MOL
REMARK 927      BINDING AFFINITY PREDICTED BY RF-SCORE:    0.00 PKD
ROOT
HETATM    1  O   UNL     1     -11.699  16.569  72.415  1.00  0.00    -0.507 OA 
HETATM    2  C   UNL     1     -12.832  15.942  72.811  1.00  0.00    -0.478 C  
HETATM    3  C   UNL     1     -13.662  15.370  71.668  1.00  0.00    -0.509 C  
HETATM    4  O   UNL     1     -13.164  15.873  73.983  1.00  0.00    -0.490 OA 
ENDROOT
BRANCH   3   5
HETATM    5  N   UNL     1     -13.065  15.612  70.359  1.00  0.00    -0.725 N  
HETATM    6  C   UNL     1     -12.300  14.661  69.717  1.00  0.00    -0.262 C  
HETATM    7  H   UNL     1     -13.218  16.513  69.905  1.00  0.00     0.000 HD 
HETATM    8  O   UNL     1     -12.040  13.573  70.221  1.00  0.00    -0.335 OA 
BRANCH   6   9
HETATM    9  C   UNL     1     -11.755  15.070  68.342  1.00  0.00    -0.317 C  
BRANCH   9  10
HETATM   10  N   UNL     1     -11.727  13.982  67.381  1.00  0.00    -0.367 N  
HETATM   11  H   UNL     1     -12.578  13.443  67.224  1.00  0.00     0.000 HD 
HETATM   12  C   UNL     1     -10.593  13.651  66.673  1.00  0.00    -0.277 C  
HETATM   13  O   UNL     1      -9.543  14.276  66.789  1.00  0.00    -0.259 OA 
BRANCH  12  14
HETATM   14  C   UNL     1     -10.744  12.445  65.736  1.00  0.00    -0.267 C  
BRANCH  14  15
HETATM   15  N   UNL     1     -10.350  11.184  66.359  1.00  0.00    -0.244 N  
HETATM   16  C   UNL     1     -11.158  10.572  67.295  1.00  0.00    -0.213 C  
HETATM   17  H   UNL     1      -9.464  10.749  66.098  1.00  0.00     0.000 HD 
HETATM   18  O   UNL     1     -12.160  11.117  67.750  1.00  0.00    -0.606 OA 
BRANCH  16  19
HETATM   19  C   UNL     1     -10.664   9.217  67.776  1.00  0.00    -0.207 C  
BRANCH  19  20
HETATM   20  S   UNL     1      -9.004   9.313  68.478  1.00  0.00    -0.128 SA 
BRANCH  20  21
HETATM   21  C   UNL     1      -9.124   8.084  69.729  1.00  0.00    -0.149 C  
HETATM   22  O   UNL     1      -8.256   7.225  69.860  1.00  0.00    -0.128 OA 
BRANCH  21  23
HETATM   23  C   UNL     1     -10.327   8.117  70.606  1.00  0.00    -0.214 A  
HETATM   24  C   UNL     1     -11.061   6.939  70.794  1.00  0.00    -0.317 A  
HETATM   25  C   UNL     1     -12.224   6.953  71.569  1.00  0.00    -0.415 A  
HETATM   26  C   UNL     1     -12.664   8.142  72.150  1.00  0.00    -0.332 A  
HETATM   27  C   UNL     1     -11.937   9.316  71.969  1.00  0.00    -0.391 A  
HETATM   28  C   UNL     1     -10.774   9.307  71.199  1.00  0.00    -0.403 A  
ENDBRANCH  21  23
ENDBRANCH  20  21
ENDBRANCH  19  20
ENDBRANCH  16  19
ENDBRANCH  14  15
ENDBRANCH  12  14
ENDBRANCH   9  10
ENDBRANCH   6   9
ENDBRANCH   3   5
TORSDOF 9
ENDMDL
MODEL       96
REMARK 921   NORMALIZED FREE ENERGY PREDICTED BY IDOCK:   -5.58 KCAL/MOL
REMARK 922        TOTAL FREE ENERGY PREDICTED BY IDOCK:   -9.36 KCAL/MOL
REMARK 923 INTER-LIGAND FREE ENERGY PREDICTED BY IDOCK:   -8.56 KCAL/MOL
REMARK 924 INTRA-LIGAND FREE ENERGY PREDICTED BY IDOCK:   -0.80 KCAL/MOL
REMARK 927      BINDING AFFINITY PREDICTED BY RF-SCORE:    0.00 PKD
ROOT
HETATM    1  O   UNL     1      -8.668   6.343  68.054  1.00  0.00    -0.117 OA 
HETATM    2  C   UNL     1      -9.968   5.970  68.135  1.00  0.00    -0.147 C  
HETATM    3  C   UNL     1     -10.897   6.736  67.199  1.00  0.00    -0.392 C  
HETATM    4  O   UNL     1     -10.354   5.115  68.914  1.00  0.00    -0.185 OA 
ENDROOT
BRANCH   3   5
HETATM    5  N   UNL     1     -10.194   7.728  66.392  1.00  0.00    -0.487 N  
HETATM    6  C   UNL     1     -10.242   9.075  66.685  1.00  0.00    -0.263 C  
HETATM    7  H   UNL     1      -9.651   7.416  65.587  1.00  0.00     0.000 HD 
HETATM    8  O   UNL     1     -10.909   9.525  67.612  1.00  0.00    -0.279 OA 
BRANCH   6   9
HETATM    9  C   UNL     1      -9.439   9.984  65.746  1.00  0.00    -0.214 C  
BRANCH   9  10
HETATM   10  N   UNL     1     -10.211  11.091  65.208  1.00  0.00    -0.270 N  
HETATM   11  H   UNL     1     -10.621  11.764  65.854  1.00  0.00     0.000 HD 
HETATM   12  C   UNL     1     -10.410  11.264  63.857  1.00  0.00    -0.381 C  
HETATM   13  O   UNL     1      -9.920  10.510  63.020  1.00  0.00    -0.285 OA 
BRANCH  12  14
HETATM   14  C   UNL     1     -11.289  12.464  63.479  1.00  0.00    -0.476 C  
BRANCH  14  15
HETATM   15  N   UNL     1     -10.800  13.726  64.029  1.00  0.00    -0.509 N  
HETATM   16  C   UNL     1     -11.677  14.728  64.392  1.00  0.00    -0.336 C  
HETATM   17  H   UNL     1      -9.797  13.868  64.146  1.00  0.00     0.000 HD 
HETATM   18  O   UNL     1     -12.878  14.668  64.143  1.00  0.00    -0.667 OA 
BRANCH  16  19
HETATM   19  C   UNL     1     -11.027  15.938  65.043  1.00  0.00    -0.412 C  
BRANCH  19  20
HETATM   20  S   UNL     1      -9.951  15.472  66.416  1.00  0.00    -0.304 SA 
BRANCH  20  21
HETATM   21  C   UNL     1     -10.807  16.230  67.752  1.00  0.00    -0.315 C  
HETATM   22  O   UNL     1     -10.941  17.449  67.809  1.00  0.00    -0.317 OA 
BRANCH  21  23
HETATM   23  C   UNL     1     -11.344  15.336  68.814  1.00  0.00    -0.318 A  
HETATM   24  C   UNL     1     -11.456  13.964  68.551  1.00  0.00    -0.346 A  
HETATM   25  C   UNL     1     -12.007  13.109  69.510  1.00  0.00    -0.354 A  
HETATM   26  C   UNL     1     -12.456  13.619  70.728  1.00  0.00    -0.432 A  
HETATM   27  C   UNL     1     -12.345  14.981  70.996  1.00  0.00    -0.394 A  
HETATM   28  C   UNL     1     -11.793  15.839  70.044  1.00  0.00    -0.365 A  
ENDBRANCH  21  23
ENDBRANCH  20  21
ENDBRANCH  19  20
ENDBRANCH  16  19
ENDBRANCH  14  15
ENDBRANCH  12  14
ENDBRANCH   9  10
ENDBRANCH   6   9
ENDBRANCH   3   5
TORSDOF 9
ENDMDL
MODEL       97
REMARK 921   NORMALIZED FREE ENERGY PREDICTED BY IDOCK:   -5.58 KCAL/MOL
REMARK 922        TOTAL FREE ENERGY PREDICTED BY IDOCK:   -9.35 KCAL/MOL
REMARK 923 INTER-LIGAND FREE ENERGY PREDICTED BY IDOCK:   -8.79 KCAL/MOL
REMARK 924 INTRA-LIGAND FREE ENERGY PREDICTED BY IDOCK:   -0.57 KCAL/MOL
REMARK 927      BINDING AFFINITY PREDICTED BY RF-SCORE:    0.00 PKD
ROOT
HETATM    1  O   UNL     1     -11.517   4.442  64.950  1.00  0.00    -0.205 OA 
HETATM    2  C   UNL     1     -10.463   3.867  64.324  1.00  0.00    -0.233 C  
HETATM    3  C   UNL     1      -9.133   4.574  64.562  1.00  0.00    -0.148 C  
HETATM    4  O   UNL     1     -10.583   2.885  63.610  1.00  0.00    -0.206 OA 
ENDROOT
BRANCH   3   5
HETATM    5  N   UNL     1      -9.261   5.742  65.427  1.00  0.00    -0.361 N  
HETATM    6  C   UNL     1      -8.611   6.927  65.155  1.00  0.00     0.059 C  
HETATM    7  H   UNL     1      -9.849   5.680  66.258  1.00  0.00     0.000 HD 
HETATM    8  O   UNL     1      -7.855   7.061  64.198  1.00  0.00    -0.112 OA 
BRANCH   6   9
HETATM    9  C   UNL     1      -8.860   8.062  66.157  1.00  0.00    -0.166 C  
BRANCH   9  10
HETATM   10  N   UNL     1      -9.868   9.012  65.721  1.00  0.00    -0.461 N  
HETATM   11  H   UNL     1     -10.847   8.824  65.936  1.00  0.00     0.000 HD 
HETATM   12  C   UNL     1      -9.550  10.158  65.026  1.00  0.00    -0.299 C  
HETATM   13  O   UNL     1      -8.391  10.462  64.759  1.00  0.00    -0.166 OA 
BRANCH  12  14
HETATM   14  C   UNL     1     -10.752  11.017  64.610  1.00  0.00    -0.248 C  
BRANCH  14  15
HETATM   15  N   UNL     1     -10.932  12.195  65.455  1.00  0.00    -0.293 N  
HETATM   16  C   UNL     1     -12.154  12.831  65.534  1.00  0.00    -0.465 C  
HETATM   17  H   UNL     1     -10.143  12.552  65.994  1.00  0.00     0.000 HD 
HETATM   18  O   UNL     1     -13.095  12.532  64.803  1.00  0.00    -0.853 OA 
BRANCH  16  19
HETATM   19  C   UNL     1     -12.213  13.976  66.531  1.00  0.00    -0.451 C  
BRANCH  19  20
HETATM   20  S   UNL     1     -11.878  13.424  68.217  1.00  0.00    -0.337 SA 
BRANCH  20  21
HETATM   21  C   UNL     1     -11.834  14.972  69.048  1.00  0.00    -0.300 C  
HETATM   22  O   UNL     1     -11.515  16.000  68.457  1.00  0.00    -0.370 OA 
BRANCH  21  23
HETATM   23  C   UNL     1     -12.180  14.981  70.496  1.00  0.00    -0.391 A  
HETATM   24  C   UNL     1     -12.995  13.960  71.003  1.00  0.00    -0.357 A  
HETATM   25  C   UNL     1     -13.380  13.972  72.347  1.00  0.00    -0.617 A  
HETATM   26  C   UNL     1     -12.962  15.004  73.186  1.00  0.00    -0.631 A  
HETATM   27  C   UNL     1     -12.150  16.021  72.688  1.00  0.00    -0.640 A  
HETATM   28  C   UNL     1     -11.760  16.012  71.349  1.00  0.00    -0.536 A  
ENDBRANCH  21  23
ENDBRANCH  20  21
ENDBRANCH  19  20
ENDBRANCH  16  19
ENDBRANCH  14  15
ENDBRANCH  12  14
ENDBRANCH   9  10
ENDBRANCH   6   9
ENDBRANCH   3   5
TORSDOF 9
ENDMDL
MODEL       98
REMARK 921   NORMALIZED FREE ENERGY PREDICTED BY IDOCK:   -5.57 KCAL/MOL
REMARK 922        TOTAL FREE ENERGY PREDICTED BY IDOCK:   -9.34 KCAL/MOL
REMARK 923 INTER-LIGAND FREE ENERGY PREDICTED BY IDOCK:   -8.12 KCAL/MOL
REMARK 924 INTRA-LIGAND FREE ENERGY PREDICTED BY IDOCK:   -1.22 KCAL/MOL
REMARK 927      BINDING AFFINITY PREDICTED BY RF-SCORE:    0.00 PKD
ROOT
HETATM    1  O   UNL     1     -10.540  20.115  65.979  1.00  0.00    -0.395 OA 
HETATM    2  C   UNL     1      -9.760  19.822  67.047  1.00  0.00    -0.381 C  
HETATM    3  C   UNL     1      -9.778  18.352  67.450  1.00  0.00    -0.299 C  
HETATM    4  O   UNL     1      -9.125  20.675  67.645  1.00  0.00    -0.270 OA 
ENDROOT
BRANCH   3   5
HETATM    5  N   UNL     1     -10.640  17.542  66.595  1.00  0.00    -0.254 N  
HETATM    6  C   UNL     1     -10.129  16.620  65.706  1.00  0.00    -0.277 C  
HETATM    7  H   UNL     1     -11.651  17.662  66.657  1.00  0.00     0.000 HD 
HETATM    8  O   UNL     1      -8.924  16.452  65.548  1.00  0.00    -0.352 OA 
BRANCH   6   9
HETATM    9  C   UNL     1     -11.171  15.843  64.890  1.00  0.00    -0.337 C  
BRANCH   9  10
HETATM   10  N   UNL     1     -10.815  14.452  64.669  1.00  0.00    -0.565 N  
HETATM   11  H   UNL     1      -9.936  14.103  65.049  1.00  0.00     0.000 HD 
HETATM   12  C   UNL     1     -11.622  13.588  63.963  1.00  0.00    -0.353 C  
HETATM   13  O   UNL     1     -12.708  13.932  63.504  1.00  0.00    -0.797 OA 
BRANCH  12  14
HETATM   14  C   UNL     1     -11.060  12.169  63.794  1.00  0.00    -0.436 C  
BRANCH  14  15
HETATM   15  N   UNL     1      -9.989  11.862  64.737  1.00  0.00    -0.304 N  
HETATM   16  C   UNL     1     -10.247  11.173  65.905  1.00  0.00    -0.251 C  
HETATM   17  H   UNL     1      -9.035  12.162  64.530  1.00  0.00     0.000 HD 
HETATM   18  O   UNL     1     -11.390  10.915  66.272  1.00  0.00    -0.080 OA 
BRANCH  16  19
HETATM   19  C   UNL     1      -9.017  10.839  66.732  1.00  0.00    -0.147 C  
BRANCH  19  20
HETATM   20  S   UNL     1      -9.097  11.561  68.385  1.00  0.00    -0.169 SA 
BRANCH  20  21
HETATM   21  C   UNL     1      -9.546  13.212  67.981  1.00  0.00    -0.220 C  
HETATM   22  O   UNL     1      -9.014  13.803  67.046  1.00  0.00    -0.227 OA 
BRANCH  21  23
HETATM   23  C   UNL     1     -10.581  13.866  68.829  1.00  0.00    -0.258 A  
HETATM   24  C   UNL     1     -10.544  15.257  68.991  1.00  0.00    -0.245 A  
HETATM   25  C   UNL     1     -11.470  15.891  69.824  1.00  0.00    -0.342 A  
HETATM   26  C   UNL     1     -12.429  15.141  70.504  1.00  0.00    -0.429 A  
HETATM   27  C   UNL     1     -12.472  13.758  70.345  1.00  0.00    -0.384 A  
HETATM   28  C   UNL     1     -11.553  13.120  69.513  1.00  0.00    -0.347 A  
ENDBRANCH  21  23
ENDBRANCH  20  21
ENDBRANCH  19  20
ENDBRANCH  16  19
ENDBRANCH  14  15
ENDBRANCH  12  14
ENDBRANCH   9  10
ENDBRANCH   6   9
ENDBRANCH   3   5
TORSDOF 9
ENDMDL
MODEL       99
REMARK 921   NORMALIZED FREE ENERGY PREDICTED BY IDOCK:   -5.56 KCAL/MOL
REMARK 922        TOTAL FREE ENERGY PREDICTED BY IDOCK:   -9.33 KCAL/MOL
REMARK 923 INTER-LIGAND FREE ENERGY PREDICTED BY IDOCK:   -8.28 KCAL/MOL
REMARK 924 INTRA-LIGAND FREE ENERGY PREDICTED BY IDOCK:   -1.06 KCAL/MOL
REMARK 927      BINDING AFFINITY PREDICTED BY RF-SCORE:    0.00 PKD
ROOT
HETATM    1  O   UNL     1     -10.750  19.544  65.927  1.00  0.00    -0.483 OA 
HETATM    2  C   UNL     1     -10.166  19.610  67.147  1.00  0.00    -0.435 C  
HETATM    3  C   UNL     1     -10.182  18.295  67.919  1.00  0.00    -0.384 C  
HETATM    4  O   UNL     1      -9.696  20.644  67.591  1.00  0.00    -0.404 OA 
ENDROOT
BRANCH   3   5
HETATM    5  N   UNL     1     -10.830  17.215  67.183  1.00  0.00    -0.161 N  
HETATM    6  C   UNL     1     -10.468  15.896  67.352  1.00  0.00    -0.306 C  
HETATM    7  H   UNL     1     -11.574  17.444  66.522  1.00  0.00     0.000 HD 
HETATM    8  O   UNL     1      -9.556  15.551  68.096  1.00  0.00    -0.198 OA 
BRANCH   6   9
HETATM    9  C   UNL     1     -11.255  14.882  66.511  1.00  0.00    -0.335 C  
BRANCH   9  10
HETATM   10  N   UNL     1     -10.810  13.510  66.687  1.00  0.00    -0.282 N  
HETATM   11  H   UNL     1      -9.959  13.334  67.220  1.00  0.00     0.000 HD 
HETATM   12  C   UNL     1     -11.496  12.439  66.161  1.00  0.00    -0.379 C  
HETATM   13  O   UNL     1     -12.545  12.574  65.536  1.00  0.00    -0.642 OA 
BRANCH  12  14
HETATM   14  C   UNL     1     -10.851  11.069  66.413  1.00  0.00    -0.191 C  
BRANCH  14  15
HETATM   15  N   UNL     1     -11.295  10.448  67.657  1.00  0.00    -0.382 N  
HETATM   16  C   UNL     1     -10.496  10.464  68.783  1.00  0.00    -0.199 C  
HETATM   17  H   UNL     1     -12.209   9.995  67.695  1.00  0.00     0.000 HD 
HETATM   18  O   UNL     1      -9.336  10.866  68.756  1.00  0.00    -0.179 OA 
BRANCH  16  19
HETATM   19  C   UNL     1     -11.136   9.870  70.026  1.00  0.00    -0.285 C  
BRANCH  19  20
HETATM   20  S   UNL     1     -12.910  10.201  70.100  1.00  0.00     0.257 SA 
BRANCH  20  21
HETATM   21  C   UNL     1     -12.989  11.140  71.584  1.00  0.00    -0.443 C  
HETATM   22  O   UNL     1     -13.030  10.590  72.681  1.00  0.00     0.124 OA 
BRANCH  21  23
HETATM   23  C   UNL     1     -13.021  12.623  71.454  1.00  0.00    -0.353 A  
HETATM   24  C   UNL     1     -13.829  13.361  72.328  1.00  0.00    -0.671 A  
HETATM   25  C   UNL     1     -13.921  14.750  72.194  1.00  0.00    -0.590 A  
HETATM   26  C   UNL     1     -13.216  15.405  71.185  1.00  0.00    -0.583 A  
HETATM   27  C   UNL     1     -12.409  14.676  70.314  1.00  0.00    -0.406 A  
HETATM   28  C   UNL     1     -12.311  13.290  70.445  1.00  0.00    -0.365 A  
ENDBRANCH  21  23
ENDBRANCH  20  21
ENDBRANCH  19  20
ENDBRANCH  16  19
ENDBRANCH  14  15
ENDBRANCH  12  14
ENDBRANCH   9  10
ENDBRANCH   6   9
ENDBRANCH   3   5
TORSDOF 9
ENDMDL
MODEL      100
REMARK 921   NORMALIZED FREE ENERGY PREDICTED BY IDOCK:   -5.56 KCAL/MOL
REMARK 922        TOTAL FREE ENERGY PREDICTED BY IDOCK:   -9.33 KCAL/MOL
REMARK 923 INTER-LIGAND FREE ENERGY PREDICTED BY IDOCK:   -8.20 KCAL/MOL
REMARK 924 INTRA-LIGAND FREE ENERGY PREDICTED BY IDOCK:   -1.13 KCAL/MOL
REMARK 927      BINDING AFFINITY PREDICTED BY RF-SCORE:    0.00 PKD
ROOT
HETATM    1  O   UNL     1     -12.901  13.161  65.075  1.00  0.00    -0.692 OA 
HETATM    2  C   UNL     1     -12.214  14.180  64.506  1.00  0.00    -0.445 C  
HETATM    3  C   UNL     1     -10.738  14.229  64.886  1.00  0.00    -0.432 C  
HETATM    4  O   UNL     1     -12.748  15.000  63.777  1.00  0.00    -0.741 OA 
ENDROOT
BRANCH   3   5
HETATM    5  N   UNL     1     -10.354  13.156  65.797  1.00  0.00    -0.285 N  
HETATM    6  C   UNL     1      -9.554  13.383  66.897  1.00  0.00    -0.257 C  
HETATM    7  H   UNL     1     -10.686  12.209  65.614  1.00  0.00     0.000 HD 
HETATM    8  O   UNL     1      -9.084  14.486  67.156  1.00  0.00    -0.204 OA 
BRANCH   6   9
HETATM    9  C   UNL     1      -9.252  12.150  67.759  1.00  0.00    -0.189 C  
BRANCH   9  10
HETATM   10  N   UNL     1     -10.195  11.956  68.847  1.00  0.00    -0.391 N  
HETATM   11  H   UNL     1      -9.924  12.239  69.788  1.00  0.00     0.000 HD 
HETATM   12  C   UNL     1     -11.441  11.404  68.654  1.00  0.00    -0.296 C  
HETATM   13  O   UNL     1     -11.845  11.070  67.543  1.00  0.00    -0.571 OA 
BRANCH  12  14
HETATM   14  C   UNL     1     -12.281  11.238  69.928  1.00  0.00    -0.288 C  
BRANCH  14  15
HETATM   15  N   UNL     1     -12.549   9.841  70.258  1.00  0.00    -0.490 N  
HETATM   16  C   UNL     1     -13.153   9.497  71.450  1.00  0.00    -0.370 C  
HETATM   17  H   UNL     1     -12.285   9.109  69.598  1.00  0.00     0.000 HD 
HETATM   18  O   UNL     1     -13.360  10.319  72.339  1.00  0.00    -0.325 OA 
BRANCH  16  19
HETATM   19  C   UNL     1     -13.459   8.017  71.606  1.00  0.00    -0.337 C  
BRANCH  19  20
HETATM   20  S   UNL     1     -12.027   6.985  71.222  1.00  0.00    -0.364 SA 
BRANCH  20  21
HETATM   21  C   UNL     1     -10.899   7.553  72.445  1.00  0.00    -0.276 C  
HETATM   22  O   UNL     1     -11.207   7.567  73.634  1.00  0.00    -0.200 OA 
BRANCH  21  23
HETATM   23  C   UNL     1      -9.568   8.030  71.979  1.00  0.00    -0.262 A  
HETATM   24  C   UNL     1      -9.463   8.598  70.703  1.00  0.00    -0.218 A  
HETATM   25  C   UNL     1      -8.217   9.006  70.217  1.00  0.00    -0.150 A  
HETATM   26  C   UNL     1      -7.073   8.839  70.997  1.00  0.00    -0.084 A  
HETATM   27  C   UNL     1      -7.172   8.276  72.267  1.00  0.00    -0.121 A  
HETATM   28  C   UNL     1      -8.413   7.871  72.758  1.00  0.00    -0.212 A  
ENDBRANCH  21  23
ENDBRANCH  20  21
ENDBRANCH  19  20
ENDBRANCH  16  19
ENDBRANCH  14  15
ENDBRANCH  12  14
ENDBRANCH   9  10
ENDBRANCH   6   9
ENDBRANCH   3   5
TORSDOF 9
ENDMDL
MODEL      101
REMARK 921   NORMALIZED FREE ENERGY PREDICTED BY IDOCK:   -5.55 KCAL/MOL
REMARK 922        TOTAL FREE ENERGY PREDICTED BY IDOCK:   -9.31 KCAL/MOL
REMARK 923 INTER-LIGAND FREE ENERGY PREDICTED BY IDOCK:   -8.29 KCAL/MOL
REMARK 924 INTRA-LIGAND FREE ENERGY PREDICTED BY IDOCK:   -1.03 KCAL/MOL
REMARK 927      BINDING AFFINITY PREDICTED BY RF-SCORE:    0.00 PKD
ROOT
HETATM    1  O   UNL     1     -12.095  10.008  71.754  1.00  0.00    -0.373 OA 
HETATM    2  C   UNL     1     -12.977   8.984  71.853  1.00  0.00    -0.389 C  
HETATM    3  C   UNL     1     -12.454   7.655  71.320  1.00  0.00    -0.298 C  
HETATM    4  O   UNL     1     -14.101   9.132  72.305  1.00  0.00    -0.437 OA 
ENDROOT
BRANCH   3   5
HETATM    5  N   UNL     1     -11.092   7.750  70.805  1.00  0.00    -0.254 N  
HETATM    6  C   UNL     1     -10.612   6.881  69.847  1.00  0.00    -0.228 C  
HETATM    7  H   UNL     1     -10.477   8.480  71.163  1.00  0.00     0.000 HD 
HETATM    8  O   UNL     1     -11.280   5.954  69.401  1.00  0.00    -0.375 OA 
BRANCH   6   9
HETATM    9  C   UNL     1      -9.163   7.124  69.404  1.00  0.00    -0.148 C  
BRANCH   9  10
HETATM   10  N   UNL     1      -9.027   7.396  67.983  1.00  0.00    -0.132 N  
HETATM   11  H   UNL     1      -8.919   6.612  67.341  1.00  0.00     0.000 HD 
HETATM   12  C   UNL     1      -9.040   8.675  67.473  1.00  0.00    -0.134 C  
HETATM   13  O   UNL     1      -9.199   9.663  68.185  1.00  0.00    -0.126 OA 
BRANCH  12  14
HETATM   14  C   UNL     1      -8.840   8.768  65.954  1.00  0.00    -0.186 C  
BRANCH  14  15
HETATM   15  N   UNL     1      -9.773   9.688  65.310  1.00  0.00    -0.393 N  
HETATM   16  C   UNL     1      -9.381  10.458  64.234  1.00  0.00    -0.277 C  
HETATM   17  H   UNL     1     -10.729   9.761  65.660  1.00  0.00     0.000 HD 
HETATM   18  O   UNL     1      -8.212  10.516  63.862  1.00  0.00    -0.147 OA 
BRANCH  16  19
HETATM   19  C   UNL     1     -10.489  11.287  63.606  1.00  0.00    -0.405 C  
BRANCH  19  20
HETATM   20  S   UNL     1     -10.554  12.958  64.288  1.00  0.00    -0.405 SA 
BRANCH  20  21
HETATM   21  C   UNL     1     -12.030  12.849  65.236  1.00  0.00    -0.419 C  
HETATM   22  O   UNL     1     -13.110  12.610  64.703  1.00  0.00    -0.821 OA 
BRANCH  21  23
HETATM   23  C   UNL     1     -11.918  13.076  66.704  1.00  0.00    -0.453 A  
HETATM   24  C   UNL     1     -11.889  14.391  67.185  1.00  0.00    -0.437 A  
HETATM   25  C   UNL     1     -11.731  14.635  68.552  1.00  0.00    -0.348 A  
HETATM   26  C   UNL     1     -11.591  13.570  69.442  1.00  0.00    -0.369 A  
HETATM   27  C   UNL     1     -11.622  12.260  68.969  1.00  0.00    -0.368 A  
HETATM   28  C   UNL     1     -11.782  12.011  67.606  1.00  0.00    -0.365 A  
ENDBRANCH  21  23
ENDBRANCH  20  21
ENDBRANCH  19  20
ENDBRANCH  16  19
ENDBRANCH  14  15
ENDBRANCH  12  14
ENDBRANCH   9  10
ENDBRANCH   6   9
ENDBRANCH   3   5
TORSDOF 9
ENDMDL
MODEL      102
REMARK 921   NORMALIZED FREE ENERGY PREDICTED BY IDOCK:   -5.55 KCAL/MOL
REMARK 922        TOTAL FREE ENERGY PREDICTED BY IDOCK:   -9.31 KCAL/MOL
REMARK 923 INTER-LIGAND FREE ENERGY PREDICTED BY IDOCK:   -8.62 KCAL/MOL
REMARK 924 INTRA-LIGAND FREE ENERGY PREDICTED BY IDOCK:   -0.69 KCAL/MOL
REMARK 927      BINDING AFFINITY PREDICTED BY RF-SCORE:    0.00 PKD
ROOT
HETATM    1  O   UNL     1     -10.640  17.349  65.442  1.00  0.00    -0.638 OA 
HETATM    2  C   UNL     1     -10.473  18.202  66.481  1.00  0.00    -0.341 C  
HETATM    3  C   UNL     1     -10.263  17.514  67.826  1.00  0.00    -0.349 C  
HETATM    4  O   UNL     1     -10.520  19.413  66.345  1.00  0.00    -0.424 OA 
ENDROOT
BRANCH   3   5
HETATM    5  N   UNL     1     -10.282  16.059  67.726  1.00  0.00    -0.254 N  
HETATM    6  C   UNL     1     -11.193  15.290  68.419  1.00  0.00    -0.309 C  
HETATM    7  H   UNL     1      -9.599  15.596  67.125  1.00  0.00     0.000 HD 
HETATM    8  O   UNL     1     -12.014  15.775  69.190  1.00  0.00    -0.387 OA 
BRANCH   6   9
HETATM    9  C   UNL     1     -11.086  13.776  68.195  1.00  0.00    -0.259 C  
BRANCH   9  10
HETATM   10  N   UNL     1     -11.425  12.990  69.368  1.00  0.00    -0.369 N  
HETATM   11  H   UNL     1     -11.289  13.400  70.291  1.00  0.00     0.000 HD 
HETATM   12  C   UNL     1     -11.924  11.709  69.279  1.00  0.00    -0.317 C  
HETATM   13  O   UNL     1     -12.142  11.165  68.200  1.00  0.00    -0.633 OA 
BRANCH  12  14
HETATM   14  C   UNL     1     -12.182  11.020  70.625  1.00  0.00    -0.385 C  
BRANCH  14  15
HETATM   15  N   UNL     1     -12.297   9.568  70.511  1.00  0.00    -0.484 N  
HETATM   16  C   UNL     1     -12.867   8.821  71.522  1.00  0.00    -0.325 C  
HETATM   17  H   UNL     1     -11.951   9.101  69.673  1.00  0.00     0.000 HD 
HETATM   18  O   UNL     1     -13.169   9.311  72.607  1.00  0.00    -0.414 OA 
BRANCH  16  19
HETATM   19  C   UNL     1     -13.011   7.339  71.215  1.00  0.00    -0.328 C  
BRANCH  19  20
HETATM   20  S   UNL     1     -11.548   6.402  71.708  1.00  0.00    -0.316 SA 
BRANCH  20  21
HETATM   21  C   UNL     1     -10.411   6.930  70.476  1.00  0.00    -0.211 C  
HETATM   22  O   UNL     1      -9.704   7.919  70.647  1.00  0.00    -0.173 OA 
BRANCH  21  23
HETATM   23  C   UNL     1     -10.356   6.141  69.214  1.00  0.00    -0.276 A  
HETATM   24  C   UNL     1      -9.687   4.909  69.215  1.00  0.00    -0.258 A  
HETATM   25  C   UNL     1      -9.573   4.172  68.033  1.00  0.00    -0.200 A  
HETATM   26  C   UNL     1     -10.116   4.664  66.846  1.00  0.00    -0.227 A  
HETATM   27  C   UNL     1     -10.784   5.886  66.840  1.00  0.00    -0.395 A  
HETATM   28  C   UNL     1     -10.904   6.624  68.017  1.00  0.00    -0.345 A  
ENDBRANCH  21  23
ENDBRANCH  20  21
ENDBRANCH  19  20
ENDBRANCH  16  19
ENDBRANCH  14  15
ENDBRANCH  12  14
ENDBRANCH   9  10
ENDBRANCH   6   9
ENDBRANCH   3   5
TORSDOF 9
ENDMDL
MODEL      103
REMARK 921   NORMALIZED FREE ENERGY PREDICTED BY IDOCK:   -5.54 KCAL/MOL
REMARK 922        TOTAL FREE ENERGY PREDICTED BY IDOCK:   -9.29 KCAL/MOL
REMARK 923 INTER-LIGAND FREE ENERGY PREDICTED BY IDOCK:   -7.74 KCAL/MOL
REMARK 924 INTRA-LIGAND FREE ENERGY PREDICTED BY IDOCK:   -1.55 KCAL/MOL
REMARK 927      BINDING AFFINITY PREDICTED BY RF-SCORE:    0.00 PKD
ROOT
HETATM    1  O   UNL     1     -13.259  13.745  65.177  1.00  0.00    -0.757 OA 
HETATM    2  C   UNL     1     -12.498  12.816  64.550  1.00  0.00    -0.428 C  
HETATM    3  C   UNL     1     -11.480  12.128  65.453  1.00  0.00    -0.336 C  
HETATM    4  O   UNL     1     -12.607  12.580  63.358  1.00  0.00    -0.690 OA 
ENDROOT
BRANCH   3   5
HETATM    5  N   UNL     1     -11.529  12.611  66.829  1.00  0.00    -0.330 N  
HETATM    6  C   UNL     1     -11.352  11.768  67.906  1.00  0.00    -0.292 C  
HETATM    7  H   UNL     1     -11.698  13.603  67.000  1.00  0.00     0.000 HD 
HETATM    8  O   UNL     1     -11.186  10.559  67.778  1.00  0.00    -0.303 OA 
BRANCH   6   9
HETATM    9  C   UNL     1     -11.420  12.436  69.286  1.00  0.00    -0.288 C  
BRANCH   9  10
HETATM   10  N   UNL     1     -11.153  13.864  69.254  1.00  0.00    -0.331 N  
HETATM   11  H   UNL     1     -10.585  14.241  68.496  1.00  0.00     0.000 HD 
HETATM   12  C   UNL     1     -11.638  14.726  70.211  1.00  0.00    -0.282 C  
HETATM   13  O   UNL     1     -12.353  14.346  71.134  1.00  0.00    -0.317 OA 
BRANCH  12  14
HETATM   14  C   UNL     1     -11.215  16.191  70.037  1.00  0.00    -0.357 C  
BRANCH  14  15
HETATM   15  N   UNL     1     -10.910  16.538  68.652  1.00  0.00    -0.329 N  
HETATM   16  C   UNL     1     -10.265  17.718  68.341  1.00  0.00    -0.384 C  
HETATM   17  H   UNL     1     -11.178  15.898  67.903  1.00  0.00     0.000 HD 
HETATM   18  O   UNL     1     -10.048  18.586  69.182  1.00  0.00    -0.347 OA 
BRANCH  16  19
HETATM   19  C   UNL     1      -9.925  17.890  66.870  1.00  0.00    -0.335 C  
BRANCH  19  20
HETATM   20  S   UNL     1      -8.394  17.043  66.425  1.00  0.00    -0.281 SA 
BRANCH  20  21
HETATM   21  C   UNL     1      -8.836  15.384  66.801  1.00  0.00    -0.269 C  
HETATM   22  O   UNL     1      -9.841  14.870  66.318  1.00  0.00    -0.262 OA 
BRANCH  21  23
HETATM   23  C   UNL     1      -7.954  14.638  67.741  1.00  0.00    -0.166 A  
HETATM   24  C   UNL     1      -7.641  13.302  67.458  1.00  0.00    -0.169 A  
HETATM   25  C   UNL     1      -6.858  12.561  68.349  1.00  0.00    -0.085 A  
HETATM   26  C   UNL     1      -6.395  13.146  69.527  1.00  0.00    -0.103 A  
HETATM   27  C   UNL     1      -6.701  14.475  69.812  1.00  0.00    -0.150 A  
HETATM   28  C   UNL     1      -7.479  15.219  68.926  1.00  0.00    -0.147 A  
ENDBRANCH  21  23
ENDBRANCH  20  21
ENDBRANCH  19  20
ENDBRANCH  16  19
ENDBRANCH  14  15
ENDBRANCH  12  14
ENDBRANCH   9  10
ENDBRANCH   6   9
ENDBRANCH   3   5
TORSDOF 9
ENDMDL
MODEL      104
REMARK 921   NORMALIZED FREE ENERGY PREDICTED BY IDOCK:   -5.53 KCAL/MOL
REMARK 922        TOTAL FREE ENERGY PREDICTED BY IDOCK:   -9.27 KCAL/MOL
REMARK 923 INTER-LIGAND FREE ENERGY PREDICTED BY IDOCK:   -8.59 KCAL/MOL
REMARK 924 INTRA-LIGAND FREE ENERGY PREDICTED BY IDOCK:   -0.68 KCAL/MOL
REMARK 927      BINDING AFFINITY PREDICTED BY RF-SCORE:    0.00 PKD
ROOT
HETATM    1  O   UNL     1      -8.804   2.645  66.818  1.00  0.00    -0.117 OA 
HETATM    2  C   UNL     1      -9.224   3.292  65.704  1.00  0.00    -0.150 C  
HETATM    3  C   UNL     1     -10.080   4.523  65.981  1.00  0.00    -0.259 C  
HETATM    4  O   UNL     1      -8.959   2.896  64.581  1.00  0.00    -0.111 OA 
ENDROOT
BRANCH   3   5
HETATM    5  N   UNL     1     -10.278   4.764  67.406  1.00  0.00    -0.123 N  
HETATM    6  C   UNL     1     -10.828   5.936  67.880  1.00  0.00    -0.233 C  
HETATM    7  H   UNL     1     -10.001   4.043  68.073  1.00  0.00     0.000 HD 
HETATM    8  O   UNL     1     -11.145   6.863  67.140  1.00  0.00    -0.370 OA 
BRANCH   6   9
HETATM    9  C   UNL     1     -10.979   6.027  69.404  1.00  0.00    -0.385 C  
BRANCH   9  10
HETATM   10  N   UNL     1     -11.785   7.153  69.842  1.00  0.00    -0.558 N  
HETATM   11  H   UNL     1     -11.986   7.902  69.179  1.00  0.00     0.000 HD 
HETATM   12  C   UNL     1     -12.288   7.248  71.120  1.00  0.00    -0.345 C  
HETATM   13  O   UNL     1     -12.112   6.369  71.960  1.00  0.00    -0.335 OA 
BRANCH  12  14
HETATM   14  C   UNL     1     -13.079   8.530  71.412  1.00  0.00    -0.230 C  
BRANCH  14  15
HETATM   15  N   UNL     1     -12.656   9.662  70.593  1.00  0.00    -0.507 N  
HETATM   16  C   UNL     1     -12.717  10.953  71.079  1.00  0.00    -0.407 C  
HETATM   17  H   UNL     1     -12.310   9.497  69.647  1.00  0.00     0.000 HD 
HETATM   18  O   UNL     1     -13.254  11.223  72.150  1.00  0.00    -0.481 OA 
BRANCH  16  19
HETATM   19  C   UNL     1     -12.147  12.011  70.150  1.00  0.00    -0.298 C  
BRANCH  19  20
HETATM   20  S   UNL     1     -11.373  11.285  68.690  1.00  0.00    -0.303 SA 
BRANCH  20  21
HETATM   21  C   UNL     1     -11.680  12.553  67.512  1.00  0.00    -0.374 C  
HETATM   22  O   UNL     1     -12.070  13.664  67.863  1.00  0.00    -0.357 OA 
BRANCH  21  23
HETATM   23  C   UNL     1     -11.466  12.220  66.077  1.00  0.00    -0.434 A  
HETATM   24  C   UNL     1     -10.587  11.180  65.748  1.00  0.00    -0.289 A  
HETATM   25  C   UNL     1     -10.326  10.880  64.408  1.00  0.00    -0.430 A  
HETATM   26  C   UNL     1     -10.931  11.620  63.393  1.00  0.00    -0.442 A  
HETATM   27  C   UNL     1     -11.808  12.654  63.714  1.00  0.00    -0.574 A  
HETATM   28  C   UNL     1     -12.075  12.956  65.050  1.00  0.00    -0.480 A  
ENDBRANCH  21  23
ENDBRANCH  20  21
ENDBRANCH  19  20
ENDBRANCH  16  19
ENDBRANCH  14  15
ENDBRANCH  12  14
ENDBRANCH   9  10
ENDBRANCH   6   9
ENDBRANCH   3   5
TORSDOF 9
ENDMDL
MODEL      105
REMARK 921   NORMALIZED FREE ENERGY PREDICTED BY IDOCK:   -5.52 KCAL/MOL
REMARK 922        TOTAL FREE ENERGY PREDICTED BY IDOCK:   -9.26 KCAL/MOL
REMARK 923 INTER-LIGAND FREE ENERGY PREDICTED BY IDOCK:   -7.91 KCAL/MOL
REMARK 924 INTRA-LIGAND FREE ENERGY PREDICTED BY IDOCK:   -1.35 KCAL/MOL
REMARK 927      BINDING AFFINITY PREDICTED BY RF-SCORE:    0.00 PKD
ROOT
HETATM    1  O   UNL     1      -9.987  17.070  68.486  1.00  0.00    -0.262 OA 
HETATM    2  C   UNL     1      -9.529  17.997  67.611  1.00  0.00    -0.264 C  
HETATM    3  C   UNL     1      -9.708  17.615  66.146  1.00  0.00    -0.213 C  
HETATM    4  O   UNL     1      -8.995  19.032  67.976  1.00  0.00    -0.292 OA 
ENDROOT
BRANCH   3   5
HETATM    5  N   UNL     1     -10.344  16.314  65.975  1.00  0.00    -0.335 N  
HETATM    6  C   UNL     1     -11.113  16.015  64.869  1.00  0.00    -0.370 C  
HETATM    7  H   UNL     1     -10.216  15.602  66.695  1.00  0.00     0.000 HD 
HETATM    8  O   UNL     1     -11.343  16.835  63.985  1.00  0.00    -1.153 OA 
BRANCH   6   9
HETATM    9  C   UNL     1     -11.701  14.599  64.836  1.00  0.00    -0.403 C  
BRANCH   9  10
HETATM   10  N   UNL     1     -10.811  13.614  64.247  1.00  0.00    -0.568 N  
HETATM   11  H   UNL     1      -9.855  13.887  64.021  1.00  0.00     0.000 HD 
HETATM   12  C   UNL     1     -11.211  12.323  63.980  1.00  0.00    -0.392 C  
HETATM   13  O   UNL     1     -12.337  11.917  64.254  1.00  0.00    -0.303 OA 
BRANCH  12  14
HETATM   14  C   UNL     1     -10.147  11.439  63.316  1.00  0.00    -0.387 C  
BRANCH  14  15
HETATM   15  N   UNL     1      -9.994  10.141  63.967  1.00  0.00    -0.473 N  
HETATM   16  C   UNL     1      -8.749   9.674  64.334  1.00  0.00    -0.205 C  
HETATM   17  H   UNL     1     -10.820   9.572  64.154  1.00  0.00     0.000 HD 
HETATM   18  O   UNL     1      -7.713  10.248  64.008  1.00  0.00    -0.151 OA 
BRANCH  16  19
HETATM   19  C   UNL     1      -8.760   8.357  65.093  1.00  0.00    -0.083 C  
BRANCH  19  20
HETATM   20  S   UNL     1      -9.761   8.449  66.592  1.00  0.00    -0.267 SA 
BRANCH  20  21
HETATM   21  C   UNL     1      -8.886   9.693  67.474  1.00  0.00    -0.125 C  
HETATM   22  O   UNL     1      -7.757   9.486  67.911  1.00  0.00    -0.087 OA 
BRANCH  21  23
HETATM   23  C   UNL     1      -9.577  10.995  67.684  1.00  0.00    -0.181 A  
HETATM   24  C   UNL     1      -8.804  12.139  67.925  1.00  0.00    -0.177 A  
HETATM   25  C   UNL     1      -9.427  13.365  68.178  1.00  0.00    -0.218 A  
HETATM   26  C   UNL     1     -10.818  13.452  68.202  1.00  0.00    -0.273 A  
HETATM   27  C   UNL     1     -11.591  12.319  67.960  1.00  0.00    -0.408 A  
HETATM   28  C   UNL     1     -10.976  11.094  67.704  1.00  0.00    -0.323 A  
ENDBRANCH  21  23
ENDBRANCH  20  21
ENDBRANCH  19  20
ENDBRANCH  16  19
ENDBRANCH  14  15
ENDBRANCH  12  14
ENDBRANCH   9  10
ENDBRANCH   6   9
ENDBRANCH   3   5
TORSDOF 9
ENDMDL
MODEL      106
REMARK 921   NORMALIZED FREE ENERGY PREDICTED BY IDOCK:   -5.49 KCAL/MOL
REMARK 922        TOTAL FREE ENERGY PREDICTED BY IDOCK:   -9.23 KCAL/MOL
REMARK 923 INTER-LIGAND FREE ENERGY PREDICTED BY IDOCK:   -8.52 KCAL/MOL
REMARK 924 INTRA-LIGAND FREE ENERGY PREDICTED BY IDOCK:   -0.71 KCAL/MOL
REMARK 927      BINDING AFFINITY PREDICTED BY RF-SCORE:    0.00 PKD
ROOT
HETATM    1  O   UNL     1     -13.159  12.839  65.001  1.00  0.00    -0.811 OA 
HETATM    2  C   UNL     1     -12.036  12.167  64.652  1.00  0.00    -0.323 C  
HETATM    3  C   UNL     1     -11.058  11.944  65.801  1.00  0.00    -0.317 C  
HETATM    4  O   UNL     1     -11.822  11.803  63.508  1.00  0.00    -0.465 OA 
ENDROOT
BRANCH   3   5
HETATM    5  N   UNL     1     -11.532  12.503  67.063  1.00  0.00    -0.334 N  
HETATM    6  C   UNL     1     -10.779  13.397  67.794  1.00  0.00    -0.248 C  
HETATM    7  H   UNL     1     -12.448  12.224  67.414  1.00  0.00     0.000 HD 
HETATM    8  O   UNL     1      -9.652  13.744  67.454  1.00  0.00    -0.218 OA 
BRANCH   6   9
HETATM    9  C   UNL     1     -11.426  13.899  69.092  1.00  0.00    -0.299 C  
BRANCH   9  10
HETATM   10  N   UNL     1     -11.894  12.831  69.959  1.00  0.00    -0.479 N  
HETATM   11  H   UNL     1     -11.593  11.876  69.768  1.00  0.00     0.000 HD 
HETATM   12  C   UNL     1     -12.729  13.062  71.029  1.00  0.00    -0.262 C  
HETATM   13  O   UNL     1     -13.106  14.190  71.335  1.00  0.00    -0.329 OA 
BRANCH  12  14
HETATM   14  C   UNL     1     -13.153  11.806  71.803  1.00  0.00    -0.375 C  
BRANCH  14  15
HETATM   15  N   UNL     1     -12.206  10.703  71.665  1.00  0.00    -0.244 N  
HETATM   16  C   UNL     1     -12.564   9.414  72.006  1.00  0.00    -0.384 C  
HETATM   17  H   UNL     1     -11.267  10.888  71.312  1.00  0.00     0.000 HD 
HETATM   18  O   UNL     1     -13.627   9.157  72.566  1.00  0.00    -0.470 OA 
BRANCH  16  19
HETATM   19  C   UNL     1     -11.510   8.361  71.711  1.00  0.00    -0.301 C  
BRANCH  19  20
HETATM   20  S   UNL     1     -12.245   6.783  71.232  1.00  0.00    -0.327 SA 
BRANCH  20  21
HETATM   21  C   UNL     1     -10.795   5.871  70.836  1.00  0.00    -0.279 C  
HETATM   22  O   UNL     1     -10.016   5.507  71.713  1.00  0.00    -0.170 OA 
BRANCH  21  23
HETATM   23  C   UNL     1     -10.543   5.578  69.399  1.00  0.00    -0.349 A  
HETATM   24  C   UNL     1     -11.142   6.392  68.428  1.00  0.00    -0.374 A  
HETATM   25  C   UNL     1     -10.966   6.108  67.070  1.00  0.00    -0.414 A  
HETATM   26  C   UNL     1     -10.204   5.009  66.677  1.00  0.00    -0.299 A  
HETATM   27  C   UNL     1      -9.604   4.198  67.638  1.00  0.00    -0.213 A  
HETATM   28  C   UNL     1      -9.773   4.478  68.994  1.00  0.00    -0.235 A  
ENDBRANCH  21  23
ENDBRANCH  20  21
ENDBRANCH  19  20
ENDBRANCH  16  19
ENDBRANCH  14  15
ENDBRANCH  12  14
ENDBRANCH   9  10
ENDBRANCH   6   9
ENDBRANCH   3   5
TORSDOF 9
ENDMDL
MODEL      107
REMARK 921   NORMALIZED FREE ENERGY PREDICTED BY IDOCK:   -5.49 KCAL/MOL
REMARK 922        TOTAL FREE ENERGY PREDICTED BY IDOCK:   -9.22 KCAL/MOL
REMARK 923 INTER-LIGAND FREE ENERGY PREDICTED BY IDOCK:   -8.11 KCAL/MOL
REMARK 924 INTRA-LIGAND FREE ENERGY PREDICTED BY IDOCK:   -1.11 KCAL/MOL
REMARK 927      BINDING AFFINITY PREDICTED BY RF-SCORE:    0.00 PKD
ROOT
HETATM    1  O   UNL     1     -12.576   9.562  70.811  1.00  0.00    -0.215 OA 
HETATM    2  C   UNL     1     -12.751   8.671  71.816  1.00  0.00    -0.359 C  
HETATM    3  C   UNL     1     -12.466   7.225  71.425  1.00  0.00    -0.383 C  
HETATM    4  O   UNL     1     -13.132   9.004  72.926  1.00  0.00    -0.334 OA 
ENDROOT
BRANCH   3   5
HETATM    5  N   UNL     1     -12.057   7.087  70.031  1.00  0.00    -0.606 N  
HETATM    6  C   UNL     1     -11.150   6.129  69.628  1.00  0.00    -0.419 C  
HETATM    7  H   UNL     1     -12.453   7.717  69.334  1.00  0.00     0.000 HD 
HETATM    8  O   UNL     1     -10.602   5.365  70.416  1.00  0.00    -0.280 OA 
BRANCH   6   9
HETATM    9  C   UNL     1     -10.835   6.109  68.126  1.00  0.00    -0.306 C  
BRANCH   9  10
HETATM   10  N   UNL     1     -10.991   7.402  67.482  1.00  0.00    -0.537 N  
HETATM   11  H   UNL     1     -11.930   7.778  67.356  1.00  0.00     0.000 HD 
HETATM   12  C   UNL     1      -9.917   8.139  67.036  1.00  0.00    -0.259 C  
HETATM   13  O   UNL     1      -8.757   7.763  67.184  1.00  0.00    -0.122 OA 
BRANCH  12  14
HETATM   14  C   UNL     1     -10.280   9.459  66.342  1.00  0.00    -0.230 C  
BRANCH  14  15
HETATM   15  N   UNL     1     -10.768  10.477  67.269  1.00  0.00    -0.269 N  
HETATM   16  C   UNL     1      -9.890  11.302  67.942  1.00  0.00    -0.176 C  
HETATM   17  H   UNL     1     -11.771  10.580  67.420  1.00  0.00     0.000 HD 
HETATM   18  O   UNL     1      -8.674  11.131  67.907  1.00  0.00    -0.129 OA 
BRANCH  16  19
HETATM   19  C   UNL     1     -10.549  12.378  68.789  1.00  0.00    -0.183 C  
BRANCH  19  20
HETATM   20  S   UNL     1      -9.910  14.024  68.410  1.00  0.00    -0.227 SA 
BRANCH  20  21
HETATM   21  C   UNL     1     -11.131  14.575  67.271  1.00  0.00    -0.312 C  
HETATM   22  O   UNL     1     -11.851  15.536  67.529  1.00  0.00    -0.127 OA 
BRANCH  21  23
HETATM   23  C   UNL     1     -11.265  13.821  65.994  1.00  0.00    -0.307 A  
HETATM   24  C   UNL     1     -12.511  13.275  65.659  1.00  0.00    -0.510 A  
HETATM   25  C   UNL     1     -12.653  12.517  64.493  1.00  0.00    -0.503 A  
HETATM   26  C   UNL     1     -11.553  12.292  63.665  1.00  0.00    -0.581 A  
HETATM   27  C   UNL     1     -10.313  12.834  63.993  1.00  0.00    -0.392 A  
HETATM   28  C   UNL     1     -10.165  13.594  65.153  1.00  0.00    -0.349 A  
ENDBRANCH  21  23
ENDBRANCH  20  21
ENDBRANCH  19  20
ENDBRANCH  16  19
ENDBRANCH  14  15
ENDBRANCH  12  14
ENDBRANCH   9  10
ENDBRANCH   6   9
ENDBRANCH   3   5
TORSDOF 9
ENDMDL
MODEL      108
REMARK 921   NORMALIZED FREE ENERGY PREDICTED BY IDOCK:   -5.49 KCAL/MOL
REMARK 922        TOTAL FREE ENERGY PREDICTED BY IDOCK:   -9.22 KCAL/MOL
REMARK 923 INTER-LIGAND FREE ENERGY PREDICTED BY IDOCK:   -8.56 KCAL/MOL
REMARK 924 INTRA-LIGAND FREE ENERGY PREDICTED BY IDOCK:   -0.66 KCAL/MOL
REMARK 927      BINDING AFFINITY PREDICTED BY RF-SCORE:    0.00 PKD
ROOT
HETATM    1  O   UNL     1      -9.138   4.627  67.553  1.00  0.00    -0.113 OA 
HETATM    2  C   UNL     1      -9.923   4.571  66.451  1.00  0.00    -0.245 C  
HETATM    3  C   UNL     1     -11.001   5.648  66.397  1.00  0.00    -0.006 C  
HETATM    4  O   UNL     1      -9.788   3.711  65.596  1.00  0.00    -0.144 OA 
ENDROOT
BRANCH   3   5
HETATM    5  N   UNL     1     -10.973   6.535  67.555  1.00  0.00    -0.422 N  
HETATM    6  C   UNL     1     -10.512   7.832  67.471  1.00  0.00    -0.268 C  
HETATM    7  H   UNL     1     -11.304   6.185  68.454  1.00  0.00     0.000 HD 
HETATM    8  O   UNL     1     -10.061   8.306  66.433  1.00  0.00    -0.256 OA 
BRANCH   6   9
HETATM    9  C   UNL     1     -10.559   8.635  68.777  1.00  0.00    -0.140 C  
BRANCH   9  10
HETATM   10  N   UNL     1     -11.123   9.965  68.621  1.00  0.00    -0.433 N  
HETATM   11  H   UNL     1     -11.322  10.308  67.681  1.00  0.00     0.000 HD 
HETATM   12  C   UNL     1     -11.398  10.781  69.695  1.00  0.00    -0.294 C  
HETATM   13  O   UNL     1     -11.213  10.422  70.855  1.00  0.00    -0.311 OA 
BRANCH  12  14
HETATM   14  C   UNL     1     -11.949  12.167  69.333  1.00  0.00    -0.270 C  
BRANCH  14  15
HETATM   15  N   UNL     1     -11.806  12.486  67.915  1.00  0.00    -0.354 N  
HETATM   16  C   UNL     1     -11.918  13.786  67.466  1.00  0.00    -0.376 C  
HETATM   17  H   UNL     1     -11.622  11.737  67.247  1.00  0.00     0.000 HD 
HETATM   18  O   UNL     1     -12.279  14.703  68.200  1.00  0.00    -0.216 OA 
BRANCH  16  19
HETATM   19  C   UNL     1     -11.644  13.974  65.983  1.00  0.00    -0.357 C  
BRANCH  19  20
HETATM   20  S   UNL     1     -10.108  14.876  65.688  1.00  0.00    -0.375 SA 
BRANCH  20  21
HETATM   21  C   UNL     1     -10.751  16.464  65.292  1.00  0.00    -0.295 C  
HETATM   22  O   UNL     1     -11.382  16.652  64.256  1.00  0.00    -1.116 OA 
BRANCH  21  23
HETATM   23  C   UNL     1     -10.483  17.568  66.254  1.00  0.00    -0.283 A  
HETATM   24  C   UNL     1     -10.101  17.248  67.563  1.00  0.00    -0.315 A  
HETATM   25  C   UNL     1      -9.894  18.263  68.502  1.00  0.00    -0.400 A  
HETATM   26  C   UNL     1     -10.078  19.597  68.142  1.00  0.00    -0.556 A  
HETATM   27  C   UNL     1     -10.455  19.922  66.841  1.00  0.00    -0.577 A  
HETATM   28  C   UNL     1     -10.660  18.914  65.899  1.00  0.00    -0.438 A  
ENDBRANCH  21  23
ENDBRANCH  20  21
ENDBRANCH  19  20
ENDBRANCH  16  19
ENDBRANCH  14  15
ENDBRANCH  12  14
ENDBRANCH   9  10
ENDBRANCH   6   9
ENDBRANCH   3   5
TORSDOF 9
ENDMDL
MODEL      109
REMARK 921   NORMALIZED FREE ENERGY PREDICTED BY IDOCK:   -5.48 KCAL/MOL
REMARK 922        TOTAL FREE ENERGY PREDICTED BY IDOCK:   -9.21 KCAL/MOL
REMARK 923 INTER-LIGAND FREE ENERGY PREDICTED BY IDOCK:   -8.40 KCAL/MOL
REMARK 924 INTRA-LIGAND FREE ENERGY PREDICTED BY IDOCK:   -0.81 KCAL/MOL
REMARK 927      BINDING AFFINITY PREDICTED BY RF-SCORE:    0.00 PKD
ROOT
HETATM    1  O   UNL     1     -11.831  11.842  66.995  1.00  0.00    -0.599 OA 
HETATM    2  C   UNL     1     -11.763  12.752  65.995  1.00  0.00    -0.418 C  
HETATM    3  C   UNL     1     -12.026  14.187  66.436  1.00  0.00    -0.436 C  
HETATM    4  O   UNL     1     -11.539  12.435  64.838  1.00  0.00    -0.321 OA 
ENDROOT
BRANCH   3   5
HETATM    5  N   UNL     1     -12.300  14.297  67.865  1.00  0.00    -0.570 N  
HETATM    6  C   UNL     1     -11.777  15.316  68.633  1.00  0.00    -0.346 C  
HETATM    7  H   UNL     1     -12.898  13.600  68.309  1.00  0.00     0.000 HD 
HETATM    8  O   UNL     1     -11.018  16.164  68.176  1.00  0.00    -0.320 OA 
BRANCH   6   9
HETATM    9  C   UNL     1     -12.172  15.294  70.116  1.00  0.00    -0.364 C  
BRANCH   9  10
HETATM   10  N   UNL     1     -12.629  13.995  70.577  1.00  0.00    -0.341 N  
HETATM   11  H   UNL     1     -12.535  13.192  69.956  1.00  0.00     0.000 HD 
HETATM   12  C   UNL     1     -13.185  13.807  71.822  1.00  0.00    -0.386 C  
HETATM   13  O   UNL     1     -13.300  14.723  72.633  1.00  0.00    -0.395 OA 
BRANCH  12  14
HETATM   14  C   UNL     1     -13.649  12.374  72.116  1.00  0.00    -0.306 C  
BRANCH  14  15
HETATM   15  N   UNL     1     -12.606  11.378  71.890  1.00  0.00    -0.145 N  
HETATM   16  C   UNL     1     -12.460  10.770  70.659  1.00  0.00    -0.370 C  
HETATM   17  H   UNL     1     -11.976  11.127  72.653  1.00  0.00     0.000 HD 
HETATM   18  O   UNL     1     -13.274  10.926  69.752  1.00  0.00     0.031 OA 
BRANCH  16  19
HETATM   19  C   UNL     1     -11.269   9.833  70.548  1.00  0.00    -0.315 C  
BRANCH  19  20
HETATM   20  S   UNL     1     -11.198   8.662  71.921  1.00  0.00    -0.365 SA 
BRANCH  20  21
HETATM   21  C   UNL     1     -12.046   7.297  71.208  1.00  0.00    -0.338 C  
HETATM   22  O   UNL     1     -13.271   7.222  71.244  1.00  0.00    -0.372 OA 
BRANCH  21  23
HETATM   23  C   UNL     1     -11.218   6.232  70.578  1.00  0.00    -0.420 A  
HETATM   24  C   UNL     1     -11.103   6.201  69.182  1.00  0.00    -0.448 A  
HETATM   25  C   UNL     1     -10.376   5.182  68.561  1.00  0.00    -0.140 A  
HETATM   26  C   UNL     1      -9.771   4.186  69.327  1.00  0.00    -0.219 A  
HETATM   27  C   UNL     1      -9.880   4.213  70.715  1.00  0.00    -0.248 A  
HETATM   28  C   UNL     1     -10.601   5.229  71.341  1.00  0.00    -0.247 A  
ENDBRANCH  21  23
ENDBRANCH  20  21
ENDBRANCH  19  20
ENDBRANCH  16  19
ENDBRANCH  14  15
ENDBRANCH  12  14
ENDBRANCH   9  10
ENDBRANCH   6   9
ENDBRANCH   3   5
TORSDOF 9
ENDMDL
MODEL      110
REMARK 921   NORMALIZED FREE ENERGY PREDICTED BY IDOCK:   -5.48 KCAL/MOL
REMARK 922        TOTAL FREE ENERGY PREDICTED BY IDOCK:   -9.21 KCAL/MOL
REMARK 923 INTER-LIGAND FREE ENERGY PREDICTED BY IDOCK:   -8.19 KCAL/MOL
REMARK 924 INTRA-LIGAND FREE ENERGY PREDICTED BY IDOCK:   -1.01 KCAL/MOL
REMARK 927      BINDING AFFINITY PREDICTED BY RF-SCORE:    0.00 PKD
ROOT
HETATM    1  O   UNL     1     -12.340  12.831  65.357  1.00  0.00    -0.469 OA 
HETATM    2  C   UNL     1     -12.127  12.929  64.023  1.00  0.00    -0.455 C  
HETATM    3  C   UNL     1     -11.166  11.885  63.465  1.00  0.00    -0.418 C  
HETATM    4  O   UNL     1     -12.643  13.800  63.341  1.00  0.00    -0.842 OA 
ENDROOT
BRANCH   3   5
HETATM    5  N   UNL     1     -10.661  10.977  64.489  1.00  0.00    -0.317 N  
HETATM    6  C   UNL     1      -9.612  10.115  64.250  1.00  0.00    -0.290 C  
HETATM    7  H   UNL     1     -11.098  10.979  65.412  1.00  0.00     0.000 HD 
HETATM    8  O   UNL     1      -9.066  10.028  63.154  1.00  0.00    -0.237 OA 
BRANCH   6   9
HETATM    9  C   UNL     1      -9.195   9.235  65.436  1.00  0.00    -0.222 C  
BRANCH   9  10
HETATM   10  N   UNL     1      -8.914   9.987  66.646  1.00  0.00    -0.138 N  
HETATM   11  H   UNL     1      -7.961  10.309  66.815  1.00  0.00     0.000 HD 
HETATM   12  C   UNL     1      -9.886  10.281  67.576  1.00  0.00    -0.173 C  
HETATM   13  O   UNL     1     -11.060   9.952  67.423  1.00  0.00    -0.234 OA 
BRANCH  12  14
HETATM   14  C   UNL     1      -9.392  11.045  68.812  1.00  0.00    -0.179 C  
BRANCH  14  15
HETATM   15  N   UNL     1      -9.656  12.479  68.741  1.00  0.00    -0.410 N  
HETATM   16  C   UNL     1      -8.983  13.281  67.843  1.00  0.00    -0.199 C  
HETATM   17  H   UNL     1     -10.349  12.893  69.366  1.00  0.00     0.000 HD 
HETATM   18  O   UNL     1      -8.044  12.865  67.170  1.00  0.00    -0.173 OA 
BRANCH  16  19
HETATM   19  C   UNL     1      -9.440  14.730  67.816  1.00  0.00    -0.204 C  
BRANCH  19  20
HETATM   20  S   UNL     1      -9.318  15.448  66.163  1.00  0.00    -0.327 SA 
BRANCH  20  21
HETATM   21  C   UNL     1      -8.097  16.680  66.449  1.00  0.00    -0.324 C  
HETATM   22  O   UNL     1      -6.902  16.398  66.459  1.00  0.00    -0.213 OA 
BRANCH  21  23
HETATM   23  C   UNL     1      -8.573  18.069  66.694  1.00  0.00    -0.281 A  
HETATM   24  C   UNL     1      -9.920  18.374  66.461  1.00  0.00    -0.392 A  
HETATM   25  C   UNL     1     -10.383  19.682  66.632  1.00  0.00    -0.598 A  
HETATM   26  C   UNL     1      -9.504  20.691  67.024  1.00  0.00    -0.461 A  
HETATM   27  C   UNL     1      -8.163  20.393  67.259  1.00  0.00    -0.390 A  
HETATM   28  C   UNL     1      -7.696  19.089  67.094  1.00  0.00    -0.249 A  
ENDBRANCH  21  23
ENDBRANCH  20  21
ENDBRANCH  19  20
ENDBRANCH  16  19
ENDBRANCH  14  15
ENDBRANCH  12  14
ENDBRANCH   9  10
ENDBRANCH   6   9
ENDBRANCH   3   5
TORSDOF 9
ENDMDL
MODEL      111
REMARK 921   NORMALIZED FREE ENERGY PREDICTED BY IDOCK:   -5.48 KCAL/MOL
REMARK 922        TOTAL FREE ENERGY PREDICTED BY IDOCK:   -9.20 KCAL/MOL
REMARK 923 INTER-LIGAND FREE ENERGY PREDICTED BY IDOCK:   -8.44 KCAL/MOL
REMARK 924 INTRA-LIGAND FREE ENERGY PREDICTED BY IDOCK:   -0.77 KCAL/MOL
REMARK 927      BINDING AFFINITY PREDICTED BY RF-SCORE:    0.00 PKD
ROOT
HETATM    1  O   UNL     1     -10.214   7.589  66.777  1.00  0.00    -0.263 OA 
HETATM    2  C   UNL     1      -8.950   7.461  66.308  1.00  0.00    -0.162 C  
HETATM    3  C   UNL     1      -8.548   8.529  65.296  1.00  0.00    -0.165 C  
HETATM    4  O   UNL     1      -8.216   6.549  66.649  1.00  0.00    -0.108 OA 
ENDROOT
BRANCH   3   5
HETATM    5  N   UNL     1      -9.615   9.488  65.033  1.00  0.00    -0.443 N  
HETATM    6  C   UNL     1      -9.526  10.422  64.022  1.00  0.00    -0.299 C  
HETATM    7  H   UNL     1     -10.454   9.468  65.614  1.00  0.00     0.000 HD 
HETATM    8  O   UNL     1      -8.532  10.532  63.311  1.00  0.00    -0.168 OA 
BRANCH   6   9
HETATM    9  C   UNL     1     -10.739  11.348  63.870  1.00  0.00    -0.397 C  
BRANCH   9  10
HETATM   10  N   UNL     1     -10.457  12.734  64.201  1.00  0.00    -0.408 N  
HETATM   11  H   UNL     1      -9.485  13.037  64.260  1.00  0.00     0.000 HD 
HETATM   12  C   UNL     1     -11.453  13.654  64.438  1.00  0.00    -0.386 C  
HETATM   13  O   UNL     1     -12.644  13.367  64.353  1.00  0.00    -0.612 OA 
BRANCH  12  14
HETATM   14  C   UNL     1     -10.963  15.058  64.817  1.00  0.00    -0.373 C  
BRANCH  14  15
HETATM   15  N   UNL     1     -10.997  15.307  66.255  1.00  0.00    -0.320 N  
HETATM   16  C   UNL     1      -9.949  14.921  67.067  1.00  0.00    -0.240 C  
HETATM   17  H   UNL     1     -11.806  15.774  66.666  1.00  0.00     0.000 HD 
HETATM   18  O   UNL     1      -9.020  14.233  66.652  1.00  0.00    -0.245 OA 
BRANCH  16  19
HETATM   19  C   UNL     1     -10.083  15.340  68.522  1.00  0.00    -0.222 C  
BRANCH  19  20
HETATM   20  S   UNL     1     -11.783  15.772  68.948  1.00  0.00    -0.339 SA 
BRANCH  20  21
HETATM   21  C   UNL     1     -11.813  15.286  70.638  1.00  0.00    -0.335 C  
HETATM   22  O   UNL     1     -11.506  16.072  71.529  1.00  0.00    -0.416 OA 
BRANCH  21  23
HETATM   23  C   UNL     1     -12.206  13.881  70.938  1.00  0.00    -0.436 A  
HETATM   24  C   UNL     1     -11.705  12.851  70.131  1.00  0.00    -0.234 A  
HETATM   25  C   UNL     1     -12.100  11.529  70.357  1.00  0.00    -0.471 A  
HETATM   26  C   UNL     1     -13.001  11.232  71.378  1.00  0.00    -0.482 A  
HETATM   27  C   UNL     1     -13.500  12.252  72.185  1.00  0.00    -0.431 A  
HETATM   28  C   UNL     1     -13.108  13.572  71.967  1.00  0.00    -0.481 A  
ENDBRANCH  21  23
ENDBRANCH  20  21
ENDBRANCH  19  20
ENDBRANCH  16  19
ENDBRANCH  14  15
ENDBRANCH  12  14
ENDBRANCH   9  10
ENDBRANCH   6   9
ENDBRANCH   3   5
TORSDOF 9
ENDMDL
MODEL      112
REMARK 921   NORMALIZED FREE ENERGY PREDICTED BY IDOCK:   -5.48 KCAL/MOL
REMARK 922        TOTAL FREE ENERGY PREDICTED BY IDOCK:   -9.20 KCAL/MOL
REMARK 923 INTER-LIGAND FREE ENERGY PREDICTED BY IDOCK:   -7.96 KCAL/MOL
REMARK 924 INTRA-LIGAND FREE ENERGY PREDICTED BY IDOCK:   -1.24 KCAL/MOL
REMARK 927      BINDING AFFINITY PREDICTED BY RF-SCORE:    0.00 PKD
ROOT
HETATM    1  O   UNL     1     -12.945   7.819  71.891  1.00  0.00    -0.314 OA 
HETATM    2  C   UNL     1     -12.060   6.810  71.706  1.00  0.00    -0.350 C  
HETATM    3  C   UNL     1     -11.145   6.996  70.501  1.00  0.00    -0.280 C  
HETATM    4  O   UNL     1     -12.028   5.829  72.430  1.00  0.00    -0.275 OA 
ENDROOT
BRANCH   3   5
HETATM    5  N   UNL     1     -11.405   8.237  69.779  1.00  0.00    -0.449 N  
HETATM    6  C   UNL     1     -10.707   9.396  70.044  1.00  0.00    -0.239 C  
HETATM    7  H   UNL     1     -12.125   8.247  69.056  1.00  0.00     0.000 HD 
HETATM    8  O   UNL     1      -9.858   9.469  70.926  1.00  0.00    -0.275 OA 
BRANCH   6   9
HETATM    9  C   UNL     1     -11.094  10.610  69.189  1.00  0.00    -0.255 C  
BRANCH   9  10
HETATM   10  N   UNL     1     -10.378  10.684  67.927  1.00  0.00    -0.189 N  
HETATM   11  H   UNL     1     -10.761  10.201  67.115  1.00  0.00     0.000 HD 
HETATM   12  C   UNL     1      -9.200  11.383  67.788  1.00  0.00    -0.159 C  
HETATM   13  O   UNL     1      -8.698  12.014  68.715  1.00  0.00    -0.058 OA 
BRANCH  12  14
HETATM   14  C   UNL     1      -8.565  11.312  66.392  1.00  0.00    -0.174 C  
BRANCH  14  15
HETATM   15  N   UNL     1      -9.378  11.949  65.361  1.00  0.00    -0.420 N  
HETATM   16  C   UNL     1      -9.960  11.205  64.355  1.00  0.00    -0.301 C  
HETATM   17  H   UNL     1      -9.518  12.960  65.384  1.00  0.00     0.000 HD 
HETATM   18  O   UNL     1      -9.711  10.013  64.196  1.00  0.00    -0.282 OA 
BRANCH  16  19
HETATM   19  C   UNL     1     -10.860  11.993  63.417  1.00  0.00    -0.405 C  
BRANCH  19  20
HETATM   20  S   UNL     1     -12.464  12.353  64.163  1.00  0.00    -0.401 SA 
BRANCH  20  21
HETATM   21  C   UNL     1     -12.280  14.072  64.481  1.00  0.00    -0.434 C  
HETATM   22  O   UNL     1     -12.569  14.909  63.630  1.00  0.00    -0.724 OA 
BRANCH  21  23
HETATM   23  C   UNL     1     -11.746  14.467  65.813  1.00  0.00    -0.362 A  
HETATM   24  C   UNL     1     -10.742  15.443  65.877  1.00  0.00    -0.343 A  
HETATM   25  C   UNL     1     -10.185  15.794  67.110  1.00  0.00    -0.279 A  
HETATM   26  C   UNL     1     -10.617  15.169  68.279  1.00  0.00    -0.243 A  
HETATM   27  C   UNL     1     -11.616  14.200  68.221  1.00  0.00    -0.356 A  
HETATM   28  C   UNL     1     -12.179  13.847  66.995  1.00  0.00    -0.392 A  
ENDBRANCH  21  23
ENDBRANCH  20  21
ENDBRANCH  19  20
ENDBRANCH  16  19
ENDBRANCH  14  15
ENDBRANCH  12  14
ENDBRANCH   9  10
ENDBRANCH   6   9
ENDBRANCH   3   5
TORSDOF 9
ENDMDL
MODEL      113
REMARK 921   NORMALIZED FREE ENERGY PREDICTED BY IDOCK:   -5.47 KCAL/MOL
REMARK 922        TOTAL FREE ENERGY PREDICTED BY IDOCK:   -9.18 KCAL/MOL
REMARK 923 INTER-LIGAND FREE ENERGY PREDICTED BY IDOCK:   -8.08 KCAL/MOL
REMARK 924 INTRA-LIGAND FREE ENERGY PREDICTED BY IDOCK:   -1.11 KCAL/MOL
REMARK 927      BINDING AFFINITY PREDICTED BY RF-SCORE:    0.00 PKD
ROOT
HETATM    1  O   UNL     1      -9.732   5.917  72.165  1.00  0.00    -0.156 OA 
HETATM    2  C   UNL     1     -10.739   5.076  72.500  1.00  0.00    -0.212 C  
HETATM    3  C   UNL     1     -12.096   5.756  72.650  1.00  0.00     0.007 C  
HETATM    4  O   UNL     1     -10.559   3.885  72.693  1.00  0.00    -0.164 OA 
ENDROOT
BRANCH   3   5
HETATM    5  N   UNL     1     -12.040   7.191  72.399  1.00  0.00    -0.488 N  
HETATM    6  C   UNL     1     -13.072   7.866  71.780  1.00  0.00    -0.325 C  
HETATM    7  H   UNL     1     -11.212   7.713  72.689  1.00  0.00     0.000 HD 
HETATM    8  O   UNL     1     -14.078   7.298  71.368  1.00  0.00    -0.413 OA 
BRANCH   6   9
HETATM    9  C   UNL     1     -12.860   9.375  71.601  1.00  0.00    -0.378 C  
BRANCH   9  10
HETATM   10  N   UNL     1     -12.060   9.716  70.438  1.00  0.00    -0.459 N  
HETATM   11  H   UNL     1     -12.534  10.000  69.581  1.00  0.00     0.000 HD 
HETATM   12  C   UNL     1     -10.684   9.669  70.449  1.00  0.00    -0.298 C  
HETATM   13  O   UNL     1     -10.047   9.366  71.455  1.00  0.00    -0.301 OA 
BRANCH  12  14
HETATM   14  C   UNL     1     -10.012  10.021  69.115  1.00  0.00    -0.204 C  
BRANCH  14  15
HETATM   15  N   UNL     1      -9.751  11.449  68.965  1.00  0.00    -0.408 N  
HETATM   16  C   UNL     1     -10.736  12.307  68.518  1.00  0.00    -0.237 C  
HETATM   17  H   UNL     1      -8.828  11.819  69.193  1.00  0.00     0.000 HD 
HETATM   18  O   UNL     1     -11.815  11.901  68.095  1.00  0.00    -0.424 OA 
BRANCH  16  19
HETATM   19  C   UNL     1     -10.347  13.776  68.512  1.00  0.00    -0.244 C  
BRANCH  19  20
HETATM   20  S   UNL     1     -11.684  14.829  67.909  1.00  0.00    -0.304 SA 
BRANCH  20  21
HETATM   21  C   UNL     1     -11.164  15.072  66.248  1.00  0.00    -0.309 C  
HETATM   22  O   UNL     1     -10.729  16.157  65.872  1.00  0.00    -0.314 OA 
BRANCH  21  23
HETATM   23  C   UNL     1     -11.289  13.917  65.317  1.00  0.00    -0.316 A  
HETATM   24  C   UNL     1     -10.151  13.477  64.627  1.00  0.00    -0.246 A  
HETATM   25  C   UNL     1     -10.250  12.430  63.707  1.00  0.00    -0.404 A  
HETATM   26  C   UNL     1     -11.482  11.824  63.464  1.00  0.00    -0.489 A  
HETATM   27  C   UNL     1     -12.616  12.256  64.149  1.00  0.00    -0.493 A  
HETATM   28  C   UNL     1     -12.523  13.298  65.070  1.00  0.00    -0.498 A  
ENDBRANCH  21  23
ENDBRANCH  20  21
ENDBRANCH  19  20
ENDBRANCH  16  19
ENDBRANCH  14  15
ENDBRANCH  12  14
ENDBRANCH   9  10
ENDBRANCH   6   9
ENDBRANCH   3   5
TORSDOF 9
ENDMDL
MODEL      114
REMARK 921   NORMALIZED FREE ENERGY PREDICTED BY IDOCK:   -5.47 KCAL/MOL
REMARK 922        TOTAL FREE ENERGY PREDICTED BY IDOCK:   -9.18 KCAL/MOL
REMARK 923 INTER-LIGAND FREE ENERGY PREDICTED BY IDOCK:   -8.64 KCAL/MOL
REMARK 924 INTRA-LIGAND FREE ENERGY PREDICTED BY IDOCK:   -0.54 KCAL/MOL
REMARK 927      BINDING AFFINITY PREDICTED BY RF-SCORE:    0.00 PKD
ROOT
HETATM    1  O   UNL     1      -8.630   4.315  67.691  1.00  0.00    -0.101 OA 
HETATM    2  C   UNL     1      -9.116   3.642  66.621  1.00  0.00    -0.162 C  
HETATM    3  C   UNL     1      -9.702   4.536  65.533  1.00  0.00    -0.195 C  
HETATM    4  O   UNL     1      -9.109   2.424  66.557  1.00  0.00    -0.134 OA 
ENDROOT
BRANCH   3   5
HETATM    5  N   UNL     1      -9.619   5.955  65.864  1.00  0.00    -0.361 N  
HETATM    6  C   UNL     1      -8.619   6.764  65.367  1.00  0.00    -0.047 C  
HETATM    7  H   UNL     1     -10.323   6.361  66.481  1.00  0.00     0.000 HD 
HETATM    8  O   UNL     1      -7.717   6.336  64.655  1.00  0.00    -0.091 OA 
BRANCH   6   9
HETATM    9  C   UNL     1      -8.682   8.234  65.802  1.00  0.00    -0.166 C  
BRANCH   9  10
HETATM   10  N   UNL     1      -9.066   9.140  64.733  1.00  0.00    -0.423 N  
HETATM   11  H   UNL     1      -8.739   8.950  63.786  1.00  0.00     0.000 HD 
HETATM   12  C   UNL     1      -9.856  10.246  64.952  1.00  0.00    -0.336 C  
HETATM   13  O   UNL     1     -10.311  10.518  66.060  1.00  0.00    -0.248 OA 
BRANCH  12  14
HETATM   14  C   UNL     1     -10.121  11.109  63.711  1.00  0.00    -0.361 C  
BRANCH  14  15
HETATM   15  N   UNL     1     -10.561  12.462  64.038  1.00  0.00    -0.379 N  
HETATM   16  C   UNL     1     -11.897  12.804  63.995  1.00  0.00    -0.435 C  
HETATM   17  H   UNL     1      -9.870  13.165  64.302  1.00  0.00     0.000 HD 
HETATM   18  O   UNL     1     -12.753  12.043  63.549  1.00  0.00    -0.688 OA 
BRANCH  16  19
HETATM   19  C   UNL     1     -12.210  14.216  64.461  1.00  0.00    -0.445 C  
BRANCH  19  20
HETATM   20  S   UNL     1     -10.993  14.821  65.649  1.00  0.00    -0.359 SA 
BRANCH  20  21
HETATM   21  C   UNL     1     -11.007  16.536  65.262  1.00  0.00    -0.162 C  
HETATM   22  O   UNL     1     -11.266  16.928  64.128  1.00  0.00    -1.176 OA 
BRANCH  21  23
HETATM   23  C   UNL     1     -10.674  17.487  66.359  1.00  0.00    -0.083 A  
HETATM   24  C   UNL     1     -10.558  18.851  66.060  1.00  0.00    -0.470 A  
HETATM   25  C   UNL     1     -10.194  19.759  67.058  1.00  0.00    -0.579 A  
HETATM   26  C   UNL     1      -9.936  19.310  68.353  1.00  0.00    -0.502 A  
HETATM   27  C   UNL     1     -10.053  17.956  68.657  1.00  0.00    -0.394 A  
HETATM   28  C   UNL     1     -10.418  17.045  67.665  1.00  0.00    -0.343 A  
ENDBRANCH  21  23
ENDBRANCH  20  21
ENDBRANCH  19  20
ENDBRANCH  16  19
ENDBRANCH  14  15
ENDBRANCH  12  14
ENDBRANCH   9  10
ENDBRANCH   6   9
ENDBRANCH   3   5
TORSDOF 9
ENDMDL
MODEL      115
REMARK 921   NORMALIZED FREE ENERGY PREDICTED BY IDOCK:   -5.46 KCAL/MOL
REMARK 922        TOTAL FREE ENERGY PREDICTED BY IDOCK:   -9.18 KCAL/MOL
REMARK 923 INTER-LIGAND FREE ENERGY PREDICTED BY IDOCK:   -7.47 KCAL/MOL
REMARK 924 INTRA-LIGAND FREE ENERGY PREDICTED BY IDOCK:   -1.71 KCAL/MOL
REMARK 927      BINDING AFFINITY PREDICTED BY RF-SCORE:    0.00 PKD
ROOT
HETATM    1  O   UNL     1     -11.177  15.221  71.299  1.00  0.00    -0.349 OA 
HETATM    2  C   UNL     1     -12.231  15.384  70.465  1.00  0.00    -0.394 C  
HETATM    3  C   UNL     1     -11.870  15.994  69.114  1.00  0.00    -0.261 C  
HETATM    4  O   UNL     1     -13.371  15.093  70.787  1.00  0.00    -0.396 OA 
ENDROOT
BRANCH   3   5
HETATM    5  N   UNL     1     -10.446  16.282  68.987  1.00  0.00    -0.256 N  
HETATM    6  C   UNL     1      -9.985  17.471  68.460  1.00  0.00    -0.344 C  
HETATM    7  H   UNL     1      -9.770  15.584  69.297  1.00  0.00     0.000 HD 
HETATM    8  O   UNL     1     -10.738  18.338  68.029  1.00  0.00    -0.368 OA 
BRANCH   6   9
HETATM    9  C   UNL     1      -8.459  17.622  68.407  1.00  0.00    -0.287 C  
BRANCH   9  10
HETATM   10  N   UNL     1      -7.745  16.363  68.538  1.00  0.00    -0.184 N  
HETATM   11  H   UNL     1      -8.135  15.529  68.099  1.00  0.00     0.000 HD 
HETATM   12  C   UNL     1      -6.562  16.254  69.235  1.00  0.00    -0.197 C  
HETATM   13  O   UNL     1      -6.021  17.223  69.762  1.00  0.00    -0.231 OA 
BRANCH  12  14
HETATM   14  C   UNL     1      -5.978  14.837  69.302  1.00  0.00    -0.103 C  
BRANCH  14  15
HETATM   15  N   UNL     1      -6.941  13.803  68.934  1.00  0.00    -0.108 N  
HETATM   16  C   UNL     1      -6.685  12.934  67.892  1.00  0.00    -0.123 C  
HETATM   17  H   UNL     1      -7.815  13.722  69.454  1.00  0.00     0.000 HD 
HETATM   18  O   UNL     1      -5.721  13.075  67.145  1.00  0.00    -0.349 OA 
BRANCH  16  19
HETATM   19  C   UNL     1      -7.732  11.850  67.696  1.00  0.00    -0.141 C  
BRANCH  19  20
HETATM   20  S   UNL     1      -9.400  12.449  68.038  1.00  0.00    -0.207 SA 
BRANCH  20  21
HETATM   21  C   UNL     1      -9.630  13.526  66.667  1.00  0.00    -0.278 C  
HETATM   22  O   UNL     1      -9.079  14.623  66.623  1.00  0.00    -0.252 OA 
BRANCH  21  23
HETATM   23  C   UNL     1     -10.531  13.062  65.577  1.00  0.00    -0.297 A  
HETATM   24  C   UNL     1     -11.910  13.276  65.701  1.00  0.00    -0.419 A  
HETATM   25  C   UNL     1     -12.784  12.803  64.718  1.00  0.00    -0.469 A  
HETATM   26  C   UNL     1     -12.289  12.108  63.615  1.00  0.00    -0.673 A  
HETATM   27  C   UNL     1     -10.919  11.894  63.486  1.00  0.00    -0.505 A  
HETATM   28  C   UNL     1     -10.041  12.366  64.462  1.00  0.00    -0.276 A  
ENDBRANCH  21  23
ENDBRANCH  20  21
ENDBRANCH  19  20
ENDBRANCH  16  19
ENDBRANCH  14  15
ENDBRANCH  12  14
ENDBRANCH   9  10
ENDBRANCH   6   9
ENDBRANCH   3   5
TORSDOF 9
ENDMDL
MODEL      116
REMARK 921   NORMALIZED FREE ENERGY PREDICTED BY IDOCK:   -5.46 KCAL/MOL
REMARK 922        TOTAL FREE ENERGY PREDICTED BY IDOCK:   -9.18 KCAL/MOL
REMARK 923 INTER-LIGAND FREE ENERGY PREDICTED BY IDOCK:   -8.24 KCAL/MOL
REMARK 924 INTRA-LIGAND FREE ENERGY PREDICTED BY IDOCK:   -0.94 KCAL/MOL
REMARK 927      BINDING AFFINITY PREDICTED BY RF-SCORE:    0.00 PKD
ROOT
HETATM    1  O   UNL     1     -11.746  12.621  69.670  1.00  0.00    -0.303 OA 
HETATM    2  C   UNL     1     -12.467  12.503  70.811  1.00  0.00    -0.268 C  
HETATM    3  C   UNL     1     -12.838  11.068  71.170  1.00  0.00    -0.392 C  
HETATM    4  O   UNL     1     -12.809  13.470  71.470  1.00  0.00    -0.353 OA 
ENDROOT
BRANCH   3   5
HETATM    5  N   UNL     1     -12.337  10.096  70.204  1.00  0.00    -0.504 N  
HETATM    6  C   UNL     1     -11.214   9.335  70.448  1.00  0.00    -0.247 C  
HETATM    7  H   UNL     1     -12.833   9.976  69.320  1.00  0.00     0.000 HD 
HETATM    8  O   UNL     1     -10.544   9.456  71.469  1.00  0.00    -0.341 OA 
BRANCH   6   9
HETATM    9  C   UNL     1     -10.827   8.352  69.335  1.00  0.00    -0.082 C  
BRANCH   9  10
HETATM   10  N   UNL     1     -10.164   8.983  68.207  1.00  0.00    -0.197 N  
HETATM   11  H   UNL     1      -9.653   9.852  68.361  1.00  0.00     0.000 HD 
HETATM   12  C   UNL     1     -10.199   8.451  66.938  1.00  0.00    -0.313 C  
HETATM   13  O   UNL     1     -10.769   7.392  66.687  1.00  0.00    -0.241 OA 
BRANCH  12  14
HETATM   14  C   UNL     1      -9.478   9.281  65.867  1.00  0.00    -0.259 C  
BRANCH  14  15
HETATM   15  N   UNL     1     -10.356  10.236  65.196  1.00  0.00    -0.226 N  
HETATM   16  C   UNL     1     -10.017  10.770  63.969  1.00  0.00    -0.342 C  
HETATM   17  H   UNL     1     -11.232  10.512  65.641  1.00  0.00     0.000 HD 
HETATM   18  O   UNL     1      -8.916  10.585  63.457  1.00  0.00    -0.187 OA 
BRANCH  16  19
HETATM   19  C   UNL     1     -11.076  11.667  63.351  1.00  0.00    -0.337 C  
BRANCH  19  20
HETATM   20  S   UNL     1     -12.257  12.267  64.579  1.00  0.00    -0.356 SA 
BRANCH  20  21
HETATM   21  C   UNL     1     -11.980  13.999  64.456  1.00  0.00    -0.448 C  
HETATM   22  O   UNL     1     -12.655  14.697  63.706  1.00  0.00    -0.820 OA 
BRANCH  21  23
HETATM   23  C   UNL     1     -10.885  14.576  65.284  1.00  0.00    -0.377 A  
HETATM   24  C   UNL     1     -10.140  13.723  66.110  1.00  0.00    -0.314 A  
HETATM   25  C   UNL     1      -9.142  14.245  66.938  1.00  0.00    -0.268 A  
HETATM   26  C   UNL     1      -8.890  15.617  66.953  1.00  0.00    -0.279 A  
HETATM   27  C   UNL     1      -9.626  16.468  66.132  1.00  0.00    -0.344 A  
HETATM   28  C   UNL     1     -10.621  15.953  65.301  1.00  0.00    -0.441 A  
ENDBRANCH  21  23
ENDBRANCH  20  21
ENDBRANCH  19  20
ENDBRANCH  16  19
ENDBRANCH  14  15
ENDBRANCH  12  14
ENDBRANCH   9  10
ENDBRANCH   6   9
ENDBRANCH   3   5
TORSDOF 9
ENDMDL
MODEL      117
REMARK 921   NORMALIZED FREE ENERGY PREDICTED BY IDOCK:   -5.45 KCAL/MOL
REMARK 922        TOTAL FREE ENERGY PREDICTED BY IDOCK:   -9.17 KCAL/MOL
REMARK 923 INTER-LIGAND FREE ENERGY PREDICTED BY IDOCK:   -8.57 KCAL/MOL
REMARK 924 INTRA-LIGAND FREE ENERGY PREDICTED BY IDOCK:   -0.60 KCAL/MOL
REMARK 927      BINDING AFFINITY PREDICTED BY RF-SCORE:    0.00 PKD
ROOT
HETATM    1  O   UNL     1      -8.830  18.932  68.313  1.00  0.00    -0.310 OA 
HETATM    2  C   UNL     1      -9.241  18.287  67.195  1.00  0.00    -0.264 C  
HETATM    3  C   UNL     1     -10.215  17.144  67.456  1.00  0.00    -0.323 C  
HETATM    4  O   UNL     1      -8.836  18.585  66.084  1.00  0.00    -0.463 OA 
ENDROOT
BRANCH   3   5
HETATM    5  N   UNL     1     -10.516  16.970  68.873  1.00  0.00    -0.336 N  
HETATM    6  C   UNL     1     -11.362  15.979  69.324  1.00  0.00    -0.356 C  
HETATM    7  H   UNL     1     -10.089  17.602  69.551  1.00  0.00     0.000 HD 
HETATM    8  O   UNL     1     -11.943  15.211  68.565  1.00  0.00    -0.304 OA 
BRANCH   6   9
HETATM    9  C   UNL     1     -11.564  15.924  70.844  1.00  0.00    -0.421 C  
BRANCH   9  10
HETATM   10  N   UNL     1     -11.971  14.617  71.330  1.00  0.00    -0.346 N  
HETATM   11  H   UNL     1     -11.259  13.898  71.461  1.00  0.00     0.000 HD 
HETATM   12  C   UNL     1     -13.282  14.313  71.621  1.00  0.00    -0.356 C  
HETATM   13  O   UNL     1     -14.185  15.139  71.518  1.00  0.00    -0.478 OA 
BRANCH  12  14
HETATM   14  C   UNL     1     -13.525  12.869  72.081  1.00  0.00    -0.522 C  
BRANCH  14  15
HETATM   15  N   UNL     1     -12.625  11.908  71.449  1.00  0.00    -0.295 N  
HETATM   16  C   UNL     1     -12.821  10.550  71.595  1.00  0.00    -0.475 C  
HETATM   17  H   UNL     1     -11.840  12.246  70.891  1.00  0.00     0.000 HD 
HETATM   18  O   UNL     1     -13.659  10.090  72.367  1.00  0.00    -0.341 OA 
BRANCH  16  19
HETATM   19  C   UNL     1     -11.867   9.679  70.796  1.00  0.00    -0.300 C  
BRANCH  19  20
HETATM   20  S   UNL     1     -10.967   8.519  71.849  1.00  0.00    -0.348 SA 
BRANCH  20  21
HETATM   21  C   UNL     1     -11.717   7.007  71.358  1.00  0.00    -0.306 C  
HETATM   22  O   UNL     1     -12.871   6.738  71.682  1.00  0.00    -0.358 OA 
BRANCH  21  23
HETATM   23  C   UNL     1     -10.893   6.065  70.553  1.00  0.00    -0.382 A  
HETATM   24  C   UNL     1      -9.990   5.222  71.213  1.00  0.00    -0.256 A  
HETATM   25  C   UNL     1      -9.165   4.365  70.479  1.00  0.00    -0.192 A  
HETATM   26  C   UNL     1      -9.231   4.353  69.086  1.00  0.00    -0.202 A  
HETATM   27  C   UNL     1     -10.129   5.187  68.424  1.00  0.00    -0.205 A  
HETATM   28  C   UNL     1     -10.956   6.042  69.152  1.00  0.00    -0.429 A  
ENDBRANCH  21  23
ENDBRANCH  20  21
ENDBRANCH  19  20
ENDBRANCH  16  19
ENDBRANCH  14  15
ENDBRANCH  12  14
ENDBRANCH   9  10
ENDBRANCH   6   9
ENDBRANCH   3   5
TORSDOF 9
ENDMDL
MODEL      118
REMARK 921   NORMALIZED FREE ENERGY PREDICTED BY IDOCK:   -5.45 KCAL/MOL
REMARK 922        TOTAL FREE ENERGY PREDICTED BY IDOCK:   -9.16 KCAL/MOL
REMARK 923 INTER-LIGAND FREE ENERGY PREDICTED BY IDOCK:   -8.34 KCAL/MOL
REMARK 924 INTRA-LIGAND FREE ENERGY PREDICTED BY IDOCK:   -0.83 KCAL/MOL
REMARK 927      BINDING AFFINITY PREDICTED BY RF-SCORE:    0.00 PKD
ROOT
HETATM    1  O   UNL     1      -9.575  15.570  65.784  1.00  0.00    -0.337 OA 
HETATM    2  C   UNL     1     -10.443  16.483  65.285  1.00  0.00    -0.213 C  
HETATM    3  C   UNL     1     -11.531  15.890  64.396  1.00  0.00    -0.264 C  
HETATM    4  O   UNL     1     -10.336  17.677  65.510  1.00  0.00    -0.627 OA 
ENDROOT
BRANCH   3   5
HETATM    5  N   UNL     1     -11.421  14.442  64.259  1.00  0.00    -0.626 N  
HETATM    6  C   UNL     1     -12.394  13.587  64.734  1.00  0.00    -0.392 C  
HETATM    7  H   UNL     1     -10.600  14.049  63.797  1.00  0.00     0.000 HD 
HETATM    8  O   UNL     1     -13.386  13.985  65.335  1.00  0.00    -0.721 OA 
BRANCH   6   9
HETATM    9  C   UNL     1     -12.132  12.093  64.499  1.00  0.00    -0.334 C  
BRANCH   9  10
HETATM   10  N   UNL     1     -10.836  11.647  64.981  1.00  0.00    -0.294 N  
HETATM   11  H   UNL     1     -10.045  11.648  64.338  1.00  0.00     0.000 HD 
HETATM   12  C   UNL     1     -10.637  11.223  66.276  1.00  0.00    -0.263 C  
HETATM   13  O   UNL     1     -11.536  11.225  67.112  1.00  0.00    -0.513 OA 
BRANCH  12  14
HETATM   14  C   UNL     1      -9.212  10.748  66.590  1.00  0.00    -0.166 C  
BRANCH  14  15
HETATM   15  N   UNL     1      -9.179   9.551  67.425  1.00  0.00    -0.133 N  
HETATM   16  C   UNL     1      -9.050   8.297  66.863  1.00  0.00    -0.150 C  
HETATM   17  H   UNL     1      -9.252   9.643  68.439  1.00  0.00     0.000 HD 
HETATM   18  O   UNL     1      -9.101   8.116  65.649  1.00  0.00    -0.142 OA 
BRANCH  16  19
HETATM   19  C   UNL     1      -8.927   7.160  67.863  1.00  0.00    -0.122 C  
BRANCH  19  20
HETATM   20  S   UNL     1     -10.502   6.792  68.668  1.00  0.00    -0.222 SA 
BRANCH  20  21
HETATM   21  C   UNL     1     -10.252   7.586  70.216  1.00  0.00    -0.204 C  
HETATM   22  O   UNL     1      -9.151   7.582  70.761  1.00  0.00    -0.152 OA 
BRANCH  21  23
HETATM   23  C   UNL     1     -11.430   8.244  70.845  1.00  0.00    -0.296 A  
HETATM   24  C   UNL     1     -12.488   7.445  71.299  1.00  0.00    -0.381 A  
HETATM   25  C   UNL     1     -13.631   8.039  71.844  1.00  0.00    -0.361 A  
HETATM   26  C   UNL     1     -13.726   9.427  71.930  1.00  0.00    -0.440 A  
HETATM   27  C   UNL     1     -12.676  10.226  71.482  1.00  0.00    -0.557 A  
HETATM   28  C   UNL     1     -11.532   9.639  70.940  1.00  0.00    -0.427 A  
ENDBRANCH  21  23
ENDBRANCH  20  21
ENDBRANCH  19  20
ENDBRANCH  16  19
ENDBRANCH  14  15
ENDBRANCH  12  14
ENDBRANCH   9  10
ENDBRANCH   6   9
ENDBRANCH   3   5
TORSDOF 9
ENDMDL
MODEL      119
REMARK 921   NORMALIZED FREE ENERGY PREDICTED BY IDOCK:   -5.45 KCAL/MOL
REMARK 922        TOTAL FREE ENERGY PREDICTED BY IDOCK:   -9.16 KCAL/MOL
REMARK 923 INTER-LIGAND FREE ENERGY PREDICTED BY IDOCK:   -8.65 KCAL/MOL
REMARK 924 INTRA-LIGAND FREE ENERGY PREDICTED BY IDOCK:   -0.52 KCAL/MOL
REMARK 927      BINDING AFFINITY PREDICTED BY RF-SCORE:    0.00 PKD
ROOT
HETATM    1  O   UNL     1     -11.144   8.221  70.307  1.00  0.00    -0.255 OA 
HETATM    2  C   UNL     1     -11.509   6.926  70.461  1.00  0.00    -0.342 C  
HETATM    3  C   UNL     1     -10.760   5.953  69.557  1.00  0.00    -0.343 C  
HETATM    4  O   UNL     1     -12.385   6.583  71.238  1.00  0.00    -0.317 OA 
ENDROOT
BRANCH   3   5
HETATM    5  N   UNL     1      -9.787   6.617  68.697  1.00  0.00    -0.135 N  
HETATM    6  C   UNL     1     -10.049   6.889  67.370  1.00  0.00    -0.183 C  
HETATM    7  H   UNL     1      -8.884   6.888  69.088  1.00  0.00     0.000 HD 
HETATM    8  O   UNL     1     -11.095   6.554  66.822  1.00  0.00    -0.362 OA 
BRANCH   6   9
HETATM    9  C   UNL     1      -8.926   7.602  66.607  1.00  0.00    -0.156 C  
BRANCH   9  10
HETATM   10  N   UNL     1      -9.406   8.523  65.592  1.00  0.00    -0.426 N  
HETATM   11  H   UNL     1      -9.398   8.226  64.616  1.00  0.00     0.000 HD 
HETATM   12  C   UNL     1      -9.871   9.782  65.898  1.00  0.00    -0.282 C  
HETATM   13  O   UNL     1      -9.938  10.193  67.053  1.00  0.00    -0.182 OA 
BRANCH  12  14
HETATM   14  C   UNL     1     -10.295  10.627  64.689  1.00  0.00    -0.283 C  
BRANCH  14  15
HETATM   15  N   UNL     1      -9.827  12.008  64.765  1.00  0.00    -0.400 N  
HETATM   16  C   UNL     1     -10.635  13.054  64.366  1.00  0.00    -0.409 C  
HETATM   17  H   UNL     1      -8.890  12.203  65.119  1.00  0.00     0.000 HD 
HETATM   18  O   UNL     1     -11.711  12.871  63.803  1.00  0.00    -0.422 OA 
BRANCH  16  19
HETATM   19  C   UNL     1     -10.050  14.437  64.601  1.00  0.00     0.094 C  
BRANCH  19  20
HETATM   20  S   UNL     1     -10.803  15.258  66.022  1.00  0.00    -0.318 SA 
BRANCH  20  21
HETATM   21  C   UNL     1     -10.898  16.905  65.415  1.00  0.00    -0.106 C  
HETATM   22  O   UNL     1     -11.281  17.138  64.272  1.00  0.00    -1.126 OA 
BRANCH  21  23
HETATM   23  C   UNL     1     -10.481  17.997  66.336  1.00  0.00    -0.345 A  
HETATM   24  C   UNL     1     -10.369  17.722  67.705  1.00  0.00    -0.382 A  
HETATM   25  C   UNL     1     -10.030  18.742  68.600  1.00  0.00    -0.444 A  
HETATM   26  C   UNL     1      -9.812  20.038  68.135  1.00  0.00    -0.499 A  
HETATM   27  C   UNL     1      -9.920  20.317  66.774  1.00  0.00    -0.587 A  
HETATM   28  C   UNL     1     -10.254  19.303  65.877  1.00  0.00    -0.436 A  
ENDBRANCH  21  23
ENDBRANCH  20  21
ENDBRANCH  19  20
ENDBRANCH  16  19
ENDBRANCH  14  15
ENDBRANCH  12  14
ENDBRANCH   9  10
ENDBRANCH   6   9
ENDBRANCH   3   5
TORSDOF 9
ENDMDL
MODEL      120
REMARK 921   NORMALIZED FREE ENERGY PREDICTED BY IDOCK:   -5.44 KCAL/MOL
REMARK 922        TOTAL FREE ENERGY PREDICTED BY IDOCK:   -9.14 KCAL/MOL
REMARK 923 INTER-LIGAND FREE ENERGY PREDICTED BY IDOCK:   -8.24 KCAL/MOL
REMARK 924 INTRA-LIGAND FREE ENERGY PREDICTED BY IDOCK:   -0.90 KCAL/MOL
REMARK 927      BINDING AFFINITY PREDICTED BY RF-SCORE:    0.00 PKD
ROOT
HETATM    1  O   UNL     1     -13.528  13.980  65.681  1.00  0.00    -0.604 OA 
HETATM    2  C   UNL     1     -12.434  13.572  64.995  1.00  0.00    -0.417 C  
HETATM    3  C   UNL     1     -11.354  12.935  65.863  1.00  0.00    -0.312 C  
HETATM    4  O   UNL     1     -12.320  13.733  63.791  1.00  0.00    -0.673 OA 
ENDROOT
BRANCH   3   5
HETATM    5  N   UNL     1     -11.717  12.889  67.275  1.00  0.00    -0.362 N  
HETATM    6  C   UNL     1     -11.761  11.705  67.980  1.00  0.00    -0.281 C  
HETATM    7  H   UNL     1     -11.947  13.760  67.755  1.00  0.00     0.000 HD 
HETATM    8  O   UNL     1     -11.538  10.617  67.459  1.00  0.00    -0.482 OA 
BRANCH   6   9
HETATM    9  C   UNL     1     -12.150  11.832  69.459  1.00  0.00    -0.250 C  
BRANCH   9  10
HETATM   10  N   UNL     1     -12.603  10.584  70.050  1.00  0.00    -0.526 N  
HETATM   11  H   UNL     1     -12.540   9.728  69.499  1.00  0.00     0.000 HD 
HETATM   12  C   UNL     1     -13.115  10.515  71.326  1.00  0.00    -0.383 C  
HETATM   13  O   UNL     1     -13.191  11.500  72.056  1.00  0.00    -0.509 OA 
BRANCH  12  14
HETATM   14  C   UNL     1     -13.582   9.119  71.762  1.00  0.00    -0.415 C  
BRANCH  14  15
HETATM   15  N   UNL     1     -12.659   8.471  72.689  1.00  0.00    -0.572 N  
HETATM   16  C   UNL     1     -11.455   7.958  72.249  1.00  0.00    -0.348 C  
HETATM   17  H   UNL     1     -12.907   8.396  73.676  1.00  0.00     0.000 HD 
HETATM   18  O   UNL     1     -11.169   7.893  71.056  1.00  0.00    -0.260 OA 
BRANCH  16  19
HETATM   19  C   UNL     1     -10.559   7.407  73.345  1.00  0.00    -0.377 C  
BRANCH  19  20
HETATM   20  S   UNL     1      -8.834   7.889  73.115  1.00  0.00    -0.261 SA 
BRANCH  20  21
HETATM   21  C   UNL     1      -8.085   6.305  72.972  1.00  0.00    -0.107 C  
HETATM   22  O   UNL     1      -7.178   5.962  73.726  1.00  0.00    -0.085 OA 
BRANCH  21  23
HETATM   23  C   UNL     1      -8.584   5.408  71.893  1.00  0.00    -0.131 A  
HETATM   24  C   UNL     1      -9.290   4.251  72.248  1.00  0.00    -0.168 A  
HETATM   25  C   UNL     1      -9.724   3.364  71.258  1.00  0.00    -0.227 A  
HETATM   26  C   UNL     1      -9.446   3.621  69.916  1.00  0.00    -0.262 A  
HETATM   27  C   UNL     1      -8.746   4.770  69.558  1.00  0.00    -0.111 A  
HETATM   28  C   UNL     1      -8.313   5.661  70.540  1.00  0.00    -0.117 A  
ENDBRANCH  21  23
ENDBRANCH  20  21
ENDBRANCH  19  20
ENDBRANCH  16  19
ENDBRANCH  14  15
ENDBRANCH  12  14
ENDBRANCH   9  10
ENDBRANCH   6   9
ENDBRANCH   3   5
TORSDOF 9
ENDMDL
MODEL      121
REMARK 921   NORMALIZED FREE ENERGY PREDICTED BY IDOCK:   -5.43 KCAL/MOL
REMARK 922        TOTAL FREE ENERGY PREDICTED BY IDOCK:   -9.12 KCAL/MOL
REMARK 923 INTER-LIGAND FREE ENERGY PREDICTED BY IDOCK:   -8.40 KCAL/MOL
REMARK 924 INTRA-LIGAND FREE ENERGY PREDICTED BY IDOCK:   -0.72 KCAL/MOL
REMARK 927      BINDING AFFINITY PREDICTED BY RF-SCORE:    0.00 PKD
ROOT
HETATM    1  O   UNL     1     -10.934  17.230  68.414  1.00  0.00    -0.312 OA 
HETATM    2  C   UNL     1     -10.549  18.236  67.592  1.00  0.00    -0.405 C  
HETATM    3  C   UNL     1     -10.358  17.817  66.138  1.00  0.00    -0.340 C  
HETATM    4  O   UNL     1     -10.347  19.369  67.997  1.00  0.00    -0.400 OA 
ENDROOT
BRANCH   3   5
HETATM    5  N   UNL     1     -10.632  16.401  65.918  1.00  0.00    -0.315 N  
HETATM    6  C   UNL     1     -11.210  15.942  64.753  1.00  0.00    -0.355 C  
HETATM    7  H   UNL     1     -10.389  15.731  66.648  1.00  0.00     0.000 HD 
HETATM    8  O   UNL     1     -11.566  16.693  63.852  1.00  0.00    -1.204 OA 
BRANCH   6   9
HETATM    9  C   UNL     1     -11.419  14.424  64.675  1.00  0.00    -0.387 C  
BRANCH   9  10
HETATM   10  N   UNL     1     -10.342  13.656  65.276  1.00  0.00    -0.337 N  
HETATM   11  H   UNL     1      -9.387  13.816  64.957  1.00  0.00     0.000 HD 
HETATM   12  C   UNL     1     -10.564  12.721  66.261  1.00  0.00    -0.257 C  
HETATM   13  O   UNL     1     -11.683  12.499  66.715  1.00  0.00    -0.368 OA 
BRANCH  12  14
HETATM   14  C   UNL     1      -9.310  11.979  66.744  1.00  0.00    -0.205 C  
BRANCH  14  15
HETATM   15  N   UNL     1      -9.568  10.584  67.090  1.00  0.00    -0.166 N  
HETATM   16  C   UNL     1      -9.620   9.608  66.115  1.00  0.00    -0.233 C  
HETATM   17  H   UNL     1      -9.713  10.327  68.067  1.00  0.00     0.000 HD 
HETATM   18  O   UNL     1      -9.596   9.880  64.917  1.00  0.00    -0.281 OA 
BRANCH  16  19
HETATM   19  C   UNL     1      -9.794   8.193  66.638  1.00  0.00    -0.261 C  
BRANCH  19  20
HETATM   20  S   UNL     1      -9.022   7.969  68.255  1.00  0.00    -0.131 SA 
BRANCH  20  21
HETATM   21  C   UNL     1     -10.325   7.159  69.112  1.00  0.00    -0.200 C  
HETATM   22  O   UNL     1     -10.617   5.992  68.867  1.00  0.00    -0.227 OA 
BRANCH  21  23
HETATM   23  C   UNL     1     -11.069   7.951  70.131  1.00  0.00    -0.204 A  
HETATM   24  C   UNL     1     -11.703   7.276  71.182  1.00  0.00    -0.334 A  
HETATM   25  C   UNL     1     -12.452   7.989  72.122  1.00  0.00    -0.335 A  
HETATM   26  C   UNL     1     -12.580   9.374  72.012  1.00  0.00    -0.462 A  
HETATM   27  C   UNL     1     -11.949  10.050  70.971  1.00  0.00    -0.469 A  
HETATM   28  C   UNL     1     -11.197   9.344  70.031  1.00  0.00    -0.217 A  
ENDBRANCH  21  23
ENDBRANCH  20  21
ENDBRANCH  19  20
ENDBRANCH  16  19
ENDBRANCH  14  15
ENDBRANCH  12  14
ENDBRANCH   9  10
ENDBRANCH   6   9
ENDBRANCH   3   5
TORSDOF 9
ENDMDL
MODEL      122
REMARK 921   NORMALIZED FREE ENERGY PREDICTED BY IDOCK:   -5.43 KCAL/MOL
REMARK 922        TOTAL FREE ENERGY PREDICTED BY IDOCK:   -9.12 KCAL/MOL
REMARK 923 INTER-LIGAND FREE ENERGY PREDICTED BY IDOCK:   -8.17 KCAL/MOL
REMARK 924 INTRA-LIGAND FREE ENERGY PREDICTED BY IDOCK:   -0.95 KCAL/MOL
REMARK 927      BINDING AFFINITY PREDICTED BY RF-SCORE:    0.00 PKD
ROOT
HETATM    1  O   UNL     1     -10.755  15.565  66.428  1.00  0.00    -0.305 OA 
HETATM    2  C   UNL     1     -11.516  14.899  67.329  1.00  0.00    -0.340 C  
HETATM    3  C   UNL     1     -11.885  13.480  66.908  1.00  0.00    -0.407 C  
HETATM    4  O   UNL     1     -11.892  15.410  68.371  1.00  0.00    -0.347 OA 
ENDROOT
BRANCH   3   5
HETATM    5  N   UNL     1     -11.339  13.118  65.605  1.00  0.00    -0.298 N  
HETATM    6  C   UNL     1     -12.144  12.700  64.566  1.00  0.00    -0.417 C  
HETATM    7  H   UNL     1     -10.331  13.174  65.457  1.00  0.00     0.000 HD 
HETATM    8  O   UNL     1     -13.358  12.568  64.683  1.00  0.00    -0.804 OA 
BRANCH   6   9
HETATM    9  C   UNL     1     -11.414  12.367  63.258  1.00  0.00    -0.351 C  
BRANCH   9  10
HETATM   10  N   UNL     1     -10.762  11.069  63.270  1.00  0.00    -0.752 N  
HETATM   11  H   UNL     1     -11.303  10.250  63.544  1.00  0.00     0.000 HD 
HETATM   12  C   UNL     1      -9.440  10.904  62.924  1.00  0.00    -0.355 C  
HETATM   13  O   UNL     1      -8.737  11.841  62.554  1.00  0.00    -0.163 OA 
BRANCH  12  14
HETATM   14  C   UNL     1      -8.914   9.467  63.040  1.00  0.00    -0.201 C  
BRANCH  14  15
HETATM   15  N   UNL     1      -9.033   8.921  64.389  1.00  0.00    -0.422 N  
HETATM   16  C   UNL     1      -8.142   9.278  65.380  1.00  0.00    -0.122 C  
HETATM   17  H   UNL     1      -9.786   8.266  64.601  1.00  0.00     0.000 HD 
HETATM   18  O   UNL     1      -7.139   9.947  65.147  1.00  0.00    -0.115 OA 
BRANCH  16  19
HETATM   19  C   UNL     1      -8.456   8.710  66.754  1.00  0.00    -0.115 C  
BRANCH  19  20
HETATM   20  S   UNL     1     -10.204   8.881  67.174  1.00  0.00    -0.281 SA 
BRANCH  20  21
HETATM   21  C   UNL     1     -10.082   9.900  68.601  1.00  0.00    -0.175 C  
HETATM   22  O   UNL     1      -9.505  10.983  68.559  1.00  0.00    -0.174 OA 
BRANCH  21  23
HETATM   23  C   UNL     1     -10.691   9.389  69.860  1.00  0.00    -0.258 A  
HETATM   24  C   UNL     1     -10.557   8.030  70.173  1.00  0.00    -0.237 A  
HETATM   25  C   UNL     1     -11.163   7.511  71.321  1.00  0.00    -0.274 A  
HETATM   26  C   UNL     1     -11.911   8.342  72.154  1.00  0.00    -0.438 A  
HETATM   27  C   UNL     1     -12.046   9.695  71.849  1.00  0.00    -0.380 A  
HETATM   28  C   UNL     1     -11.440  10.219  70.707  1.00  0.00    -0.438 A  
ENDBRANCH  21  23
ENDBRANCH  20  21
ENDBRANCH  19  20
ENDBRANCH  16  19
ENDBRANCH  14  15
ENDBRANCH  12  14
ENDBRANCH   9  10
ENDBRANCH   6   9
ENDBRANCH   3   5
TORSDOF 9
ENDMDL
MODEL      123
REMARK 921   NORMALIZED FREE ENERGY PREDICTED BY IDOCK:   -5.40 KCAL/MOL
REMARK 922        TOTAL FREE ENERGY PREDICTED BY IDOCK:   -9.08 KCAL/MOL
REMARK 923 INTER-LIGAND FREE ENERGY PREDICTED BY IDOCK:   -7.93 KCAL/MOL
REMARK 924 INTRA-LIGAND FREE ENERGY PREDICTED BY IDOCK:   -1.15 KCAL/MOL
REMARK 927      BINDING AFFINITY PREDICTED BY RF-SCORE:    0.00 PKD
ROOT
HETATM    1  O   UNL     1     -13.300  10.335  70.687  1.00  0.00    -0.311 OA 
HETATM    2  C   UNL     1     -12.836   9.442  71.593  1.00  0.00    -0.378 C  
HETATM    3  C   UNL     1     -11.678   8.586  71.091  1.00  0.00    -0.281 C  
HETATM    4  O   UNL     1     -13.329   9.320  72.702  1.00  0.00    -0.430 OA 
ENDROOT
BRANCH   3   5
HETATM    5  N   UNL     1     -11.294   8.903  69.720  1.00  0.00    -0.442 N  
HETATM    6  C   UNL     1     -10.149   8.393  69.145  1.00  0.00    -0.203 C  
HETATM    7  H   UNL     1     -11.890   9.522  69.170  1.00  0.00     0.000 HD 
HETATM    8  O   UNL     1      -9.365   7.677  69.759  1.00  0.00    -0.151 OA 
BRANCH   6   9
HETATM    9  C   UNL     1      -9.896   8.815  67.691  1.00  0.00    -0.180 C  
BRANCH   9  10
HETATM   10  N   UNL     1      -9.118  10.035  67.568  1.00  0.00    -0.134 N  
HETATM   11  H   UNL     1      -8.122   9.965  67.365  1.00  0.00     0.000 HD 
HETATM   12  C   UNL     1      -9.678  11.285  67.714  1.00  0.00    -0.173 C  
HETATM   13  O   UNL     1     -10.877  11.445  67.928  1.00  0.00    -0.199 OA 
BRANCH  12  14
HETATM   14  C   UNL     1      -8.692  12.455  67.593  1.00  0.00    -0.178 C  
BRANCH  14  15
HETATM   15  N   UNL     1      -9.014  13.569  68.480  1.00  0.00    -0.329 N  
HETATM   16  C   UNL     1      -8.580  14.848  68.198  1.00  0.00    -0.159 C  
HETATM   17  H   UNL     1      -9.569  13.399  69.319  1.00  0.00     0.000 HD 
HETATM   18  O   UNL     1      -7.794  15.086  67.284  1.00  0.00    -0.186 OA 
BRANCH  16  19
HETATM   19  C   UNL     1      -9.080  15.917  69.156  1.00  0.00    -0.255 C  
BRANCH  19  20
HETATM   20  S   UNL     1     -10.674  16.592  68.643  1.00  0.00    -0.353 SA 
BRANCH  20  21
HETATM   21  C   UNL     1     -11.729  15.249  69.058  1.00  0.00    -0.347 C  
HETATM   22  O   UNL     1     -12.039  14.405  68.222  1.00  0.00    -0.309 OA 
BRANCH  21  23
HETATM   23  C   UNL     1     -12.242  15.189  70.454  1.00  0.00    -0.391 A  
HETATM   24  C   UNL     1     -13.259  14.277  70.763  1.00  0.00    -0.255 A  
HETATM   25  C   UNL     1     -13.797  14.236  72.052  1.00  0.00    -0.564 A  
HETATM   26  C   UNL     1     -13.331  15.109  73.034  1.00  0.00    -0.586 A  
HETATM   27  C   UNL     1     -12.318  16.017  72.734  1.00  0.00    -0.603 A  
HETATM   28  C   UNL     1     -11.775  16.060  71.450  1.00  0.00    -0.536 A  
ENDBRANCH  21  23
ENDBRANCH  20  21
ENDBRANCH  19  20
ENDBRANCH  16  19
ENDBRANCH  14  15
ENDBRANCH  12  14
ENDBRANCH   9  10
ENDBRANCH   6   9
ENDBRANCH   3   5
TORSDOF 9
ENDMDL
MODEL      124
REMARK 921   NORMALIZED FREE ENERGY PREDICTED BY IDOCK:   -5.40 KCAL/MOL
REMARK 922        TOTAL FREE ENERGY PREDICTED BY IDOCK:   -9.08 KCAL/MOL
REMARK 923 INTER-LIGAND FREE ENERGY PREDICTED BY IDOCK:   -8.16 KCAL/MOL
REMARK 924 INTRA-LIGAND FREE ENERGY PREDICTED BY IDOCK:   -0.91 KCAL/MOL
REMARK 927      BINDING AFFINITY PREDICTED BY RF-SCORE:    0.00 PKD
ROOT
HETATM    1  O   UNL     1     -10.155  15.967  65.157  1.00  0.00    -0.451 OA 
HETATM    2  C   UNL     1     -11.397  15.728  64.674  1.00  0.00    -0.337 C  
HETATM    3  C   UNL     1     -12.037  14.447  65.199  1.00  0.00    -0.395 C  
HETATM    4  O   UNL     1     -11.936  16.466  63.865  1.00  0.00    -1.023 OA 
ENDROOT
BRANCH   3   5
HETATM    5  N   UNL     1     -11.175  13.725  66.128  1.00  0.00    -0.297 N  
HETATM    6  C   UNL     1     -11.384  13.754  67.491  1.00  0.00    -0.309 C  
HETATM    7  H   UNL     1     -10.394  13.183  65.760  1.00  0.00     0.000 HD 
HETATM    8  O   UNL     1     -12.278  14.418  68.008  1.00  0.00    -0.281 OA 
BRANCH   6   9
HETATM    9  C   UNL     1     -10.396  12.933  68.329  1.00  0.00    -0.244 C  
BRANCH   9  10
HETATM   10  N   UNL     1     -10.027  11.667  67.717  1.00  0.00    -0.178 N  
HETATM   11  H   UNL     1      -9.105  11.577  67.293  1.00  0.00     0.000 HD 
HETATM   12  C   UNL     1     -10.879  10.585  67.690  1.00  0.00    -0.300 C  
HETATM   13  O   UNL     1     -11.991  10.613  68.210  1.00  0.00    -0.462 OA 
BRANCH  12  14
HETATM   14  C   UNL     1     -10.332   9.349  66.963  1.00  0.00    -0.252 C  
BRANCH  14  15
HETATM   15  N   UNL     1     -10.050   8.235  67.862  1.00  0.00    -0.191 N  
HETATM   16  C   UNL     1      -8.841   8.145  68.523  1.00  0.00    -0.134 C  
HETATM   17  H   UNL     1     -10.756   7.512  68.004  1.00  0.00     0.000 HD 
HETATM   18  O   UNL     1      -7.906   8.904  68.282  1.00  0.00    -0.099 OA 
BRANCH  16  19
HETATM   19  C   UNL     1      -8.734   6.987  69.501  1.00  0.00    -0.134 C  
BRANCH  19  20
HETATM   20  S   UNL     1      -8.855   7.537  71.217  1.00  0.00    -0.133 SA 
BRANCH  20  21
HETATM   21  C   UNL     1     -10.393   6.814  71.667  1.00  0.00    -0.196 C  
HETATM   22  O   UNL     1     -10.477   5.619  71.935  1.00  0.00    -0.211 OA 
BRANCH  21  23
HETATM   23  C   UNL     1     -11.586   7.705  71.691  1.00  0.00    -0.301 A  
HETATM   24  C   UNL     1     -12.862   7.127  71.689  1.00  0.00    -0.420 A  
HETATM   25  C   UNL     1     -13.999   7.939  71.658  1.00  0.00    -0.482 A  
HETATM   26  C   UNL     1     -13.869   9.327  71.618  1.00  0.00    -0.366 A  
HETATM   27  C   UNL     1     -12.602   9.907  71.622  1.00  0.00    -0.519 A  
HETATM   28  C   UNL     1     -11.464   9.102  71.656  1.00  0.00    -0.451 A  
ENDBRANCH  21  23
ENDBRANCH  20  21
ENDBRANCH  19  20
ENDBRANCH  16  19
ENDBRANCH  14  15
ENDBRANCH  12  14
ENDBRANCH   9  10
ENDBRANCH   6   9
ENDBRANCH   3   5
TORSDOF 9
ENDMDL
MODEL      125
REMARK 921   NORMALIZED FREE ENERGY PREDICTED BY IDOCK:   -5.39 KCAL/MOL
REMARK 922        TOTAL FREE ENERGY PREDICTED BY IDOCK:   -9.07 KCAL/MOL
REMARK 923 INTER-LIGAND FREE ENERGY PREDICTED BY IDOCK:   -8.24 KCAL/MOL
REMARK 924 INTRA-LIGAND FREE ENERGY PREDICTED BY IDOCK:   -0.83 KCAL/MOL
REMARK 927      BINDING AFFINITY PREDICTED BY RF-SCORE:    0.00 PKD
ROOT
HETATM    1  O   UNL     1     -11.398   5.401  72.121  1.00  0.00    -0.191 OA 
HETATM    2  C   UNL     1     -10.967   5.817  73.336  1.00  0.00    -0.222 C  
HETATM    3  C   UNL     1     -10.760   7.324  73.443  1.00  0.00    -0.369 C  
HETATM    4  O   UNL     1     -10.739   5.041  74.249  1.00  0.00    -0.289 OA 
ENDROOT
BRANCH   3   5
HETATM    5  N   UNL     1     -11.072   8.027  72.203  1.00  0.00    -0.286 N  
HETATM    6  C   UNL     1     -10.122   8.754  71.516  1.00  0.00    -0.301 C  
HETATM    7  H   UNL     1     -12.021   7.979  71.832  1.00  0.00     0.000 HD 
HETATM    8  O   UNL     1      -8.973   8.891  71.924  1.00  0.00    -0.331 OA 
BRANCH   6   9
HETATM    9  C   UNL     1     -10.609   9.423  70.224  1.00  0.00    -0.250 C  
BRANCH   9  10
HETATM   10  N   UNL     1     -11.106  10.774  70.420  1.00  0.00    -0.462 N  
HETATM   11  H   UNL     1     -10.470  11.557  70.275  1.00  0.00     0.000 HD 
HETATM   12  C   UNL     1     -12.404  11.036  70.796  1.00  0.00    -0.398 C  
HETATM   13  O   UNL     1     -13.232  10.143  70.958  1.00  0.00    -0.394 OA 
BRANCH  12  14
HETATM   14  C   UNL     1     -12.734  12.521  70.997  1.00  0.00    -0.225 C  
BRANCH  14  15
HETATM   15  N   UNL     1     -11.668  13.410  70.543  1.00  0.00    -0.532 N  
HETATM   16  C   UNL     1     -11.498  13.687  69.202  1.00  0.00    -0.297 C  
HETATM   17  H   UNL     1     -11.040  13.832  71.228  1.00  0.00     0.000 HD 
HETATM   18  O   UNL     1     -12.130  13.100  68.328  1.00  0.00    -0.317 OA 
BRANCH  16  19
HETATM   19  C   UNL     1     -10.416  14.708  68.894  1.00  0.00    -0.248 C  
BRANCH  19  20
HETATM   20  S   UNL     1      -9.318  14.152  67.573  1.00  0.00    -0.212 SA 
BRANCH  20  21
HETATM   21  C   UNL     1     -10.085  14.917  66.188  1.00  0.00    -0.298 C  
HETATM   22  O   UNL     1     -10.056  16.135  66.040  1.00  0.00    -0.308 OA 
BRANCH  21  23
HETATM   23  C   UNL     1     -10.784  14.030  65.218  1.00  0.00    -0.367 A  
HETATM   24  C   UNL     1     -11.902  14.524  64.533  1.00  0.00    -0.459 A  
HETATM   25  C   UNL     1     -12.609  13.697  63.656  1.00  0.00    -0.065 A  
HETATM   26  C   UNL     1     -12.212  12.373  63.467  1.00  0.00    -0.661 A  
HETATM   27  C   UNL     1     -11.101  11.877  64.144  1.00  0.00    -0.441 A  
HETATM   28  C   UNL     1     -10.389  12.699  65.018  1.00  0.00    -0.320 A  
ENDBRANCH  21  23
ENDBRANCH  20  21
ENDBRANCH  19  20
ENDBRANCH  16  19
ENDBRANCH  14  15
ENDBRANCH  12  14
ENDBRANCH   9  10
ENDBRANCH   6   9
ENDBRANCH   3   5
TORSDOF 9
ENDMDL
MODEL      126
REMARK 921   NORMALIZED FREE ENERGY PREDICTED BY IDOCK:   -5.38 KCAL/MOL
REMARK 922        TOTAL FREE ENERGY PREDICTED BY IDOCK:   -9.06 KCAL/MOL
REMARK 923 INTER-LIGAND FREE ENERGY PREDICTED BY IDOCK:   -8.12 KCAL/MOL
REMARK 924 INTRA-LIGAND FREE ENERGY PREDICTED BY IDOCK:   -0.93 KCAL/MOL
REMARK 927      BINDING AFFINITY PREDICTED BY RF-SCORE:    0.00 PKD
ROOT
HETATM    1  O   UNL     1     -10.447   6.294  74.270  1.00  0.00    -0.305 OA 
HETATM    2  C   UNL     1     -10.691   5.276  73.411  1.00  0.00    -0.281 C  
HETATM    3  C   UNL     1     -10.903   5.715  71.966  1.00  0.00    -0.242 C  
HETATM    4  O   UNL     1     -10.762   4.115  73.778  1.00  0.00    -0.193 OA 
ENDROOT
BRANCH   3   5
HETATM    5  N   UNL     1     -10.799   7.160  71.793  1.00  0.00    -0.224 N  
HETATM    6  C   UNL     1     -11.910   7.955  71.604  1.00  0.00    -0.288 C  
HETATM    7  H   UNL     1      -9.877   7.596  71.813  1.00  0.00     0.000 HD 
HETATM    8  O   UNL     1     -13.045   7.495  71.528  1.00  0.00    -0.349 OA 
BRANCH   6   9
HETATM    9  C   UNL     1     -11.630   9.455  71.451  1.00  0.00    -0.381 C  
BRANCH   9  10
HETATM   10  N   UNL     1     -11.713   9.925  70.079  1.00  0.00    -0.421 N  
HETATM   11  H   UNL     1     -12.622  10.198  69.706  1.00  0.00     0.000 HD 
HETATM   12  C   UNL     1     -10.608  10.015  69.262  1.00  0.00    -0.227 C  
HETATM   13  O   UNL     1      -9.478   9.733  69.653  1.00  0.00    -0.191 OA 
BRANCH  12  14
HETATM   14  C   UNL     1     -10.897  10.489  67.831  1.00  0.00    -0.282 C  
BRANCH  14  15
HETATM   15  N   UNL     1     -11.648  11.741  67.784  1.00  0.00    -0.313 N  
HETATM   16  C   UNL     1     -11.245  12.780  66.970  1.00  0.00    -0.292 C  
HETATM   17  H   UNL     1     -12.482  11.849  68.362  1.00  0.00     0.000 HD 
HETATM   18  O   UNL     1     -10.177  12.759  66.364  1.00  0.00    -0.244 OA 
BRANCH  16  19
HETATM   19  C   UNL     1     -12.183  13.975  66.951  1.00  0.00    -0.380 C  
BRANCH  19  20
HETATM   20  S   UNL     1     -11.444  15.427  67.730  1.00  0.00    -0.220 SA 
BRANCH  20  21
HETATM   21  C   UNL     1     -10.902  14.723  69.247  1.00  0.00    -0.264 C  
HETATM   22  O   UNL     1      -9.729  14.402  69.413  1.00  0.00     0.002 OA 
BRANCH  21  23
HETATM   23  C   UNL     1     -11.925  14.519  70.310  1.00  0.00    -0.379 A  
HETATM   24  C   UNL     1     -12.181  13.217  70.760  1.00  0.00    -0.390 A  
HETATM   25  C   UNL     1     -13.173  12.990  71.719  1.00  0.00    -0.486 A  
HETATM   26  C   UNL     1     -13.918  14.055  72.222  1.00  0.00    -0.651 A  
HETATM   27  C   UNL     1     -13.666  15.352  71.780  1.00  0.00    -0.610 A  
HETATM   28  C   UNL     1     -12.675  15.586  70.826  1.00  0.00    -0.511 A  
ENDBRANCH  21  23
ENDBRANCH  20  21
ENDBRANCH  19  20
ENDBRANCH  16  19
ENDBRANCH  14  15
ENDBRANCH  12  14
ENDBRANCH   9  10
ENDBRANCH   6   9
ENDBRANCH   3   5
TORSDOF 9
ENDMDL
MODEL      127
REMARK 921   NORMALIZED FREE ENERGY PREDICTED BY IDOCK:   -5.38 KCAL/MOL
REMARK 922        TOTAL FREE ENERGY PREDICTED BY IDOCK:   -9.05 KCAL/MOL
REMARK 923 INTER-LIGAND FREE ENERGY PREDICTED BY IDOCK:   -7.89 KCAL/MOL
REMARK 924 INTRA-LIGAND FREE ENERGY PREDICTED BY IDOCK:   -1.16 KCAL/MOL
REMARK 927      BINDING AFFINITY PREDICTED BY RF-SCORE:    0.00 PKD
ROOT
HETATM    1  O   UNL     1     -13.353  10.266  71.116  1.00  0.00    -0.361 OA 
HETATM    2  C   UNL     1     -13.394   9.214  71.967  1.00  0.00    -0.445 C  
HETATM    3  C   UNL     1     -12.118   8.379  71.990  1.00  0.00    -0.356 C  
HETATM    4  O   UNL     1     -14.382   8.950  72.631  1.00  0.00    -0.613 OA 
ENDROOT
BRANCH   3   5
HETATM    5  N   UNL     1     -11.095   8.885  71.081  1.00  0.00    -0.263 N  
HETATM    6  C   UNL     1      -9.775   9.003  71.461  1.00  0.00    -0.295 C  
HETATM    7  H   UNL     1     -11.365   9.160  70.136  1.00  0.00     0.000 HD 
HETATM    8  O   UNL     1      -9.386   8.731  72.592  1.00  0.00    -0.300 OA 
BRANCH   6   9
HETATM    9  C   UNL     1      -8.824   9.541  70.384  1.00  0.00    -0.234 C  
BRANCH   9  10
HETATM   10  N   UNL     1      -9.389   9.520  69.046  1.00  0.00    -0.151 N  
HETATM   11  H   UNL     1      -9.897   8.691  68.740  1.00  0.00     0.000 HD 
HETATM   12  C   UNL     1      -9.265  10.579  68.175  1.00  0.00    -0.148 C  
HETATM   13  O   UNL     1      -8.694  11.621  68.488  1.00  0.00    -0.161 OA 
BRANCH  12  14
HETATM   14  C   UNL     1      -9.889  10.357  66.791  1.00  0.00    -0.195 C  
BRANCH  14  15
HETATM   15  N   UNL     1      -9.670  11.475  65.878  1.00  0.00    -0.225 N  
HETATM   16  C   UNL     1     -10.620  11.822  64.939  1.00  0.00    -0.294 C  
HETATM   17  H   UNL     1      -8.801  12.008  65.936  1.00  0.00     0.000 HD 
HETATM   18  O   UNL     1     -11.615  11.133  64.731  1.00  0.00     0.090 OA 
BRANCH  16  19
HETATM   19  C   UNL     1     -10.294  13.068  64.133  1.00  0.00    -0.321 C  
BRANCH  19  20
HETATM   20  S   UNL     1     -10.330  14.560  65.149  1.00  0.00    -0.395 SA 
BRANCH  20  21
HETATM   21  C   UNL     1     -11.848  14.319  66.002  1.00  0.00    -0.391 C  
HETATM   22  O   UNL     1     -12.903  14.169  65.390  1.00  0.00    -0.637 OA 
BRANCH  21  23
HETATM   23  C   UNL     1     -11.804  14.323  67.490  1.00  0.00    -0.429 A  
HETATM   24  C   UNL     1     -11.995  13.116  68.175  1.00  0.00    -0.333 A  
HETATM   25  C   UNL     1     -12.011  13.098  69.573  1.00  0.00    -0.354 A  
HETATM   26  C   UNL     1     -11.848  14.283  70.291  1.00  0.00    -0.377 A  
HETATM   27  C   UNL     1     -11.656  15.485  69.614  1.00  0.00    -0.359 A  
HETATM   28  C   UNL     1     -11.635  15.508  68.220  1.00  0.00    -0.344 A  
ENDBRANCH  21  23
ENDBRANCH  20  21
ENDBRANCH  19  20
ENDBRANCH  16  19
ENDBRANCH  14  15
ENDBRANCH  12  14
ENDBRANCH   9  10
ENDBRANCH   6   9
ENDBRANCH   3   5
TORSDOF 9
ENDMDL
MODEL      128
REMARK 921   NORMALIZED FREE ENERGY PREDICTED BY IDOCK:   -5.38 KCAL/MOL
REMARK 922        TOTAL FREE ENERGY PREDICTED BY IDOCK:   -9.05 KCAL/MOL
REMARK 923 INTER-LIGAND FREE ENERGY PREDICTED BY IDOCK:   -8.35 KCAL/MOL
REMARK 924 INTRA-LIGAND FREE ENERGY PREDICTED BY IDOCK:   -0.71 KCAL/MOL
REMARK 927      BINDING AFFINITY PREDICTED BY RF-SCORE:    0.00 PKD
ROOT
HETATM    1  O   UNL     1     -10.775  17.631  67.910  1.00  0.00    -0.394 OA 
HETATM    2  C   UNL     1      -9.500  17.641  67.454  1.00  0.00    -0.256 C  
HETATM    3  C   UNL     1      -9.117  16.409  66.641  1.00  0.00    -0.250 C  
HETATM    4  O   UNL     1      -8.724  18.549  67.704  1.00  0.00    -0.264 OA 
ENDROOT
BRANCH   3   5
HETATM    5  N   UNL     1     -10.213  15.454  66.513  1.00  0.00    -0.271 N  
HETATM    6  C   UNL     1     -10.975  15.366  65.368  1.00  0.00    -0.368 C  
HETATM    7  H   UNL     1     -10.421  14.833  67.295  1.00  0.00     0.000 HD 
HETATM    8  O   UNL     1     -10.809  16.108  64.405  1.00  0.00    -0.569 OA 
BRANCH   6   9
HETATM    9  C   UNL     1     -12.081  14.302  65.390  1.00  0.00    -0.396 C  
BRANCH   9  10
HETATM   10  N   UNL     1     -11.642  13.019  65.910  1.00  0.00    -0.345 N  
HETATM   11  H   UNL     1     -11.262  12.330  65.261  1.00  0.00     0.000 HD 
HETATM   12  C   UNL     1     -11.720  12.698  67.247  1.00  0.00    -0.370 C  
HETATM   13  O   UNL     1     -12.137  13.490  68.088  1.00  0.00    -0.346 OA 
BRANCH  12  14
HETATM   14  C   UNL     1     -11.250  11.281  67.601  1.00  0.00    -0.292 C  
BRANCH  14  15
HETATM   15  N   UNL     1     -11.840  10.775  68.837  1.00  0.00    -0.480 N  
HETATM   16  C   UNL     1     -11.051  10.219  69.825  1.00  0.00    -0.287 C  
HETATM   17  H   UNL     1     -12.849  10.832  68.973  1.00  0.00     0.000 HD 
HETATM   18  O   UNL     1      -9.855   9.995  69.657  1.00  0.00    -0.214 OA 
BRANCH  16  19
HETATM   19  C   UNL     1     -11.795   9.833  71.092  1.00  0.00    -0.382 C  
BRANCH  19  20
HETATM   20  S   UNL     1     -10.989   8.470  71.961  1.00  0.00    -0.360 SA 
BRANCH  20  21
HETATM   21  C   UNL     1     -11.816   7.103  71.228  1.00  0.00    -0.318 C  
HETATM   22  O   UNL     1     -13.034   6.975  71.321  1.00  0.00    -0.378 OA 
BRANCH  21  23
HETATM   23  C   UNL     1     -10.979   6.103  70.510  1.00  0.00    -0.384 A  
HETATM   24  C   UNL     1     -10.951   6.126  69.109  1.00  0.00    -0.450 A  
HETATM   25  C   UNL     1     -10.217   5.166  68.407  1.00  0.00    -0.175 A  
HETATM   26  C   UNL     1      -9.517   4.177  69.097  1.00  0.00    -0.248 A  
HETATM   27  C   UNL     1      -9.539   4.151  70.489  1.00  0.00    -0.261 A  
HETATM   28  C   UNL     1     -10.268   5.108  71.196  1.00  0.00    -0.291 A  
ENDBRANCH  21  23
ENDBRANCH  20  21
ENDBRANCH  19  20
ENDBRANCH  16  19
ENDBRANCH  14  15
ENDBRANCH  12  14
ENDBRANCH   9  10
ENDBRANCH   6   9
ENDBRANCH   3   5
TORSDOF 9
ENDMDL
MODEL      129
REMARK 921   NORMALIZED FREE ENERGY PREDICTED BY IDOCK:   -5.38 KCAL/MOL
REMARK 922        TOTAL FREE ENERGY PREDICTED BY IDOCK:   -9.05 KCAL/MOL
REMARK 923 INTER-LIGAND FREE ENERGY PREDICTED BY IDOCK:   -8.08 KCAL/MOL
REMARK 924 INTRA-LIGAND FREE ENERGY PREDICTED BY IDOCK:   -0.97 KCAL/MOL
REMARK 927      BINDING AFFINITY PREDICTED BY RF-SCORE:    0.00 PKD
ROOT
HETATM    1  O   UNL     1     -10.174  18.498  68.599  1.00  0.00    -0.377 OA 
HETATM    2  C   UNL     1     -10.340  18.001  67.350  1.00  0.00    -0.382 C  
HETATM    3  C   UNL     1     -10.883  16.577  67.312  1.00  0.00    -0.173 C  
HETATM    4  O   UNL     1     -10.048  18.636  66.350  1.00  0.00    -0.359 OA 
ENDROOT
BRANCH   3   5
HETATM    5  N   UNL     1     -11.120  16.026  68.642  1.00  0.00    -0.329 N  
HETATM    6  C   UNL     1     -11.775  14.827  68.831  1.00  0.00    -0.309 C  
HETATM    7  H   UNL     1     -10.792  16.544  69.457  1.00  0.00     0.000 HD 
HETATM    8  O   UNL     1     -12.234  14.172  67.900  1.00  0.00    -0.319 OA 
BRANCH   6   9
HETATM    9  C   UNL     1     -11.933  14.384  70.291  1.00  0.00    -0.321 C  
BRANCH   9  10
HETATM   10  N   UNL     1     -11.931  12.942  70.464  1.00  0.00    -0.533 N  
HETATM   11  H   UNL     1     -11.293  12.380  69.901  1.00  0.00     0.000 HD 
HETATM   12  C   UNL     1     -12.760  12.305  71.360  1.00  0.00    -0.248 C  
HETATM   13  O   UNL     1     -13.530  12.921  72.092  1.00  0.00    -0.523 OA 
BRANCH  12  14
HETATM   14  C   UNL     1     -12.648  10.774  71.371  1.00  0.00    -0.410 C  
BRANCH  14  15
HETATM   15  N   UNL     1     -11.643  10.267  70.442  1.00  0.00    -0.304 N  
HETATM   16  C   UNL     1     -10.702   9.344  70.849  1.00  0.00    -0.323 C  
HETATM   17  H   UNL     1     -11.637  10.600  69.477  1.00  0.00     0.000 HD 
HETATM   18  O   UNL     1     -10.573   9.017  72.026  1.00  0.00    -0.345 OA 
BRANCH  16  19
HETATM   19  C   UNL     1      -9.790   8.834  69.746  1.00  0.00    -0.186 C  
BRANCH  19  20
HETATM   20  S   UNL     1     -10.598   8.866  68.131  1.00  0.00    -0.105 SA 
BRANCH  20  21
HETATM   21  C   UNL     1     -10.020  10.412  67.525  1.00  0.00    -0.181 C  
HETATM   22  O   UNL     1      -9.508  11.236  68.277  1.00  0.00    -0.175 OA 
BRANCH  21  23
HETATM   23  C   UNL     1     -10.194  10.684  66.072  1.00  0.00    -0.309 A  
HETATM   24  C   UNL     1      -9.420   9.966  65.152  1.00  0.00    -0.338 A  
HETATM   25  C   UNL     1      -9.524  10.238  63.784  1.00  0.00    -0.352 A  
HETATM   26  C   UNL     1     -10.390  11.232  63.332  1.00  0.00    -0.449 A  
HETATM   27  C   UNL     1     -11.164  11.948  64.242  1.00  0.00    -0.424 A  
HETATM   28  C   UNL     1     -11.068  11.679  65.607  1.00  0.00    -0.308 A  
ENDBRANCH  21  23
ENDBRANCH  20  21
ENDBRANCH  19  20
ENDBRANCH  16  19
ENDBRANCH  14  15
ENDBRANCH  12  14
ENDBRANCH   9  10
ENDBRANCH   6   9
ENDBRANCH   3   5
TORSDOF 9
ENDMDL
MODEL      130
REMARK 921   NORMALIZED FREE ENERGY PREDICTED BY IDOCK:   -5.36 KCAL/MOL
REMARK 922        TOTAL FREE ENERGY PREDICTED BY IDOCK:   -9.02 KCAL/MOL
REMARK 923 INTER-LIGAND FREE ENERGY PREDICTED BY IDOCK:   -7.97 KCAL/MOL
REMARK 924 INTRA-LIGAND FREE ENERGY PREDICTED BY IDOCK:   -1.06 KCAL/MOL
REMARK 927      BINDING AFFINITY PREDICTED BY RF-SCORE:    0.00 PKD
ROOT
HETATM    1  O   UNL     1      -6.208  12.553  69.367  1.00  0.00    -0.098 OA 
HETATM    2  C   UNL     1      -6.180  11.383  70.048  1.00  0.00    -0.148 C  
HETATM    3  C   UNL     1      -6.512  10.158  69.202  1.00  0.00    -0.049 C  
HETATM    4  O   UNL     1      -5.939  11.329  71.243  1.00  0.00    -0.355 OA 
ENDROOT
BRANCH   3   5
HETATM    5  N   UNL     1      -6.796  10.493  67.811  1.00  0.00    -0.073 N  
HETATM    6  C   UNL     1      -8.055  10.350  67.266  1.00  0.00    -0.114 C  
HETATM    7  H   UNL     1      -6.040  10.844  67.222  1.00  0.00     0.000 HD 
HETATM    8  O   UNL     1      -9.001   9.895  67.902  1.00  0.00    -0.128 OA 
BRANCH   6   9
HETATM    9  C   UNL     1      -8.188  10.757  65.793  1.00  0.00    -0.146 C  
BRANCH   9  10
HETATM   10  N   UNL     1      -8.852  12.035  65.601  1.00  0.00    -0.397 N  
HETATM   11  H   UNL     1      -8.390  12.883  65.929  1.00  0.00     0.000 HD 
HETATM   12  C   UNL     1     -10.082  12.143  64.992  1.00  0.00    -0.263 C  
HETATM   13  O   UNL     1     -10.680  11.168  64.545  1.00  0.00    -0.336 OA 
BRANCH  12  14
HETATM   14  C   UNL     1     -10.645  13.569  64.918  1.00  0.00    -0.397 C  
BRANCH  14  15
HETATM   15  N   UNL     1     -10.521  14.299  66.176  1.00  0.00    -0.285 N  
HETATM   16  C   UNL     1     -10.655  15.672  66.216  1.00  0.00    -0.307 C  
HETATM   17  H   UNL     1     -10.332  13.787  67.038  1.00  0.00     0.000 HD 
HETATM   18  O   UNL     1     -10.740  16.351  65.195  1.00  0.00    -0.579 OA 
BRANCH  16  19
HETATM   19  C   UNL     1     -10.604  16.278  67.608  1.00  0.00    -0.311 C  
BRANCH  19  20
HETATM   20  S   UNL     1     -10.095  15.072  68.852  1.00  0.00    -0.239 SA 
BRANCH  20  21
HETATM   21  C   UNL     1     -11.664  14.440  69.332  1.00  0.00    -0.317 C  
HETATM   22  O   UNL     1     -12.269  13.640  68.624  1.00  0.00    -0.339 OA 
BRANCH  21  23
HETATM   23  C   UNL     1     -12.233  14.928  70.619  1.00  0.00    -0.379 A  
HETATM   24  C   UNL     1     -13.567  14.629  70.925  1.00  0.00    -0.234 A  
HETATM   25  C   UNL     1     -14.143  15.119  72.101  1.00  0.00    -0.654 A  
HETATM   26  C   UNL     1     -13.396  15.916  72.968  1.00  0.00    -0.663 A  
HETATM   27  C   UNL     1     -12.068  16.215  72.669  1.00  0.00    -0.652 A  
HETATM   28  C   UNL     1     -11.487  15.726  71.499  1.00  0.00    -0.504 A  
ENDBRANCH  21  23
ENDBRANCH  20  21
ENDBRANCH  19  20
ENDBRANCH  16  19
ENDBRANCH  14  15
ENDBRANCH  12  14
ENDBRANCH   9  10
ENDBRANCH   6   9
ENDBRANCH   3   5
TORSDOF 9
ENDMDL
MODEL      131
REMARK 921   NORMALIZED FREE ENERGY PREDICTED BY IDOCK:   -5.36 KCAL/MOL
REMARK 922        TOTAL FREE ENERGY PREDICTED BY IDOCK:   -9.02 KCAL/MOL
REMARK 923 INTER-LIGAND FREE ENERGY PREDICTED BY IDOCK:   -8.16 KCAL/MOL
REMARK 924 INTRA-LIGAND FREE ENERGY PREDICTED BY IDOCK:   -0.86 KCAL/MOL
REMARK 927      BINDING AFFINITY PREDICTED BY RF-SCORE:    0.00 PKD
ROOT
HETATM    1  O   UNL     1     -10.240   6.500  69.689  1.00  0.00    -0.175 OA 
HETATM    2  C   UNL     1     -10.522   5.564  70.627  1.00  0.00    -0.272 C  
HETATM    3  C   UNL     1     -11.212   6.114  71.871  1.00  0.00    -0.284 C  
HETATM    4  O   UNL     1     -10.217   4.391  70.491  1.00  0.00    -0.178 OA 
ENDROOT
BRANCH   3   5
HETATM    5  N   UNL     1     -11.436   7.554  71.803  1.00  0.00    -0.253 N  
HETATM    6  C   UNL     1     -12.692   8.089  71.611  1.00  0.00    -0.326 C  
HETATM    7  H   UNL     1     -10.639   8.184  71.900  1.00  0.00     0.000 HD 
HETATM    8  O   UNL     1     -13.689   7.393  71.444  1.00  0.00    -0.383 OA 
BRANCH   6   9
HETATM    9  C   UNL     1     -12.758   9.622  71.575  1.00  0.00    -0.387 C  
BRANCH   9  10
HETATM   10  N   UNL     1     -12.484  10.185  70.264  1.00  0.00    -0.509 N  
HETATM   11  H   UNL     1     -12.557   9.582  69.445  1.00  0.00     0.000 HD 
HETATM   12  C   UNL     1     -12.127  11.503  70.087  1.00  0.00    -0.351 C  
HETATM   13  O   UNL     1     -12.050  12.293  71.024  1.00  0.00    -0.227 OA 
BRANCH  12  14
HETATM   14  C   UNL     1     -11.834  11.905  68.635  1.00  0.00    -0.308 C  
BRANCH  14  15
HETATM   15  N   UNL     1     -10.778  12.907  68.521  1.00  0.00    -0.249 N  
HETATM   16  C   UNL     1     -11.083  14.244  68.365  1.00  0.00    -0.256 C  
HETATM   17  H   UNL     1      -9.801  12.615  68.558  1.00  0.00     0.000 HD 
HETATM   18  O   UNL     1     -12.232  14.635  68.172  1.00  0.00    -0.216 OA 
BRANCH  16  19
HETATM   19  C   UNL     1      -9.883  15.176  68.365  1.00  0.00    -0.223 C  
BRANCH  19  20
HETATM   20  S   UNL     1      -8.820  14.911  66.930  1.00  0.00    -0.261 SA 
BRANCH  20  21
HETATM   21  C   UNL     1      -9.953  15.268  65.634  1.00  0.00    -0.364 C  
HETATM   22  O   UNL     1     -10.236  16.426  65.340  1.00  0.00    -0.546 OA 
BRANCH  21  23
HETATM   23  C   UNL     1     -10.566  14.111  64.924  1.00  0.00    -0.449 A  
HETATM   24  C   UNL     1     -11.781  14.296  64.253  1.00  0.00    -0.348 A  
HETATM   25  C   UNL     1     -12.406  13.215  63.623  1.00  0.00    -0.482 A  
HETATM   26  C   UNL     1     -11.827  11.947  63.669  1.00  0.00    -0.573 A  
HETATM   27  C   UNL     1     -10.617  11.758  64.334  1.00  0.00    -0.368 A  
HETATM   28  C   UNL     1      -9.988  12.833  64.961  1.00  0.00    -0.171 A  
ENDBRANCH  21  23
ENDBRANCH  20  21
ENDBRANCH  19  20
ENDBRANCH  16  19
ENDBRANCH  14  15
ENDBRANCH  12  14
ENDBRANCH   9  10
ENDBRANCH   6   9
ENDBRANCH   3   5
TORSDOF 9
ENDMDL
MODEL      132
REMARK 921   NORMALIZED FREE ENERGY PREDICTED BY IDOCK:   -5.36 KCAL/MOL
REMARK 922        TOTAL FREE ENERGY PREDICTED BY IDOCK:   -9.02 KCAL/MOL
REMARK 923 INTER-LIGAND FREE ENERGY PREDICTED BY IDOCK:   -8.16 KCAL/MOL
REMARK 924 INTRA-LIGAND FREE ENERGY PREDICTED BY IDOCK:   -0.85 KCAL/MOL
REMARK 927      BINDING AFFINITY PREDICTED BY RF-SCORE:    0.00 PKD
ROOT
HETATM    1  O   UNL     1     -12.029  13.535  64.053  1.00  0.00    -0.431 OA 
HETATM    2  C   UNL     1     -11.956  14.876  64.229  1.00  0.00    -0.338 C  
HETATM    3  C   UNL     1     -10.712  15.341  64.979  1.00  0.00    -0.439 C  
HETATM    4  O   UNL     1     -12.831  15.634  63.844  1.00  0.00    -0.619 OA 
ENDROOT
BRANCH   3   5
HETATM    5  N   UNL     1      -9.837  14.238  65.360  1.00  0.00    -0.554 N  
HETATM    6  C   UNL     1      -9.886  13.666  66.613  1.00  0.00    -0.284 C  
HETATM    7  H   UNL     1      -9.168  13.879  64.678  1.00  0.00     0.000 HD 
HETATM    8  O   UNL     1     -10.636  14.072  67.496  1.00  0.00    -0.257 OA 
BRANCH   6   9
HETATM    9  C   UNL     1      -8.907  12.509  66.850  1.00  0.00    -0.203 C  
BRANCH   9  10
HETATM   10  N   UNL     1      -9.530  11.198  66.786  1.00  0.00    -0.181 N  
HETATM   11  H   UNL     1     -10.358  11.019  67.355  1.00  0.00     0.000 HD 
HETATM   12  C   UNL     1      -9.045  10.188  65.986  1.00  0.00    -0.154 C  
HETATM   13  O   UNL     1      -8.072  10.343  65.253  1.00  0.00    -0.152 OA 
BRANCH  12  14
HETATM   14  C   UNL     1      -9.808   8.860  66.084  1.00  0.00    -0.256 C  
BRANCH  14  15
HETATM   15  N   UNL     1      -9.618   8.184  67.364  1.00  0.00    -0.153 N  
HETATM   16  C   UNL     1     -10.211   6.964  67.617  1.00  0.00    -0.185 C  
HETATM   17  H   UNL     1      -9.038   8.620  68.082  1.00  0.00     0.000 HD 
HETATM   18  O   UNL     1     -11.029   6.463  66.849  1.00  0.00    -0.370 OA 
BRANCH  16  19
HETATM   19  C   UNL     1      -9.838   6.337  68.950  1.00  0.00    -0.134 C  
BRANCH  19  20
HETATM   20  S   UNL     1     -11.256   6.218  70.062  1.00  0.00    -0.411 SA 
BRANCH  20  21
HETATM   21  C   UNL     1     -10.816   7.430  71.257  1.00  0.00    -0.238 C  
HETATM   22  O   UNL     1      -9.960   7.201  72.108  1.00  0.00    -0.165 OA 
BRANCH  21  23
HETATM   23  C   UNL     1     -11.534   8.733  71.206  1.00  0.00    -0.355 A  
HETATM   24  C   UNL     1     -11.071   9.727  70.334  1.00  0.00    -0.367 A  
HETATM   25  C   UNL     1     -11.693  10.978  70.303  1.00  0.00    -0.445 A  
HETATM   26  C   UNL     1     -12.770  11.246  71.146  1.00  0.00    -0.492 A  
HETATM   27  C   UNL     1     -13.237  10.261  72.014  1.00  0.00    -0.516 A  
HETATM   28  C   UNL     1     -12.622   9.009  72.047  1.00  0.00    -0.464 A  
ENDBRANCH  21  23
ENDBRANCH  20  21
ENDBRANCH  19  20
ENDBRANCH  16  19
ENDBRANCH  14  15
ENDBRANCH  12  14
ENDBRANCH   9  10
ENDBRANCH   6   9
ENDBRANCH   3   5
TORSDOF 9
ENDMDL
MODEL      133
REMARK 921   NORMALIZED FREE ENERGY PREDICTED BY IDOCK:   -5.35 KCAL/MOL
REMARK 922        TOTAL FREE ENERGY PREDICTED BY IDOCK:   -9.01 KCAL/MOL
REMARK 923 INTER-LIGAND FREE ENERGY PREDICTED BY IDOCK:   -7.22 KCAL/MOL
REMARK 924 INTRA-LIGAND FREE ENERGY PREDICTED BY IDOCK:   -1.79 KCAL/MOL
REMARK 927      BINDING AFFINITY PREDICTED BY RF-SCORE:    0.00 PKD
ROOT
HETATM    1  O   UNL     1      -9.937   6.382  72.187  1.00  0.00    -0.167 OA 
HETATM    2  C   UNL     1     -10.618   5.707  71.230  1.00  0.00    -0.255 C  
HETATM    3  C   UNL     1     -11.750   6.504  70.590  1.00  0.00    -0.374 C  
HETATM    4  O   UNL     1     -10.358   4.552  70.936  1.00  0.00    -0.148 OA 
ENDROOT
BRANCH   3   5
HETATM    5  N   UNL     1     -11.875   7.849  71.139  1.00  0.00    -0.289 N  
HETATM    6  C   UNL     1     -13.096   8.380  71.500  1.00  0.00    -0.296 C  
HETATM    7  H   UNL     1     -11.035   8.415  71.261  1.00  0.00     0.000 HD 
HETATM    8  O   UNL     1     -14.152   7.774  71.344  1.00  0.00    -0.389 OA 
BRANCH   6   9
HETATM    9  C   UNL     1     -13.054   9.803  72.072  1.00  0.00    -0.452 C  
BRANCH   9  10
HETATM   10  N   UNL     1     -12.587  10.798  71.123  1.00  0.00    -0.394 N  
HETATM   11  H   UNL     1     -12.032  10.492  70.324  1.00  0.00     0.000 HD 
HETATM   12  C   UNL     1     -12.866  12.139  71.262  1.00  0.00    -0.250 C  
HETATM   13  O   UNL     1     -13.555  12.573  72.182  1.00  0.00    -0.500 OA 
BRANCH  12  14
HETATM   14  C   UNL     1     -12.252  13.044  70.185  1.00  0.00    -0.272 C  
BRANCH  14  15
HETATM   15  N   UNL     1     -11.110  12.434  69.509  1.00  0.00    -0.466 N  
HETATM   16  C   UNL     1     -11.086  12.305  68.135  1.00  0.00    -0.240 C  
HETATM   17  H   UNL     1     -10.320  12.099  70.060  1.00  0.00     0.000 HD 
HETATM   18  O   UNL     1     -12.064  12.560  67.437  1.00  0.00    -0.466 OA 
BRANCH  16  19
HETATM   19  C   UNL     1      -9.790  11.747  67.570  1.00  0.00    -0.186 C  
BRANCH  19  20
HETATM   20  S   UNL     1     -10.057  10.219  66.647  1.00  0.00    -0.229 SA 
BRANCH  20  21
HETATM   21  C   UNL     1     -10.321   9.096  67.974  1.00  0.00    -0.222 C  
HETATM   22  O   UNL     1     -10.787   9.478  69.044  1.00  0.00    -0.219 OA 
BRANCH  21  23
HETATM   23  C   UNL     1      -9.939   7.674  67.751  1.00  0.00    -0.219 A  
HETATM   24  C   UNL     1     -10.824   6.837  67.059  1.00  0.00    -0.453 A  
HETATM   25  C   UNL     1     -10.516   5.485  66.882  1.00  0.00    -0.348 A  
HETATM   26  C   UNL     1      -9.333   4.962  67.403  1.00  0.00    -0.145 A  
HETATM   27  C   UNL     1      -8.449   5.790  68.090  1.00  0.00    -0.109 A  
HETATM   28  C   UNL     1      -8.749   7.141  68.267  1.00  0.00    -0.128 A  
ENDBRANCH  21  23
ENDBRANCH  20  21
ENDBRANCH  19  20
ENDBRANCH  16  19
ENDBRANCH  14  15
ENDBRANCH  12  14
ENDBRANCH   9  10
ENDBRANCH   6   9
ENDBRANCH   3   5
TORSDOF 9
ENDMDL
MODEL      134
REMARK 921   NORMALIZED FREE ENERGY PREDICTED BY IDOCK:   -5.34 KCAL/MOL
REMARK 922        TOTAL FREE ENERGY PREDICTED BY IDOCK:   -8.99 KCAL/MOL
REMARK 923 INTER-LIGAND FREE ENERGY PREDICTED BY IDOCK:   -8.24 KCAL/MOL
REMARK 924 INTRA-LIGAND FREE ENERGY PREDICTED BY IDOCK:   -0.75 KCAL/MOL
REMARK 927      BINDING AFFINITY PREDICTED BY RF-SCORE:    0.00 PKD
ROOT
HETATM    1  O   UNL     1      -8.857   6.943  67.982  1.00  0.00    -0.125 OA 
HETATM    2  C   UNL     1      -9.402   5.728  68.231  1.00  0.00    -0.117 C  
HETATM    3  C   UNL     1     -10.039   5.600  69.611  1.00  0.00    -0.222 C  
HETATM    4  O   UNL     1      -9.355   4.814  67.425  1.00  0.00    -0.124 OA 
ENDROOT
BRANCH   3   5
HETATM    5  N   UNL     1      -9.935   6.825  70.397  1.00  0.00    -0.179 N  
HETATM    6  C   UNL     1     -11.034   7.404  70.996  1.00  0.00    -0.251 C  
HETATM    7  H   UNL     1      -9.021   7.266  70.507  1.00  0.00     0.000 HD 
HETATM    8  O   UNL     1     -12.168   6.953  70.871  1.00  0.00    -0.381 OA 
BRANCH   6   9
HETATM    9  C   UNL     1     -10.752   8.682  71.796  1.00  0.00    -0.321 C  
BRANCH   9  10
HETATM   10  N   UNL     1     -11.174   9.897  71.120  1.00  0.00    -0.362 N  
HETATM   11  H   UNL     1     -10.533  10.341  70.462  1.00  0.00     0.000 HD 
HETATM   12  C   UNL     1     -12.406  10.471  71.335  1.00  0.00    -0.372 C  
HETATM   13  O   UNL     1     -13.239   9.974  72.089  1.00  0.00    -0.442 OA 
BRANCH  12  14
HETATM   14  C   UNL     1     -12.657  11.775  70.565  1.00  0.00    -0.150 C  
BRANCH  14  15
HETATM   15  N   UNL     1     -11.445  12.328  69.967  1.00  0.00    -0.528 N  
HETATM   16  C   UNL     1     -11.317  12.439  68.597  1.00  0.00    -0.288 C  
HETATM   17  H   UNL     1     -10.683  12.638  70.571  1.00  0.00     0.000 HD 
HETATM   18  O   UNL     1     -12.137  11.954  67.822  1.00  0.00    -0.564 OA 
BRANCH  16  19
HETATM   19  C   UNL     1     -10.045  13.127  68.130  1.00  0.00    -0.237 C  
BRANCH  19  20
HETATM   20  S   UNL     1      -9.932  14.824  68.737  1.00  0.00    -0.234 SA 
BRANCH  20  21
HETATM   21  C   UNL     1     -10.585  15.693  67.356  1.00  0.00    -0.301 C  
HETATM   22  O   UNL     1     -11.150  15.098  66.442  1.00  0.00    -0.339 OA 
BRANCH  21  23
HETATM   23  C   UNL     1     -10.409  17.171  67.332  1.00  0.00    -0.333 A  
HETATM   24  C   UNL     1     -10.180  17.844  68.540  1.00  0.00    -0.393 A  
HETATM   25  C   UNL     1     -10.063  19.237  68.555  1.00  0.00    -0.513 A  
HETATM   26  C   UNL     1     -10.185  19.963  67.370  1.00  0.00    -0.565 A  
HETATM   27  C   UNL     1     -10.410  19.299  66.167  1.00  0.00    -0.578 A  
HETATM   28  C   UNL     1     -10.524  17.909  66.145  1.00  0.00    -0.321 A  
ENDBRANCH  21  23
ENDBRANCH  20  21
ENDBRANCH  19  20
ENDBRANCH  16  19
ENDBRANCH  14  15
ENDBRANCH  12  14
ENDBRANCH   9  10
ENDBRANCH   6   9
ENDBRANCH   3   5
TORSDOF 9
ENDMDL
MODEL      135
REMARK 921   NORMALIZED FREE ENERGY PREDICTED BY IDOCK:   -5.32 KCAL/MOL
REMARK 922        TOTAL FREE ENERGY PREDICTED BY IDOCK:   -8.96 KCAL/MOL
REMARK 923 INTER-LIGAND FREE ENERGY PREDICTED BY IDOCK:   -8.24 KCAL/MOL
REMARK 924 INTRA-LIGAND FREE ENERGY PREDICTED BY IDOCK:   -0.72 KCAL/MOL
REMARK 927      BINDING AFFINITY PREDICTED BY RF-SCORE:    0.00 PKD
ROOT
HETATM    1  O   UNL     1     -10.736   6.953  68.587  1.00  0.00    -0.217 OA 
HETATM    2  C   UNL     1     -10.981   6.111  69.620  1.00  0.00    -0.389 C  
HETATM    3  C   UNL     1     -11.833   6.717  70.730  1.00  0.00    -0.383 C  
HETATM    4  O   UNL     1     -10.529   4.979  69.661  1.00  0.00    -0.255 OA 
ENDROOT
BRANCH   3   5
HETATM    5  N   UNL     1     -12.220   8.096  70.456  1.00  0.00    -0.469 N  
HETATM    6  C   UNL     1     -11.761   9.149  71.219  1.00  0.00    -0.326 C  
HETATM    7  H   UNL     1     -12.851   8.288  69.677  1.00  0.00     0.000 HD 
HETATM    8  O   UNL     1     -11.036   8.990  72.196  1.00  0.00    -0.348 OA 
BRANCH   6   9
HETATM    9  C   UNL     1     -12.254  10.538  70.793  1.00  0.00    -0.369 C  
BRANCH   9  10
HETATM   10  N   UNL     1     -11.236  11.340  70.136  1.00  0.00    -0.490 N  
HETATM   11  H   UNL     1     -10.512  11.777  70.705  1.00  0.00     0.000 HD 
HETATM   12  C   UNL     1     -11.214  11.532  68.773  1.00  0.00    -0.249 C  
HETATM   13  O   UNL     1     -12.036  11.011  68.024  1.00  0.00    -0.623 OA 
BRANCH  12  14
HETATM   14  C   UNL     1     -10.089  12.444  68.265  1.00  0.00    -0.227 C  
BRANCH  14  15
HETATM   15  N   UNL     1     -10.580  13.696  67.697  1.00  0.00    -0.240 N  
HETATM   16  C   UNL     1     -10.701  14.830  68.475  1.00  0.00    -0.247 C  
HETATM   17  H   UNL     1     -10.838  13.733  66.710  1.00  0.00     0.000 HD 
HETATM   18  O   UNL     1     -10.542  14.807  69.693  1.00  0.00    -0.220 OA 
BRANCH  16  19
HETATM   19  C   UNL     1     -11.126  16.078  67.721  1.00  0.00    -0.273 C  
BRANCH  19  20
HETATM   20  S   UNL     1      -9.730  16.890  66.912  1.00  0.00    -0.271 SA 
BRANCH  20  21
HETATM   21  C   UNL     1      -9.486  18.247  68.002  1.00  0.00    -0.290 C  
HETATM   22  O   UNL     1     -10.245  18.446  68.947  1.00  0.00    -0.382 OA 
BRANCH  21  23
HETATM   23  C   UNL     1      -8.337  19.152  67.721  1.00  0.00    -0.325 A  
HETATM   24  C   UNL     1      -8.173  19.653  66.423  1.00  0.00    -0.356 A  
HETATM   25  C   UNL     1      -7.074  20.461  66.117  1.00  0.00    -0.273 A  
HETATM   26  C   UNL     1      -6.132  20.763  67.100  1.00  0.00    -0.302 A  
HETATM   27  C   UNL     1      -6.291  20.268  68.392  1.00  0.00    -0.337 A  
HETATM   28  C   UNL     1      -7.387  19.464  68.704  1.00  0.00    -0.375 A  
ENDBRANCH  21  23
ENDBRANCH  20  21
ENDBRANCH  19  20
ENDBRANCH  16  19
ENDBRANCH  14  15
ENDBRANCH  12  14
ENDBRANCH   9  10
ENDBRANCH   6   9
ENDBRANCH   3   5
TORSDOF 9
ENDMDL
MODEL      136
REMARK 921   NORMALIZED FREE ENERGY PREDICTED BY IDOCK:   -5.32 KCAL/MOL
REMARK 922        TOTAL FREE ENERGY PREDICTED BY IDOCK:   -8.95 KCAL/MOL
REMARK 923 INTER-LIGAND FREE ENERGY PREDICTED BY IDOCK:   -7.92 KCAL/MOL
REMARK 924 INTRA-LIGAND FREE ENERGY PREDICTED BY IDOCK:   -1.04 KCAL/MOL
REMARK 927      BINDING AFFINITY PREDICTED BY RF-SCORE:    0.00 PKD
ROOT
HETATM    1  O   UNL     1     -10.335  12.379  63.904  1.00  0.00    -0.384 OA 
HETATM    2  C   UNL     1     -11.661  12.596  64.072  1.00  0.00    -0.424 C  
HETATM    3  C   UNL     1     -12.098  12.696  65.529  1.00  0.00    -0.458 C  
HETATM    4  O   UNL     1     -12.434  12.672  63.131  1.00  0.00    -0.586 OA 
ENDROOT
BRANCH   3   5
HETATM    5  N   UNL     1     -10.989  12.538  66.464  1.00  0.00    -0.257 N  
HETATM    6  C   UNL     1     -11.086  11.740  67.585  1.00  0.00    -0.252 C  
HETATM    7  H   UNL     1     -10.116  13.033  66.283  1.00  0.00     0.000 HD 
HETATM    8  O   UNL     1     -12.118  11.149  67.887  1.00  0.00    -0.627 OA 
BRANCH   6   9
HETATM    9  C   UNL     1      -9.826  11.673  68.458  1.00  0.00    -0.193 C  
BRANCH   9  10
HETATM   10  N   UNL     1      -9.288  12.978  68.802  1.00  0.00    -0.407 N  
HETATM   11  H   UNL     1      -9.674  13.472  69.606  1.00  0.00     0.000 HD 
HETATM   12  C   UNL     1      -8.275  13.571  68.083  1.00  0.00    -0.162 C  
HETATM   13  O   UNL     1      -7.742  13.020  67.123  1.00  0.00    -0.138 OA 
BRANCH  12  14
HETATM   14  C   UNL     1      -7.868  14.968  68.570  1.00  0.00    -0.137 C  
BRANCH  14  15
HETATM   15  N   UNL     1      -8.760  16.022  68.096  1.00  0.00    -0.171 N  
HETATM   16  C   UNL     1      -9.825  16.448  68.864  1.00  0.00    -0.260 C  
HETATM   17  H   UNL     1      -8.594  16.450  67.184  1.00  0.00     0.000 HD 
HETATM   18  O   UNL     1     -10.156  15.875  69.899  1.00  0.00    -0.268 OA 
BRANCH  16  19
HETATM   19  C   UNL     1     -10.600  17.620  68.284  1.00  0.00    -0.339 C  
BRANCH  19  20
HETATM   20  S   UNL     1      -9.813  19.202  68.656  1.00  0.00    -0.434 SA 
BRANCH  20  21
HETATM   21  C   UNL     1      -9.383  19.723  67.033  1.00  0.00    -0.355 C  
HETATM   22  O   UNL     1     -10.235  20.141  66.254  1.00  0.00    -0.454 OA 
BRANCH  21  23
HETATM   23  C   UNL     1      -7.951  19.619  66.639  1.00  0.00    -0.321 A  
HETATM   24  C   UNL     1      -7.516  18.471  65.964  1.00  0.00    -0.259 A  
HETATM   25  C   UNL     1      -6.167  18.322  65.629  1.00  0.00    -0.292 A  
HETATM   26  C   UNL     1      -5.247  19.311  65.974  1.00  0.00    -0.167 A  
HETATM   27  C   UNL     1      -5.673  20.456  66.643  1.00  0.00    -0.204 A  
HETATM   28  C   UNL     1      -7.019  20.611  66.977  1.00  0.00    -0.365 A  
ENDBRANCH  21  23
ENDBRANCH  20  21
ENDBRANCH  19  20
ENDBRANCH  16  19
ENDBRANCH  14  15
ENDBRANCH  12  14
ENDBRANCH   9  10
ENDBRANCH   6   9
ENDBRANCH   3   5
TORSDOF 9
ENDMDL
MODEL      137
REMARK 921   NORMALIZED FREE ENERGY PREDICTED BY IDOCK:   -5.31 KCAL/MOL
REMARK 922        TOTAL FREE ENERGY PREDICTED BY IDOCK:   -8.95 KCAL/MOL
REMARK 923 INTER-LIGAND FREE ENERGY PREDICTED BY IDOCK:   -8.06 KCAL/MOL
REMARK 924 INTRA-LIGAND FREE ENERGY PREDICTED BY IDOCK:   -0.89 KCAL/MOL
REMARK 927      BINDING AFFINITY PREDICTED BY RF-SCORE:    0.00 PKD
ROOT
HETATM    1  O   UNL     1      -9.742  10.163  65.149  1.00  0.00    -0.262 OA 
HETATM    2  C   UNL     1     -10.386  10.977  64.279  1.00  0.00    -0.364 C  
HETATM    3  C   UNL     1     -11.304  11.998  64.941  1.00  0.00    -0.310 C  
HETATM    4  O   UNL     1     -10.259  10.871  63.070  1.00  0.00    -0.292 OA 
ENDROOT
BRANCH   3   5
HETATM    5  N   UNL     1     -11.305  11.898  66.396  1.00  0.00    -0.345 N  
HETATM    6  C   UNL     1     -11.726  12.936  67.201  1.00  0.00    -0.377 C  
HETATM    7  H   UNL     1     -10.984  11.033  66.833  1.00  0.00     0.000 HD 
HETATM    8  O   UNL     1     -12.085  14.018  66.748  1.00  0.00    -0.428 OA 
BRANCH   6   9
HETATM    9  C   UNL     1     -11.675  12.664  68.710  1.00  0.00    -0.323 C  
BRANCH   9  10
HETATM   10  N   UNL     1     -11.140  13.773  69.482  1.00  0.00    -0.431 N  
HETATM   11  H   UNL     1     -10.173  14.056  69.330  1.00  0.00     0.000 HD 
HETATM   12  C   UNL     1     -11.892  14.455  70.412  1.00  0.00    -0.312 C  
HETATM   13  O   UNL     1     -13.072  14.188  70.624  1.00  0.00    -0.292 OA 
BRANCH  12  14
HETATM   14  C   UNL     1     -11.144  15.566  71.161  1.00  0.00    -0.314 C  
BRANCH  14  15
HETATM   15  N   UNL     1     -11.047  16.806  70.395  1.00  0.00    -0.371 N  
HETATM   16  C   UNL     1     -10.086  16.962  69.417  1.00  0.00    -0.162 C  
HETATM   17  H   UNL     1     -11.698  17.567  70.587  1.00  0.00     0.000 HD 
HETATM   18  O   UNL     1      -9.191  16.139  69.242  1.00  0.00    -0.255 OA 
BRANCH  16  19
HETATM   19  C   UNL     1     -10.175  18.263  68.638  1.00  0.00    -0.353 C  
BRANCH  19  20
HETATM   20  S   UNL     1     -10.261  17.981  66.856  1.00  0.00    -0.372 SA 
BRANCH  20  21
HETATM   21  C   UNL     1      -8.551  17.799  66.488  1.00  0.00    -0.257 C  
HETATM   22  O   UNL     1      -8.142  16.846  65.832  1.00  0.00    -0.453 OA 
BRANCH  21  23
HETATM   23  C   UNL     1      -7.624  18.836  67.019  1.00  0.00    -0.239 A  
HETATM   24  C   UNL     1      -6.639  18.455  67.940  1.00  0.00    -0.208 A  
HETATM   25  C   UNL     1      -5.790  19.416  68.496  1.00  0.00    -0.233 A  
HETATM   26  C   UNL     1      -5.925  20.758  68.143  1.00  0.00    -0.364 A  
HETATM   27  C   UNL     1      -6.900  21.142  67.227  1.00  0.00    -0.408 A  
HETATM   28  C   UNL     1      -7.749  20.188  66.666  1.00  0.00    -0.331 A  
ENDBRANCH  21  23
ENDBRANCH  20  21
ENDBRANCH  19  20
ENDBRANCH  16  19
ENDBRANCH  14  15
ENDBRANCH  12  14
ENDBRANCH   9  10
ENDBRANCH   6   9
ENDBRANCH   3   5
TORSDOF 9
ENDMDL
MODEL      138
REMARK 921   NORMALIZED FREE ENERGY PREDICTED BY IDOCK:   -5.31 KCAL/MOL
REMARK 922        TOTAL FREE ENERGY PREDICTED BY IDOCK:   -8.95 KCAL/MOL
REMARK 923 INTER-LIGAND FREE ENERGY PREDICTED BY IDOCK:   -8.31 KCAL/MOL
REMARK 924 INTRA-LIGAND FREE ENERGY PREDICTED BY IDOCK:   -0.64 KCAL/MOL
REMARK 927      BINDING AFFINITY PREDICTED BY RF-SCORE:    0.00 PKD
ROOT
HETATM    1  O   UNL     1      -7.631   6.669  67.886  1.00  0.00    -0.102 OA 
HETATM    2  C   UNL     1      -8.808   6.037  68.108  1.00  0.00    -0.111 C  
HETATM    3  C   UNL     1      -9.924   6.439  67.150  1.00  0.00    -0.155 C  
HETATM    4  O   UNL     1      -8.959   5.240  69.019  1.00  0.00    -0.104 OA 
ENDROOT
BRANCH   3   5
HETATM    5  N   UNL     1      -9.497   7.433  66.172  1.00  0.00    -0.389 N  
HETATM    6  C   UNL     1      -9.838   8.765  66.287  1.00  0.00    -0.272 C  
HETATM    7  H   UNL     1      -8.930   7.135  65.377  1.00  0.00     0.000 HD 
HETATM    8  O   UNL     1     -10.551   9.188  67.191  1.00  0.00    -0.263 OA 
BRANCH   6   9
HETATM    9  C   UNL     1      -9.300   9.682  65.181  1.00  0.00    -0.259 C  
BRANCH   9  10
HETATM   10  N   UNL     1     -10.010  10.946  65.078  1.00  0.00    -0.275 N  
HETATM   11  H   UNL     1     -10.448  11.333  65.914  1.00  0.00     0.000 HD 
HETATM   12  C   UNL     1     -10.113  11.640  63.894  1.00  0.00    -0.357 C  
HETATM   13  O   UNL     1      -9.585  11.248  62.856  1.00  0.00    -0.348 OA 
BRANCH  12  14
HETATM   14  C   UNL     1     -10.938  12.932  63.969  1.00  0.00    -0.411 C  
BRANCH  14  15
HETATM   15  N   UNL     1     -11.399  13.238  65.321  1.00  0.00    -0.292 N  
HETATM   16  C   UNL     1     -11.260  14.507  65.847  1.00  0.00    -0.331 C  
HETATM   17  H   UNL     1     -11.829  12.504  65.884  1.00  0.00     0.000 HD 
HETATM   18  O   UNL     1     -10.625  15.387  65.272  1.00  0.00    -0.368 OA 
BRANCH  16  19
HETATM   19  C   UNL     1     -11.879  14.697  67.222  1.00  0.00    -0.351 C  
BRANCH  19  20
HETATM   20  S   UNL     1     -10.702  14.351  68.547  1.00  0.00    -0.260 SA 
BRANCH  20  21
HETATM   21  C   UNL     1     -11.756  13.531  69.691  1.00  0.00    -0.314 C  
HETATM   22  O   UNL     1     -12.163  12.393  69.475  1.00  0.00    -0.208 OA 
BRANCH  21  23
HETATM   23  C   UNL     1     -12.145  14.279  70.918  1.00  0.00    -0.417 A  
HETATM   24  C   UNL     1     -13.226  13.814  71.679  1.00  0.00    -0.450 A  
HETATM   25  C   UNL     1     -13.647  14.526  72.806  1.00  0.00    -0.533 A  
HETATM   26  C   UNL     1     -12.999  15.705  73.173  1.00  0.00    -0.645 A  
HETATM   27  C   UNL     1     -11.922  16.170  72.422  1.00  0.00    -0.649 A  
HETATM   28  C   UNL     1     -11.496  15.463  71.298  1.00  0.00    -0.444 A  
ENDBRANCH  21  23
ENDBRANCH  20  21
ENDBRANCH  19  20
ENDBRANCH  16  19
ENDBRANCH  14  15
ENDBRANCH  12  14
ENDBRANCH   9  10
ENDBRANCH   6   9
ENDBRANCH   3   5
TORSDOF 9
ENDMDL
MODEL      139
REMARK 921   NORMALIZED FREE ENERGY PREDICTED BY IDOCK:   -5.30 KCAL/MOL
REMARK 922        TOTAL FREE ENERGY PREDICTED BY IDOCK:   -8.94 KCAL/MOL
REMARK 923 INTER-LIGAND FREE ENERGY PREDICTED BY IDOCK:   -7.67 KCAL/MOL
REMARK 924 INTRA-LIGAND FREE ENERGY PREDICTED BY IDOCK:   -1.27 KCAL/MOL
REMARK 927      BINDING AFFINITY PREDICTED BY RF-SCORE:    0.00 PKD
ROOT
HETATM    1  O   UNL     1     -10.844  12.765  63.483  1.00  0.00    -0.396 OA 
HETATM    2  C   UNL     1     -11.908  13.305  64.125  1.00  0.00    -0.443 C  
HETATM    3  C   UNL     1     -12.061  12.849  65.572  1.00  0.00    -0.458 C  
HETATM    4  O   UNL     1     -12.686  14.064  63.573  1.00  0.00    -0.805 OA 
ENDROOT
BRANCH   3   5
HETATM    5  N   UNL     1     -11.019  11.914  65.984  1.00  0.00    -0.299 N  
HETATM    6  C   UNL     1     -11.112  11.184  67.150  1.00  0.00    -0.287 C  
HETATM    7  H   UNL     1     -10.197  11.797  65.391  1.00  0.00     0.000 HD 
HETATM    8  O   UNL     1     -12.051  11.304  67.931  1.00  0.00    -0.634 OA 
BRANCH   6   9
HETATM    9  C   UNL     1      -9.938  10.237  67.431  1.00  0.00    -0.189 C  
BRANCH   9  10
HETATM   10  N   UNL     1      -8.662  10.918  67.567  1.00  0.00    -0.129 N  
HETATM   11  H   UNL     1      -8.408  11.312  68.472  1.00  0.00     0.000 HD 
HETATM   12  C   UNL     1      -7.782  11.052  66.516  1.00  0.00    -0.154 C  
HETATM   13  O   UNL     1      -8.008  10.576  65.407  1.00  0.00    -0.152 OA 
BRANCH  12  14
HETATM   14  C   UNL     1      -6.505  11.840  66.837  1.00  0.00    -0.121 C  
BRANCH  14  15
HETATM   15  N   UNL     1      -6.773  13.181  67.348  1.00  0.00    -0.278 N  
HETATM   16  C   UNL     1      -6.749  13.443  68.703  1.00  0.00    -0.095 C  
HETATM   17  H   UNL     1      -6.982  13.936  66.693  1.00  0.00     0.000 HD 
HETATM   18  O   UNL     1      -6.645  12.550  69.539  1.00  0.00    -0.106 OA 
BRANCH  16  19
HETATM   19  C   UNL     1      -6.945  14.904  69.073  1.00  0.00    -0.120 C  
BRANCH  19  20
HETATM   20  S   UNL     1      -6.699  16.000  67.659  1.00  0.00    -0.179 SA 
BRANCH  20  21
HETATM   21  C   UNL     1      -8.367  16.229  67.151  1.00  0.00    -0.191 C  
HETATM   22  O   UNL     1      -9.041  15.287  66.746  1.00  0.00    -0.220 OA 
BRANCH  21  23
HETATM   23  C   UNL     1      -8.917  17.611  67.217  1.00  0.00    -0.242 A  
HETATM   24  C   UNL     1      -8.028  18.688  67.336  1.00  0.00    -0.247 A  
HETATM   25  C   UNL     1      -8.518  19.992  67.453  1.00  0.00    -0.391 A  
HETATM   26  C   UNL     1      -9.893  20.225  67.461  1.00  0.00    -0.576 A  
HETATM   27  C   UNL     1     -10.781  19.159  67.341  1.00  0.00    -0.578 A  
HETATM   28  C   UNL     1     -10.298  17.856  67.220  1.00  0.00    -0.374 A  
ENDBRANCH  21  23
ENDBRANCH  20  21
ENDBRANCH  19  20
ENDBRANCH  16  19
ENDBRANCH  14  15
ENDBRANCH  12  14
ENDBRANCH   9  10
ENDBRANCH   6   9
ENDBRANCH   3   5
TORSDOF 9
ENDMDL
MODEL      140
REMARK 921   NORMALIZED FREE ENERGY PREDICTED BY IDOCK:   -5.29 KCAL/MOL
REMARK 922        TOTAL FREE ENERGY PREDICTED BY IDOCK:   -8.92 KCAL/MOL
REMARK 923 INTER-LIGAND FREE ENERGY PREDICTED BY IDOCK:   -8.40 KCAL/MOL
REMARK 924 INTRA-LIGAND FREE ENERGY PREDICTED BY IDOCK:   -0.52 KCAL/MOL
REMARK 927      BINDING AFFINITY PREDICTED BY RF-SCORE:    0.00 PKD
ROOT
HETATM    1  O   UNL     1      -8.312   6.454  68.070  1.00  0.00    -0.115 OA 
HETATM    2  C   UNL     1      -9.530   5.866  68.139  1.00  0.00    -0.115 C  
HETATM    3  C   UNL     1     -10.521   6.356  67.089  1.00  0.00    -0.277 C  
HETATM    4  O   UNL     1      -9.808   5.038  68.991  1.00  0.00    -0.156 OA 
ENDROOT
BRANCH   3   5
HETATM    5  N   UNL     1      -9.954   7.371  66.208  1.00  0.00    -0.457 N  
HETATM    6  C   UNL     1     -10.075   8.719  66.473  1.00  0.00    -0.279 C  
HETATM    7  H   UNL     1      -9.454   7.075  65.369  1.00  0.00     0.000 HD 
HETATM    8  O   UNL     1     -10.697   9.149  67.439  1.00  0.00    -0.277 OA 
BRANCH   6   9
HETATM    9  C   UNL     1      -9.412   9.655  65.454  1.00  0.00    -0.278 C  
BRANCH   9  10
HETATM   10  N   UNL     1     -10.249  10.777  65.065  1.00  0.00    -0.302 N  
HETATM   11  H   UNL     1     -10.755  11.286  65.789  1.00  0.00     0.000 HD 
HETATM   12  C   UNL     1     -10.384  11.178  63.755  1.00  0.00    -0.386 C  
HETATM   13  O   UNL     1      -9.780  10.630  62.836  1.00  0.00    -0.317 OA 
BRANCH  12  14
HETATM   14  C   UNL     1     -11.345  12.354  63.533  1.00  0.00    -0.476 C  
BRANCH  14  15
HETATM   15  N   UNL     1     -10.806  13.628  63.998  1.00  0.00    -0.534 N  
HETATM   16  C   UNL     1     -11.628  14.585  64.559  1.00  0.00    -0.377 C  
HETATM   17  H   UNL     1      -9.806  13.815  63.908  1.00  0.00     0.000 HD 
HETATM   18  O   UNL     1     -12.852  14.473  64.563  1.00  0.00    -0.613 OA 
BRANCH  16  19
HETATM   19  C   UNL     1     -10.908  15.813  65.088  1.00  0.00    -0.428 C  
BRANCH  19  20
HETATM   20  S   UNL     1      -9.625  15.383  66.284  1.00  0.00    -0.338 SA 
BRANCH  20  21
HETATM   21  C   UNL     1      -8.692  16.873  66.288  1.00  0.00    -0.286 C  
HETATM   22  O   UNL     1      -7.646  16.968  65.653  1.00  0.00    -0.179 OA 
BRANCH  21  23
HETATM   23  C   UNL     1      -9.214  18.003  67.105  1.00  0.00    -0.256 A  
HETATM   24  C   UNL     1      -9.269  19.282  66.534  1.00  0.00    -0.388 A  
HETATM   25  C   UNL     1      -9.703  20.371  67.294  1.00  0.00    -0.602 A  
HETATM   26  C   UNL     1     -10.074  20.192  68.626  1.00  0.00    -0.372 A  
HETATM   27  C   UNL     1     -10.024  18.923  69.199  1.00  0.00    -0.273 A  
HETATM   28  C   UNL     1      -9.594  17.832  68.444  1.00  0.00    -0.323 A  
ENDBRANCH  21  23
ENDBRANCH  20  21
ENDBRANCH  19  20
ENDBRANCH  16  19
ENDBRANCH  14  15
ENDBRANCH  12  14
ENDBRANCH   9  10
ENDBRANCH   6   9
ENDBRANCH   3   5
TORSDOF 9
ENDMDL
MODEL      141
REMARK 921   NORMALIZED FREE ENERGY PREDICTED BY IDOCK:   -5.29 KCAL/MOL
REMARK 922        TOTAL FREE ENERGY PREDICTED BY IDOCK:   -8.92 KCAL/MOL
REMARK 923 INTER-LIGAND FREE ENERGY PREDICTED BY IDOCK:   -7.17 KCAL/MOL
REMARK 924 INTRA-LIGAND FREE ENERGY PREDICTED BY IDOCK:   -1.75 KCAL/MOL
REMARK 927      BINDING AFFINITY PREDICTED BY RF-SCORE:    0.00 PKD
ROOT
HETATM    1  O   UNL     1     -12.594   9.710  70.822  1.00  0.00    -0.247 OA 
HETATM    2  C   UNL     1     -11.257   9.636  71.028  1.00  0.00    -0.375 C  
HETATM    3  C   UNL     1     -10.424  10.396  70.001  1.00  0.00    -0.182 C  
HETATM    4  O   UNL     1     -10.771   8.990  71.942  1.00  0.00    -0.347 OA 
ENDROOT
BRANCH   3   5
HETATM    5  N   UNL     1     -11.240  11.060  68.991  1.00  0.00    -0.234 N  
HETATM    6  C   UNL     1     -10.912  12.300  68.485  1.00  0.00    -0.240 C  
HETATM    7  H   UNL     1     -12.080  10.593  68.648  1.00  0.00     0.000 HD 
HETATM    8  O   UNL     1      -9.941  12.938  68.880  1.00  0.00    -0.064 OA 
BRANCH   6   9
HETATM    9  C   UNL     1     -11.868  12.854  67.421  1.00  0.00    -0.360 C  
BRANCH   9  10
HETATM   10  N   UNL     1     -11.554  12.416  66.072  1.00  0.00    -0.383 N  
HETATM   11  H   UNL     1     -10.856  11.684  65.944  1.00  0.00     0.000 HD 
HETATM   12  C   UNL     1     -12.164  12.952  64.961  1.00  0.00    -0.464 C  
HETATM   13  O   UNL     1     -13.036  13.814  65.044  1.00  0.00    -0.732 OA 
BRANCH  12  14
HETATM   14  C   UNL     1     -11.672  12.395  63.619  1.00  0.00    -0.514 C  
BRANCH  14  15
HETATM   15  N   UNL     1     -11.016  11.096  63.744  1.00  0.00    -0.544 N  
HETATM   16  C   UNL     1      -9.687  10.937  63.408  1.00  0.00    -0.352 C  
HETATM   17  H   UNL     1     -11.549  10.295  64.086  1.00  0.00     0.000 HD 
HETATM   18  O   UNL     1      -9.040  11.826  62.861  1.00  0.00    -0.278 OA 
BRANCH  16  19
HETATM   19  C   UNL     1      -9.120   9.555  63.690  1.00  0.00    -0.103 C  
BRANCH  19  20
HETATM   20  S   UNL     1      -8.327   9.467  65.310  1.00  0.00    -0.151 SA 
BRANCH  20  21
HETATM   21  C   UNL     1      -9.702   9.007  66.304  1.00  0.00    -0.275 C  
HETATM   22  O   UNL     1     -10.750   9.647  66.272  1.00  0.00    -0.040 OA 
BRANCH  21  23
HETATM   23  C   UNL     1      -9.537   7.826  67.196  1.00  0.00    -0.220 A  
HETATM   24  C   UNL     1     -10.663   7.057  67.516  1.00  0.00    -0.352 A  
HETATM   25  C   UNL     1     -10.547   5.975  68.393  1.00  0.00    -0.322 A  
HETATM   26  C   UNL     1      -9.312   5.662  68.960  1.00  0.00    -0.150 A  
HETATM   27  C   UNL     1      -8.188   6.422  68.644  1.00  0.00    -0.121 A  
HETATM   28  C   UNL     1      -8.298   7.502  67.767  1.00  0.00    -0.119 A  
ENDBRANCH  21  23
ENDBRANCH  20  21
ENDBRANCH  19  20
ENDBRANCH  16  19
ENDBRANCH  14  15
ENDBRANCH  12  14
ENDBRANCH   9  10
ENDBRANCH   6   9
ENDBRANCH   3   5
TORSDOF 9
ENDMDL
MODEL      142
REMARK 921   NORMALIZED FREE ENERGY PREDICTED BY IDOCK:   -5.29 KCAL/MOL
REMARK 922        TOTAL FREE ENERGY PREDICTED BY IDOCK:   -8.91 KCAL/MOL
REMARK 923 INTER-LIGAND FREE ENERGY PREDICTED BY IDOCK:   -8.11 KCAL/MOL
REMARK 924 INTRA-LIGAND FREE ENERGY PREDICTED BY IDOCK:   -0.80 KCAL/MOL
REMARK 927      BINDING AFFINITY PREDICTED BY RF-SCORE:    0.00 PKD
ROOT
HETATM    1  O   UNL     1     -11.776  14.449  69.501  1.00  0.00    -0.275 OA 
HETATM    2  C   UNL     1     -11.323  15.395  70.359  1.00  0.00    -0.327 C  
HETATM    3  C   UNL     1     -10.658  16.587  69.680  1.00  0.00    -0.302 C  
HETATM    4  O   UNL     1     -11.418  15.278  71.569  1.00  0.00    -0.355 OA 
ENDROOT
BRANCH   3   5
HETATM    5  N   UNL     1     -10.643  16.473  68.225  1.00  0.00    -0.310 N  
HETATM    6  C   UNL     1     -10.331  17.541  67.411  1.00  0.00    -0.351 C  
HETATM    7  H   UNL     1     -10.869  15.575  67.797  1.00  0.00     0.000 HD 
HETATM    8  O   UNL     1     -10.089  18.660  67.854  1.00  0.00    -0.334 OA 
BRANCH   6   9
HETATM    9  C   UNL     1     -10.348  17.251  65.905  1.00  0.00    -0.278 C  
BRANCH   9  10
HETATM   10  N   UNL     1     -10.582  15.854  65.585  1.00  0.00    -0.366 N  
HETATM   11  H   UNL     1     -10.081  15.138  66.110  1.00  0.00     0.000 HD 
HETATM   12  C   UNL     1     -11.457  15.460  64.597  1.00  0.00    -0.337 C  
HETATM   13  O   UNL     1     -12.117  16.265  63.947  1.00  0.00    -0.986 OA 
BRANCH  12  14
HETATM   14  C   UNL     1     -11.540  13.944  64.373  1.00  0.00    -0.382 C  
BRANCH  14  15
HETATM   15  N   UNL     1     -10.622  13.189  65.221  1.00  0.00    -0.304 N  
HETATM   16  C   UNL     1     -11.085  12.476  66.309  1.00  0.00    -0.295 C  
HETATM   17  H   UNL     1      -9.625  13.187  65.006  1.00  0.00     0.000 HD 
HETATM   18  O   UNL     1     -12.247  12.556  66.697  1.00  0.00    -0.552 OA 
BRANCH  16  19
HETATM   19  C   UNL     1     -10.027  11.659  67.032  1.00  0.00    -0.204 C  
BRANCH  19  20
HETATM   20  S   UNL     1     -10.689  10.844  68.501  1.00  0.00    -0.223 SA 
BRANCH  20  21
HETATM   21  C   UNL     1      -9.506   9.560  68.703  1.00  0.00    -0.142 C  
HETATM   22  O   UNL     1      -8.362   9.804  69.077  1.00  0.00    -0.113 OA 
BRANCH  21  23
HETATM   23  C   UNL     1      -9.943   8.172  68.386  1.00  0.00    -0.210 A  
HETATM   24  C   UNL     1      -9.774   7.172  69.353  1.00  0.00    -0.160 A  
HETATM   25  C   UNL     1     -10.126   5.851  69.063  1.00  0.00    -0.237 A  
HETATM   26  C   UNL     1     -10.638   5.521  67.809  1.00  0.00    -0.229 A  
HETATM   27  C   UNL     1     -10.811   6.512  66.845  1.00  0.00    -0.427 A  
HETATM   28  C   UNL     1     -10.464   7.832  67.129  1.00  0.00    -0.413 A  
ENDBRANCH  21  23
ENDBRANCH  20  21
ENDBRANCH  19  20
ENDBRANCH  16  19
ENDBRANCH  14  15
ENDBRANCH  12  14
ENDBRANCH   9  10
ENDBRANCH   6   9
ENDBRANCH   3   5
TORSDOF 9
ENDMDL
MODEL      143
REMARK 921   NORMALIZED FREE ENERGY PREDICTED BY IDOCK:   -5.28 KCAL/MOL
REMARK 922        TOTAL FREE ENERGY PREDICTED BY IDOCK:   -8.90 KCAL/MOL
REMARK 923 INTER-LIGAND FREE ENERGY PREDICTED BY IDOCK:   -7.70 KCAL/MOL
REMARK 924 INTRA-LIGAND FREE ENERGY PREDICTED BY IDOCK:   -1.20 KCAL/MOL
REMARK 927      BINDING AFFINITY PREDICTED BY RF-SCORE:    0.00 PKD
ROOT
HETATM    1  O   UNL     1     -12.122  12.044  70.644  1.00  0.00    -0.373 OA 
HETATM    2  C   UNL     1     -12.799  13.057  71.236  1.00  0.00    -0.281 C  
HETATM    3  C   UNL     1     -12.693  14.391  70.504  1.00  0.00    -0.340 C  
HETATM    4  O   UNL     1     -13.412  12.910  72.281  1.00  0.00    -0.562 OA 
ENDROOT
BRANCH   3   5
HETATM    5  N   UNL     1     -11.876  14.310  69.298  1.00  0.00    -0.310 N  
HETATM    6  C   UNL     1     -11.502  15.434  68.593  1.00  0.00    -0.346 C  
HETATM    7  H   UNL     1     -11.573  13.394  68.966  1.00  0.00     0.000 HD 
HETATM    8  O   UNL     1     -11.864  16.563  68.909  1.00  0.00    -0.113 OA 
BRANCH   6   9
HETATM    9  C   UNL     1     -10.633  15.178  67.354  1.00  0.00    -0.271 C  
BRANCH   9  10
HETATM   10  N   UNL     1     -11.207  14.212  66.432  1.00  0.00    -0.321 N  
HETATM   11  H   UNL     1     -11.360  13.257  66.754  1.00  0.00     0.000 HD 
HETATM   12  C   UNL     1     -11.550  14.540  65.140  1.00  0.00    -0.371 C  
HETATM   13  O   UNL     1     -11.423  15.678  64.696  1.00  0.00    -0.403 OA 
BRANCH  12  14
HETATM   14  C   UNL     1     -12.101  13.378  64.302  1.00  0.00    -0.424 C  
BRANCH  14  15
HETATM   15  N   UNL     1     -11.620  12.073  64.747  1.00  0.00    -0.309 N  
HETATM   16  C   UNL     1     -10.440  11.547  64.260  1.00  0.00    -0.338 C  
HETATM   17  H   UNL     1     -12.164  11.543  65.428  1.00  0.00     0.000 HD 
HETATM   18  O   UNL     1      -9.821  12.074  63.339  1.00  0.00    -0.390 OA 
BRANCH  16  19
HETATM   19  C   UNL     1     -10.020  10.232  64.893  1.00  0.00    -0.323 C  
BRANCH  19  20
HETATM   20  S   UNL     1      -9.171  10.479  66.468  1.00  0.00    -0.164 SA 
BRANCH  20  21
HETATM   21  C   UNL     1     -10.537  10.404  67.572  1.00  0.00    -0.262 C  
HETATM   22  O   UNL     1     -11.541  11.086  67.386  1.00  0.00    -0.525 OA 
BRANCH  21  23
HETATM   23  C   UNL     1     -10.417   9.497  68.746  1.00  0.00    -0.243 A  
HETATM   24  C   UNL     1      -9.855   9.993  69.930  1.00  0.00    -0.266 A  
HETATM   25  C   UNL     1      -9.681   9.149  71.031  1.00  0.00    -0.359 A  
HETATM   26  C   UNL     1     -10.058   7.809  70.953  1.00  0.00    -0.195 A  
HETATM   27  C   UNL     1     -10.619   7.311  69.779  1.00  0.00    -0.247 A  
HETATM   28  C   UNL     1     -10.798   8.149  68.679  1.00  0.00     0.037 A  
ENDBRANCH  21  23
ENDBRANCH  20  21
ENDBRANCH  19  20
ENDBRANCH  16  19
ENDBRANCH  14  15
ENDBRANCH  12  14
ENDBRANCH   9  10
ENDBRANCH   6   9
ENDBRANCH   3   5
TORSDOF 9
ENDMDL
MODEL      144
REMARK 921   NORMALIZED FREE ENERGY PREDICTED BY IDOCK:   -5.27 KCAL/MOL
REMARK 922        TOTAL FREE ENERGY PREDICTED BY IDOCK:   -8.89 KCAL/MOL
REMARK 923 INTER-LIGAND FREE ENERGY PREDICTED BY IDOCK:   -7.81 KCAL/MOL
REMARK 924 INTRA-LIGAND FREE ENERGY PREDICTED BY IDOCK:   -1.07 KCAL/MOL
REMARK 927      BINDING AFFINITY PREDICTED BY RF-SCORE:    0.00 PKD
ROOT
HETATM    1  O   UNL     1     -10.106   6.808  71.890  1.00  0.00    -0.181 OA 
HETATM    2  C   UNL     1     -11.291   6.185  72.093  1.00  0.00    -0.299 C  
HETATM    3  C   UNL     1     -12.494   6.930  71.524  1.00  0.00    -0.375 C  
HETATM    4  O   UNL     1     -11.380   5.135  72.707  1.00  0.00    -0.271 OA 
ENDROOT
BRANCH   3   5
HETATM    5  N   UNL     1     -12.126   8.178  70.865  1.00  0.00    -0.473 N  
HETATM    6  C   UNL     1     -12.665   9.390  71.242  1.00  0.00    -0.314 C  
HETATM    7  H   UNL     1     -11.449   8.154  70.102  1.00  0.00     0.000 HD 
HETATM    8  O   UNL     1     -13.514   9.490  72.122  1.00  0.00    -0.420 OA 
BRANCH   6   9
HETATM    9  C   UNL     1     -12.164  10.609  70.456  1.00  0.00    -0.358 C  
BRANCH   9  10
HETATM   10  N   UNL     1     -11.940  10.339  69.046  1.00  0.00    -0.502 N  
HETATM   11  H   UNL     1     -12.639   9.805  68.530  1.00  0.00     0.000 HD 
HETATM   12  C   UNL     1     -10.817  10.777  68.380  1.00  0.00    -0.232 C  
HETATM   13  O   UNL     1      -9.950  11.451  68.930  1.00  0.00    -0.198 OA 
BRANCH  12  14
HETATM   14  C   UNL     1     -10.733  10.358  66.906  1.00  0.00    -0.207 C  
BRANCH  14  15
HETATM   15  N   UNL     1     -11.260  11.369  65.994  1.00  0.00    -0.183 N  
HETATM   16  C   UNL     1     -10.606  11.671  64.816  1.00  0.00    -0.304 C  
HETATM   17  H   UNL     1     -12.124  11.858  66.230  1.00  0.00     0.000 HD 
HETATM   18  O   UNL     1      -9.495  11.219  64.550  1.00  0.00    -0.228 OA 
BRANCH  16  19
HETATM   19  C   UNL     1     -11.329  12.666  63.923  1.00  0.00    -0.441 C  
BRANCH  19  20
HETATM   20  S   UNL     1     -12.311  13.843  64.878  1.00  0.00    -0.406 SA 
BRANCH  20  21
HETATM   21  C   UNL     1     -11.029  14.730  65.691  1.00  0.00    -0.344 C  
HETATM   22  O   UNL     1     -10.163  15.322  65.051  1.00  0.00    -0.365 OA 
BRANCH  21  23
HETATM   23  C   UNL     1     -11.027  14.717  67.180  1.00  0.00    -0.320 A  
HETATM   24  C   UNL     1     -12.104  14.126  67.852  1.00  0.00    -0.309 A  
HETATM   25  C   UNL     1     -12.155  14.146  69.249  1.00  0.00    -0.364 A  
HETATM   26  C   UNL     1     -11.139  14.764  69.978  1.00  0.00    -0.240 A  
HETATM   27  C   UNL     1     -10.065  15.351  69.315  1.00  0.00    -0.253 A  
HETATM   28  C   UNL     1     -10.007  15.331  67.921  1.00  0.00    -0.228 A  
ENDBRANCH  21  23
ENDBRANCH  20  21
ENDBRANCH  19  20
ENDBRANCH  16  19
ENDBRANCH  14  15
ENDBRANCH  12  14
ENDBRANCH   9  10
ENDBRANCH   6   9
ENDBRANCH   3   5
TORSDOF 9
ENDMDL
MODEL      145
REMARK 921   NORMALIZED FREE ENERGY PREDICTED BY IDOCK:   -5.27 KCAL/MOL
REMARK 922        TOTAL FREE ENERGY PREDICTED BY IDOCK:   -8.89 KCAL/MOL
REMARK 923 INTER-LIGAND FREE ENERGY PREDICTED BY IDOCK:   -7.55 KCAL/MOL
REMARK 924 INTRA-LIGAND FREE ENERGY PREDICTED BY IDOCK:   -1.34 KCAL/MOL
REMARK 927      BINDING AFFINITY PREDICTED BY RF-SCORE:    0.00 PKD
ROOT
HETATM    1  O   UNL     1      -7.620   6.619  67.934  1.00  0.00    -0.102 OA 
HETATM    2  C   UNL     1      -8.779   5.946  68.124  1.00  0.00    -0.111 C  
HETATM    3  C   UNL     1      -9.869   6.280  67.111  1.00  0.00    -0.142 C  
HETATM    4  O   UNL     1      -8.937   5.164  69.047  1.00  0.00    -0.098 OA 
ENDROOT
BRANCH   3   5
HETATM    5  N   UNL     1      -9.442   7.268  66.127  1.00  0.00    -0.387 N  
HETATM    6  C   UNL     1      -9.850   8.584  66.189  1.00  0.00    -0.157 C  
HETATM    7  H   UNL     1      -8.823   6.977  65.370  1.00  0.00     0.000 HD 
HETATM    8  O   UNL     1     -10.626   8.995  67.045  1.00  0.00    -0.261 OA 
BRANCH   6   9
HETATM    9  C   UNL     1      -9.302   9.497  65.084  1.00  0.00    -0.252 C  
BRANCH   9  10
HETATM   10  N   UNL     1     -10.134  10.659  64.825  1.00  0.00    -0.327 N  
HETATM   11  H   UNL     1     -10.677  11.056  65.591  1.00  0.00     0.000 HD 
HETATM   12  C   UNL     1     -10.218  11.245  63.581  1.00  0.00    -0.392 C  
HETATM   13  O   UNL     1      -9.568  10.839  62.621  1.00  0.00    -0.290 OA 
BRANCH  12  14
HETATM   14  C   UNL     1     -11.181  12.435  63.489  1.00  0.00    -0.469 C  
BRANCH  14  15
HETATM   15  N   UNL     1     -11.707  12.848  64.787  1.00  0.00    -0.329 N  
HETATM   16  C   UNL     1     -11.742  14.180  65.148  1.00  0.00    -0.361 C  
HETATM   17  H   UNL     1     -12.053  12.142  65.437  1.00  0.00     0.000 HD 
HETATM   18  O   UNL     1     -11.211  15.055  64.468  1.00  0.00    -0.343 OA 
BRANCH  16  19
HETATM   19  C   UNL     1     -12.410  14.462  66.483  1.00  0.00    -0.243 C  
BRANCH  19  20
HETATM   20  S   UNL     1     -11.208  14.616  67.822  1.00  0.00    -0.321 SA 
BRANCH  20  21
HETATM   21  C   UNL     1     -11.073  12.933  68.313  1.00  0.00    -0.264 C  
HETATM   22  O   UNL     1     -10.431  12.127  67.645  1.00  0.00    -0.201 OA 
BRANCH  21  23
HETATM   23  C   UNL     1     -11.781  12.526  69.558  1.00  0.00    -0.375 A  
HETATM   24  C   UNL     1     -11.833  11.166  69.893  1.00  0.00    -0.439 A  
HETATM   25  C   UNL     1     -12.536  10.750  71.027  1.00  0.00    -0.522 A  
HETATM   26  C   UNL     1     -13.197  11.684  71.824  1.00  0.00    -0.438 A  
HETATM   27  C   UNL     1     -13.147  13.037  71.497  1.00  0.00    -0.400 A  
HETATM   28  C   UNL     1     -12.444  13.459  70.368  1.00  0.00    -0.322 A  
ENDBRANCH  21  23
ENDBRANCH  20  21
ENDBRANCH  19  20
ENDBRANCH  16  19
ENDBRANCH  14  15
ENDBRANCH  12  14
ENDBRANCH   9  10
ENDBRANCH   6   9
ENDBRANCH   3   5
TORSDOF 9
ENDMDL
MODEL      146
REMARK 921   NORMALIZED FREE ENERGY PREDICTED BY IDOCK:   -5.24 KCAL/MOL
REMARK 922        TOTAL FREE ENERGY PREDICTED BY IDOCK:   -8.84 KCAL/MOL
REMARK 923 INTER-LIGAND FREE ENERGY PREDICTED BY IDOCK:   -8.05 KCAL/MOL
REMARK 924 INTRA-LIGAND FREE ENERGY PREDICTED BY IDOCK:   -0.79 KCAL/MOL
REMARK 927      BINDING AFFINITY PREDICTED BY RF-SCORE:    0.00 PKD
ROOT
HETATM    1  O   UNL     1     -10.601   8.425  67.131  1.00  0.00    -0.311 OA 
HETATM    2  C   UNL     1      -9.248   8.361  67.158  1.00  0.00    -0.143 C  
HETATM    3  C   UNL     1      -8.561   9.209  66.092  1.00  0.00    -0.136 C  
HETATM    4  O   UNL     1      -8.643   7.659  67.951  1.00  0.00    -0.122 OA 
ENDROOT
BRANCH   3   5
HETATM    5  N   UNL     1      -9.507   9.929  65.247  1.00  0.00    -0.249 N  
HETATM    6  C   UNL     1      -9.157  10.409  64.002  1.00  0.00    -0.242 C  
HETATM    7  H   UNL     1     -10.457  10.083  65.587  1.00  0.00     0.000 HD 
HETATM    8  O   UNL     1      -8.023  10.297  63.547  1.00  0.00    -0.159 OA 
BRANCH   6   9
HETATM    9  C   UNL     1     -10.271  11.134  63.236  1.00  0.00    -0.350 C  
BRANCH   9  10
HETATM   10  N   UNL     1     -10.650  12.406  63.827  1.00  0.00    -0.433 N  
HETATM   11  H   UNL     1      -9.947  12.940  64.337  1.00  0.00     0.000 HD 
HETATM   12  C   UNL     1     -11.924  12.917  63.723  1.00  0.00    -0.512 C  
HETATM   13  O   UNL     1     -12.812  12.344  63.098  1.00  0.00    -0.624 OA 
BRANCH  12  14
HETATM   14  C   UNL     1     -12.147  14.251  64.448  1.00  0.00    -0.468 C  
BRANCH  14  15
HETATM   15  N   UNL     1     -11.438  14.336  65.722  1.00  0.00    -0.329 N  
HETATM   16  C   UNL     1     -11.617  13.378  66.699  1.00  0.00    -0.362 C  
HETATM   17  H   UNL     1     -10.801  15.115  65.891  1.00  0.00     0.000 HD 
HETATM   18  O   UNL     1     -12.474  12.503  66.607  1.00  0.00    -0.352 OA 
BRANCH  16  19
HETATM   19  C   UNL     1     -10.735  13.546  67.925  1.00  0.00    -0.247 C  
BRANCH  19  20
HETATM   20  S   UNL     1     -10.320  11.959  68.681  1.00  0.00    -0.172 SA 
BRANCH  20  21
HETATM   21  C   UNL     1     -11.566  11.868  69.917  1.00  0.00    -0.256 C  
HETATM   22  O   UNL     1     -12.144  12.878  70.311  1.00  0.00    -0.347 OA 
BRANCH  21  23
HETATM   23  C   UNL     1     -11.878  10.524  70.476  1.00  0.00    -0.442 A  
HETATM   24  C   UNL     1     -10.897   9.525  70.420  1.00  0.00    -0.338 A  
HETATM   25  C   UNL     1     -11.180   8.238  70.888  1.00  0.00    -0.292 A  
HETATM   26  C   UNL     1     -12.442   7.941  71.403  1.00  0.00    -0.330 A  
HETATM   27  C   UNL     1     -13.420   8.932  71.463  1.00  0.00    -0.381 A  
HETATM   28  C   UNL     1     -13.142  10.218  71.000  1.00  0.00    -0.458 A  
ENDBRANCH  21  23
ENDBRANCH  20  21
ENDBRANCH  19  20
ENDBRANCH  16  19
ENDBRANCH  14  15
ENDBRANCH  12  14
ENDBRANCH   9  10
ENDBRANCH   6   9
ENDBRANCH   3   5
TORSDOF 9
ENDMDL
MODEL      147
REMARK 921   NORMALIZED FREE ENERGY PREDICTED BY IDOCK:   -5.24 KCAL/MOL
REMARK 922        TOTAL FREE ENERGY PREDICTED BY IDOCK:   -8.84 KCAL/MOL
REMARK 923 INTER-LIGAND FREE ENERGY PREDICTED BY IDOCK:   -7.50 KCAL/MOL
REMARK 924 INTRA-LIGAND FREE ENERGY PREDICTED BY IDOCK:   -1.33 KCAL/MOL
REMARK 927      BINDING AFFINITY PREDICTED BY RF-SCORE:    0.00 PKD
ROOT
HETATM    1  O   UNL     1      -9.776  14.051  65.658  1.00  0.00    -0.251 OA 
HETATM    2  C   UNL     1     -10.887  14.825  65.629  1.00  0.00    -0.339 C  
HETATM    3  C   UNL     1     -12.149  14.125  66.121  1.00  0.00    -0.435 C  
HETATM    4  O   UNL     1     -10.873  15.973  65.216  1.00  0.00    -0.384 OA 
ENDROOT
BRANCH   3   5
HETATM    5  N   UNL     1     -11.907  12.746  66.530  1.00  0.00    -0.405 N  
HETATM    6  C   UNL     1     -11.882  12.371  67.857  1.00  0.00    -0.308 C  
HETATM    7  H   UNL     1     -11.752  12.037  65.812  1.00  0.00     0.000 HD 
HETATM    8  O   UNL     1     -12.018  13.176  68.773  1.00  0.00    -0.318 OA 
BRANCH   6   9
HETATM    9  C   UNL     1     -11.626  10.881  68.117  1.00  0.00    -0.241 C  
BRANCH   9  10
HETATM   10  N   UNL     1     -12.194  10.403  69.366  1.00  0.00    -0.538 N  
HETATM   11  H   UNL     1     -13.207  10.308  69.441  1.00  0.00     0.000 HD 
HETATM   12  C   UNL     1     -11.416  10.074  70.452  1.00  0.00    -0.314 C  
HETATM   13  O   UNL     1     -10.189  10.133  70.422  1.00  0.00    -0.228 OA 
BRANCH  12  14
HETATM   14  C   UNL     1     -12.196   9.630  71.698  1.00  0.00    -0.402 C  
BRANCH  14  15
HETATM   15  N   UNL     1     -11.668   8.409  72.298  1.00  0.00    -0.369 N  
HETATM   16  C   UNL     1     -12.160   7.171  71.936  1.00  0.00    -0.321 C  
HETATM   17  H   UNL     1     -10.926   8.471  72.995  1.00  0.00     0.000 HD 
HETATM   18  O   UNL     1     -13.145   7.044  71.213  1.00  0.00    -0.369 OA 
BRANCH  16  19
HETATM   19  C   UNL     1     -11.443   5.990  72.569  1.00  0.00    -0.290 C  
BRANCH  19  20
HETATM   20  S   UNL     1     -10.371   5.139  71.391  1.00  0.00    -0.175 SA 
BRANCH  20  21
HETATM   21  C   UNL     1      -9.535   6.513  70.682  1.00  0.00    -0.166 C  
HETATM   22  O   UNL     1      -8.773   7.206  71.351  1.00  0.00    -0.124 OA 
BRANCH  21  23
HETATM   23  C   UNL     1      -9.804   6.811  69.248  1.00  0.00    -0.160 A  
HETATM   24  C   UNL     1      -9.003   7.755  68.592  1.00  0.00    -0.133 A  
HETATM   25  C   UNL     1      -9.266   8.094  67.261  1.00  0.00    -0.165 A  
HETATM   26  C   UNL     1     -10.331   7.500  66.585  1.00  0.00    -0.252 A  
HETATM   27  C   UNL     1     -11.129   6.558  67.231  1.00  0.00    -0.429 A  
HETATM   28  C   UNL     1     -10.869   6.214  68.558  1.00  0.00    -0.389 A  
ENDBRANCH  21  23
ENDBRANCH  20  21
ENDBRANCH  19  20
ENDBRANCH  16  19
ENDBRANCH  14  15
ENDBRANCH  12  14
ENDBRANCH   9  10
ENDBRANCH   6   9
ENDBRANCH   3   5
TORSDOF 9
ENDMDL
MODEL      148
REMARK 921   NORMALIZED FREE ENERGY PREDICTED BY IDOCK:   -5.23 KCAL/MOL
REMARK 922        TOTAL FREE ENERGY PREDICTED BY IDOCK:   -8.83 KCAL/MOL
REMARK 923 INTER-LIGAND FREE ENERGY PREDICTED BY IDOCK:   -7.85 KCAL/MOL
REMARK 924 INTRA-LIGAND FREE ENERGY PREDICTED BY IDOCK:   -0.97 KCAL/MOL
REMARK 927      BINDING AFFINITY PREDICTED BY RF-SCORE:    0.00 PKD
ROOT
HETATM    1  O   UNL     1     -11.670  12.878  66.409  1.00  0.00    -0.355 OA 
HETATM    2  C   UNL     1     -12.096  13.899  65.628  1.00  0.00    -0.421 C  
HETATM    3  C   UNL     1     -11.313  15.195  65.812  1.00  0.00    -0.238 C  
HETATM    4  O   UNL     1     -13.043  13.788  64.867  1.00  0.00    -0.716 OA 
ENDROOT
BRANCH   3   5
HETATM    5  N   UNL     1     -10.250  15.077  66.803  1.00  0.00    -0.256 N  
HETATM    6  C   UNL     1      -9.121  15.869  66.762  1.00  0.00    -0.248 C  
HETATM    7  H   UNL     1     -10.343  14.387  67.549  1.00  0.00     0.000 HD 
HETATM    8  O   UNL     1      -8.923  16.689  65.872  1.00  0.00    -0.482 OA 
BRANCH   6   9
HETATM    9  C   UNL     1      -8.104  15.627  67.885  1.00  0.00    -0.141 C  
BRANCH   9  10
HETATM   10  N   UNL     1      -7.753  14.228  68.060  1.00  0.00    -0.126 N  
HETATM   11  H   UNL     1      -8.061  13.553  67.360  1.00  0.00     0.000 HD 
HETATM   12  C   UNL     1      -7.021  13.780  69.136  1.00  0.00    -0.082 C  
HETATM   13  O   UNL     1      -6.592  14.541  69.999  1.00  0.00    -0.158 OA 
BRANCH  12  14
HETATM   14  C   UNL     1      -6.787  12.263  69.174  1.00  0.00    -0.073 C  
BRANCH  14  15
HETATM   15  N   UNL     1      -7.993  11.491  68.892  1.00  0.00    -0.306 N  
HETATM   16  C   UNL     1      -8.312  10.376  69.641  1.00  0.00    -0.068 C  
HETATM   17  H   UNL     1      -8.609  11.779  68.131  1.00  0.00     0.000 HD 
HETATM   18  O   UNL     1      -7.540   9.902  70.471  1.00  0.00    -0.251 OA 
BRANCH  16  19
HETATM   19  C   UNL     1      -9.648   9.738  69.296  1.00  0.00    -0.197 C  
BRANCH  19  20
HETATM   20  S   UNL     1     -10.861   9.954  70.617  1.00  0.00    -0.310 SA 
BRANCH  20  21
HETATM   21  C   UNL     1     -12.004  11.024  69.816  1.00  0.00    -0.356 C  
HETATM   22  O   UNL     1     -12.394  10.795  68.674  1.00  0.00    -0.430 OA 
BRANCH  21  23
HETATM   23  C   UNL     1     -12.463  12.222  70.572  1.00  0.00    -0.272 A  
HETATM   24  C   UNL     1     -12.033  13.489  70.157  1.00  0.00    -0.399 A  
HETATM   25  C   UNL     1     -12.405  14.626  70.879  1.00  0.00    -0.406 A  
HETATM   26  C   UNL     1     -13.197  14.504  72.020  1.00  0.00    -0.446 A  
HETATM   27  C   UNL     1     -13.629  13.247  72.436  1.00  0.00    -0.694 A  
HETATM   28  C   UNL     1     -13.264  12.109  71.718  1.00  0.00    -0.423 A  
ENDBRANCH  21  23
ENDBRANCH  20  21
ENDBRANCH  19  20
ENDBRANCH  16  19
ENDBRANCH  14  15
ENDBRANCH  12  14
ENDBRANCH   9  10
ENDBRANCH   6   9
ENDBRANCH   3   5
TORSDOF 9
ENDMDL
MODEL      149
REMARK 921   NORMALIZED FREE ENERGY PREDICTED BY IDOCK:   -5.23 KCAL/MOL
REMARK 922        TOTAL FREE ENERGY PREDICTED BY IDOCK:   -8.82 KCAL/MOL
REMARK 923 INTER-LIGAND FREE ENERGY PREDICTED BY IDOCK:   -7.83 KCAL/MOL
REMARK 924 INTRA-LIGAND FREE ENERGY PREDICTED BY IDOCK:   -0.99 KCAL/MOL
REMARK 927      BINDING AFFINITY PREDICTED BY RF-SCORE:    0.00 PKD
ROOT
HETATM    1  O   UNL     1     -10.368   8.204  66.690  1.00  0.00    -0.304 OA 
HETATM    2  C   UNL     1      -9.117   7.860  66.299  1.00  0.00    -0.179 C  
HETATM    3  C   UNL     1      -8.333   7.067  67.339  1.00  0.00    -0.122 C  
HETATM    4  O   UNL     1      -8.658   8.188  65.217  1.00  0.00    -0.160 OA 
ENDROOT
BRANCH   3   5
HETATM    5  N   UNL     1      -9.094   6.832  68.562  1.00  0.00    -0.130 N  
HETATM    6  C   UNL     1      -9.586   5.586  68.888  1.00  0.00    -0.136 C  
HETATM    7  H   UNL     1      -9.266   7.614  69.195  1.00  0.00     0.000 HD 
HETATM    8  O   UNL     1      -9.454   4.611  68.155  1.00  0.00    -0.132 OA 
BRANCH   6   9
HETATM    9  C   UNL     1     -10.354   5.506  70.214  1.00  0.00    -0.279 C  
BRANCH   9  10
HETATM   10  N   UNL     1     -10.466   6.782  70.898  1.00  0.00    -0.211 N  
HETATM   11  H   UNL     1      -9.761   7.497  70.724  1.00  0.00     0.000 HD 
HETATM   12  C   UNL     1     -11.491   7.062  71.775  1.00  0.00    -0.267 C  
HETATM   13  O   UNL     1     -12.392   6.260  72.007  1.00  0.00    -0.328 OA 
BRANCH  12  14
HETATM   14  C   UNL     1     -11.419   8.445  72.435  1.00  0.00    -0.380 C  
BRANCH  14  15
HETATM   15  N   UNL     1     -11.468   9.542  71.473  1.00  0.00    -0.391 N  
HETATM   16  C   UNL     1     -12.512  10.445  71.478  1.00  0.00    -0.404 C  
HETATM   17  H   UNL     1     -10.719   9.643  70.787  1.00  0.00     0.000 HD 
HETATM   18  O   UNL     1     -13.506  10.290  72.183  1.00  0.00    -0.401 OA 
BRANCH  16  19
HETATM   19  C   UNL     1     -12.371  11.588  70.487  1.00  0.00    -0.342 C  
BRANCH  19  20
HETATM   20  S   UNL     1     -11.629  11.049  68.932  1.00  0.00    -0.325 SA 
BRANCH  20  21
HETATM   21  C   UNL     1     -11.688  12.552  68.022  1.00  0.00    -0.355 C  
HETATM   22  O   UNL     1     -11.840  13.631  68.589  1.00  0.00    -0.337 OA 
BRANCH  21  23
HETATM   23  C   UNL     1     -11.564  12.459  66.541  1.00  0.00    -0.447 A  
HETATM   24  C   UNL     1     -10.695  11.506  65.994  1.00  0.00    -0.332 A  
HETATM   25  C   UNL     1     -10.519  11.432  64.609  1.00  0.00    -0.373 A  
HETATM   26  C   UNL     1     -11.199  12.313  63.768  1.00  0.00    -0.510 A  
HETATM   27  C   UNL     1     -12.066  13.260  64.307  1.00  0.00    -0.475 A  
HETATM   28  C   UNL     1     -12.248  13.337  65.688  1.00  0.00    -0.514 A  
ENDBRANCH  21  23
ENDBRANCH  20  21
ENDBRANCH  19  20
ENDBRANCH  16  19
ENDBRANCH  14  15
ENDBRANCH  12  14
ENDBRANCH   9  10
ENDBRANCH   6   9
ENDBRANCH   3   5
TORSDOF 9
ENDMDL
MODEL      150
REMARK 921   NORMALIZED FREE ENERGY PREDICTED BY IDOCK:   -5.21 KCAL/MOL
REMARK 922        TOTAL FREE ENERGY PREDICTED BY IDOCK:   -8.79 KCAL/MOL
REMARK 923 INTER-LIGAND FREE ENERGY PREDICTED BY IDOCK:   -7.72 KCAL/MOL
REMARK 924 INTRA-LIGAND FREE ENERGY PREDICTED BY IDOCK:   -1.07 KCAL/MOL
REMARK 927      BINDING AFFINITY PREDICTED BY RF-SCORE:    0.00 PKD
ROOT
HETATM    1  O   UNL     1     -12.296  11.037  70.471  1.00  0.00    -0.323 OA 
HETATM    2  C   UNL     1     -13.051  11.064  71.595  1.00  0.00    -0.438 C  
HETATM    3  C   UNL     1     -13.491   9.689  72.086  1.00  0.00    -0.429 C  
HETATM    4  O   UNL     1     -13.371  12.107  72.142  1.00  0.00    -0.522 OA 
ENDROOT
BRANCH   3   5
HETATM    5  N   UNL     1     -13.004   8.605  71.240  1.00  0.00    -0.496 N  
HETATM    6  C   UNL     1     -12.002   7.751  71.650  1.00  0.00    -0.297 C  
HETATM    7  H   UNL     1     -13.418   8.474  70.317  1.00  0.00     0.000 HD 
HETATM    8  O   UNL     1     -11.430   7.874  72.729  1.00  0.00    -0.390 OA 
BRANCH   6   9
HETATM    9  C   UNL     1     -11.615   6.657  70.647  1.00  0.00    -0.382 C  
BRANCH   9  10
HETATM   10  N   UNL     1     -10.271   6.805  70.115  1.00  0.00    -0.192 N  
HETATM   11  H   UNL     1      -9.536   7.156  70.728  1.00  0.00     0.000 HD 
HETATM   12  C   UNL     1      -9.953   6.490  68.813  1.00  0.00    -0.143 C  
HETATM   13  O   UNL     1     -10.781   6.034  68.029  1.00  0.00    -0.245 OA 
BRANCH  12  14
HETATM   14  C   UNL     1      -8.493   6.754  68.420  1.00  0.00    -0.122 C  
BRANCH  14  15
HETATM   15  N   UNL     1      -8.069   8.125  68.685  1.00  0.00    -0.122 N  
HETATM   16  C   UNL     1      -8.326   9.135  67.779  1.00  0.00    -0.117 C  
HETATM   17  H   UNL     1      -7.574   8.341  69.551  1.00  0.00     0.000 HD 
HETATM   18  O   UNL     1      -8.788   8.910  66.663  1.00  0.00    -0.123 OA 
BRANCH  16  19
HETATM   19  C   UNL     1      -7.916  10.524  68.240  1.00  0.00    -0.113 C  
BRANCH  19  20
HETATM   20  S   UNL     1      -8.139  11.760  66.942  1.00  0.00    -0.135 SA 
BRANCH  20  21
HETATM   21  C   UNL     1      -9.826  12.182  67.202  1.00  0.00    -0.197 C  
HETATM   22  O   UNL     1     -10.251  12.430  68.327  1.00  0.00    -0.218 OA 
BRANCH  21  23
HETATM   23  C   UNL     1     -10.715  12.209  66.008  1.00  0.00    -0.308 A  
HETATM   24  C   UNL     1     -10.372  11.434  64.892  1.00  0.00    -0.347 A  
HETATM   25  C   UNL     1     -11.159  11.480  63.738  1.00  0.00    -0.471 A  
HETATM   26  C   UNL     1     -12.283  12.305  63.689  1.00  0.00    -0.665 A  
HETATM   27  C   UNL     1     -12.629  13.076  64.796  1.00  0.00    -0.460 A  
HETATM   28  C   UNL     1     -11.849  13.031  65.951  1.00  0.00    -0.468 A  
ENDBRANCH  21  23
ENDBRANCH  20  21
ENDBRANCH  19  20
ENDBRANCH  16  19
ENDBRANCH  14  15
ENDBRANCH  12  14
ENDBRANCH   9  10
ENDBRANCH   6   9
ENDBRANCH   3   5
TORSDOF 9
ENDMDL
MODEL      151
REMARK 921   NORMALIZED FREE ENERGY PREDICTED BY IDOCK:   -5.21 KCAL/MOL
REMARK 922        TOTAL FREE ENERGY PREDICTED BY IDOCK:   -8.79 KCAL/MOL
REMARK 923 INTER-LIGAND FREE ENERGY PREDICTED BY IDOCK:   -7.62 KCAL/MOL
REMARK 924 INTRA-LIGAND FREE ENERGY PREDICTED BY IDOCK:   -1.17 KCAL/MOL
REMARK 927      BINDING AFFINITY PREDICTED BY RF-SCORE:    0.00 PKD
ROOT
HETATM    1  O   UNL     1      -9.281  17.623  68.200  1.00  0.00    -0.266 OA 
HETATM    2  C   UNL     1      -8.121  18.210  68.577  1.00  0.00    -0.302 C  
HETATM    3  C   UNL     1      -7.052  17.233  69.055  1.00  0.00    -0.233 C  
HETATM    4  O   UNL     1      -7.966  19.420  68.561  1.00  0.00    -0.337 OA 
ENDROOT
BRANCH   3   5
HETATM    5  N   UNL     1      -7.495  15.844  69.009  1.00  0.00    -0.180 N  
HETATM    6  C   UNL     1      -6.977  14.941  68.105  1.00  0.00    -0.126 C  
HETATM    7  H   UNL     1      -8.211  15.531  69.666  1.00  0.00     0.000 HD 
HETATM    8  O   UNL     1      -6.146  15.256  67.260  1.00  0.00    -0.325 OA 
BRANCH   6   9
HETATM    9  C   UNL     1      -7.542  13.518  68.196  1.00  0.00    -0.138 C  
BRANCH   9  10
HETATM   10  N   UNL     1      -8.982  13.474  68.380  1.00  0.00    -0.266 N  
HETATM   11  H   UNL     1      -9.506  14.349  68.365  1.00  0.00     0.000 HD 
HETATM   12  C   UNL     1      -9.667  12.295  68.573  1.00  0.00    -0.138 C  
HETATM   13  O   UNL     1      -9.105  11.203  68.571  1.00  0.00    -0.165 OA 
BRANCH  12  14
HETATM   14  C   UNL     1     -11.178  12.452  68.793  1.00  0.00    -0.273 C  
BRANCH  14  15
HETATM   15  N   UNL     1     -11.913  12.699  67.556  1.00  0.00    -0.324 N  
HETATM   16  C   UNL     1     -12.041  13.976  67.049  1.00  0.00    -0.420 C  
HETATM   17  H   UNL     1     -12.339  11.915  67.059  1.00  0.00     0.000 HD 
HETATM   18  O   UNL     1     -11.674  14.967  67.675  1.00  0.00    -0.342 OA 
BRANCH  16  19
HETATM   19  C   UNL     1     -12.743  14.061  65.704  1.00  0.00    -0.481 C  
BRANCH  19  20
HETATM   20  S   UNL     1     -11.571  14.113  64.331  1.00  0.00    -0.329 SA 
BRANCH  20  21
HETATM   21  C   UNL     1     -11.816  12.509  63.653  1.00  0.00    -0.530 C  
HETATM   22  O   UNL     1     -12.870  12.210  63.098  1.00  0.00    -0.662 OA 
BRANCH  21  23
HETATM   23  C   UNL     1     -10.704  11.530  63.796  1.00  0.00    -0.474 A  
HETATM   24  C   UNL     1     -10.507  10.905  65.034  1.00  0.00    -0.331 A  
HETATM   25  C   UNL     1      -9.439  10.022  65.212  1.00  0.00    -0.323 A  
HETATM   26  C   UNL     1      -8.559   9.766  64.161  1.00  0.00    -0.207 A  
HETATM   27  C   UNL     1      -8.751  10.383  62.927  1.00  0.00    -0.214 A  
HETATM   28  C   UNL     1      -9.817  11.263  62.742  1.00  0.00    -0.241 A  
ENDBRANCH  21  23
ENDBRANCH  20  21
ENDBRANCH  19  20
ENDBRANCH  16  19
ENDBRANCH  14  15
ENDBRANCH  12  14
ENDBRANCH   9  10
ENDBRANCH   6   9
ENDBRANCH   3   5
TORSDOF 9
ENDMDL
MODEL      152
REMARK 921   NORMALIZED FREE ENERGY PREDICTED BY IDOCK:   -5.20 KCAL/MOL
REMARK 922        TOTAL FREE ENERGY PREDICTED BY IDOCK:   -8.77 KCAL/MOL
REMARK 923 INTER-LIGAND FREE ENERGY PREDICTED BY IDOCK:   -7.09 KCAL/MOL
REMARK 924 INTRA-LIGAND FREE ENERGY PREDICTED BY IDOCK:   -1.68 KCAL/MOL
REMARK 927      BINDING AFFINITY PREDICTED BY RF-SCORE:    0.00 PKD
ROOT
HETATM    1  O   UNL     1     -12.290  12.206  66.011  1.00  0.00    -0.550 OA 
HETATM    2  C   UNL     1     -12.249  13.327  65.252  1.00  0.00    -0.448 C  
HETATM    3  C   UNL     1     -10.933  13.531  64.509  1.00  0.00    -0.394 C  
HETATM    4  O   UNL     1     -13.179  14.114  65.199  1.00  0.00    -0.743 OA 
ENDROOT
BRANCH   3   5
HETATM    5  N   UNL     1      -9.969  12.466  64.764  1.00  0.00    -0.448 N  
HETATM    6  C   UNL     1      -9.937  11.314  64.007  1.00  0.00    -0.312 C  
HETATM    7  H   UNL     1      -9.299  12.577  65.525  1.00  0.00     0.000 HD 
HETATM    8  O   UNL     1     -10.737  11.094  63.104  1.00  0.00    -0.252 OA 
BRANCH   6   9
HETATM    9  C   UNL     1      -8.855  10.298  64.397  1.00  0.00    -0.209 C  
BRANCH   9  10
HETATM   10  N   UNL     1      -8.013  10.739  65.496  1.00  0.00    -0.307 N  
HETATM   11  H   UNL     1      -8.420  11.329  66.221  1.00  0.00     0.000 HD 
HETATM   12  C   UNL     1      -6.685  10.389  65.594  1.00  0.00    -0.127 C  
HETATM   13  O   UNL     1      -6.138   9.656  64.774  1.00  0.00    -0.075 OA 
BRANCH  12  14
HETATM   14  C   UNL     1      -5.945  10.985  66.799  1.00  0.00    -0.099 C  
BRANCH  14  15
HETATM   15  N   UNL     1      -6.374  12.343  67.120  1.00  0.00    -0.274 N  
HETATM   16  C   UNL     1      -6.589  12.730  68.427  1.00  0.00    -0.083 C  
HETATM   17  H   UNL     1      -6.518  13.016  66.366  1.00  0.00     0.000 HD 
HETATM   18  O   UNL     1      -6.570  11.928  69.358  1.00  0.00    -0.108 OA 
BRANCH  16  19
HETATM   19  C   UNL     1      -6.931  14.199  68.609  1.00  0.00    -0.107 C  
BRANCH  19  20
HETATM   20  S   UNL     1      -8.294  14.714  67.542  1.00  0.00    -0.203 SA 
BRANCH  20  21
HETATM   21  C   UNL     1      -9.546  13.603  68.080  1.00  0.00    -0.221 C  
HETATM   22  O   UNL     1      -9.588  12.447  67.667  1.00  0.00    -0.184 OA 
BRANCH  21  23
HETATM   23  C   UNL     1     -10.558  14.126  69.039  1.00  0.00    -0.227 A  
HETATM   24  C   UNL     1     -11.703  13.362  69.297  1.00  0.00    -0.383 A  
HETATM   25  C   UNL     1     -12.695  13.853  70.152  1.00  0.00    -0.182 A  
HETATM   26  C   UNL     1     -12.553  15.108  70.743  1.00  0.00    -0.452 A  
HETATM   27  C   UNL     1     -11.415  15.870  70.491  1.00  0.00    -0.412 A  
HETATM   28  C   UNL     1     -10.420  15.385  69.642  1.00  0.00    -0.286 A  
ENDBRANCH  21  23
ENDBRANCH  20  21
ENDBRANCH  19  20
ENDBRANCH  16  19
ENDBRANCH  14  15
ENDBRANCH  12  14
ENDBRANCH   9  10
ENDBRANCH   6   9
ENDBRANCH   3   5
TORSDOF 9
ENDMDL
MODEL      153
REMARK 921   NORMALIZED FREE ENERGY PREDICTED BY IDOCK:   -5.20 KCAL/MOL
REMARK 922        TOTAL FREE ENERGY PREDICTED BY IDOCK:   -8.77 KCAL/MOL
REMARK 923 INTER-LIGAND FREE ENERGY PREDICTED BY IDOCK:   -7.98 KCAL/MOL
REMARK 924 INTRA-LIGAND FREE ENERGY PREDICTED BY IDOCK:   -0.79 KCAL/MOL
REMARK 927      BINDING AFFINITY PREDICTED BY RF-SCORE:    0.00 PKD
ROOT
HETATM    1  O   UNL     1     -10.832  12.555  67.451  1.00  0.00    -0.230 OA 
HETATM    2  C   UNL     1     -10.570  11.256  67.170  1.00  0.00    -0.235 C  
HETATM    3  C   UNL     1     -11.238  10.265  68.117  1.00  0.00    -0.229 C  
HETATM    4  O   UNL     1      -9.837  10.921  66.254  1.00  0.00    -0.202 OA 
ENDROOT
BRANCH   3   5
HETATM    5  N   UNL     1     -12.036  10.919  69.148  1.00  0.00    -0.492 N  
HETATM    6  C   UNL     1     -11.877  10.632  70.487  1.00  0.00    -0.357 C  
HETATM    7  H   UNL     1     -12.734  11.610  68.869  1.00  0.00     0.000 HD 
HETATM    8  O   UNL     1     -11.088   9.784  70.892  1.00  0.00    -0.308 OA 
BRANCH   6   9
HETATM    9  C   UNL     1     -12.787  11.416  71.443  1.00  0.00    -0.397 C  
BRANCH   9  10
HETATM   10  N   UNL     1     -12.999  12.796  71.043  1.00  0.00    -0.156 N  
HETATM   11  H   UNL     1     -12.551  13.136  70.192  1.00  0.00     0.000 HD 
HETATM   12  C   UNL     1     -13.783  13.663  71.770  1.00  0.00    -0.331 C  
HETATM   13  O   UNL     1     -14.378  13.313  72.786  1.00  0.00    -0.606 OA 
BRANCH  12  14
HETATM   14  C   UNL     1     -13.854  15.092  71.216  1.00  0.00    -0.472 C  
BRANCH  14  15
HETATM   15  N   UNL     1     -13.027  15.288  70.029  1.00  0.00    -0.646 N  
HETATM   16  C   UNL     1     -11.743  15.784  70.132  1.00  0.00    -0.356 C  
HETATM   17  H   UNL     1     -13.404  15.053  69.110  1.00  0.00     0.000 HD 
HETATM   18  O   UNL     1     -11.292  16.214  71.191  1.00  0.00    -0.387 OA 
BRANCH  16  19
HETATM   19  C   UNL     1     -10.972  15.834  68.824  1.00  0.00    -0.291 C  
BRANCH  19  20
HETATM   20  S   UNL     1      -9.201  15.582  69.073  1.00  0.00    -0.254 SA 
BRANCH  20  21
HETATM   21  C   UNL     1      -8.582  16.202  67.548  1.00  0.00    -0.177 C  
HETATM   22  O   UNL     1      -8.793  15.612  66.492  1.00  0.00    -0.259 OA 
BRANCH  21  23
HETATM   23  C   UNL     1      -7.781  17.455  67.596  1.00  0.00    -0.203 A  
HETATM   24  C   UNL     1      -7.778  18.212  68.775  1.00  0.00    -0.277 A  
HETATM   25  C   UNL     1      -7.078  19.421  68.830  1.00  0.00    -0.393 A  
HETATM   26  C   UNL     1      -6.387  19.883  67.710  1.00  0.00    -0.253 A  
HETATM   27  C   UNL     1      -6.385  19.133  66.536  1.00  0.00    -0.200 A  
HETATM   28  C   UNL     1      -7.079  17.925  66.476  1.00  0.00    -0.270 A  
ENDBRANCH  21  23
ENDBRANCH  20  21
ENDBRANCH  19  20
ENDBRANCH  16  19
ENDBRANCH  14  15
ENDBRANCH  12  14
ENDBRANCH   9  10
ENDBRANCH   6   9
ENDBRANCH   3   5
TORSDOF 9
ENDMDL
MODEL      154
REMARK 921   NORMALIZED FREE ENERGY PREDICTED BY IDOCK:   -5.15 KCAL/MOL
REMARK 922        TOTAL FREE ENERGY PREDICTED BY IDOCK:   -8.71 KCAL/MOL
REMARK 923 INTER-LIGAND FREE ENERGY PREDICTED BY IDOCK:   -7.66 KCAL/MOL
REMARK 924 INTRA-LIGAND FREE ENERGY PREDICTED BY IDOCK:   -1.05 KCAL/MOL
REMARK 927      BINDING AFFINITY PREDICTED BY RF-SCORE:    0.00 PKD
ROOT
HETATM    1  O   UNL     1     -12.339  10.650  69.931  1.00  0.00    -0.309 OA 
HETATM    2  C   UNL     1     -12.492  10.499  71.268  1.00  0.00    -0.419 C  
HETATM    3  C   UNL     1     -11.872   9.223  71.827  1.00  0.00    -0.384 C  
HETATM    4  O   UNL     1     -13.101  11.305  71.951  1.00  0.00    -0.493 OA 
ENDROOT
BRANCH   3   5
HETATM    5  N   UNL     1     -11.229   8.410  70.801  1.00  0.00    -0.262 N  
HETATM    6  C   UNL     1     -11.326   7.035  70.791  1.00  0.00    -0.298 C  
HETATM    7  H   UNL     1     -10.691   8.873  70.068  1.00  0.00     0.000 HD 
HETATM    8  O   UNL     1     -11.920   6.408  71.662  1.00  0.00    -0.323 OA 
BRANCH   6   9
HETATM    9  C   UNL     1     -10.601   6.330  69.636  1.00  0.00    -0.264 C  
BRANCH   9  10
HETATM   10  N   UNL     1     -10.083   7.243  68.632  1.00  0.00    -0.171 N  
HETATM   11  H   UNL     1      -9.394   7.940  68.910  1.00  0.00     0.000 HD 
HETATM   12  C   UNL     1     -10.489   7.200  67.317  1.00  0.00    -0.301 C  
HETATM   13  O   UNL     1     -11.291   6.366  66.905  1.00  0.00    -0.304 OA 
BRANCH  12  14
HETATM   14  C   UNL     1      -9.866   8.271  66.411  1.00  0.00    -0.213 C  
BRANCH  14  15
HETATM   15  N   UNL     1     -10.268   9.628  66.770  1.00  0.00    -0.239 N  
HETATM   16  C   UNL     1      -9.370  10.506  67.342  1.00  0.00    -0.142 C  
HETATM   17  H   UNL     1     -11.226   9.931  66.595  1.00  0.00     0.000 HD 
HETATM   18  O   UNL     1      -8.250  10.153  67.705  1.00  0.00    -0.110 OA 
BRANCH  16  19
HETATM   19  C   UNL     1      -9.905  11.911  67.563  1.00  0.00    -0.188 C  
BRANCH  19  20
HETATM   20  S   UNL     1     -11.527  12.144  66.806  1.00  0.00    -0.342 SA 
BRANCH  20  21
HETATM   21  C   UNL     1     -11.613  13.900  66.790  1.00  0.00    -0.378 C  
HETATM   22  O   UNL     1     -11.705  14.521  65.734  1.00  0.00    -0.358 OA 
BRANCH  21  23
HETATM   23  C   UNL     1     -11.551  14.599  68.103  1.00  0.00    -0.362 A  
HETATM   24  C   UNL     1     -10.840  15.803  68.196  1.00  0.00    -0.307 A  
HETATM   25  C   UNL     1     -10.720  16.453  69.427  1.00  0.00    -0.324 A  
HETATM   26  C   UNL     1     -11.299  15.902  70.570  1.00  0.00    -0.409 A  
HETATM   27  C   UNL     1     -12.010  14.707  70.483  1.00  0.00    -0.376 A  
HETATM   28  C   UNL     1     -12.135  14.055  69.256  1.00  0.00    -0.380 A  
ENDBRANCH  21  23
ENDBRANCH  20  21
ENDBRANCH  19  20
ENDBRANCH  16  19
ENDBRANCH  14  15
ENDBRANCH  12  14
ENDBRANCH   9  10
ENDBRANCH   6   9
ENDBRANCH   3   5
TORSDOF 9
ENDMDL
MODEL      155
REMARK 921   NORMALIZED FREE ENERGY PREDICTED BY IDOCK:   -5.14 KCAL/MOL
REMARK 922        TOTAL FREE ENERGY PREDICTED BY IDOCK:   -8.69 KCAL/MOL
REMARK 923 INTER-LIGAND FREE ENERGY PREDICTED BY IDOCK:   -8.08 KCAL/MOL
REMARK 924 INTRA-LIGAND FREE ENERGY PREDICTED BY IDOCK:   -0.60 KCAL/MOL
REMARK 927      BINDING AFFINITY PREDICTED BY RF-SCORE:    0.00 PKD
ROOT
HETATM    1  O   UNL     1     -11.960   6.634  71.650  1.00  0.00    -0.318 OA 
HETATM    2  C   UNL     1     -11.082   5.842  72.311  1.00  0.00    -0.280 C  
HETATM    3  C   UNL     1      -9.617   6.166  72.034  1.00  0.00    -0.152 C  
HETATM    4  O   UNL     1     -11.443   4.932  73.038  1.00  0.00    -0.293 OA 
ENDROOT
BRANCH   3   5
HETATM    5  N   UNL     1      -9.451   7.278  71.103  1.00  0.00    -0.157 N  
HETATM    6  C   UNL     1      -8.923   8.489  71.499  1.00  0.00    -0.213 C  
HETATM    7  H   UNL     1      -9.733   7.155  70.131  1.00  0.00     0.000 HD 
HETATM    8  O   UNL     1      -8.601   8.721  72.660  1.00  0.00    -0.411 OA 
BRANCH   6   9
HETATM    9  C   UNL     1      -8.804   9.549  70.397  1.00  0.00    -0.234 C  
BRANCH   9  10
HETATM   10  N   UNL     1     -10.018  10.323  70.201  1.00  0.00    -0.423 N  
HETATM   11  H   UNL     1     -10.403  10.841  70.991  1.00  0.00     0.000 HD 
HETATM   12  C   UNL     1     -10.668  10.383  68.989  1.00  0.00    -0.228 C  
HETATM   13  O   UNL     1     -10.243   9.811  67.988  1.00  0.00    -0.170 OA 
BRANCH  12  14
HETATM   14  C   UNL     1     -11.958  11.215  68.985  1.00  0.00    -0.320 C  
BRANCH  14  15
HETATM   15  N   UNL     1     -11.895  12.365  68.088  1.00  0.00    -0.346 N  
HETATM   16  C   UNL     1     -11.849  13.652  68.585  1.00  0.00    -0.374 C  
HETATM   17  H   UNL     1     -11.884  12.215  67.078  1.00  0.00     0.000 HD 
HETATM   18  O   UNL     1     -12.001  13.897  69.779  1.00  0.00    -0.298 OA 
BRANCH  16  19
HETATM   19  C   UNL     1     -11.681  14.736  67.533  1.00  0.00    -0.348 C  
BRANCH  19  20
HETATM   20  S   UNL     1      -9.955  14.944  67.045  1.00  0.00    -0.243 SA 
BRANCH  20  21
HETATM   21  C   UNL     1     -10.117  16.253  65.883  1.00  0.00    -0.357 C  
HETATM   22  O   UNL     1     -10.525  16.044  64.744  1.00  0.00    -0.564 OA 
BRANCH  21  23
HETATM   23  C   UNL     1      -9.724  17.617  66.332  1.00  0.00    -0.303 A  
HETATM   24  C   UNL     1     -10.535  18.705  65.982  1.00  0.00    -0.456 A  
HETATM   25  C   UNL     1     -10.162  20.003  66.344  1.00  0.00    -0.598 A  
HETATM   26  C   UNL     1      -8.977  20.221  67.046  1.00  0.00    -0.451 A  
HETATM   27  C   UNL     1      -8.168  19.144  67.398  1.00  0.00    -0.302 A  
HETATM   28  C   UNL     1      -8.536  17.846  67.043  1.00  0.00    -0.248 A  
ENDBRANCH  21  23
ENDBRANCH  20  21
ENDBRANCH  19  20
ENDBRANCH  16  19
ENDBRANCH  14  15
ENDBRANCH  12  14
ENDBRANCH   9  10
ENDBRANCH   6   9
ENDBRANCH   3   5
TORSDOF 9
ENDMDL
MODEL      156
REMARK 921   NORMALIZED FREE ENERGY PREDICTED BY IDOCK:   -5.14 KCAL/MOL
REMARK 922        TOTAL FREE ENERGY PREDICTED BY IDOCK:   -8.68 KCAL/MOL
REMARK 923 INTER-LIGAND FREE ENERGY PREDICTED BY IDOCK:   -7.98 KCAL/MOL
REMARK 924 INTRA-LIGAND FREE ENERGY PREDICTED BY IDOCK:   -0.70 KCAL/MOL
REMARK 927      BINDING AFFINITY PREDICTED BY RF-SCORE:    0.00 PKD
ROOT
HETATM    1  O   UNL     1      -9.837   5.980  66.946  1.00  0.00    -0.141 OA 
HETATM    2  C   UNL     1      -9.394   4.850  66.344  1.00  0.00    -0.145 C  
HETATM    3  C   UNL     1      -8.737   5.082  64.987  1.00  0.00    -0.151 C  
HETATM    4  O   UNL     1      -9.539   3.745  66.840  1.00  0.00    -0.205 OA 
ENDROOT
BRANCH   3   5
HETATM    5  N   UNL     1      -8.715   6.490  64.603  1.00  0.00    -0.329 N  
HETATM    6  C   UNL     1      -7.908   6.958  63.588  1.00  0.00    -0.107 C  
HETATM    7  H   UNL     1      -9.315   7.148  65.101  1.00  0.00     0.000 HD 
HETATM    8  O   UNL     1      -7.131   6.232  62.974  1.00  0.00    -0.047 OA 
BRANCH   6   9
HETATM    9  C   UNL     1      -8.012   8.461  63.301  1.00  0.00    -0.161 C  
BRANCH   9  10
HETATM   10  N   UNL     1      -8.863   9.174  64.238  1.00  0.00    -0.381 N  
HETATM   11  H   UNL     1      -9.868   9.002  64.218  1.00  0.00     0.000 HD 
HETATM   12  C   UNL     1      -8.362  10.073  65.153  1.00  0.00    -0.153 C  
HETATM   13  O   UNL     1      -7.161  10.306  65.254  1.00  0.00    -0.133 OA 
BRANCH  12  14
HETATM   14  C   UNL     1      -9.418  10.761  66.029  1.00  0.00    -0.194 C  
BRANCH  14  15
HETATM   15  N   UNL     1      -9.651  12.154  65.658  1.00  0.00    -0.368 N  
HETATM   16  C   UNL     1     -10.603  12.487  64.716  1.00  0.00    -0.305 C  
HETATM   17  H   UNL     1      -9.102  12.891  66.101  1.00  0.00     0.000 HD 
HETATM   18  O   UNL     1     -11.190  11.638  64.050  1.00  0.00    -0.361 OA 
BRANCH  16  19
HETATM   19  C   UNL     1     -10.802  13.980  64.511  1.00  0.00    -0.347 C  
BRANCH  19  20
HETATM   20  S   UNL     1     -10.232  14.939  65.930  1.00  0.00    -0.337 SA 
BRANCH  20  21
HETATM   21  C   UNL     1     -10.688  16.557  65.415  1.00  0.00    -0.259 C  
HETATM   22  O   UNL     1     -11.220  16.749  64.324  1.00  0.00    -1.163 OA 
BRANCH  21  23
HETATM   23  C   UNL     1     -10.386  17.681  66.344  1.00  0.00    -0.345 A  
HETATM   24  C   UNL     1     -10.086  17.391  67.681  1.00  0.00    -0.327 A  
HETATM   25  C   UNL     1      -9.851  18.428  68.588  1.00  0.00    -0.403 A  
HETATM   26  C   UNL     1      -9.924  19.756  68.168  1.00  0.00    -0.557 A  
HETATM   27  C   UNL     1     -10.220  20.050  66.839  1.00  0.00    -0.595 A  
HETATM   28  C   UNL     1     -10.452  19.019  65.929  1.00  0.00    -0.468 A  
ENDBRANCH  21  23
ENDBRANCH  20  21
ENDBRANCH  19  20
ENDBRANCH  16  19
ENDBRANCH  14  15
ENDBRANCH  12  14
ENDBRANCH   9  10
ENDBRANCH   6   9
ENDBRANCH   3   5
TORSDOF 9
ENDMDL
MODEL      157
REMARK 921   NORMALIZED FREE ENERGY PREDICTED BY IDOCK:   -5.14 KCAL/MOL
REMARK 922        TOTAL FREE ENERGY PREDICTED BY IDOCK:   -8.68 KCAL/MOL
REMARK 923 INTER-LIGAND FREE ENERGY PREDICTED BY IDOCK:   -8.13 KCAL/MOL
REMARK 924 INTRA-LIGAND FREE ENERGY PREDICTED BY IDOCK:   -0.55 KCAL/MOL
REMARK 927      BINDING AFFINITY PREDICTED BY RF-SCORE:    0.00 PKD
ROOT
HETATM    1  O   UNL     1     -10.983   3.809  63.469  1.00  0.00    -0.210 OA 
HETATM    2  C   UNL     1      -9.728   3.324  63.628  1.00  0.00    -0.134 C  
HETATM    3  C   UNL     1      -8.912   4.043  64.697  1.00  0.00    -0.136 C  
HETATM    4  O   UNL     1      -9.290   2.411  62.949  1.00  0.00    -0.091 OA 
ENDROOT
BRANCH   3   5
HETATM    5  N   UNL     1      -9.653   5.121  65.344  1.00  0.00    -0.343 N  
HETATM    6  C   UNL     1     -10.100   5.021  66.645  1.00  0.00    -0.245 C  
HETATM    7  H   UNL     1      -9.846   5.974  64.818  1.00  0.00     0.000 HD 
HETATM    8  O   UNL     1      -9.941   4.011  67.322  1.00  0.00    -0.149 OA 
BRANCH   6   9
HETATM    9  C   UNL     1     -10.853   6.247  67.180  1.00  0.00    -0.381 C  
BRANCH   9  10
HETATM   10  N   UNL     1     -10.580   7.466  66.438  1.00  0.00    -0.357 N  
HETATM   11  H   UNL     1     -10.492   7.415  65.424  1.00  0.00     0.000 HD 
HETATM   12  C   UNL     1     -10.436   8.688  67.055  1.00  0.00    -0.284 C  
HETATM   13  O   UNL     1     -10.560   8.829  68.269  1.00  0.00    -0.210 OA 
BRANCH  12  14
HETATM   14  C   UNL     1     -10.107   9.854  66.113  1.00  0.00    -0.245 C  
BRANCH  14  15
HETATM   15  N   UNL     1     -10.285  11.162  66.738  1.00  0.00    -0.224 N  
HETATM   16  C   UNL     1     -10.999  12.159  66.105  1.00  0.00    -0.298 C  
HETATM   17  H   UNL     1      -9.876  11.341  67.655  1.00  0.00     0.000 HD 
HETATM   18  O   UNL     1     -11.390  12.049  64.946  1.00  0.00    -0.319 OA 
BRANCH  16  19
HETATM   19  C   UNL     1     -11.186  13.427  66.922  1.00  0.00    -0.308 C  
BRANCH  19  20
HETATM   20  S   UNL     1     -11.308  13.079  68.690  1.00  0.00    -0.313 SA 
BRANCH  20  21
HETATM   21  C   UNL     1     -11.809  14.657  69.283  1.00  0.00    -0.321 C  
HETATM   22  O   UNL     1     -11.851  15.631  68.535  1.00  0.00    -0.355 OA 
BRANCH  21  23
HETATM   23  C   UNL     1     -12.160  14.765  70.725  1.00  0.00    -0.374 A  
HETATM   24  C   UNL     1     -12.949  13.764  71.306  1.00  0.00    -0.409 A  
HETATM   25  C   UNL     1     -13.339  13.866  72.645  1.00  0.00    -0.640 A  
HETATM   26  C   UNL     1     -12.953  14.970  73.404  1.00  0.00    -0.622 A  
HETATM   27  C   UNL     1     -12.166  15.968  72.833  1.00  0.00    -0.621 A  
HETATM   28  C   UNL     1     -11.772  15.869  71.498  1.00  0.00    -0.545 A  
ENDBRANCH  21  23
ENDBRANCH  20  21
ENDBRANCH  19  20
ENDBRANCH  16  19
ENDBRANCH  14  15
ENDBRANCH  12  14
ENDBRANCH   9  10
ENDBRANCH   6   9
ENDBRANCH   3   5
TORSDOF 9
ENDMDL
MODEL      158
REMARK 921   NORMALIZED FREE ENERGY PREDICTED BY IDOCK:   -5.12 KCAL/MOL
REMARK 922        TOTAL FREE ENERGY PREDICTED BY IDOCK:   -8.66 KCAL/MOL
REMARK 923 INTER-LIGAND FREE ENERGY PREDICTED BY IDOCK:   -7.71 KCAL/MOL
REMARK 924 INTRA-LIGAND FREE ENERGY PREDICTED BY IDOCK:   -0.94 KCAL/MOL
REMARK 927      BINDING AFFINITY PREDICTED BY RF-SCORE:    0.00 PKD
ROOT
HETATM    1  O   UNL     1      -9.279  19.493  66.261  1.00  0.00    -0.353 OA 
HETATM    2  C   UNL     1      -8.091  18.851  66.153  1.00  0.00    -0.222 C  
HETATM    3  C   UNL     1      -8.190  17.333  66.261  1.00  0.00    -0.267 C  
HETATM    4  O   UNL     1      -7.036  19.447  66.013  1.00  0.00    -0.245 OA 
ENDROOT
BRANCH   3   5
HETATM    5  N   UNL     1      -9.559  16.869  66.459  1.00  0.00    -0.264 N  
HETATM    6  C   UNL     1      -9.927  16.127  67.562  1.00  0.00    -0.243 C  
HETATM    7  H   UNL     1     -10.266  17.099  65.760  1.00  0.00     0.000 HD 
HETATM    8  O   UNL     1      -9.123  15.778  68.421  1.00  0.00    -0.180 OA 
BRANCH   6   9
HETATM    9  C   UNL     1     -11.407  15.728  67.626  1.00  0.00    -0.194 C  
BRANCH   9  10
HETATM   10  N   UNL     1     -11.675  14.404  67.091  1.00  0.00    -0.386 N  
HETATM   11  H   UNL     1     -11.814  13.630  67.741  1.00  0.00     0.000 HD 
HETATM   12  C   UNL     1     -11.748  14.154  65.739  1.00  0.00    -0.359 C  
HETATM   13  O   UNL     1     -11.623  15.043  64.901  1.00  0.00    -0.386 OA 
BRANCH  12  14
HETATM   14  C   UNL     1     -11.996  12.687  65.363  1.00  0.00    -0.446 C  
BRANCH  14  15
HETATM   15  N   UNL     1     -10.940  11.792  65.829  1.00  0.00    -0.303 N  
HETATM   16  C   UNL     1     -11.070  11.098  67.015  1.00  0.00    -0.273 C  
HETATM   17  H   UNL     1     -10.095  11.677  65.269  1.00  0.00     0.000 HD 
HETATM   18  O   UNL     1     -11.997  11.305  67.795  1.00  0.00    -0.637 OA 
BRANCH  16  19
HETATM   19  C   UNL     1      -9.939  10.129  67.314  1.00  0.00    -0.195 C  
BRANCH  19  20
HETATM   20  S   UNL     1     -10.491   8.410  67.274  1.00  0.00    -0.266 SA 
BRANCH  20  21
HETATM   21  C   UNL     1      -9.965   7.878  68.865  1.00  0.00    -0.190 C  
HETATM   22  O   UNL     1      -8.849   7.394  69.035  1.00  0.00    -0.133 OA 
BRANCH  21  23
HETATM   23  C   UNL     1     -10.932   8.021  69.988  1.00  0.00    -0.202 A  
HETATM   24  C   UNL     1     -11.141   9.291  70.543  1.00  0.00    -0.317 A  
HETATM   25  C   UNL     1     -12.003   9.446  71.633  1.00  0.00    -0.465 A  
HETATM   26  C   UNL     1     -12.650   8.338  72.178  1.00  0.00    -0.379 A  
HETATM   27  C   UNL     1     -12.449   7.074  71.628  1.00  0.00    -0.413 A  
HETATM   28  C   UNL     1     -11.592   6.913  70.539  1.00  0.00    -0.396 A  
ENDBRANCH  21  23
ENDBRANCH  20  21
ENDBRANCH  19  20
ENDBRANCH  16  19
ENDBRANCH  14  15
ENDBRANCH  12  14
ENDBRANCH   9  10
ENDBRANCH   6   9
ENDBRANCH   3   5
TORSDOF 9
ENDMDL
MODEL      159
REMARK 921   NORMALIZED FREE ENERGY PREDICTED BY IDOCK:   -5.12 KCAL/MOL
REMARK 922        TOTAL FREE ENERGY PREDICTED BY IDOCK:   -8.65 KCAL/MOL
REMARK 923 INTER-LIGAND FREE ENERGY PREDICTED BY IDOCK:   -7.75 KCAL/MOL
REMARK 924 INTRA-LIGAND FREE ENERGY PREDICTED BY IDOCK:   -0.90 KCAL/MOL
REMARK 927      BINDING AFFINITY PREDICTED BY RF-SCORE:    0.00 PKD
ROOT
HETATM    1  O   UNL     1      -7.889   3.979  65.758  1.00  0.00    -0.089 OA 
HETATM    2  C   UNL     1      -9.121   3.475  65.506  1.00  0.00    -0.147 C  
HETATM    3  C   UNL     1     -10.242   4.507  65.560  1.00  0.00    -0.231 C  
HETATM    4  O   UNL     1      -9.309   2.290  65.286  1.00  0.00    -0.119 OA 
ENDROOT
BRANCH   3   5
HETATM    5  N   UNL     1      -9.761   5.848  65.874  1.00  0.00    -0.370 N  
HETATM    6  C   UNL     1     -10.322   6.609  66.878  1.00  0.00    -0.254 C  
HETATM    7  H   UNL     1      -8.985   6.234  65.335  1.00  0.00     0.000 HD 
HETATM    8  O   UNL     1     -11.283   6.226  67.538  1.00  0.00    -0.328 OA 
BRANCH   6   9
HETATM    9  C   UNL     1      -9.692   7.992  67.089  1.00  0.00    -0.195 C  
BRANCH   9  10
HETATM   10  N   UNL     1     -10.074   8.965  66.079  1.00  0.00    -0.416 N  
HETATM   11  H   UNL     1     -11.058   9.214  65.984  1.00  0.00     0.000 HD 
HETATM   12  C   UNL     1      -9.156   9.563  65.246  1.00  0.00    -0.224 C  
HETATM   13  O   UNL     1      -7.952   9.334  65.325  1.00  0.00    -0.101 OA 
BRANCH  12  14
HETATM   14  C   UNL     1      -9.752  10.530  64.214  1.00  0.00    -0.330 C  
BRANCH  14  15
HETATM   15  N   UNL     1      -9.765  11.917  64.671  1.00  0.00    -0.419 N  
HETATM   16  C   UNL     1     -10.742  12.795  64.246  1.00  0.00    -0.394 C  
HETATM   17  H   UNL     1      -9.043  12.241  65.314  1.00  0.00     0.000 HD 
HETATM   18  O   UNL     1     -11.548  12.500  63.367  1.00  0.00    -0.476 OA 
BRANCH  16  19
HETATM   19  C   UNL     1     -10.685  14.171  64.887  1.00  0.00    -0.428 C  
BRANCH  19  20
HETATM   20  S   UNL     1     -11.821  14.315  66.284  1.00  0.00    -0.400 SA 
BRANCH  20  21
HETATM   21  C   UNL     1     -10.834  13.614  67.559  1.00  0.00    -0.264 C  
HETATM   22  O   UNL     1      -9.635  13.409  67.393  1.00  0.00    -0.212 OA 
BRANCH  21  23
HETATM   23  C   UNL     1     -11.516  13.265  68.836  1.00  0.00    -0.342 A  
HETATM   24  C   UNL     1     -12.039  14.297  69.627  1.00  0.00    -0.396 A  
HETATM   25  C   UNL     1     -12.637  14.003  70.856  1.00  0.00    -0.431 A  
HETATM   26  C   UNL     1     -12.706  12.684  71.304  1.00  0.00    -0.354 A  
HETATM   27  C   UNL     1     -12.189  11.655  70.521  1.00  0.00    -0.451 A  
HETATM   28  C   UNL     1     -11.594  11.941  69.292  1.00  0.00    -0.376 A  
ENDBRANCH  21  23
ENDBRANCH  20  21
ENDBRANCH  19  20
ENDBRANCH  16  19
ENDBRANCH  14  15
ENDBRANCH  12  14
ENDBRANCH   9  10
ENDBRANCH   6   9
ENDBRANCH   3   5
TORSDOF 9
ENDMDL
MODEL      160
REMARK 921   NORMALIZED FREE ENERGY PREDICTED BY IDOCK:   -5.11 KCAL/MOL
REMARK 922        TOTAL FREE ENERGY PREDICTED BY IDOCK:   -8.65 KCAL/MOL
REMARK 923 INTER-LIGAND FREE ENERGY PREDICTED BY IDOCK:   -8.01 KCAL/MOL
REMARK 924 INTRA-LIGAND FREE ENERGY PREDICTED BY IDOCK:   -0.64 KCAL/MOL
REMARK 927      BINDING AFFINITY PREDICTED BY RF-SCORE:    0.00 PKD
ROOT
HETATM    1  O   UNL     1     -12.566  12.290  63.451  1.00  0.00    -0.682 OA 
HETATM    2  C   UNL     1     -12.155  13.282  64.277  1.00  0.00    -0.416 C  
HETATM    3  C   UNL     1     -10.674  13.221  64.638  1.00  0.00    -0.400 C  
HETATM    4  O   UNL     1     -12.919  14.127  64.713  1.00  0.00    -0.674 OA 
ENDROOT
BRANCH   3   5
HETATM    5  N   UNL     1      -9.986  12.096  64.015  1.00  0.00    -0.506 N  
HETATM    6  C   UNL     1      -9.822  10.890  64.663  1.00  0.00    -0.294 C  
HETATM    7  H   UNL     1      -9.615  12.205  63.071  1.00  0.00     0.000 HD 
HETATM    8  O   UNL     1     -10.205  10.701  65.813  1.00  0.00    -0.253 OA 
BRANCH   6   9
HETATM    9  C   UNL     1      -9.087   9.806  63.864  1.00  0.00    -0.233 C  
BRANCH   9  10
HETATM   10  N   UNL     1      -8.881   8.575  64.607  1.00  0.00    -0.414 N  
HETATM   11  H   UNL     1      -9.408   8.426  65.468  1.00  0.00     0.000 HD 
HETATM   12  C   UNL     1      -8.001   7.601  64.193  1.00  0.00    -0.105 C  
HETATM   13  O   UNL     1      -7.357   7.699  63.151  1.00  0.00    -0.084 OA 
BRANCH  12  14
HETATM   14  C   UNL     1      -7.885   6.391  65.130  1.00  0.00    -0.111 C  
BRANCH  14  15
HETATM   15  N   UNL     1      -8.443   6.639  66.456  1.00  0.00    -0.116 N  
HETATM   16  C   UNL     1      -8.587   5.613  67.368  1.00  0.00    -0.109 C  
HETATM   17  H   UNL     1      -8.732   7.584  66.712  1.00  0.00     0.000 HD 
HETATM   18  O   UNL     1      -8.391   4.438  67.068  1.00  0.00    -0.101 OA 
BRANCH  16  19
HETATM   19  C   UNL     1      -9.085   6.044  68.738  1.00  0.00    -0.124 C  
BRANCH  19  20
HETATM   20  S   UNL     1     -10.884   6.194  68.788  1.00  0.00    -0.340 SA 
BRANCH  20  21
HETATM   21  C   UNL     1     -11.125   6.471  70.507  1.00  0.00    -0.319 C  
HETATM   22  O   UNL     1     -10.819   5.618  71.336  1.00  0.00    -0.253 OA 
BRANCH  21  23
HETATM   23  C   UNL     1     -11.729   7.770  70.911  1.00  0.00    -0.281 A  
HETATM   24  C   UNL     1     -12.920   7.762  71.650  1.00  0.00    -0.374 A  
HETATM   25  C   UNL     1     -13.538   8.967  71.997  1.00  0.00    -0.489 A  
HETATM   26  C   UNL     1     -12.977  10.181  71.602  1.00  0.00    -0.561 A  
HETATM   27  C   UNL     1     -11.793  10.195  70.870  1.00  0.00    -0.468 A  
HETATM   28  C   UNL     1     -11.170   8.996  70.523  1.00  0.00    -0.301 A  
ENDBRANCH  21  23
ENDBRANCH  20  21
ENDBRANCH  19  20
ENDBRANCH  16  19
ENDBRANCH  14  15
ENDBRANCH  12  14
ENDBRANCH   9  10
ENDBRANCH   6   9
ENDBRANCH   3   5
TORSDOF 9
ENDMDL
MODEL      161
REMARK 921   NORMALIZED FREE ENERGY PREDICTED BY IDOCK:   -5.10 KCAL/MOL
REMARK 922        TOTAL FREE ENERGY PREDICTED BY IDOCK:   -8.62 KCAL/MOL
REMARK 923 INTER-LIGAND FREE ENERGY PREDICTED BY IDOCK:   -7.73 KCAL/MOL
REMARK 924 INTRA-LIGAND FREE ENERGY PREDICTED BY IDOCK:   -0.88 KCAL/MOL
REMARK 927      BINDING AFFINITY PREDICTED BY RF-SCORE:    0.00 PKD
ROOT
HETATM    1  O   UNL     1     -11.684   6.575  70.688  1.00  0.00    -0.373 OA 
HETATM    2  C   UNL     1     -11.590   6.958  71.983  1.00  0.00    -0.285 C  
HETATM    3  C   UNL     1     -11.366   8.454  72.178  1.00  0.00    -0.366 C  
HETATM    4  O   UNL     1     -11.650   6.162  72.906  1.00  0.00    -0.181 OA 
ENDROOT
BRANCH   3   5
HETATM    5  N   UNL     1     -11.298   9.184  70.916  1.00  0.00    -0.277 N  
HETATM    6  C   UNL     1     -12.178  10.201  70.612  1.00  0.00    -0.302 C  
HETATM    7  H   UNL     1     -10.578   8.934  70.238  1.00  0.00     0.000 HD 
HETATM    8  O   UNL     1     -13.094  10.527  71.361  1.00  0.00    -0.389 OA 
BRANCH   6   9
HETATM    9  C   UNL     1     -11.965  10.874  69.251  1.00  0.00    -0.310 C  
BRANCH   9  10
HETATM   10  N   UNL     1     -11.442   9.977  68.234  1.00  0.00    -0.529 N  
HETATM   11  H   UNL     1     -12.093   9.546  67.578  1.00  0.00     0.000 HD 
HETATM   12  C   UNL     1     -10.101   9.688  68.124  1.00  0.00    -0.175 C  
HETATM   13  O   UNL     1      -9.258  10.196  68.859  1.00  0.00    -0.154 OA 
BRANCH  12  14
HETATM   14  C   UNL     1      -9.743   8.686  67.018  1.00  0.00    -0.201 C  
BRANCH  14  15
HETATM   15  N   UNL     1     -10.030   9.187  65.677  1.00  0.00    -0.425 N  
HETATM   16  C   UNL     1      -9.014   9.624  64.851  1.00  0.00    -0.217 C  
HETATM   17  H   UNL     1     -10.995   9.214  65.346  1.00  0.00     0.000 HD 
HETATM   18  O   UNL     1      -7.858   9.748  65.245  1.00  0.00    -0.111 OA 
BRANCH  16  19
HETATM   19  C   UNL     1      -9.457  10.018  63.451  1.00  0.00    -0.188 C  
BRANCH  19  20
HETATM   20  S   UNL     1      -9.430  11.808  63.212  1.00  0.00    -0.021 SA 
BRANCH  20  21
HETATM   21  C   UNL     1     -11.036  12.224  63.794  1.00  0.00    -0.435 C  
HETATM   22  O   UNL     1     -12.042  11.760  63.265  1.00  0.00    -0.452 OA 
BRANCH  21  23
HETATM   23  C   UNL     1     -11.123  13.171  64.939  1.00  0.00    -0.335 A  
HETATM   24  C   UNL     1     -12.015  12.891  65.982  1.00  0.00    -0.505 A  
HETATM   25  C   UNL     1     -12.157  13.789  67.044  1.00  0.00    -0.436 A  
HETATM   26  C   UNL     1     -11.419  14.972  67.064  1.00  0.00    -0.288 A  
HETATM   27  C   UNL     1     -10.529  15.255  66.031  1.00  0.00    -0.328 A  
HETATM   28  C   UNL     1     -10.380  14.361  64.971  1.00  0.00    -0.449 A  
ENDBRANCH  21  23
ENDBRANCH  20  21
ENDBRANCH  19  20
ENDBRANCH  16  19
ENDBRANCH  14  15
ENDBRANCH  12  14
ENDBRANCH   9  10
ENDBRANCH   6   9
ENDBRANCH   3   5
TORSDOF 9
ENDMDL
MODEL      162
REMARK 921   NORMALIZED FREE ENERGY PREDICTED BY IDOCK:   -5.10 KCAL/MOL
REMARK 922        TOTAL FREE ENERGY PREDICTED BY IDOCK:   -8.62 KCAL/MOL
REMARK 923 INTER-LIGAND FREE ENERGY PREDICTED BY IDOCK:   -7.74 KCAL/MOL
REMARK 924 INTRA-LIGAND FREE ENERGY PREDICTED BY IDOCK:   -0.88 KCAL/MOL
REMARK 927      BINDING AFFINITY PREDICTED BY RF-SCORE:    0.00 PKD
ROOT
HETATM    1  O   UNL     1     -11.903  16.293  72.619  1.00  0.00    -0.519 OA 
HETATM    2  C   UNL     1     -12.866  15.348  72.507  1.00  0.00    -0.397 C  
HETATM    3  C   UNL     1     -13.336  15.100  71.078  1.00  0.00    -0.443 C  
HETATM    4  O   UNL     1     -13.332  14.772  73.477  1.00  0.00    -0.496 OA 
ENDROOT
BRANCH   3   5
HETATM    5  N   UNL     1     -12.646  15.938  70.103  1.00  0.00    -0.570 N  
HETATM    6  C   UNL     1     -11.539  15.494  69.411  1.00  0.00    -0.355 C  
HETATM    7  H   UNL     1     -12.992  16.882  69.929  1.00  0.00     0.000 HD 
HETATM    8  O   UNL     1     -11.043  14.388  69.599  1.00  0.00    -0.250 OA 
BRANCH   6   9
HETATM    9  C   UNL     1     -10.938  16.494  68.414  1.00  0.00    -0.348 C  
BRANCH   9  10
HETATM   10  N   UNL     1     -11.116  16.109  67.025  1.00  0.00    -0.113 N  
HETATM   11  H   UNL     1     -11.551  15.211  66.816  1.00  0.00     0.000 HD 
HETATM   12  C   UNL     1     -10.719  16.912  65.980  1.00  0.00    -0.125 C  
HETATM   13  O   UNL     1     -10.217  18.019  66.158  1.00  0.00    -0.403 OA 
BRANCH  12  14
HETATM   14  C   UNL     1     -10.948  16.319  64.583  1.00  0.00    -0.194 C  
BRANCH  14  15
HETATM   15  N   UNL     1     -10.844  14.863  64.556  1.00  0.00    -0.628 N  
HETATM   16  C   UNL     1     -11.821  14.092  63.958  1.00  0.00    -0.271 C  
HETATM   17  H   UNL     1     -10.038  14.408  64.986  1.00  0.00     0.000 HD 
HETATM   18  O   UNL     1     -12.876  14.573  63.553  1.00  0.00    -0.578 OA 
BRANCH  16  19
HETATM   19  C   UNL     1     -11.523  12.603  63.918  1.00  0.00    -0.442 C  
BRANCH  19  20
HETATM   20  S   UNL     1     -11.653  11.843  65.551  1.00  0.00    -0.124 SA 
BRANCH  20  21
HETATM   21  C   UNL     1     -10.005  11.266  65.757  1.00  0.00    -0.237 C  
HETATM   22  O   UNL     1      -9.201  11.300  64.830  1.00  0.00    -0.185 OA 
BRANCH  21  23
HETATM   23  C   UNL     1      -9.634  10.721  67.092  1.00  0.00    -0.185 A  
HETATM   24  C   UNL     1      -8.463   9.961  67.211  1.00  0.00    -0.121 A  
HETATM   25  C   UNL     1      -8.118   9.393  68.440  1.00  0.00    -0.109 A  
HETATM   26  C   UNL     1      -8.943   9.570  69.550  1.00  0.00    -0.187 A  
HETATM   27  C   UNL     1     -10.107  10.326  69.439  1.00  0.00    -0.255 A  
HETATM   28  C   UNL     1     -10.455  10.899  68.215  1.00  0.00    -0.205 A  
ENDBRANCH  21  23
ENDBRANCH  20  21
ENDBRANCH  19  20
ENDBRANCH  16  19
ENDBRANCH  14  15
ENDBRANCH  12  14
ENDBRANCH   9  10
ENDBRANCH   6   9
ENDBRANCH   3   5
TORSDOF 9
ENDMDL
MODEL      163
REMARK 921   NORMALIZED FREE ENERGY PREDICTED BY IDOCK:   -5.09 KCAL/MOL
REMARK 922        TOTAL FREE ENERGY PREDICTED BY IDOCK:   -8.62 KCAL/MOL
REMARK 923 INTER-LIGAND FREE ENERGY PREDICTED BY IDOCK:   -7.51 KCAL/MOL
REMARK 924 INTRA-LIGAND FREE ENERGY PREDICTED BY IDOCK:   -1.11 KCAL/MOL
REMARK 927      BINDING AFFINITY PREDICTED BY RF-SCORE:    0.00 PKD
ROOT
HETATM    1  O   UNL     1     -10.770  14.432  64.485  1.00  0.00    -0.371 OA 
HETATM    2  C   UNL     1     -11.505  13.315  64.272  1.00  0.00    -0.396 C  
HETATM    3  C   UNL     1     -12.327  12.869  65.476  1.00  0.00    -0.461 C  
HETATM    4  O   UNL     1     -11.480  12.709  63.213  1.00  0.00    -0.483 OA 
ENDROOT
BRANCH   3   5
HETATM    5  N   UNL     1     -12.159  13.744  66.631  1.00  0.00    -0.428 N  
HETATM    6  C   UNL     1     -12.035  13.248  67.912  1.00  0.00    -0.309 C  
HETATM    7  H   UNL     1     -12.132  14.754  66.487  1.00  0.00     0.000 HD 
HETATM    8  O   UNL     1     -12.101  12.049  68.165  1.00  0.00    -0.480 OA 
BRANCH   6   9
HETATM    9  C   UNL     1     -11.853  14.300  69.013  1.00  0.00    -0.335 C  
BRANCH   9  10
HETATM   10  N   UNL     1     -11.839  15.665  68.516  1.00  0.00    -0.483 N  
HETATM   11  H   UNL     1     -12.686  16.042  68.091  1.00  0.00     0.000 HD 
HETATM   12  C   UNL     1     -10.724  16.468  68.597  1.00  0.00    -0.334 C  
HETATM   13  O   UNL     1      -9.680  16.090  69.123  1.00  0.00    -0.224 OA 
BRANCH  12  14
HETATM   14  C   UNL     1     -10.884  17.864  67.979  1.00  0.00    -0.192 C  
BRANCH  14  15
HETATM   15  N   UNL     1      -9.639  18.625  67.953  1.00  0.00    -0.301 N  
HETATM   16  C   UNL     1      -9.376  19.523  66.938  1.00  0.00    -0.346 C  
HETATM   17  H   UNL     1      -8.953  18.492  68.697  1.00  0.00     0.000 HD 
HETATM   18  O   UNL     1     -10.097  19.619  65.948  1.00  0.00    -0.430 OA 
BRANCH  16  19
HETATM   19  C   UNL     1      -8.089  20.313  67.103  1.00  0.00    -0.335 C  
BRANCH  19  20
HETATM   20  S   UNL     1      -6.654  19.407  66.486  1.00  0.00    -0.189 SA 
BRANCH  20  21
HETATM   21  C   UNL     1      -5.960  18.854  68.004  1.00  0.00    -0.203 C  
HETATM   22  O   UNL     1      -5.365  19.629  68.748  1.00  0.00    -0.192 OA 
BRANCH  21  23
HETATM   23  C   UNL     1      -6.107  17.411  68.337  1.00  0.00    -0.160 A  
HETATM   24  C   UNL     1      -6.268  16.489  67.295  1.00  0.00    -0.209 A  
HETATM   25  C   UNL     1      -6.462  15.134  67.581  1.00  0.00    -0.180 A  
HETATM   26  C   UNL     1      -6.506  14.697  68.904  1.00  0.00    -0.090 A  
HETATM   27  C   UNL     1      -6.344  15.609  69.944  1.00  0.00    -0.150 A  
HETATM   28  C   UNL     1      -6.147  16.961  69.665  1.00  0.00    -0.225 A  
ENDBRANCH  21  23
ENDBRANCH  20  21
ENDBRANCH  19  20
ENDBRANCH  16  19
ENDBRANCH  14  15
ENDBRANCH  12  14
ENDBRANCH   9  10
ENDBRANCH   6   9
ENDBRANCH   3   5
TORSDOF 9
ENDMDL
MODEL      164
REMARK 921   NORMALIZED FREE ENERGY PREDICTED BY IDOCK:   -5.09 KCAL/MOL
REMARK 922        TOTAL FREE ENERGY PREDICTED BY IDOCK:   -8.61 KCAL/MOL
REMARK 923 INTER-LIGAND FREE ENERGY PREDICTED BY IDOCK:   -8.14 KCAL/MOL
REMARK 924 INTRA-LIGAND FREE ENERGY PREDICTED BY IDOCK:   -0.47 KCAL/MOL
REMARK 927      BINDING AFFINITY PREDICTED BY RF-SCORE:    0.00 PKD
ROOT
HETATM    1  O   UNL     1     -10.024   4.234  67.949  1.00  0.00    -0.105 OA 
HETATM    2  C   UNL     1     -10.092   4.870  66.755  1.00  0.00    -0.238 C  
HETATM    3  C   UNL     1     -10.671   6.279  66.830  1.00  0.00    -0.293 C  
HETATM    4  O   UNL     1      -9.746   4.340  65.712  1.00  0.00    -0.174 OA 
ENDROOT
BRANCH   3   5
HETATM    5  N   UNL     1     -11.039   6.668  68.187  1.00  0.00    -0.514 N  
HETATM    6  C   UNL     1     -10.622   7.858  68.745  1.00  0.00    -0.127 C  
HETATM    7  H   UNL     1     -11.622   6.040  68.741  1.00  0.00     0.000 HD 
HETATM    8  O   UNL     1      -9.886   8.642  68.154  1.00  0.00    -0.155 OA 
BRANCH   6   9
HETATM    9  C   UNL     1     -11.105   8.121  70.177  1.00  0.00    -0.187 C  
BRANCH   9  10
HETATM   10  N   UNL     1     -11.723   9.425  70.352  1.00  0.00    -0.428 N  
HETATM   11  H   UNL     1     -11.726  10.076  69.567  1.00  0.00     0.000 HD 
HETATM   12  C   UNL     1     -12.304   9.813  71.538  1.00  0.00    -0.405 C  
HETATM   13  O   UNL     1     -12.365   9.068  72.513  1.00  0.00    -0.320 OA 
BRANCH  12  14
HETATM   14  C   UNL     1     -12.866  11.241  71.547  1.00  0.00    -0.414 C  
BRANCH  14  15
HETATM   15  N   UNL     1     -12.401  12.046  70.422  1.00  0.00    -0.274 N  
HETATM   16  C   UNL     1     -12.310  13.420  70.521  1.00  0.00    -0.329 C  
HETATM   17  H   UNL     1     -12.138  11.587  69.549  1.00  0.00     0.000 HD 
HETATM   18  O   UNL     1     -12.745  14.035  71.492  1.00  0.00    -0.333 OA 
BRANCH  16  19
HETATM   19  C   UNL     1     -11.713  14.109  69.306  1.00  0.00    -0.323 C  
BRANCH  19  20
HETATM   20  S   UNL     1     -11.715  15.907  69.478  1.00  0.00    -0.289 SA 
BRANCH  20  21
HETATM   21  C   UNL     1     -10.827  16.359  68.030  1.00  0.00    -0.342 C  
HETATM   22  O   UNL     1     -10.497  15.516  67.200  1.00  0.00    -0.275 OA 
BRANCH  21  23
HETATM   23  C   UNL     1     -10.479  17.797  67.862  1.00  0.00    -0.401 A  
HETATM   24  C   UNL     1     -10.566  18.369  66.586  1.00  0.00    -0.359 A  
HETATM   25  C   UNL     1     -10.195  19.702  66.390  1.00  0.00    -0.592 A  
HETATM   26  C   UNL     1      -9.728  20.465  67.460  1.00  0.00    -0.571 A  
HETATM   27  C   UNL     1      -9.642  19.902  68.731  1.00  0.00    -0.310 A  
HETATM   28  C   UNL     1     -10.014  18.573  68.934  1.00  0.00    -0.383 A  
ENDBRANCH  21  23
ENDBRANCH  20  21
ENDBRANCH  19  20
ENDBRANCH  16  19
ENDBRANCH  14  15
ENDBRANCH  12  14
ENDBRANCH   9  10
ENDBRANCH   6   9
ENDBRANCH   3   5
TORSDOF 9
ENDMDL
MODEL      165
REMARK 921   NORMALIZED FREE ENERGY PREDICTED BY IDOCK:   -5.09 KCAL/MOL
REMARK 922        TOTAL FREE ENERGY PREDICTED BY IDOCK:   -8.61 KCAL/MOL
REMARK 923 INTER-LIGAND FREE ENERGY PREDICTED BY IDOCK:   -7.67 KCAL/MOL
REMARK 924 INTRA-LIGAND FREE ENERGY PREDICTED BY IDOCK:   -0.94 KCAL/MOL
REMARK 927      BINDING AFFINITY PREDICTED BY RF-SCORE:    0.00 PKD
ROOT
HETATM    1  O   UNL     1     -11.101  16.548  69.247  1.00  0.00    -0.308 OA 
HETATM    2  C   UNL     1     -10.609  17.226  68.182  1.00  0.00    -0.386 C  
HETATM    3  C   UNL     1     -10.505  16.397  66.907  1.00  0.00    -0.289 C  
HETATM    4  O   UNL     1     -10.254  18.391  68.258  1.00  0.00    -0.363 OA 
ENDROOT
BRANCH   3   5
HETATM    5  N   UNL     1     -10.963  15.024  67.087  1.00  0.00    -0.323 N  
HETATM    6  C   UNL     1     -11.564  14.314  66.068  1.00  0.00    -0.360 C  
HETATM    7  H   UNL     1     -10.835  14.574  67.994  1.00  0.00     0.000 HD 
HETATM    8  O   UNL     1     -11.788  14.804  64.966  1.00  0.00    -0.369 OA 
BRANCH   6   9
HETATM    9  C   UNL     1     -11.976  12.878  66.418  1.00  0.00    -0.395 C  
BRANCH   9  10
HETATM   10  N   UNL     1     -11.370  12.381  67.640  1.00  0.00    -0.291 N  
HETATM   11  H   UNL     1     -11.427  12.950  68.484  1.00  0.00     0.000 HD 
HETATM   12  C   UNL     1     -10.721  11.168  67.702  1.00  0.00    -0.230 C  
HETATM   13  O   UNL     1     -10.641  10.417  66.733  1.00  0.00    -0.242 OA 
BRANCH  12  14
HETATM   14  C   UNL     1     -10.106  10.831  69.067  1.00  0.00    -0.211 C  
BRANCH  14  15
HETATM   15  N   UNL     1     -10.915   9.896  69.844  1.00  0.00    -0.264 N  
HETATM   16  C   UNL     1     -12.000  10.335  70.575  1.00  0.00    -0.323 C  
HETATM   17  H   UNL     1     -10.675   8.904  69.846  1.00  0.00     0.000 HD 
HETATM   18  O   UNL     1     -12.249  11.529  70.724  1.00  0.00    -0.374 OA 
BRANCH  16  19
HETATM   19  C   UNL     1     -12.803   9.234  71.247  1.00  0.00    -0.288 C  
BRANCH  19  20
HETATM   20  S   UNL     1     -11.768   8.174  72.279  1.00  0.00    -0.399 SA 
BRANCH  20  21
HETATM   21  C   UNL     1     -11.519   6.822  71.183  1.00  0.00    -0.314 C  
HETATM   22  O   UNL     1     -11.782   6.917  69.988  1.00  0.00    -0.286 OA 
BRANCH  21  23
HETATM   23  C   UNL     1     -10.993   5.557  71.768  1.00  0.00    -0.249 A  
HETATM   24  C   UNL     1     -10.043   4.822  71.046  1.00  0.00    -0.269 A  
HETATM   25  C   UNL     1      -9.572   3.604  71.546  1.00  0.00    -0.234 A  
HETATM   26  C   UNL     1     -10.052   3.112  72.758  1.00  0.00    -0.225 A  
HETATM   27  C   UNL     1     -10.995   3.839  73.481  1.00  0.00    -0.339 A  
HETATM   28  C   UNL     1     -11.466   5.056  72.989  1.00  0.00    -0.344 A  
ENDBRANCH  21  23
ENDBRANCH  20  21
ENDBRANCH  19  20
ENDBRANCH  16  19
ENDBRANCH  14  15
ENDBRANCH  12  14
ENDBRANCH   9  10
ENDBRANCH   6   9
ENDBRANCH   3   5
TORSDOF 9
ENDMDL
MODEL      166
REMARK 921   NORMALIZED FREE ENERGY PREDICTED BY IDOCK:   -5.08 KCAL/MOL
REMARK 922        TOTAL FREE ENERGY PREDICTED BY IDOCK:   -8.60 KCAL/MOL
REMARK 923 INTER-LIGAND FREE ENERGY PREDICTED BY IDOCK:   -7.45 KCAL/MOL
REMARK 924 INTRA-LIGAND FREE ENERGY PREDICTED BY IDOCK:   -1.14 KCAL/MOL
REMARK 927      BINDING AFFINITY PREDICTED BY RF-SCORE:    0.00 PKD
ROOT
HETATM    1  O   UNL     1     -10.897   5.856  68.794  1.00  0.00    -0.286 OA 
HETATM    2  C   UNL     1     -10.033   4.814  68.838  1.00  0.00    -0.126 C  
HETATM    3  C   UNL     1      -9.842   4.218  70.229  1.00  0.00    -0.193 C  
HETATM    4  O   UNL     1      -9.441   4.414  67.849  1.00  0.00    -0.143 OA 
ENDROOT
BRANCH   3   5
HETATM    5  N   UNL     1     -10.638   4.895  71.248  1.00  0.00    -0.092 N  
HETATM    6  C   UNL     1     -10.057   5.561  72.306  1.00  0.00    -0.183 C  
HETATM    7  H   UNL     1     -11.656   4.875  71.175  1.00  0.00     0.000 HD 
HETATM    8  O   UNL     1      -8.843   5.590  72.481  1.00  0.00    -0.130 OA 
BRANCH   6   9
HETATM    9  C   UNL     1     -11.033   6.229  73.282  1.00  0.00    -0.194 C  
BRANCH   9  10
HETATM   10  N   UNL     1     -11.284   7.629  72.986  1.00  0.00    -0.535 N  
HETATM   11  H   UNL     1     -10.781   8.341  73.514  1.00  0.00     0.000 HD 
HETATM   12  C   UNL     1     -12.177   8.030  72.018  1.00  0.00    -0.331 C  
HETATM   13  O   UNL     1     -12.794   7.227  71.323  1.00  0.00    -0.367 OA 
BRANCH  12  14
HETATM   14  C   UNL     1     -12.342   9.549  71.878  1.00  0.00    -0.373 C  
BRANCH  14  15
HETATM   15  N   UNL     1     -11.689  10.088  70.688  1.00  0.00    -0.312 N  
HETATM   16  C   UNL     1     -10.331   9.937  70.494  1.00  0.00    -0.232 C  
HETATM   17  H   UNL     1     -12.245  10.583  69.990  1.00  0.00     0.000 HD 
HETATM   18  O   UNL     1      -9.594   9.478  71.363  1.00  0.00    -0.217 OA 
BRANCH  16  19
HETATM   19  C   UNL     1      -9.816  10.459  69.163  1.00  0.00    -0.223 C  
BRANCH  19  20
HETATM   20  S   UNL     1     -11.014  10.223  67.833  1.00  0.00    -0.269 SA 
BRANCH  20  21
HETATM   21  C   UNL     1     -11.611  11.868  67.657  1.00  0.00    -0.312 C  
HETATM   22  O   UNL     1     -11.899  12.546  68.640  1.00  0.00    -0.304 OA 
BRANCH  21  23
HETATM   23  C   UNL     1     -11.767  12.393  66.273  1.00  0.00    -0.457 A  
HETATM   24  C   UNL     1     -11.332  11.607  65.198  1.00  0.00    -0.223 A  
HETATM   25  C   UNL     1     -11.418  12.097  63.892  1.00  0.00    -0.519 A  
HETATM   26  C   UNL     1     -11.928  13.373  63.654  1.00  0.00    -0.504 A  
HETATM   27  C   UNL     1     -12.364  14.158  64.719  1.00  0.00    -0.436 A  
HETATM   28  C   UNL     1     -12.284  13.673  66.024  1.00  0.00    -0.492 A  
ENDBRANCH  21  23
ENDBRANCH  20  21
ENDBRANCH  19  20
ENDBRANCH  16  19
ENDBRANCH  14  15
ENDBRANCH  12  14
ENDBRANCH   9  10
ENDBRANCH   6   9
ENDBRANCH   3   5
TORSDOF 9
ENDMDL
MODEL      167
REMARK 921   NORMALIZED FREE ENERGY PREDICTED BY IDOCK:   -5.07 KCAL/MOL
REMARK 922        TOTAL FREE ENERGY PREDICTED BY IDOCK:   -8.59 KCAL/MOL
REMARK 923 INTER-LIGAND FREE ENERGY PREDICTED BY IDOCK:   -7.43 KCAL/MOL
REMARK 924 INTRA-LIGAND FREE ENERGY PREDICTED BY IDOCK:   -1.16 KCAL/MOL
REMARK 927      BINDING AFFINITY PREDICTED BY RF-SCORE:    0.00 PKD
ROOT
HETATM    1  O   UNL     1     -10.045  15.654  69.510  1.00  0.00    -0.242 OA 
HETATM    2  C   UNL     1      -8.973  16.069  68.795  1.00  0.00    -0.226 C  
HETATM    3  C   UNL     1      -9.170  16.012  67.284  1.00  0.00    -0.205 C  
HETATM    4  O   UNL     1      -7.934  16.427  69.324  1.00  0.00    -0.233 OA 
ENDROOT
BRANCH   3   5
HETATM    5  N   UNL     1     -10.489  15.518  66.904  1.00  0.00    -0.295 N  
HETATM    6  C   UNL     1     -11.008  15.715  65.642  1.00  0.00    -0.272 C  
HETATM    7  H   UNL     1     -11.045  15.011  67.594  1.00  0.00     0.000 HD 
HETATM    8  O   UNL     1     -10.415  16.351  64.776  1.00  0.00    -0.620 OA 
BRANCH   6   9
HETATM    9  C   UNL     1     -12.403  15.123  65.401  1.00  0.00     0.309 C  
BRANCH   9  10
HETATM   10  N   UNL     1     -12.450  14.173  64.303  1.00  0.00    -0.688 N  
HETATM   11  H   UNL     1     -12.432  14.526  63.347  1.00  0.00     0.000 HD 
HETATM   12  C   UNL     1     -12.516  12.813  64.507  1.00  0.00    -0.428 C  
HETATM   13  O   UNL     1     -12.509  12.317  65.630  1.00  0.00    -0.591 OA 
BRANCH  12  14
HETATM   14  C   UNL     1     -12.602  11.970  63.227  1.00  0.00    -0.385 C  
BRANCH  14  15
HETATM   15  N   UNL     1     -11.534  10.980  63.121  1.00  0.00    -0.474 N  
HETATM   16  C   UNL     1     -10.214  11.337  63.310  1.00  0.00    -0.368 C  
HETATM   17  H   UNL     1     -11.767  10.011  62.903  1.00  0.00     0.000 HD 
HETATM   18  O   UNL     1      -9.865  12.509  63.433  1.00  0.00    -0.330 OA 
BRANCH  16  19
HETATM   19  C   UNL     1      -9.229  10.181  63.270  1.00  0.00    -0.290 C  
BRANCH  19  20
HETATM   20  S   UNL     1      -8.109  10.197  64.687  1.00  0.00    -0.148 SA 
BRANCH  20  21
HETATM   21  C   UNL     1      -9.131   9.438  65.899  1.00  0.00    -0.195 C  
HETATM   22  O   UNL     1      -9.355   8.231  65.874  1.00  0.00    -0.178 OA 
BRANCH  21  23
HETATM   23  C   UNL     1      -9.724  10.320  66.942  1.00  0.00    -0.229 A  
HETATM   24  C   UNL     1     -10.881   9.895  67.608  1.00  0.00    -0.318 A  
HETATM   25  C   UNL     1     -11.490  10.726  68.554  1.00  0.00    -0.362 A  
HETATM   26  C   UNL     1     -10.954  11.983  68.831  1.00  0.00    -0.277 A  
HETATM   27  C   UNL     1      -9.802  12.409  68.174  1.00  0.00    -0.213 A  
HETATM   28  C   UNL     1      -9.188  11.583  67.231  1.00  0.00    -0.168 A  
ENDBRANCH  21  23
ENDBRANCH  20  21
ENDBRANCH  19  20
ENDBRANCH  16  19
ENDBRANCH  14  15
ENDBRANCH  12  14
ENDBRANCH   9  10
ENDBRANCH   6   9
ENDBRANCH   3   5
TORSDOF 9
ENDMDL
MODEL      168
REMARK 921   NORMALIZED FREE ENERGY PREDICTED BY IDOCK:   -5.07 KCAL/MOL
REMARK 922        TOTAL FREE ENERGY PREDICTED BY IDOCK:   -8.59 KCAL/MOL
REMARK 923 INTER-LIGAND FREE ENERGY PREDICTED BY IDOCK:   -7.70 KCAL/MOL
REMARK 924 INTRA-LIGAND FREE ENERGY PREDICTED BY IDOCK:   -0.88 KCAL/MOL
REMARK 927      BINDING AFFINITY PREDICTED BY RF-SCORE:    0.00 PKD
ROOT
HETATM    1  O   UNL     1     -11.640   6.330  71.130  1.00  0.00    -0.318 OA 
HETATM    2  C   UNL     1     -11.194   5.949  72.351  1.00  0.00    -0.291 C  
HETATM    3  C   UNL     1      -9.828   6.515  72.722  1.00  0.00    -0.169 C  
HETATM    4  O   UNL     1     -11.826   5.194  73.070  1.00  0.00    -0.273 OA 
ENDROOT
BRANCH   3   5
HETATM    5  N   UNL     1      -9.266   7.365  71.678  1.00  0.00    -0.142 N  
HETATM    6  C   UNL     1      -8.422   8.417  71.967  1.00  0.00    -0.183 C  
HETATM    7  H   UNL     1      -9.504   7.176  70.704  1.00  0.00     0.000 HD 
HETATM    8  O   UNL     1      -8.125   8.729  73.116  1.00  0.00    -0.412 OA 
BRANCH   6   9
HETATM    9  C   UNL     1      -7.909   9.205  70.754  1.00  0.00    -0.149 C  
BRANCH   9  10
HETATM   10  N   UNL     1      -8.945   9.961  70.072  1.00  0.00    -0.331 N  
HETATM   11  H   UNL     1      -9.049  10.953  70.284  1.00  0.00     0.000 HD 
HETATM   12  C   UNL     1      -9.792   9.388  69.150  1.00  0.00    -0.174 C  
HETATM   13  O   UNL     1      -9.703   8.207  68.824  1.00  0.00    -0.149 OA 
BRANCH  12  14
HETATM   14  C   UNL     1     -10.851  10.334  68.567  1.00  0.00    -0.240 C  
BRANCH  14  15
HETATM   15  N   UNL     1     -10.418  11.728  68.535  1.00  0.00    -0.210 N  
HETATM   16  C   UNL     1     -10.698  12.534  67.451  1.00  0.00    -0.229 C  
HETATM   17  H   UNL     1      -9.900  12.111  69.327  1.00  0.00     0.000 HD 
HETATM   18  O   UNL     1     -11.190  12.090  66.416  1.00  0.00    -0.306 OA 
BRANCH  16  19
HETATM   19  C   UNL     1     -10.275  13.984  67.608  1.00  0.00    -0.241 C  
BRANCH  19  20
HETATM   20  S   UNL     1     -11.693  15.088  67.789  1.00  0.00    -0.189 SA 
BRANCH  20  21
HETATM   21  C   UNL     1     -11.283  15.874  69.307  1.00  0.00    -0.335 C  
HETATM   22  O   UNL     1     -10.474  16.796  69.345  1.00  0.00    -0.321 OA 
BRANCH  21  23
HETATM   23  C   UNL     1     -11.943  15.364  70.540  1.00  0.00    -0.394 A  
HETATM   24  C   UNL     1     -11.793  16.081  71.734  1.00  0.00    -0.599 A  
HETATM   25  C   UNL     1     -12.357  15.598  72.918  1.00  0.00    -0.552 A  
HETATM   26  C   UNL     1     -13.063  14.395  72.918  1.00  0.00    -0.612 A  
HETATM   27  C   UNL     1     -13.217  13.679  71.734  1.00  0.00    -0.477 A  
HETATM   28  C   UNL     1     -12.659  14.157  70.548  1.00  0.00    -0.410 A  
ENDBRANCH  21  23
ENDBRANCH  20  21
ENDBRANCH  19  20
ENDBRANCH  16  19
ENDBRANCH  14  15
ENDBRANCH  12  14
ENDBRANCH   9  10
ENDBRANCH   6   9
ENDBRANCH   3   5
TORSDOF 9
ENDMDL
MODEL      169
REMARK 921   NORMALIZED FREE ENERGY PREDICTED BY IDOCK:   -5.05 KCAL/MOL
REMARK 922        TOTAL FREE ENERGY PREDICTED BY IDOCK:   -8.54 KCAL/MOL
REMARK 923 INTER-LIGAND FREE ENERGY PREDICTED BY IDOCK:   -7.86 KCAL/MOL
REMARK 924 INTRA-LIGAND FREE ENERGY PREDICTED BY IDOCK:   -0.68 KCAL/MOL
REMARK 927      BINDING AFFINITY PREDICTED BY RF-SCORE:    0.00 PKD
ROOT
HETATM    1  O   UNL     1      -8.265   5.785  71.860  1.00  0.00    -0.116 OA 
HETATM    2  C   UNL     1      -9.025   4.664  71.842  1.00  0.00    -0.126 C  
HETATM    3  C   UNL     1     -10.526   4.926  71.900  1.00  0.00    -0.163 C  
HETATM    4  O   UNL     1      -8.538   3.546  71.813  1.00  0.00    -0.085 OA 
ENDROOT
BRANCH   3   5
HETATM    5  N   UNL     1     -10.850   6.347  71.962  1.00  0.00    -0.230 N  
HETATM    6  C   UNL     1     -11.552   6.981  70.959  1.00  0.00    -0.320 C  
HETATM    7  H   UNL     1     -10.548   6.888  72.773  1.00  0.00     0.000 HD 
HETATM    8  O   UNL     1     -11.911   6.403  69.938  1.00  0.00    -0.384 OA 
BRANCH   6   9
HETATM    9  C   UNL     1     -11.820   8.475  71.183  1.00  0.00    -0.284 C  
BRANCH   9  10
HETATM   10  N   UNL     1     -11.421   9.311  70.065  1.00  0.00    -0.437 N  
HETATM   11  H   UNL     1     -12.129   9.603  69.392  1.00  0.00     0.000 HD 
HETATM   12  C   UNL     1     -10.121   9.724  69.879  1.00  0.00    -0.251 C  
HETATM   13  O   UNL     1      -9.223   9.436  70.666  1.00  0.00    -0.244 OA 
BRANCH  12  14
HETATM   14  C   UNL     1      -9.882  10.565  68.618  1.00  0.00    -0.178 C  
BRANCH  14  15
HETATM   15  N   UNL     1     -10.130  11.989  68.825  1.00  0.00    -0.381 N  
HETATM   16  C   UNL     1     -11.218  12.611  68.244  1.00  0.00    -0.272 C  
HETATM   17  H   UNL     1      -9.491  12.532  69.406  1.00  0.00     0.000 HD 
HETATM   18  O   UNL     1     -11.935  12.043  67.425  1.00  0.00    -0.583 OA 
BRANCH  16  19
HETATM   19  C   UNL     1     -11.401  14.068  68.634  1.00  0.00    -0.276 C  
BRANCH  19  20
HETATM   20  S   UNL     1      -9.894  15.030  68.386  1.00  0.00    -0.228 SA 
BRANCH  20  21
HETATM   21  C   UNL     1     -10.423  16.110  67.103  1.00  0.00    -0.305 C  
HETATM   22  O   UNL     1     -10.991  15.678  66.104  1.00  0.00    -0.298 OA 
BRANCH  21  23
HETATM   23  C   UNL     1     -10.137  17.562  67.272  1.00  0.00    -0.327 A  
HETATM   24  C   UNL     1     -10.052  18.089  68.567  1.00  0.00    -0.399 A  
HETATM   25  C   UNL     1      -9.838  19.457  68.755  1.00  0.00    -0.530 A  
HETATM   26  C   UNL     1      -9.719  20.305  67.654  1.00  0.00    -0.555 A  
HETATM   27  C   UNL     1      -9.801  19.787  66.364  1.00  0.00    -0.556 A  
HETATM   28  C   UNL     1     -10.011  18.422  66.171  1.00  0.00    -0.330 A  
ENDBRANCH  21  23
ENDBRANCH  20  21
ENDBRANCH  19  20
ENDBRANCH  16  19
ENDBRANCH  14  15
ENDBRANCH  12  14
ENDBRANCH   9  10
ENDBRANCH   6   9
ENDBRANCH   3   5
TORSDOF 9
ENDMDL
MODEL      170
REMARK 921   NORMALIZED FREE ENERGY PREDICTED BY IDOCK:   -5.04 KCAL/MOL
REMARK 922        TOTAL FREE ENERGY PREDICTED BY IDOCK:   -8.53 KCAL/MOL
REMARK 923 INTER-LIGAND FREE ENERGY PREDICTED BY IDOCK:   -7.32 KCAL/MOL
REMARK 924 INTRA-LIGAND FREE ENERGY PREDICTED BY IDOCK:   -1.21 KCAL/MOL
REMARK 927      BINDING AFFINITY PREDICTED BY RF-SCORE:    0.00 PKD
ROOT
HETATM    1  O   UNL     1     -11.312  10.520  70.849  1.00  0.00    -0.306 OA 
HETATM    2  C   UNL     1     -12.478  10.952  71.386  1.00  0.00    -0.355 C  
HETATM    3  C   UNL     1     -13.168   9.932  72.286  1.00  0.00    -0.340 C  
HETATM    4  O   UNL     1     -12.942  12.053  71.140  1.00  0.00    -0.287 OA 
ENDROOT
BRANCH   3   5
HETATM    5  N   UNL     1     -12.426   8.680  72.392  1.00  0.00    -0.413 N  
HETATM    6  C   UNL     1     -12.914   7.496  71.880  1.00  0.00    -0.264 C  
HETATM    7  H   UNL     1     -11.520   8.680  72.860  1.00  0.00     0.000 HD 
HETATM    8  O   UNL     1     -14.013   7.413  71.342  1.00  0.00    -0.411 OA 
BRANCH   6   9
HETATM    9  C   UNL     1     -12.006   6.273  72.065  1.00  0.00    -0.300 C  
BRANCH   9  10
HETATM   10  N   UNL     1     -10.768   6.348  71.309  1.00  0.00    -0.233 N  
HETATM   11  H   UNL     1     -10.749   5.975  70.360  1.00  0.00     0.000 HD 
HETATM   12  C   UNL     1      -9.620   6.904  71.826  1.00  0.00    -0.159 C  
HETATM   13  O   UNL     1      -9.580   7.400  72.949  1.00  0.00    -0.151 OA 
BRANCH  12  14
HETATM   14  C   UNL     1      -8.400   6.855  70.896  1.00  0.00    -0.130 C  
BRANCH  14  15
HETATM   15  N   UNL     1      -8.669   7.400  69.569  1.00  0.00    -0.137 N  
HETATM   16  C   UNL     1      -8.388   8.719  69.273  1.00  0.00    -0.120 C  
HETATM   17  H   UNL     1      -9.072   6.798  68.850  1.00  0.00     0.000 HD 
HETATM   18  O   UNL     1      -8.039   9.522  70.135  1.00  0.00    -0.138 OA 
BRANCH  16  19
HETATM   19  C   UNL     1      -8.626   9.112  67.825  1.00  0.00    -0.121 C  
BRANCH  19  20
HETATM   20  S   UNL     1     -10.379   9.362  67.471  1.00  0.00    -0.270 SA 
BRANCH  20  21
HETATM   21  C   UNL     1     -10.400  11.102  67.220  1.00  0.00    -0.208 C  
HETATM   22  O   UNL     1      -9.948  11.869  68.066  1.00  0.00    -0.179 OA 
BRANCH  21  23
HETATM   23  C   UNL     1     -11.003  11.602  65.954  1.00  0.00    -0.334 A  
HETATM   24  C   UNL     1     -10.496  11.137  64.734  1.00  0.00    -0.388 A  
HETATM   25  C   UNL     1     -11.007  11.629  63.529  1.00  0.00    -0.485 A  
HETATM   26  C   UNL     1     -12.015  12.593  63.538  1.00  0.00    -0.630 A  
HETATM   27  C   UNL     1     -12.524  13.058  64.748  1.00  0.00    -0.485 A  
HETATM   28  C   UNL     1     -12.021  12.567  65.953  1.00  0.00    -0.472 A  
ENDBRANCH  21  23
ENDBRANCH  20  21
ENDBRANCH  19  20
ENDBRANCH  16  19
ENDBRANCH  14  15
ENDBRANCH  12  14
ENDBRANCH   9  10
ENDBRANCH   6   9
ENDBRANCH   3   5
TORSDOF 9
ENDMDL
MODEL      171
REMARK 921   NORMALIZED FREE ENERGY PREDICTED BY IDOCK:   -5.04 KCAL/MOL
REMARK 922        TOTAL FREE ENERGY PREDICTED BY IDOCK:   -8.53 KCAL/MOL
REMARK 923 INTER-LIGAND FREE ENERGY PREDICTED BY IDOCK:   -7.97 KCAL/MOL
REMARK 924 INTRA-LIGAND FREE ENERGY PREDICTED BY IDOCK:   -0.56 KCAL/MOL
REMARK 927      BINDING AFFINITY PREDICTED BY RF-SCORE:    0.00 PKD
ROOT
HETATM    1  O   UNL     1     -11.273  14.562  65.033  1.00  0.00    -0.344 OA 
HETATM    2  C   UNL     1     -11.079  15.897  64.910  1.00  0.00    -0.389 C  
HETATM    3  C   UNL     1     -10.258  16.516  66.036  1.00  0.00    -0.356 C  
HETATM    4  O   UNL     1     -11.551  16.543  63.989  1.00  0.00    -1.154 OA 
ENDROOT
BRANCH   3   5
HETATM    5  N   UNL     1      -9.838  15.537  67.033  1.00  0.00    -0.230 N  
HETATM    6  C   UNL     1      -8.535  15.460  67.478  1.00  0.00    -0.173 C  
HETATM    7  H   UNL     1     -10.529  14.889  67.412  1.00  0.00     0.000 HD 
HETATM    8  O   UNL     1      -7.643  16.178  67.036  1.00  0.00    -0.179 OA 
BRANCH   6   9
HETATM    9  C   UNL     1      -8.261  14.384  68.536  1.00  0.00    -0.151 C  
BRANCH   9  10
HETATM   10  N   UNL     1      -9.450  13.656  68.946  1.00  0.00    -0.408 N  
HETATM   11  H   UNL     1      -9.949  13.961  69.781  1.00  0.00     0.000 HD 
HETATM   12  C   UNL     1      -9.926  12.569  68.248  1.00  0.00    -0.229 C  
HETATM   13  O   UNL     1      -9.393  12.166  67.218  1.00  0.00    -0.175 OA 
BRANCH  12  14
HETATM   14  C   UNL     1     -11.167  11.901  68.857  1.00  0.00    -0.254 C  
BRANCH  14  15
HETATM   15  N   UNL     1     -10.840  10.895  69.863  1.00  0.00    -0.446 N  
HETATM   16  C   UNL     1     -11.789  10.459  70.765  1.00  0.00    -0.368 C  
HETATM   17  H   UNL     1      -9.896  10.509  69.899  1.00  0.00     0.000 HD 
HETATM   18  O   UNL     1     -12.894  10.989  70.859  1.00  0.00    -0.338 OA 
BRANCH  16  19
HETATM   19  C   UNL     1     -11.330   9.337  71.681  1.00  0.00    -0.397 C  
BRANCH  19  20
HETATM   20  S   UNL     1      -9.998   8.365  70.945  1.00  0.00    -0.199 SA 
BRANCH  20  21
HETATM   21  C   UNL     1     -10.839   6.846  70.668  1.00  0.00    -0.245 C  
HETATM   22  O   UNL     1     -11.593   6.375  71.514  1.00  0.00    -0.293 OA 
BRANCH  21  23
HETATM   23  C   UNL     1     -10.584   6.150  69.377  1.00  0.00    -0.349 A  
HETATM   24  C   UNL     1     -10.080   4.843  69.401  1.00  0.00    -0.270 A  
HETATM   25  C   UNL     1      -9.781   4.185  68.204  1.00  0.00    -0.152 A  
HETATM   26  C   UNL     1      -9.973   4.829  66.983  1.00  0.00    -0.235 A  
HETATM   27  C   UNL     1     -10.476   6.128  66.953  1.00  0.00    -0.340 A  
HETATM   28  C   UNL     1     -10.779   6.789  68.143  1.00  0.00    -0.295 A  
ENDBRANCH  21  23
ENDBRANCH  20  21
ENDBRANCH  19  20
ENDBRANCH  16  19
ENDBRANCH  14  15
ENDBRANCH  12  14
ENDBRANCH   9  10
ENDBRANCH   6   9
ENDBRANCH   3   5
TORSDOF 9
ENDMDL
MODEL      172
REMARK 921   NORMALIZED FREE ENERGY PREDICTED BY IDOCK:   -5.02 KCAL/MOL
REMARK 922        TOTAL FREE ENERGY PREDICTED BY IDOCK:   -8.50 KCAL/MOL
REMARK 923 INTER-LIGAND FREE ENERGY PREDICTED BY IDOCK:   -7.73 KCAL/MOL
REMARK 924 INTRA-LIGAND FREE ENERGY PREDICTED BY IDOCK:   -0.77 KCAL/MOL
REMARK 927      BINDING AFFINITY PREDICTED BY RF-SCORE:    0.00 PKD
ROOT
HETATM    1  O   UNL     1     -10.727  17.268  65.077  1.00  0.00    -0.708 OA 
HETATM    2  C   UNL     1     -10.149  17.924  66.111  1.00  0.00    -0.320 C  
HETATM    3  C   UNL     1     -10.391  17.281  67.473  1.00  0.00    -0.346 C  
HETATM    4  O   UNL     1      -9.518  18.956  65.958  1.00  0.00    -0.471 OA 
ENDROOT
BRANCH   3   5
HETATM    5  N   UNL     1     -11.205  16.073  67.391  1.00  0.00    -0.163 N  
HETATM    6  C   UNL     1     -10.676  14.820  67.619  1.00  0.00    -0.270 C  
HETATM    7  H   UNL     1     -12.194  16.157  67.156  1.00  0.00     0.000 HD 
HETATM    8  O   UNL     1      -9.488  14.639  67.863  1.00  0.00    -0.203 OA 
BRANCH   6   9
HETATM    9  C   UNL     1     -11.667  13.654  67.504  1.00  0.00    -0.371 C  
BRANCH   9  10
HETATM   10  N   UNL     1     -11.928  12.986  68.768  1.00  0.00    -0.306 N  
HETATM   11  H   UNL     1     -12.058  13.552  69.606  1.00  0.00     0.000 HD 
HETATM   12  C   UNL     1     -12.005  11.616  68.876  1.00  0.00    -0.292 C  
HETATM   13  O   UNL     1     -11.890  10.874  67.903  1.00  0.00    -0.590 OA 
BRANCH  12  14
HETATM   14  C   UNL     1     -12.243  11.090  70.298  1.00  0.00    -0.363 C  
BRANCH  14  15
HETATM   15  N   UNL     1     -12.617   9.679  70.331  1.00  0.00    -0.496 N  
HETATM   16  C   UNL     1     -13.066   9.092  71.497  1.00  0.00    -0.335 C  
HETATM   17  H   UNL     1     -12.546   9.120  69.480  1.00  0.00     0.000 HD 
HETATM   18  O   UNL     1     -13.036   9.676  72.577  1.00  0.00    -0.360 OA 
BRANCH  16  19
HETATM   19  C   UNL     1     -13.515   7.647  71.350  1.00  0.00    -0.290 C  
BRANCH  19  20
HETATM   20  S   UNL     1     -12.248   6.486  71.905  1.00  0.00    -0.246 SA 
BRANCH  20  21
HETATM   21  C   UNL     1     -11.166   6.522  70.520  1.00  0.00    -0.344 C  
HETATM   22  O   UNL     1     -11.570   6.252  69.392  1.00  0.00    -0.403 OA 
BRANCH  21  23
HETATM   23  C   UNL     1      -9.742   6.874  70.775  1.00  0.00    -0.176 A  
HETATM   24  C   UNL     1      -9.453   8.009  71.544  1.00  0.00    -0.204 A  
HETATM   25  C   UNL     1      -8.126   8.394  71.755  1.00  0.00    -0.192 A  
HETATM   26  C   UNL     1      -7.085   7.656  71.193  1.00  0.00    -0.054 A  
HETATM   27  C   UNL     1      -7.366   6.526  70.429  1.00  0.00    -0.085 A  
HETATM   28  C   UNL     1      -8.688   6.135  70.217  1.00  0.00    -0.145 A  
ENDBRANCH  21  23
ENDBRANCH  20  21
ENDBRANCH  19  20
ENDBRANCH  16  19
ENDBRANCH  14  15
ENDBRANCH  12  14
ENDBRANCH   9  10
ENDBRANCH   6   9
ENDBRANCH   3   5
TORSDOF 9
ENDMDL
MODEL      173
REMARK 921   NORMALIZED FREE ENERGY PREDICTED BY IDOCK:   -5.01 KCAL/MOL
REMARK 922        TOTAL FREE ENERGY PREDICTED BY IDOCK:   -8.49 KCAL/MOL
REMARK 923 INTER-LIGAND FREE ENERGY PREDICTED BY IDOCK:   -7.26 KCAL/MOL
REMARK 924 INTRA-LIGAND FREE ENERGY PREDICTED BY IDOCK:   -1.23 KCAL/MOL
REMARK 927      BINDING AFFINITY PREDICTED BY RF-SCORE:    0.00 PKD
ROOT
HETATM    1  O   UNL     1     -12.583  10.050  70.843  1.00  0.00    -0.321 OA 
HETATM    2  C   UNL     1     -12.679   8.889  71.534  1.00  0.00    -0.335 C  
HETATM    3  C   UNL     1     -11.933   7.721  70.898  1.00  0.00    -0.210 C  
HETATM    4  O   UNL     1     -13.332   8.792  72.559  1.00  0.00    -0.399 OA 
ENDROOT
BRANCH   3   5
HETATM    5  N   UNL     1     -11.256   8.089  69.659  1.00  0.00    -0.447 N  
HETATM    6  C   UNL     1     -10.050   7.531  69.292  1.00  0.00    -0.188 C  
HETATM    7  H   UNL     1     -11.689   8.780  69.046  1.00  0.00     0.000 HD 
HETATM    8  O   UNL     1      -9.452   6.726  70.000  1.00  0.00    -0.158 OA 
BRANCH   6   9
HETATM    9  C   UNL     1      -9.477   8.017  67.955  1.00  0.00    -0.145 C  
BRANCH   9  10
HETATM   10  N   UNL     1      -8.806   9.302  68.043  1.00  0.00    -0.128 N  
HETATM   11  H   UNL     1      -7.810   9.323  68.262  1.00  0.00     0.000 HD 
HETATM   12  C   UNL     1      -9.464  10.495  67.841  1.00  0.00    -0.147 C  
HETATM   13  O   UNL     1     -10.655  10.544  67.544  1.00  0.00    -0.221 OA 
BRANCH  12  14
HETATM   14  C   UNL     1      -8.600  11.750  68.019  1.00  0.00    -0.158 C  
BRANCH  14  15
HETATM   15  N   UNL     1      -9.333  12.872  68.600  1.00  0.00    -0.408 N  
HETATM   16  C   UNL     1      -8.861  14.164  68.484  1.00  0.00    -0.173 C  
HETATM   17  H   UNL     1     -10.206  12.698  69.098  1.00  0.00     0.000 HD 
HETATM   18  O   UNL     1      -7.751  14.416  68.022  1.00  0.00    -0.114 OA 
BRANCH  16  19
HETATM   19  C   UNL     1      -9.783  15.232  69.047  1.00  0.00    -0.234 C  
BRANCH  19  20
HETATM   20  S   UNL     1     -11.424  15.176  68.295  1.00  0.00    -0.341 SA 
BRANCH  20  21
HETATM   21  C   UNL     1     -10.995  15.371  66.601  1.00  0.00    -0.275 C  
HETATM   22  O   UNL     1     -10.519  16.423  66.184  1.00  0.00    -0.324 OA 
BRANCH  21  23
HETATM   23  C   UNL     1     -11.249  14.217  65.695  1.00  0.00    -0.308 A  
HETATM   24  C   UNL     1     -10.270  13.865  64.757  1.00  0.00    -0.353 A  
HETATM   25  C   UNL     1     -10.504  12.820  63.858  1.00  0.00    -0.402 A  
HETATM   26  C   UNL     1     -11.715  12.131  63.884  1.00  0.00    -0.546 A  
HETATM   27  C   UNL     1     -12.692  12.475  64.816  1.00  0.00    -0.415 A  
HETATM   28  C   UNL     1     -12.463  13.514  65.718  1.00  0.00    -0.514 A  
ENDBRANCH  21  23
ENDBRANCH  20  21
ENDBRANCH  19  20
ENDBRANCH  16  19
ENDBRANCH  14  15
ENDBRANCH  12  14
ENDBRANCH   9  10
ENDBRANCH   6   9
ENDBRANCH   3   5
TORSDOF 9
ENDMDL
MODEL      174
REMARK 921   NORMALIZED FREE ENERGY PREDICTED BY IDOCK:   -5.01 KCAL/MOL
REMARK 922        TOTAL FREE ENERGY PREDICTED BY IDOCK:   -8.48 KCAL/MOL
REMARK 923 INTER-LIGAND FREE ENERGY PREDICTED BY IDOCK:   -7.83 KCAL/MOL
REMARK 924 INTRA-LIGAND FREE ENERGY PREDICTED BY IDOCK:   -0.65 KCAL/MOL
REMARK 927      BINDING AFFINITY PREDICTED BY RF-SCORE:    0.00 PKD
ROOT
HETATM    1  O   UNL     1      -7.992   9.098  71.934  1.00  0.00    -0.334 OA 
HETATM    2  C   UNL     1      -8.180   8.276  72.994  1.00  0.00    -0.164 C  
HETATM    3  C   UNL     1      -8.606   6.860  72.620  1.00  0.00    -0.120 C  
HETATM    4  O   UNL     1      -8.047   8.655  74.146  1.00  0.00    -0.373 OA 
ENDROOT
BRANCH   3   5
HETATM    5  N   UNL     1      -8.727   6.669  71.178  1.00  0.00    -0.137 N  
HETATM    6  C   UNL     1      -9.889   6.209  70.597  1.00  0.00    -0.179 C  
HETATM    7  H   UNL     1      -7.926   6.882  70.582  1.00  0.00     0.000 HD 
HETATM    8  O   UNL     1     -10.876   5.893  71.254  1.00  0.00    -0.257 OA 
BRANCH   6   9
HETATM    9  C   UNL     1      -9.855   6.074  69.069  1.00  0.00    -0.148 C  
BRANCH   9  10
HETATM   10  N   UNL     1      -9.493   7.303  68.385  1.00  0.00    -0.142 N  
HETATM   11  H   UNL     1      -8.683   7.828  68.713  1.00  0.00     0.000 HD 
HETATM   12  C   UNL     1     -10.204   7.787  67.310  1.00  0.00    -0.273 C  
HETATM   13  O   UNL     1     -11.171   7.191  66.842  1.00  0.00    -0.243 OA 
BRANCH  12  14
HETATM   14  C   UNL     1      -9.698   9.121  66.745  1.00  0.00    -0.210 C  
BRANCH  14  15
HETATM   15  N   UNL     1     -10.423  10.275  67.270  1.00  0.00    -0.236 N  
HETATM   16  C   UNL     1     -10.789  11.319  66.444  1.00  0.00    -0.251 C  
HETATM   17  H   UNL     1     -10.662  10.311  68.261  1.00  0.00     0.000 HD 
HETATM   18  O   UNL     1     -10.406  11.396  65.279  1.00  0.00    -0.259 OA 
BRANCH  16  19
HETATM   19  C   UNL     1     -11.626  12.397  67.112  1.00  0.00    -0.365 C  
BRANCH  19  20
HETATM   20  S   UNL     1     -11.411  12.408  68.905  1.00  0.00    -0.314 SA 
BRANCH  20  21
HETATM   21  C   UNL     1     -11.838  14.076  69.259  1.00  0.00    -0.344 C  
HETATM   22  O   UNL     1     -11.818  14.935  68.382  1.00  0.00    -0.319 OA 
BRANCH  21  23
HETATM   23  C   UNL     1     -12.206  14.403  70.664  1.00  0.00    -0.414 A  
HETATM   24  C   UNL     1     -13.124  13.581  71.332  1.00  0.00    -0.385 A  
HETATM   25  C   UNL     1     -13.528  13.895  72.633  1.00  0.00    -0.652 A  
HETATM   26  C   UNL     1     -13.027  15.031  73.267  1.00  0.00    -0.642 A  
HETATM   27  C   UNL     1     -12.113  15.850  72.609  1.00  0.00    -0.615 A  
HETATM   28  C   UNL     1     -11.703  15.541  71.312  1.00  0.00    -0.457 A  
ENDBRANCH  21  23
ENDBRANCH  20  21
ENDBRANCH  19  20
ENDBRANCH  16  19
ENDBRANCH  14  15
ENDBRANCH  12  14
ENDBRANCH   9  10
ENDBRANCH   6   9
ENDBRANCH   3   5
TORSDOF 9
ENDMDL
MODEL      175
REMARK 921   NORMALIZED FREE ENERGY PREDICTED BY IDOCK:   -5.00 KCAL/MOL
REMARK 922        TOTAL FREE ENERGY PREDICTED BY IDOCK:   -8.48 KCAL/MOL
REMARK 923 INTER-LIGAND FREE ENERGY PREDICTED BY IDOCK:   -7.83 KCAL/MOL
REMARK 924 INTRA-LIGAND FREE ENERGY PREDICTED BY IDOCK:   -0.64 KCAL/MOL
REMARK 927      BINDING AFFINITY PREDICTED BY RF-SCORE:    0.00 PKD
ROOT
HETATM    1  O   UNL     1     -11.934  14.386  69.331  1.00  0.00    -0.301 OA 
HETATM    2  C   UNL     1     -12.716  14.607  70.415  1.00  0.00    -0.316 C  
HETATM    3  C   UNL     1     -12.888  13.391  71.319  1.00  0.00    -0.323 C  
HETATM    4  O   UNL     1     -13.256  15.681  70.623  1.00  0.00    -0.487 OA 
ENDROOT
BRANCH   3   5
HETATM    5  N   UNL     1     -12.167  12.220  70.834  1.00  0.00    -0.418 N  
HETATM    6  C   UNL     1     -12.509  10.940  71.218  1.00  0.00    -0.388 C  
HETATM    7  H   UNL     1     -11.385  12.351  70.191  1.00  0.00     0.000 HD 
HETATM    8  O   UNL     1     -13.409  10.710  72.020  1.00  0.00    -0.440 OA 
BRANCH   6   9
HETATM    9  C   UNL     1     -11.658   9.818  70.609  1.00  0.00    -0.313 C  
BRANCH   9  10
HETATM   10  N   UNL     1     -10.508  10.300  69.864  1.00  0.00    -0.319 N  
HETATM   11  H   UNL     1      -9.614  10.391  70.345  1.00  0.00     0.000 HD 
HETATM   12  C   UNL     1     -10.580  10.637  68.531  1.00  0.00    -0.200 C  
HETATM   13  O   UNL     1     -11.616  10.522  67.881  1.00  0.00    -0.461 OA 
BRANCH  12  14
HETATM   14  C   UNL     1      -9.274  11.168  67.925  1.00  0.00    -0.154 C  
BRANCH  14  15
HETATM   15  N   UNL     1      -9.257  12.621  67.785  1.00  0.00    -0.187 N  
HETATM   16  C   UNL     1      -8.097  13.288  67.448  1.00  0.00    -0.175 C  
HETATM   17  H   UNL     1     -10.116  13.151  67.938  1.00  0.00     0.000 HD 
HETATM   18  O   UNL     1      -7.009  12.721  67.392  1.00  0.00    -0.147 OA 
BRANCH  16  19
HETATM   19  C   UNL     1      -8.260  14.785  67.239  1.00  0.00    -0.213 C  
BRANCH  19  20
HETATM   20  S   UNL     1      -8.141  15.702  68.789  1.00  0.00    -0.185 SA 
BRANCH  20  21
HETATM   21  C   UNL     1      -7.617  17.267  68.184  1.00  0.00    -0.211 C  
HETATM   22  O   UNL     1      -6.427  17.570  68.155  1.00  0.00    -0.170 OA 
BRANCH  21  23
HETATM   23  C   UNL     1      -8.673  18.213  67.729  1.00  0.00    -0.259 A  
HETATM   24  C   UNL     1      -9.221  19.111  68.653  1.00  0.00    -0.429 A  
HETATM   25  C   UNL     1     -10.251  19.973  68.267  1.00  0.00    -0.527 A  
HETATM   26  C   UNL     1     -10.744  19.936  66.963  1.00  0.00    -0.478 A  
HETATM   27  C   UNL     1     -10.201  19.046  66.039  1.00  0.00    -0.462 A  
HETATM   28  C   UNL     1      -9.171  18.186  66.418  1.00  0.00    -0.267 A  
ENDBRANCH  21  23
ENDBRANCH  20  21
ENDBRANCH  19  20
ENDBRANCH  16  19
ENDBRANCH  14  15
ENDBRANCH  12  14
ENDBRANCH   9  10
ENDBRANCH   6   9
ENDBRANCH   3   5
TORSDOF 9
ENDMDL
MODEL      176
REMARK 921   NORMALIZED FREE ENERGY PREDICTED BY IDOCK:   -5.00 KCAL/MOL
REMARK 922        TOTAL FREE ENERGY PREDICTED BY IDOCK:   -8.48 KCAL/MOL
REMARK 923 INTER-LIGAND FREE ENERGY PREDICTED BY IDOCK:   -7.61 KCAL/MOL
REMARK 924 INTRA-LIGAND FREE ENERGY PREDICTED BY IDOCK:   -0.86 KCAL/MOL
REMARK 927      BINDING AFFINITY PREDICTED BY RF-SCORE:    0.00 PKD
ROOT
HETATM    1  O   UNL     1     -12.070  12.163  66.145  1.00  0.00    -0.621 OA 
HETATM    2  C   UNL     1     -12.205  13.089  65.166  1.00  0.00    -0.459 C  
HETATM    3  C   UNL     1     -10.992  13.211  64.250  1.00  0.00    -0.403 C  
HETATM    4  O   UNL     1     -13.204  13.780  65.055  1.00  0.00    -0.733 OA 
ENDROOT
BRANCH   3   5
HETATM    5  N   UNL     1      -9.916  12.296  64.613  1.00  0.00    -0.438 N  
HETATM    6  C   UNL     1      -9.600  11.196  63.842  1.00  0.00    -0.254 C  
HETATM    7  H   UNL     1      -9.380  12.474  65.462  1.00  0.00     0.000 HD 
HETATM    8  O   UNL     1     -10.228  10.897  62.831  1.00  0.00    -0.240 OA 
BRANCH   6   9
HETATM    9  C   UNL     1      -8.435  10.341  64.356  1.00  0.00    -0.179 C  
BRANCH   9  10
HETATM   10  N   UNL     1      -7.786  10.891  65.534  1.00  0.00    -0.351 N  
HETATM   11  H   UNL     1      -8.362  11.327  66.254  1.00  0.00     0.000 HD 
HETATM   12  C   UNL     1      -6.422  10.846  65.714  1.00  0.00    -0.022 C  
HETATM   13  O   UNL     1      -5.671  10.309  64.904  1.00  0.00    -0.105 OA 
BRANCH  12  14
HETATM   14  C   UNL     1      -5.915  11.516  66.998  1.00  0.00    -0.125 C  
BRANCH  14  15
HETATM   15  N   UNL     1      -6.443  12.865  67.186  1.00  0.00    -0.280 N  
HETATM   16  C   UNL     1      -6.452  13.456  68.433  1.00  0.00    -0.093 C  
HETATM   17  H   UNL     1      -6.810  13.377  66.384  1.00  0.00     0.000 HD 
HETATM   18  O   UNL     1      -6.157  12.837  69.452  1.00  0.00    -0.092 OA 
BRANCH  16  19
HETATM   19  C   UNL     1      -6.935  14.896  68.452  1.00  0.00    -0.110 C  
BRANCH  19  20
HETATM   20  S   UNL     1      -8.185  15.208  67.187  1.00  0.00    -0.230 SA 
BRANCH  20  21
HETATM   21  C   UNL     1      -9.327  16.176  68.109  1.00  0.00    -0.201 C  
HETATM   22  O   UNL     1      -9.996  15.678  69.010  1.00  0.00    -0.207 OA 
BRANCH  21  23
HETATM   23  C   UNL     1      -9.460  17.612  67.740  1.00  0.00    -0.260 A  
HETATM   24  C   UNL     1      -8.523  18.528  68.236  1.00  0.00    -0.341 A  
HETATM   25  C   UNL     1      -8.654  19.890  67.950  1.00  0.00    -0.341 A  
HETATM   26  C   UNL     1      -9.722  20.343  67.177  1.00  0.00    -0.601 A  
HETATM   27  C   UNL     1     -10.655  19.437  66.679  1.00  0.00    -0.566 A  
HETATM   28  C   UNL     1     -10.528  18.077  66.959  1.00  0.00    -0.361 A  
ENDBRANCH  21  23
ENDBRANCH  20  21
ENDBRANCH  19  20
ENDBRANCH  16  19
ENDBRANCH  14  15
ENDBRANCH  12  14
ENDBRANCH   9  10
ENDBRANCH   6   9
ENDBRANCH   3   5
TORSDOF 9
ENDMDL
MODEL      177
REMARK 921   NORMALIZED FREE ENERGY PREDICTED BY IDOCK:   -5.00 KCAL/MOL
REMARK 922        TOTAL FREE ENERGY PREDICTED BY IDOCK:   -8.47 KCAL/MOL
REMARK 923 INTER-LIGAND FREE ENERGY PREDICTED BY IDOCK:   -7.73 KCAL/MOL
REMARK 924 INTRA-LIGAND FREE ENERGY PREDICTED BY IDOCK:   -0.74 KCAL/MOL
REMARK 927      BINDING AFFINITY PREDICTED BY RF-SCORE:    0.00 PKD
ROOT
HETATM    1  O   UNL     1      -6.860  10.159  65.219  1.00  0.00    -0.125 OA 
HETATM    2  C   UNL     1      -7.955   9.922  64.458  1.00  0.00    -0.145 C  
HETATM    3  C   UNL     1      -9.274  10.005  65.218  1.00  0.00    -0.218 C  
HETATM    4  O   UNL     1      -7.878   9.637  63.274  1.00  0.00    -0.124 OA 
ENDROOT
BRANCH   3   5
HETATM    5  N   UNL     1      -9.094  10.328  66.629  1.00  0.00    -0.143 N  
HETATM    6  C   UNL     1      -9.861   9.746  67.616  1.00  0.00    -0.165 C  
HETATM    7  H   UNL     1      -8.378  11.006  66.894  1.00  0.00     0.000 HD 
HETATM    8  O   UNL     1     -10.766   8.956  67.369  1.00  0.00    -0.272 OA 
BRANCH   6   9
HETATM    9  C   UNL     1      -9.537  10.186  69.050  1.00  0.00    -0.196 C  
BRANCH   9  10
HETATM   10  N   UNL     1     -10.498  11.127  69.600  1.00  0.00    -0.451 N  
HETATM   11  H   UNL     1     -10.392  12.119  69.388  1.00  0.00     0.000 HD 
HETATM   12  C   UNL     1     -11.547  10.729  70.398  1.00  0.00    -0.339 C  
HETATM   13  O   UNL     1     -11.753   9.549  70.669  1.00  0.00    -0.270 OA 
BRANCH  12  14
HETATM   14  C   UNL     1     -12.431  11.869  70.922  1.00  0.00    -0.300 C  
BRANCH  14  15
HETATM   15  N   UNL     1     -11.949  13.191  70.534  1.00  0.00    -0.527 N  
HETATM   16  C   UNL     1     -12.262  14.308  71.282  1.00  0.00    -0.350 C  
HETATM   17  H   UNL     1     -11.374  13.291  69.697  1.00  0.00     0.000 HD 
HETATM   18  O   UNL     1     -13.064  14.269  72.212  1.00  0.00    -0.351 OA 
BRANCH  16  19
HETATM   19  C   UNL     1     -11.604  15.595  70.812  1.00  0.00    -0.382 C  
BRANCH  19  20
HETATM   20  S   UNL     1     -11.222  15.554  69.048  1.00  0.00    -0.328 SA 
BRANCH  20  21
HETATM   21  C   UNL     1      -9.658  16.357  69.050  1.00  0.00    -0.264 C  
HETATM   22  O   UNL     1      -8.670  15.820  69.544  1.00  0.00    -0.259 OA 
BRANCH  21  23
HETATM   23  C   UNL     1      -9.587  17.716  68.447  1.00  0.00    -0.310 A  
HETATM   24  C   UNL     1     -10.717  18.226  67.793  1.00  0.00    -0.358 A  
HETATM   25  C   UNL     1     -10.662  19.477  67.172  1.00  0.00    -0.599 A  
HETATM   26  C   UNL     1      -9.481  20.218  67.191  1.00  0.00    -0.557 A  
HETATM   27  C   UNL     1      -8.356  19.717  67.841  1.00  0.00    -0.342 A  
HETATM   28  C   UNL     1      -8.405  18.471  68.466  1.00  0.00    -0.359 A  
ENDBRANCH  21  23
ENDBRANCH  20  21
ENDBRANCH  19  20
ENDBRANCH  16  19
ENDBRANCH  14  15
ENDBRANCH  12  14
ENDBRANCH   9  10
ENDBRANCH   6   9
ENDBRANCH   3   5
TORSDOF 9
ENDMDL
MODEL      178
REMARK 921   NORMALIZED FREE ENERGY PREDICTED BY IDOCK:   -5.00 KCAL/MOL
REMARK 922        TOTAL FREE ENERGY PREDICTED BY IDOCK:   -8.47 KCAL/MOL
REMARK 923 INTER-LIGAND FREE ENERGY PREDICTED BY IDOCK:   -7.93 KCAL/MOL
REMARK 924 INTRA-LIGAND FREE ENERGY PREDICTED BY IDOCK:   -0.53 KCAL/MOL
REMARK 927      BINDING AFFINITY PREDICTED BY RF-SCORE:    0.00 PKD
ROOT
HETATM    1  O   UNL     1     -10.960  17.136  68.274  1.00  0.00    -0.352 OA 
HETATM    2  C   UNL     1     -10.448  18.047  67.413  1.00  0.00    -0.387 C  
HETATM    3  C   UNL     1     -10.249  17.524  65.994  1.00  0.00    -0.299 C  
HETATM    4  O   UNL     1     -10.149  19.177  67.760  1.00  0.00    -0.341 OA 
ENDROOT
BRANCH   3   5
HETATM    5  N   UNL     1     -10.654  16.131  65.844  1.00  0.00    -0.328 N  
HETATM    6  C   UNL     1     -11.363  15.690  64.746  1.00  0.00    -0.343 C  
HETATM    7  H   UNL     1     -10.406  15.462  66.573  1.00  0.00     0.000 HD 
HETATM    8  O   UNL     1     -11.732  16.446  63.852  1.00  0.00    -1.085 OA 
BRANCH   6   9
HETATM    9  C   UNL     1     -11.702  14.194  64.735  1.00  0.00    -0.410 C  
BRANCH   9  10
HETATM   10  N   UNL     1     -12.071  13.672  66.040  1.00  0.00    -0.414 N  
HETATM   11  H   UNL     1     -12.976  13.927  66.433  1.00  0.00     0.000 HD 
HETATM   12  C   UNL     1     -11.242  12.846  66.765  1.00  0.00    -0.298 C  
HETATM   13  O   UNL     1     -10.152  12.473  66.340  1.00  0.00    -0.233 OA 
BRANCH  12  14
HETATM   14  C   UNL     1     -11.784  12.431  68.140  1.00  0.00    -0.353 C  
BRANCH  14  15
HETATM   15  N   UNL     1     -10.927  11.468  68.825  1.00  0.00    -0.208 N  
HETATM   16  C   UNL     1     -11.429  10.651  69.818  1.00  0.00    -0.302 C  
HETATM   17  H   UNL     1      -9.942  11.397  68.566  1.00  0.00     0.000 HD 
HETATM   18  O   UNL     1     -12.564  10.791  70.267  1.00  0.00    -0.325 OA 
BRANCH  16  19
HETATM   19  C   UNL     1     -10.444   9.632  70.365  1.00  0.00    -0.293 C  
BRANCH  19  20
HETATM   20  S   UNL     1     -11.025   8.886  71.904  1.00  0.00    -0.344 SA 
BRANCH  20  21
HETATM   21  C   UNL     1      -9.548   8.103  72.447  1.00  0.00    -0.265 C  
HETATM   22  O   UNL     1      -8.729   8.703  73.138  1.00  0.00    -0.371 OA 
BRANCH  21  23
HETATM   23  C   UNL     1      -9.324   6.695  72.019  1.00  0.00    -0.142 A  
HETATM   24  C   UNL     1      -8.040   6.305  71.618  1.00  0.00    -0.106 A  
HETATM   25  C   UNL     1      -7.812   5.004  71.161  1.00  0.00    -0.093 A  
HETATM   26  C   UNL     1      -8.865   4.091  71.094  1.00  0.00    -0.137 A  
HETATM   27  C   UNL     1     -10.143   4.472  71.493  1.00  0.00    -0.239 A  
HETATM   28  C   UNL     1     -10.376   5.768  71.953  1.00  0.00    -0.263 A  
ENDBRANCH  21  23
ENDBRANCH  20  21
ENDBRANCH  19  20
ENDBRANCH  16  19
ENDBRANCH  14  15
ENDBRANCH  12  14
ENDBRANCH   9  10
ENDBRANCH   6   9
ENDBRANCH   3   5
TORSDOF 9
ENDMDL
MODEL      179
REMARK 921   NORMALIZED FREE ENERGY PREDICTED BY IDOCK:   -4.99 KCAL/MOL
REMARK 922        TOTAL FREE ENERGY PREDICTED BY IDOCK:   -8.46 KCAL/MOL
REMARK 923 INTER-LIGAND FREE ENERGY PREDICTED BY IDOCK:   -7.51 KCAL/MOL
REMARK 924 INTRA-LIGAND FREE ENERGY PREDICTED BY IDOCK:   -0.95 KCAL/MOL
REMARK 927      BINDING AFFINITY PREDICTED BY RF-SCORE:    0.00 PKD
ROOT
HETATM    1  O   UNL     1     -13.295  12.517  64.823  1.00  0.00    -0.773 OA 
HETATM    2  C   UNL     1     -12.137  12.835  64.195  1.00  0.00    -0.438 C  
HETATM    3  C   UNL     1     -10.992  13.189  65.138  1.00  0.00    -0.298 C  
HETATM    4  O   UNL     1     -12.040  12.861  62.980  1.00  0.00    -0.436 OA 
ENDROOT
BRANCH   3   5
HETATM    5  N   UNL     1     -11.374  13.113  66.544  1.00  0.00    -0.303 N  
HETATM    6  C   UNL     1     -11.425  14.232  67.349  1.00  0.00    -0.347 C  
HETATM    7  H   UNL     1     -11.611  12.205  66.944  1.00  0.00     0.000 HD 
HETATM    8  O   UNL     1     -11.114  15.349  66.947  1.00  0.00    -0.316 OA 
BRANCH   6   9
HETATM    9  C   UNL     1     -11.856  13.983  68.800  1.00  0.00    -0.361 C  
BRANCH   9  10
HETATM   10  N   UNL     1     -12.018  12.576  69.125  1.00  0.00    -0.270 N  
HETATM   11  H   UNL     1     -11.778  11.878  68.421  1.00  0.00     0.000 HD 
HETATM   12  C   UNL     1     -12.484  12.150  70.348  1.00  0.00    -0.144 C  
HETATM   13  O   UNL     1     -12.762  12.933  71.253  1.00  0.00    -0.367 OA 
BRANCH  12  14
HETATM   14  C   UNL     1     -12.630  10.629  70.492  1.00  0.00    -0.348 C  
BRANCH  14  15
HETATM   15  N   UNL     1     -11.453   9.994  71.080  1.00  0.00    -0.374 N  
HETATM   16  C   UNL     1     -11.580   8.920  71.937  1.00  0.00    -0.371 C  
HETATM   17  H   UNL     1     -10.524  10.350  70.853  1.00  0.00     0.000 HD 
HETATM   18  O   UNL     1     -12.672   8.543  72.355  1.00  0.00    -0.369 OA 
BRANCH  16  19
HETATM   19  C   UNL     1     -10.266   8.303  72.385  1.00  0.00    -0.327 C  
BRANCH  19  20
HETATM   20  S   UNL     1      -9.991   6.681  71.641  1.00  0.00    -0.172 SA 
BRANCH  20  21
HETATM   21  C   UNL     1      -8.669   7.061  70.546  1.00  0.00    -0.153 C  
HETATM   22  O   UNL     1      -7.500   6.988  70.915  1.00  0.00    -0.079 OA 
BRANCH  21  23
HETATM   23  C   UNL     1      -9.026   7.490  69.166  1.00  0.00    -0.135 A  
HETATM   24  C   UNL     1      -8.111   8.264  68.440  1.00  0.00    -0.127 A  
HETATM   25  C   UNL     1      -8.441   8.725  67.162  1.00  0.00    -0.110 A  
HETATM   26  C   UNL     1      -9.686   8.427  66.610  1.00  0.00    -0.320 A  
HETATM   27  C   UNL     1     -10.599   7.657  67.326  1.00  0.00    -0.388 A  
HETATM   28  C   UNL     1     -10.274   7.190  68.600  1.00  0.00    -0.186 A  
ENDBRANCH  21  23
ENDBRANCH  20  21
ENDBRANCH  19  20
ENDBRANCH  16  19
ENDBRANCH  14  15
ENDBRANCH  12  14
ENDBRANCH   9  10
ENDBRANCH   6   9
ENDBRANCH   3   5
TORSDOF 9
ENDMDL
MODEL      180
REMARK 921   NORMALIZED FREE ENERGY PREDICTED BY IDOCK:   -4.99 KCAL/MOL
REMARK 922        TOTAL FREE ENERGY PREDICTED BY IDOCK:   -8.46 KCAL/MOL
REMARK 923 INTER-LIGAND FREE ENERGY PREDICTED BY IDOCK:   -7.58 KCAL/MOL
REMARK 924 INTRA-LIGAND FREE ENERGY PREDICTED BY IDOCK:   -0.88 KCAL/MOL
REMARK 927      BINDING AFFINITY PREDICTED BY RF-SCORE:    0.00 PKD
ROOT
HETATM    1  O   UNL     1     -11.723   6.509  70.571  1.00  0.00    -0.380 OA 
HETATM    2  C   UNL     1     -11.624   6.604  71.919  1.00  0.00    -0.303 C  
HETATM    3  C   UNL     1     -11.464   8.031  72.435  1.00  0.00    -0.389 C  
HETATM    4  O   UNL     1     -11.634   5.624  72.645  1.00  0.00    -0.307 OA 
ENDROOT
BRANCH   3   5
HETATM    5  N   UNL     1     -11.450   9.021  71.363  1.00  0.00    -0.302 N  
HETATM    6  C   UNL     1     -12.382  10.035  71.293  1.00  0.00    -0.398 C  
HETATM    7  H   UNL     1     -10.730   8.961  70.643  1.00  0.00     0.000 HD 
HETATM    8  O   UNL     1     -13.301  10.144  72.099  1.00  0.00    -0.441 OA 
BRANCH   6   9
HETATM    9  C   UNL     1     -12.221  10.999  70.111  1.00  0.00    -0.344 C  
BRANCH   9  10
HETATM   10  N   UNL     1     -11.651  12.283  70.481  1.00  0.00    -0.408 N  
HETATM   11  H   UNL     1     -10.638  12.394  70.466  1.00  0.00     0.000 HD 
HETATM   12  C   UNL     1     -12.429  13.356  70.853  1.00  0.00    -0.359 C  
HETATM   13  O   UNL     1     -13.656  13.304  70.865  1.00  0.00     0.182 OA 
BRANCH  12  14
HETATM   14  C   UNL     1     -11.648  14.616  71.252  1.00  0.00    -0.192 C  
BRANCH  14  15
HETATM   15  N   UNL     1     -10.698  15.047  70.231  1.00  0.00    -0.471 N  
HETATM   16  C   UNL     1     -11.066  15.953  69.257  1.00  0.00    -0.312 C  
HETATM   17  H   UNL     1      -9.748  14.673  70.238  1.00  0.00     0.000 HD 
HETATM   18  O   UNL     1     -12.228  16.325  69.116  1.00  0.00    -0.050 OA 
BRANCH  16  19
HETATM   19  C   UNL     1      -9.942  16.383  68.330  1.00  0.00    -0.243 C  
BRANCH  19  20
HETATM   20  S   UNL     1     -10.290  15.969  66.607  1.00  0.00    -0.302 SA 
BRANCH  20  21
HETATM   21  C   UNL     1      -9.329  14.507  66.438  1.00  0.00    -0.273 C  
HETATM   22  O   UNL     1      -8.209  14.424  66.935  1.00  0.00    -0.161 OA 
BRANCH  21  23
HETATM   23  C   UNL     1      -9.920  13.387  65.655  1.00  0.00    -0.249 A  
HETATM   24  C   UNL     1      -9.788  12.079  66.140  1.00  0.00    -0.255 A  
HETATM   25  C   UNL     1     -10.286  11.004  65.400  1.00  0.00    -0.330 A  
HETATM   26  C   UNL     1     -10.908  11.226  64.172  1.00  0.00    -0.407 A  
HETATM   27  C   UNL     1     -11.044  12.525  63.686  1.00  0.00    -0.523 A  
HETATM   28  C   UNL     1     -10.551  13.603  64.421  1.00  0.00    -0.360 A  
ENDBRANCH  21  23
ENDBRANCH  20  21
ENDBRANCH  19  20
ENDBRANCH  16  19
ENDBRANCH  14  15
ENDBRANCH  12  14
ENDBRANCH   9  10
ENDBRANCH   6   9
ENDBRANCH   3   5
TORSDOF 9
ENDMDL
MODEL      181
REMARK 921   NORMALIZED FREE ENERGY PREDICTED BY IDOCK:   -4.99 KCAL/MOL
REMARK 922        TOTAL FREE ENERGY PREDICTED BY IDOCK:   -8.45 KCAL/MOL
REMARK 923 INTER-LIGAND FREE ENERGY PREDICTED BY IDOCK:   -7.87 KCAL/MOL
REMARK 924 INTRA-LIGAND FREE ENERGY PREDICTED BY IDOCK:   -0.58 KCAL/MOL
REMARK 927      BINDING AFFINITY PREDICTED BY RF-SCORE:    0.00 PKD
ROOT
HETATM    1  O   UNL     1     -10.696  19.788  65.854  1.00  0.00    -0.486 OA 
HETATM    2  C   UNL     1     -10.113  19.543  67.052  1.00  0.00    -0.397 C  
HETATM    3  C   UNL     1     -10.143  18.078  67.473  1.00  0.00    -0.351 C  
HETATM    4  O   UNL     1      -9.636  20.430  67.739  1.00  0.00    -0.370 OA 
ENDROOT
BRANCH   3   5
HETATM    5  N   UNL     1     -10.799  17.221  66.491  1.00  0.00    -0.042 N  
HETATM    6  C   UNL     1     -10.092  16.332  65.709  1.00  0.00    -0.347 C  
HETATM    7  H   UNL     1     -11.811  17.281  66.380  1.00  0.00     0.000 HD 
HETATM    8  O   UNL     1      -8.870  16.236  65.758  1.00  0.00    -0.411 OA 
BRANCH   6   9
HETATM    9  C   UNL     1     -10.932  15.497  64.734  1.00  0.00    -0.399 C  
BRANCH   9  10
HETATM   10  N   UNL     1     -10.443  14.140  64.559  1.00  0.00    -0.577 N  
HETATM   11  H   UNL     1      -9.520  13.900  64.922  1.00  0.00     0.000 HD 
HETATM   12  C   UNL     1     -11.178  13.167  63.922  1.00  0.00    -0.336 C  
HETATM   13  O   UNL     1     -12.308  13.377  63.489  1.00  0.00    -0.711 OA 
BRANCH  12  14
HETATM   14  C   UNL     1     -10.479  11.807  63.793  1.00  0.00    -0.416 C  
BRANCH  14  15
HETATM   15  N   UNL     1      -9.478  11.578  64.831  1.00  0.00    -0.369 N  
HETATM   16  C   UNL     1      -9.810  10.938  66.008  1.00  0.00    -0.233 C  
HETATM   17  H   UNL     1      -8.519  11.895  64.684  1.00  0.00     0.000 HD 
HETATM   18  O   UNL     1     -10.972  10.663  66.298  1.00  0.00    -0.099 OA 
BRANCH  16  19
HETATM   19  C   UNL     1      -8.642  10.681  66.945  1.00  0.00    -0.126 C  
BRANCH  19  20
HETATM   20  S   UNL     1      -9.105  10.891  68.678  1.00  0.00    -0.171 SA 
BRANCH  20  21
HETATM   21  C   UNL     1      -8.828   9.261  69.274  1.00  0.00    -0.146 C  
HETATM   22  O   UNL     1      -8.057   8.498  68.699  1.00  0.00    -0.117 OA 
BRANCH  21  23
HETATM   23  C   UNL     1      -9.579   8.841  70.489  1.00  0.00    -0.226 A  
HETATM   24  C   UNL     1      -8.908   8.798  71.718  1.00  0.00    -0.256 A  
HETATM   25  C   UNL     1      -9.573   8.357  72.866  1.00  0.00    -0.269 A  
HETATM   26  C   UNL     1     -10.904   7.949  72.790  1.00  0.00    -0.451 A  
HETATM   27  C   UNL     1     -11.577   7.991  71.572  1.00  0.00    -0.313 A  
HETATM   28  C   UNL     1     -10.920   8.434  70.424  1.00  0.00    -0.249 A  
ENDBRANCH  21  23
ENDBRANCH  20  21
ENDBRANCH  19  20
ENDBRANCH  16  19
ENDBRANCH  14  15
ENDBRANCH  12  14
ENDBRANCH   9  10
ENDBRANCH   6   9
ENDBRANCH   3   5
TORSDOF 9
ENDMDL
MODEL      182
REMARK 921   NORMALIZED FREE ENERGY PREDICTED BY IDOCK:   -4.98 KCAL/MOL
REMARK 922        TOTAL FREE ENERGY PREDICTED BY IDOCK:   -8.44 KCAL/MOL
REMARK 923 INTER-LIGAND FREE ENERGY PREDICTED BY IDOCK:   -7.51 KCAL/MOL
REMARK 924 INTRA-LIGAND FREE ENERGY PREDICTED BY IDOCK:   -0.92 KCAL/MOL
REMARK 927      BINDING AFFINITY PREDICTED BY RF-SCORE:    0.00 PKD
ROOT
HETATM    1  O   UNL     1     -13.477  13.848  65.591  1.00  0.00    -0.590 OA 
HETATM    2  C   UNL     1     -12.481  13.279  64.871  1.00  0.00    -0.409 C  
HETATM    3  C   UNL     1     -11.434  12.559  65.713  1.00  0.00    -0.365 C  
HETATM    4  O   UNL     1     -12.422  13.368  63.656  1.00  0.00    -0.711 OA 
ENDROOT
BRANCH   3   5
HETATM    5  N   UNL     1     -11.716  12.624  67.143  1.00  0.00    -0.366 N  
HETATM    6  C   UNL     1     -11.691  11.503  67.945  1.00  0.00    -0.247 C  
HETATM    7  H   UNL     1     -11.939  13.528  67.562  1.00  0.00     0.000 HD 
HETATM    8  O   UNL     1     -11.472  10.380  67.502  1.00  0.00    -0.386 OA 
BRANCH   6   9
HETATM    9  C   UNL     1     -11.999  11.745  69.428  1.00  0.00    -0.298 C  
BRANCH   9  10
HETATM   10  N   UNL     1     -12.522  10.575  70.112  1.00  0.00    -0.479 N  
HETATM   11  H   UNL     1     -12.505   9.676  69.631  1.00  0.00     0.000 HD 
HETATM   12  C   UNL     1     -13.041  10.635  71.386  1.00  0.00    -0.400 C  
HETATM   13  O   UNL     1     -13.065  11.677  72.035  1.00  0.00    -0.478 OA 
BRANCH  12  14
HETATM   14  C   UNL     1     -13.587   9.306  71.926  1.00  0.00    -0.427 C  
BRANCH  14  15
HETATM   15  N   UNL     1     -12.589   8.535  72.662  1.00  0.00    -0.572 N  
HETATM   16  C   UNL     1     -11.706   7.704  72.002  1.00  0.00    -0.298 C  
HETATM   17  H   UNL     1     -12.544   8.612  73.679  1.00  0.00     0.000 HD 
HETATM   18  O   UNL     1     -11.807   7.465  70.802  1.00  0.00    -0.299 OA 
BRANCH  16  19
HETATM   19  C   UNL     1     -10.662   7.049  72.891  1.00  0.00    -0.288 C  
BRANCH  19  20
HETATM   20  S   UNL     1      -9.174   8.060  73.044  1.00  0.00    -0.274 SA 
BRANCH  20  21
HETATM   21  C   UNL     1      -7.957   6.902  72.524  1.00  0.00    -0.099 C  
HETATM   22  O   UNL     1      -7.542   6.033  73.286  1.00  0.00    -0.096 OA 
BRANCH  21  23
HETATM   23  C   UNL     1      -7.442   7.031  71.133  1.00  0.00    -0.081 A  
HETATM   24  C   UNL     1      -8.358   7.078  70.074  1.00  0.00    -0.138 A  
HETATM   25  C   UNL     1      -7.901   7.145  68.755  1.00  0.00    -0.122 A  
HETATM   26  C   UNL     1      -6.532   7.156  68.487  1.00  0.00    -0.040 A  
HETATM   27  C   UNL     1      -5.617   7.112  69.536  1.00  0.00    -0.015 A  
HETATM   28  C   UNL     1      -6.067   7.048  70.855  1.00  0.00    -0.036 A  
ENDBRANCH  21  23
ENDBRANCH  20  21
ENDBRANCH  19  20
ENDBRANCH  16  19
ENDBRANCH  14  15
ENDBRANCH  12  14
ENDBRANCH   9  10
ENDBRANCH   6   9
ENDBRANCH   3   5
TORSDOF 9
ENDMDL
MODEL      183
REMARK 921   NORMALIZED FREE ENERGY PREDICTED BY IDOCK:   -4.96 KCAL/MOL
REMARK 922        TOTAL FREE ENERGY PREDICTED BY IDOCK:   -8.41 KCAL/MOL
REMARK 923 INTER-LIGAND FREE ENERGY PREDICTED BY IDOCK:   -7.07 KCAL/MOL
REMARK 924 INTRA-LIGAND FREE ENERGY PREDICTED BY IDOCK:   -1.35 KCAL/MOL
REMARK 927      BINDING AFFINITY PREDICTED BY RF-SCORE:    0.00 PKD
ROOT
HETATM    1  O   UNL     1     -13.114  11.969  71.830  1.00  0.00    -0.445 OA 
HETATM    2  C   UNL     1     -13.401  13.292  71.855  1.00  0.00    -0.451 C  
HETATM    3  C   UNL     1     -12.470  14.150  71.005  1.00  0.00    -0.367 C  
HETATM    4  O   UNL     1     -14.310  13.751  72.527  1.00  0.00    -0.696 OA 
ENDROOT
BRANCH   3   5
HETATM    5  N   UNL     1     -11.444  13.367  70.324  1.00  0.00    -0.509 N  
HETATM    6  C   UNL     1     -11.411  13.242  68.951  1.00  0.00    -0.298 C  
HETATM    7  H   UNL     1     -10.729  12.897  70.881  1.00  0.00     0.000 HD 
HETATM    8  O   UNL     1     -12.261  13.743  68.222  1.00  0.00    -0.335 OA 
BRANCH   6   9
HETATM    9  C   UNL     1     -10.261  12.393  68.393  1.00  0.00    -0.225 C  
BRANCH   9  10
HETATM   10  N   UNL     1      -9.926  11.250  69.224  1.00  0.00    -0.428 N  
HETATM   11  H   UNL     1     -10.598  10.937  69.925  1.00  0.00     0.000 HD 
HETATM   12  C   UNL     1      -8.733  10.572  69.101  1.00  0.00    -0.147 C  
HETATM   13  O   UNL     1      -7.892  10.874  68.259  1.00  0.00    -0.107 OA 
BRANCH  12  14
HETATM   14  C   UNL     1      -8.538   9.419  70.095  1.00  0.00    -0.212 C  
BRANCH  14  15
HETATM   15  N   UNL     1      -8.989   8.132  69.573  1.00  0.00    -0.150 N  
HETATM   16  C   UNL     1     -10.316   7.761  69.649  1.00  0.00    -0.212 C  
HETATM   17  H   UNL     1      -8.313   7.498  69.146  1.00  0.00     0.000 HD 
HETATM   18  O   UNL     1     -11.143   8.417  70.276  1.00  0.00    -0.249 OA 
BRANCH  16  19
HETATM   19  C   UNL     1     -10.649   6.442  68.973  1.00  0.00    -0.257 C  
BRANCH  19  20
HETATM   20  S   UNL     1     -10.901   6.637  67.196  1.00  0.00    -0.398 SA 
BRANCH  20  21
HETATM   21  C   UNL     1      -9.255   6.983  66.684  1.00  0.00    -0.158 C  
HETATM   22  O   UNL     1      -8.326   6.243  66.995  1.00  0.00    -0.109 OA 
BRANCH  21  23
HETATM   23  C   UNL     1      -9.035   8.214  65.877  1.00  0.00    -0.195 A  
HETATM   24  C   UNL     1      -9.987   9.241  65.936  1.00  0.00    -0.289 A  
HETATM   25  C   UNL     1      -9.834  10.386  65.148  1.00  0.00    -0.378 A  
HETATM   26  C   UNL     1      -8.738  10.506  64.294  1.00  0.00    -0.184 A  
HETATM   27  C   UNL     1      -7.788   9.490  64.233  1.00  0.00    -0.129 A  
HETATM   28  C   UNL     1      -7.934   8.347  65.019  1.00  0.00    -0.139 A  
ENDBRANCH  21  23
ENDBRANCH  20  21
ENDBRANCH  19  20
ENDBRANCH  16  19
ENDBRANCH  14  15
ENDBRANCH  12  14
ENDBRANCH   9  10
ENDBRANCH   6   9
ENDBRANCH   3   5
TORSDOF 9
ENDMDL
MODEL      184
REMARK 921   NORMALIZED FREE ENERGY PREDICTED BY IDOCK:   -4.96 KCAL/MOL
REMARK 922        TOTAL FREE ENERGY PREDICTED BY IDOCK:   -8.41 KCAL/MOL
REMARK 923 INTER-LIGAND FREE ENERGY PREDICTED BY IDOCK:   -7.55 KCAL/MOL
REMARK 924 INTRA-LIGAND FREE ENERGY PREDICTED BY IDOCK:   -0.85 KCAL/MOL
REMARK 927      BINDING AFFINITY PREDICTED BY RF-SCORE:    0.00 PKD
ROOT
HETATM    1  O   UNL     1     -10.704   9.638  71.272  1.00  0.00    -0.335 OA 
HETATM    2  C   UNL     1     -10.172   8.538  71.856  1.00  0.00    -0.299 C  
HETATM    3  C   UNL     1      -9.203   7.765  70.967  1.00  0.00    -0.151 C  
HETATM    4  O   UNL     1     -10.473   8.189  72.985  1.00  0.00    -0.325 OA 
ENDROOT
BRANCH   3   5
HETATM    5  N   UNL     1      -9.038   8.371  69.651  1.00  0.00    -0.152 N  
HETATM    6  C   UNL     1      -7.820   8.395  69.005  1.00  0.00    -0.102 C  
HETATM    7  H   UNL     1      -9.849   8.790  69.194  1.00  0.00     0.000 HD 
HETATM    8  O   UNL     1      -6.796   7.948  69.511  1.00  0.00    -0.045 OA 
BRANCH   6   9
HETATM    9  C   UNL     1      -7.819   9.060  67.622  1.00  0.00    -0.101 C  
BRANCH   9  10
HETATM   10  N   UNL     1      -9.089   9.672  67.270  1.00  0.00    -0.134 N  
HETATM   11  H   UNL     1      -9.697  10.007  68.017  1.00  0.00     0.000 HD 
HETATM   12  C   UNL     1      -9.501   9.818  65.965  1.00  0.00    -0.211 C  
HETATM   13  O   UNL     1      -8.807   9.467  65.015  1.00  0.00    -0.174 OA 
BRANCH  12  14
HETATM   14  C   UNL     1     -10.890  10.447  65.791  1.00  0.00     0.183 C  
BRANCH  14  15
HETATM   15  N   UNL     1     -10.989  11.784  66.368  1.00  0.00    -0.284 N  
HETATM   16  C   UNL     1     -12.024  12.630  66.027  1.00  0.00    -0.417 C  
HETATM   17  H   UNL     1     -10.282  12.098  67.034  1.00  0.00     0.000 HD 
HETATM   18  O   UNL     1     -12.819  12.362  65.129  1.00  0.00    -0.609 OA 
BRANCH  16  19
HETATM   19  C   UNL     1     -12.049  13.946  66.786  1.00  0.00    -0.439 C  
BRANCH  19  20
HETATM   20  S   UNL     1     -10.881  13.955  68.163  1.00  0.00    -0.256 SA 
BRANCH  20  21
HETATM   21  C   UNL     1     -11.622  15.174  69.191  1.00  0.00    -0.323 C  
HETATM   22  O   UNL     1     -11.507  16.370  68.941  1.00  0.00    -0.311 OA 
BRANCH  21  23
HETATM   23  C   UNL     1     -12.376  14.696  70.383  1.00  0.00    -0.399 A  
HETATM   24  C   UNL     1     -12.445  13.319  70.632  1.00  0.00    -0.373 A  
HETATM   25  C   UNL     1     -13.191  12.838  71.712  1.00  0.00    -0.471 A  
HETATM   26  C   UNL     1     -13.876  13.726  72.541  1.00  0.00    -0.626 A  
HETATM   27  C   UNL     1     -13.809  15.096  72.299  1.00  0.00    -0.618 A  
HETATM   28  C   UNL     1     -13.064  15.582  71.224  1.00  0.00    -0.581 A  
ENDBRANCH  21  23
ENDBRANCH  20  21
ENDBRANCH  19  20
ENDBRANCH  16  19
ENDBRANCH  14  15
ENDBRANCH  12  14
ENDBRANCH   9  10
ENDBRANCH   6   9
ENDBRANCH   3   5
TORSDOF 9
ENDMDL
MODEL      185
REMARK 921   NORMALIZED FREE ENERGY PREDICTED BY IDOCK:   -4.95 KCAL/MOL
REMARK 922        TOTAL FREE ENERGY PREDICTED BY IDOCK:   -8.40 KCAL/MOL
REMARK 923 INTER-LIGAND FREE ENERGY PREDICTED BY IDOCK:   -7.83 KCAL/MOL
REMARK 924 INTRA-LIGAND FREE ENERGY PREDICTED BY IDOCK:   -0.57 KCAL/MOL
REMARK 927      BINDING AFFINITY PREDICTED BY RF-SCORE:    0.00 PKD
ROOT
HETATM    1  O   UNL     1     -10.780  17.173  68.304  1.00  0.00    -0.366 OA 
HETATM    2  C   UNL     1     -10.208  18.083  67.480  1.00  0.00    -0.369 C  
HETATM    3  C   UNL     1      -9.992  17.586  66.055  1.00  0.00    -0.218 C  
HETATM    4  O   UNL     1      -9.872  19.191  67.864  1.00  0.00    -0.310 OA 
ENDROOT
BRANCH   3   5
HETATM    5  N   UNL     1     -10.450  16.215  65.859  1.00  0.00    -0.346 N  
HETATM    6  C   UNL     1     -11.137  15.829  64.727  1.00  0.00    -0.400 C  
HETATM    7  H   UNL     1     -10.257  15.521  66.581  1.00  0.00     0.000 HD 
HETATM    8  O   UNL     1     -11.441  16.619  63.838  1.00  0.00    -1.186 OA 
BRANCH   6   9
HETATM    9  C   UNL     1     -11.538  14.349  64.670  1.00  0.00    -0.409 C  
BRANCH   9  10
HETATM   10  N   UNL     1     -10.465  13.473  64.232  1.00  0.00    -0.592 N  
HETATM   11  H   UNL     1      -9.506  13.706  64.486  1.00  0.00     0.000 HD 
HETATM   12  C   UNL     1     -10.697  12.339  63.486  1.00  0.00    -0.451 C  
HETATM   13  O   UNL     1     -11.829  11.981  63.172  1.00  0.00    -0.355 OA 
BRANCH  12  14
HETATM   14  C   UNL     1      -9.437  11.563  63.079  1.00  0.00    -0.320 C  
BRANCH  14  15
HETATM   15  N   UNL     1      -8.742  10.964  64.214  1.00  0.00    -0.359 N  
HETATM   16  C   UNL     1      -8.393   9.628  64.208  1.00  0.00    -0.168 C  
HETATM   17  H   UNL     1      -8.512  11.540  65.024  1.00  0.00     0.000 HD 
HETATM   18  O   UNL     1      -8.769   8.858  63.327  1.00  0.00    -0.159 OA 
BRANCH  16  19
HETATM   19  C   UNL     1      -7.586   9.175  65.413  1.00  0.00    -0.097 C  
BRANCH  19  20
HETATM   20  S   UNL     1      -8.632   8.866  66.852  1.00  0.00    -0.116 SA 
BRANCH  20  21
HETATM   21  C   UNL     1      -8.574   7.110  66.907  1.00  0.00    -0.124 C  
HETATM   22  O   UNL     1      -8.086   6.462  65.985  1.00  0.00    -0.110 OA 
BRANCH  21  23
HETATM   23  C   UNL     1      -9.155   6.445  68.106  1.00  0.00    -0.113 A  
HETATM   24  C   UNL     1      -8.427   5.425  68.733  1.00  0.00    -0.096 A  
HETATM   25  C   UNL     1      -8.971   4.747  69.828  1.00  0.00    -0.139 A  
HETATM   26  C   UNL     1     -10.243   5.076  70.294  1.00  0.00    -0.328 A  
HETATM   27  C   UNL     1     -10.970   6.091  69.676  1.00  0.00    -0.470 A  
HETATM   28  C   UNL     1     -10.431   6.774  68.586  1.00  0.00    -0.232 A  
ENDBRANCH  21  23
ENDBRANCH  20  21
ENDBRANCH  19  20
ENDBRANCH  16  19
ENDBRANCH  14  15
ENDBRANCH  12  14
ENDBRANCH   9  10
ENDBRANCH   6   9
ENDBRANCH   3   5
TORSDOF 9
ENDMDL
MODEL      186
REMARK 921   NORMALIZED FREE ENERGY PREDICTED BY IDOCK:   -4.95 KCAL/MOL
REMARK 922        TOTAL FREE ENERGY PREDICTED BY IDOCK:   -8.39 KCAL/MOL
REMARK 923 INTER-LIGAND FREE ENERGY PREDICTED BY IDOCK:   -7.53 KCAL/MOL
REMARK 924 INTRA-LIGAND FREE ENERGY PREDICTED BY IDOCK:   -0.86 KCAL/MOL
REMARK 927      BINDING AFFINITY PREDICTED BY RF-SCORE:    0.00 PKD
ROOT
HETATM    1  O   UNL     1      -7.698   6.217  69.558  1.00  0.00    -0.094 OA 
HETATM    2  C   UNL     1      -7.065   7.304  70.060  1.00  0.00    -0.066 C  
HETATM    3  C   UNL     1      -7.478   8.622  69.415  1.00  0.00    -0.080 C  
HETATM    4  O   UNL     1      -6.217   7.220  70.933  1.00  0.00    -0.035 OA 
ENDROOT
BRANCH   3   5
HETATM    5  N   UNL     1      -8.486   8.450  68.374  1.00  0.00    -0.134 N  
HETATM    6  C   UNL     1      -8.346   9.010  67.122  1.00  0.00    -0.110 C  
HETATM    7  H   UNL     1      -9.320   7.898  68.579  1.00  0.00     0.000 HD 
HETATM    8  O   UNL     1      -7.392   9.719  66.819  1.00  0.00    -0.090 OA 
BRANCH   6   9
HETATM    9  C   UNL     1      -9.489   8.725  66.139  1.00  0.00    -0.247 C  
BRANCH   9  10
HETATM   10  N   UNL     1     -10.031   9.919  65.515  1.00  0.00    -0.312 N  
HETATM   11  H   UNL     1     -10.710  10.478  66.030  1.00  0.00     0.000 HD 
HETATM   12  C   UNL     1      -9.661  10.325  64.252  1.00  0.00    -0.308 C  
HETATM   13  O   UNL     1      -8.826   9.718  63.587  1.00  0.00    -0.206 OA 
BRANCH  12  14
HETATM   14  C   UNL     1     -10.372  11.585  63.742  1.00  0.00    -0.399 C  
BRANCH  14  15
HETATM   15  N   UNL     1     -10.782  12.485  64.816  1.00  0.00    -0.288 N  
HETATM   16  C   UNL     1     -12.091  12.911  64.924  1.00  0.00    -0.432 C  
HETATM   17  H   UNL     1     -10.092  12.803  65.497  1.00  0.00     0.000 HD 
HETATM   18  O   UNL     1     -12.928  12.676  64.057  1.00  0.00    -0.712 OA 
BRANCH  16  19
HETATM   19  C   UNL     1     -12.386  13.759  66.150  1.00  0.00    -0.452 C  
BRANCH  19  20
HETATM   20  S   UNL     1     -10.985  13.813  67.289  1.00  0.00    -0.297 SA 
BRANCH  20  21
HETATM   21  C   UNL     1     -11.694  14.731  68.610  1.00  0.00    -0.325 C  
HETATM   22  O   UNL     1     -11.777  15.955  68.558  1.00  0.00    -0.383 OA 
BRANCH  21  23
HETATM   23  C   UNL     1     -12.170  13.966  69.795  1.00  0.00    -0.388 A  
HETATM   24  C   UNL     1     -11.998  12.576  69.817  1.00  0.00    -0.359 A  
HETATM   25  C   UNL     1     -12.483  11.826  70.893  1.00  0.00    -0.416 A  
HETATM   26  C   UNL     1     -13.148  12.457  71.943  1.00  0.00    -0.471 A  
HETATM   27  C   UNL     1     -13.320  13.839  71.928  1.00  0.00    -0.499 A  
HETATM   28  C   UNL     1     -12.836  14.593  70.859  1.00  0.00    -0.427 A  
ENDBRANCH  21  23
ENDBRANCH  20  21
ENDBRANCH  19  20
ENDBRANCH  16  19
ENDBRANCH  14  15
ENDBRANCH  12  14
ENDBRANCH   9  10
ENDBRANCH   6   9
ENDBRANCH   3   5
TORSDOF 9
ENDMDL
MODEL      187
REMARK 921   NORMALIZED FREE ENERGY PREDICTED BY IDOCK:   -4.92 KCAL/MOL
REMARK 922        TOTAL FREE ENERGY PREDICTED BY IDOCK:   -8.35 KCAL/MOL
REMARK 923 INTER-LIGAND FREE ENERGY PREDICTED BY IDOCK:   -7.46 KCAL/MOL
REMARK 924 INTRA-LIGAND FREE ENERGY PREDICTED BY IDOCK:   -0.90 KCAL/MOL
REMARK 927      BINDING AFFINITY PREDICTED BY RF-SCORE:    0.00 PKD
ROOT
HETATM    1  O   UNL     1     -11.507  14.860  70.239  1.00  0.00    -0.252 OA 
HETATM    2  C   UNL     1     -12.668  14.418  70.779  1.00  0.00    -0.360 C  
HETATM    3  C   UNL     1     -12.785  12.900  70.853  1.00  0.00    -0.207 C  
HETATM    4  O   UNL     1     -13.550  15.179  71.144  1.00  0.00    -0.444 OA 
ENDROOT
BRANCH   3   5
HETATM    5  N   UNL     1     -11.610  12.216  70.323  1.00  0.00    -0.529 N  
HETATM    6  C   UNL     1     -11.535  10.841  70.251  1.00  0.00    -0.319 C  
HETATM    7  H   UNL     1     -10.819  12.772  69.996  1.00  0.00     0.000 HD 
HETATM    8  O   UNL     1     -12.429  10.109  70.664  1.00  0.00    -0.303 OA 
BRANCH   6   9
HETATM    9  C   UNL     1     -10.236  10.281  69.658  1.00  0.00    -0.235 C  
BRANCH   9  10
HETATM   10  N   UNL     1      -9.577  11.192  68.738  1.00  0.00    -0.257 N  
HETATM   11  H   UNL     1      -8.886  11.846  69.105  1.00  0.00     0.000 HD 
HETATM   12  C   UNL     1      -9.849  11.204  67.389  1.00  0.00    -0.173 C  
HETATM   13  O   UNL     1     -10.645  10.423  66.874  1.00  0.00    -0.248 OA 
BRANCH  12  14
HETATM   14  C   UNL     1      -9.087  12.265  66.583  1.00  0.00    -0.203 C  
BRANCH  14  15
HETATM   15  N   UNL     1      -9.456  13.631  66.944  1.00  0.00    -0.253 N  
HETATM   16  C   UNL     1     -10.567  14.235  66.392  1.00  0.00    -0.286 C  
HETATM   17  H   UNL     1      -8.884  14.146  67.614  1.00  0.00     0.000 HD 
HETATM   18  O   UNL     1     -11.207  13.719  65.479  1.00  0.00    -0.296 OA 
BRANCH  16  19
HETATM   19  C   UNL     1     -10.880  15.617  66.942  1.00  0.00    -0.282 C  
BRANCH  19  20
HETATM   20  S   UNL     1     -10.060  16.922  66.000  1.00  0.00    -0.289 SA 
BRANCH  20  21
HETATM   21  C   UNL     1     -10.025  18.200  67.206  1.00  0.00    -0.330 C  
HETATM   22  O   UNL     1     -11.003  18.919  67.397  1.00  0.00    -0.437 OA 
BRANCH  21  23
HETATM   23  C   UNL     1      -8.761  18.385  67.970  1.00  0.00    -0.302 A  
HETATM   24  C   UNL     1      -8.271  19.683  68.165  1.00  0.00    -0.348 A  
HETATM   25  C   UNL     1      -7.059  19.882  68.831  1.00  0.00    -0.325 A  
HETATM   26  C   UNL     1      -6.327  18.790  69.297  1.00  0.00    -0.292 A  
HETATM   27  C   UNL     1      -6.810  17.498  69.108  1.00  0.00    -0.232 A  
HETATM   28  C   UNL     1      -8.021  17.292  68.446  1.00  0.00    -0.253 A  
ENDBRANCH  21  23
ENDBRANCH  20  21
ENDBRANCH  19  20
ENDBRANCH  16  19
ENDBRANCH  14  15
ENDBRANCH  12  14
ENDBRANCH   9  10
ENDBRANCH   6   9
ENDBRANCH   3   5
TORSDOF 9
ENDMDL
MODEL      188
REMARK 921   NORMALIZED FREE ENERGY PREDICTED BY IDOCK:   -4.89 KCAL/MOL
REMARK 922        TOTAL FREE ENERGY PREDICTED BY IDOCK:   -8.30 KCAL/MOL
REMARK 923 INTER-LIGAND FREE ENERGY PREDICTED BY IDOCK:   -7.07 KCAL/MOL
REMARK 924 INTRA-LIGAND FREE ENERGY PREDICTED BY IDOCK:   -1.23 KCAL/MOL
REMARK 927      BINDING AFFINITY PREDICTED BY RF-SCORE:    0.00 PKD
ROOT
HETATM    1  O   UNL     1      -9.896   8.714  69.463  1.00  0.00    -0.180 OA 
HETATM    2  C   UNL     1     -10.275   7.475  69.066  1.00  0.00    -0.205 C  
HETATM    3  C   UNL     1     -10.707   7.392  67.606  1.00  0.00    -0.207 C  
HETATM    4  O   UNL     1     -10.293   6.523  69.828  1.00  0.00    -0.180 OA 
ENDROOT
BRANCH   3   5
HETATM    5  N   UNL     1     -10.625   8.676  66.919  1.00  0.00    -0.261 N  
HETATM    6  C   UNL     1      -9.693   8.918  65.931  1.00  0.00    -0.189 C  
HETATM    7  H   UNL     1     -11.276   9.418  67.176  1.00  0.00     0.000 HD 
HETATM    8  O   UNL     1      -8.853   8.088  65.599  1.00  0.00    -0.156 OA 
BRANCH   6   9
HETATM    9  C   UNL     1      -9.747  10.315  65.300  1.00  0.00    -0.291 C  
BRANCH   9  10
HETATM   10  N   UNL     1      -8.864  11.276  65.938  1.00  0.00    -0.251 N  
HETATM   11  H   UNL     1      -7.938  11.432  65.540  1.00  0.00     0.000 HD 
HETATM   12  C   UNL     1      -9.230  11.982  67.062  1.00  0.00    -0.195 C  
HETATM   13  O   UNL     1     -10.340  11.867  67.576  1.00  0.00    -0.196 OA 
BRANCH  12  14
HETATM   14  C   UNL     1      -8.149  12.918  67.620  1.00  0.00    -0.167 C  
BRANCH  14  15
HETATM   15  N   UNL     1      -8.664  13.862  68.607  1.00  0.00    -0.321 N  
HETATM   16  C   UNL     1      -8.519  15.224  68.431  1.00  0.00    -0.158 C  
HETATM   17  H   UNL     1      -9.138  13.511  69.440  1.00  0.00     0.000 HD 
HETATM   18  O   UNL     1      -7.837  15.696  67.525  1.00  0.00    -0.136 OA 
BRANCH  16  19
HETATM   19  C   UNL     1      -9.196  16.079  69.488  1.00  0.00    -0.124 C  
BRANCH  19  20
HETATM   20  S   UNL     1     -10.794  16.707  68.930  1.00  0.00    -0.297 SA 
BRANCH  20  21
HETATM   21  C   UNL     1     -11.691  15.201  68.800  1.00  0.00    -0.342 C  
HETATM   22  O   UNL     1     -11.800  14.619  67.724  1.00  0.00    -0.357 OA 
BRANCH  21  23
HETATM   23  C   UNL     1     -12.325  14.674  70.040  1.00  0.00    -0.365 A  
HETATM   24  C   UNL     1     -12.184  13.314  70.346  1.00  0.00    -0.404 A  
HETATM   25  C   UNL     1     -12.813  12.780  71.475  1.00  0.00    -0.369 A  
HETATM   26  C   UNL     1     -13.591  13.597  72.295  1.00  0.00    -0.669 A  
HETATM   27  C   UNL     1     -13.733  14.950  71.996  1.00  0.00    -0.538 A  
HETATM   28  C   UNL     1     -13.105  15.489  70.873  1.00  0.00    -0.508 A  
ENDBRANCH  21  23
ENDBRANCH  20  21
ENDBRANCH  19  20
ENDBRANCH  16  19
ENDBRANCH  14  15
ENDBRANCH  12  14
ENDBRANCH   9  10
ENDBRANCH   6   9
ENDBRANCH   3   5
TORSDOF 9
ENDMDL
MODEL      189
REMARK 921   NORMALIZED FREE ENERGY PREDICTED BY IDOCK:   -4.88 KCAL/MOL
REMARK 922        TOTAL FREE ENERGY PREDICTED BY IDOCK:   -8.29 KCAL/MOL
REMARK 923 INTER-LIGAND FREE ENERGY PREDICTED BY IDOCK:   -7.61 KCAL/MOL
REMARK 924 INTRA-LIGAND FREE ENERGY PREDICTED BY IDOCK:   -0.68 KCAL/MOL
REMARK 927      BINDING AFFINITY PREDICTED BY RF-SCORE:    0.00 PKD
ROOT
HETATM    1  O   UNL     1      -8.266   6.700  69.206  1.00  0.00    -0.120 OA 
HETATM    2  C   UNL     1      -7.817   7.736  69.954  1.00  0.00    -0.105 C  
HETATM    3  C   UNL     1      -8.367   9.095  69.534  1.00  0.00    -0.126 C  
HETATM    4  O   UNL     1      -7.017   7.586  70.864  1.00  0.00    -0.053 OA 
ENDROOT
BRANCH   3   5
HETATM    5  N   UNL     1      -9.279   9.009  68.399  1.00  0.00    -0.136 N  
HETATM    6  C   UNL     1      -9.033   9.668  67.213  1.00  0.00    -0.134 C  
HETATM    7  H   UNL     1     -10.124   8.444  68.485  1.00  0.00     0.000 HD 
HETATM    8  O   UNL     1      -8.060  10.397  67.052  1.00  0.00    -0.114 OA 
BRANCH   6   9
HETATM    9  C   UNL     1     -10.085   9.464  66.114  1.00  0.00    -0.254 C  
BRANCH   9  10
HETATM   10  N   UNL     1     -10.349  10.661  65.334  1.00  0.00    -0.260 N  
HETATM   11  H   UNL     1     -10.795  11.456  65.790  1.00  0.00     0.000 HD 
HETATM   12  C   UNL     1     -10.020  10.760  64.001  1.00  0.00    -0.342 C  
HETATM   13  O   UNL     1      -9.453   9.853  63.396  1.00  0.00    -0.265 OA 
BRANCH  12  14
HETATM   14  C   UNL     1     -10.417  12.083  63.332  1.00  0.00    -0.433 C  
BRANCH  14  15
HETATM   15  N   UNL     1     -10.451  13.207  64.264  1.00  0.00    -0.458 N  
HETATM   16  C   UNL     1     -11.558  14.026  64.347  1.00  0.00    -0.369 C  
HETATM   17  H   UNL     1      -9.644  13.389  64.862  1.00  0.00     0.000 HD 
HETATM   18  O   UNL     1     -12.495  13.942  63.557  1.00  0.00    -0.810 OA 
BRANCH  16  19
HETATM   19  C   UNL     1     -11.486  15.087  65.433  1.00  0.00    -0.287 C  
BRANCH  19  20
HETATM   20  S   UNL     1      -9.801  15.322  66.039  1.00  0.00    -0.354 SA 
BRANCH  20  21
HETATM   21  C   UNL     1     -10.123  16.237  67.505  1.00  0.00    -0.258 C  
HETATM   22  O   UNL     1     -10.524  15.681  68.524  1.00  0.00    -0.227 OA 
BRANCH  21  23
HETATM   23  C   UNL     1      -9.907  17.709  67.453  1.00  0.00    -0.305 A  
HETATM   24  C   UNL     1     -10.613  18.463  66.506  1.00  0.00    -0.344 A  
HETATM   25  C   UNL     1     -10.391  19.839  66.399  1.00  0.00    -0.619 A  
HETATM   26  C   UNL     1      -9.460  20.465  67.227  1.00  0.00    -0.568 A  
HETATM   27  C   UNL     1      -8.757  19.720  68.171  1.00  0.00    -0.333 A  
HETATM   28  C   UNL     1      -8.976  18.348  68.285  1.00  0.00    -0.330 A  
ENDBRANCH  21  23
ENDBRANCH  20  21
ENDBRANCH  19  20
ENDBRANCH  16  19
ENDBRANCH  14  15
ENDBRANCH  12  14
ENDBRANCH   9  10
ENDBRANCH   6   9
ENDBRANCH   3   5
TORSDOF 9
ENDMDL
MODEL      190
REMARK 921   NORMALIZED FREE ENERGY PREDICTED BY IDOCK:   -4.87 KCAL/MOL
REMARK 922        TOTAL FREE ENERGY PREDICTED BY IDOCK:   -8.28 KCAL/MOL
REMARK 923 INTER-LIGAND FREE ENERGY PREDICTED BY IDOCK:   -7.43 KCAL/MOL
REMARK 924 INTRA-LIGAND FREE ENERGY PREDICTED BY IDOCK:   -0.85 KCAL/MOL
REMARK 927      BINDING AFFINITY PREDICTED BY RF-SCORE:    0.00 PKD
ROOT
HETATM    1  O   UNL     1     -11.239   7.297  67.043  1.00  0.00    -0.221 OA 
HETATM    2  C   UNL     1     -10.798   6.122  67.551  1.00  0.00    -0.332 C  
HETATM    3  C   UNL     1     -10.908   6.015  69.068  1.00  0.00    -0.342 C  
HETATM    4  O   UNL     1     -10.326   5.243  66.848  1.00  0.00    -0.216 OA 
ENDROOT
BRANCH   3   5
HETATM    5  N   UNL     1     -11.475   7.213  69.679  1.00  0.00    -0.519 N  
HETATM    6  C   UNL     1     -11.913   7.229  70.986  1.00  0.00    -0.327 C  
HETATM    7  H   UNL     1     -11.551   8.064  69.121  1.00  0.00     0.000 HD 
HETATM    8  O   UNL     1     -11.892   6.233  71.702  1.00  0.00    -0.308 OA 
BRANCH   6   9
HETATM    9  C   UNL     1     -12.472   8.570  71.479  1.00  0.00    -0.317 C  
BRANCH   9  10
HETATM   10  N   UNL     1     -12.120   9.694  70.629  1.00  0.00    -0.420 N  
HETATM   11  H   UNL     1     -11.582   9.519  69.780  1.00  0.00     0.000 HD 
HETATM   12  C   UNL     1     -12.484  10.988  70.927  1.00  0.00    -0.410 C  
HETATM   13  O   UNL     1     -13.158  11.268  71.916  1.00  0.00    -0.493 OA 
BRANCH  12  14
HETATM   14  C   UNL     1     -11.984  12.047  69.936  1.00  0.00    -0.318 C  
BRANCH  14  15
HETATM   15  N   UNL     1     -10.788  11.631  69.210  1.00  0.00    -0.393 N  
HETATM   16  C   UNL     1     -10.522  12.116  67.945  1.00  0.00    -0.208 C  
HETATM   17  H   UNL     1     -10.140  10.973  69.643  1.00  0.00     0.000 HD 
HETATM   18  O   UNL     1     -11.333  12.794  67.320  1.00  0.00    -0.279 OA 
BRANCH  16  19
HETATM   19  C   UNL     1      -9.191  11.673  67.360  1.00  0.00    -0.168 C  
BRANCH  19  20
HETATM   20  S   UNL     1      -7.803  12.105  68.433  1.00  0.00    -0.139 SA 
BRANCH  20  21
HETATM   21  C   UNL     1      -7.344  13.653  67.739  1.00  0.00    -0.166 C  
HETATM   22  O   UNL     1      -6.220  13.833  67.278  1.00  0.00    -0.311 OA 
BRANCH  21  23
HETATM   23  C   UNL     1      -8.365  14.737  67.751  1.00  0.00    -0.166 A  
HETATM   24  C   UNL     1      -8.944  15.107  68.971  1.00  0.00    -0.219 A  
HETATM   25  C   UNL     1      -9.944  16.084  69.005  1.00  0.00    -0.242 A  
HETATM   26  C   UNL     1     -10.374  16.687  67.824  1.00  0.00    -0.306 A  
HETATM   27  C   UNL     1      -9.800  16.325  66.608  1.00  0.00    -0.265 A  
HETATM   28  C   UNL     1      -8.800  15.353  66.568  1.00  0.00    -0.347 A  
ENDBRANCH  21  23
ENDBRANCH  20  21
ENDBRANCH  19  20
ENDBRANCH  16  19
ENDBRANCH  14  15
ENDBRANCH  12  14
ENDBRANCH   9  10
ENDBRANCH   6   9
ENDBRANCH   3   5
TORSDOF 9
ENDMDL
MODEL      191
REMARK 921   NORMALIZED FREE ENERGY PREDICTED BY IDOCK:   -4.82 KCAL/MOL
REMARK 922        TOTAL FREE ENERGY PREDICTED BY IDOCK:   -8.20 KCAL/MOL
REMARK 923 INTER-LIGAND FREE ENERGY PREDICTED BY IDOCK:   -7.30 KCAL/MOL
REMARK 924 INTRA-LIGAND FREE ENERGY PREDICTED BY IDOCK:   -0.90 KCAL/MOL
REMARK 927      BINDING AFFINITY PREDICTED BY RF-SCORE:    0.00 PKD
ROOT
HETATM    1  O   UNL     1     -10.172  18.087  65.627  1.00  0.00    -0.584 OA 
HETATM    2  C   UNL     1      -9.154  18.102  66.520  1.00  0.00    -0.276 C  
HETATM    3  C   UNL     1      -9.255  17.031  67.600  1.00  0.00    -0.233 C  
HETATM    4  O   UNL     1      -8.256  18.926  66.472  1.00  0.00    -0.277 OA 
ENDROOT
BRANCH   3   5
HETATM    5  N   UNL     1     -10.439  16.192  67.456  1.00  0.00    -0.297 N  
HETATM    6  C   UNL     1     -10.373  14.919  66.927  1.00  0.00    -0.264 C  
HETATM    7  H   UNL     1     -11.344  16.557  67.754  1.00  0.00     0.000 HD 
HETATM    8  O   UNL     1      -9.328  14.431  66.510  1.00  0.00    -0.273 OA 
BRANCH   6   9
HETATM    9  C   UNL     1     -11.707  14.165  66.854  1.00  0.00    -0.414 C  
BRANCH   9  10
HETATM   10  N   UNL     1     -11.860  13.153  67.886  1.00  0.00    -0.354 N  
HETATM   11  H   UNL     1     -11.913  12.173  67.610  1.00  0.00     0.000 HD 
HETATM   12  C   UNL     1     -11.936  13.470  69.224  1.00  0.00    -0.330 C  
HETATM   13  O   UNL     1     -11.848  14.625  69.630  1.00  0.00    -0.284 OA 
BRANCH  12  14
HETATM   14  C   UNL     1     -12.141  12.273  70.162  1.00  0.00    -0.287 C  
BRANCH  14  15
HETATM   15  N   UNL     1     -11.030  11.326  70.132  1.00  0.00    -0.433 N  
HETATM   16  C   UNL     1     -10.943  10.364  69.146  1.00  0.00    -0.241 C  
HETATM   17  H   UNL     1     -10.307  11.376  70.851  1.00  0.00     0.000 HD 
HETATM   18  O   UNL     1     -11.853  10.167  68.343  1.00  0.00    -0.109 OA 
BRANCH  16  19
HETATM   19  C   UNL     1      -9.680   9.521  69.187  1.00  0.00    -0.178 C  
BRANCH  19  20
HETATM   20  S   UNL     1      -8.578   9.885  67.804  1.00  0.00    -0.121 SA 
BRANCH  20  21
HETATM   21  C   UNL     1      -9.450   9.096  66.496  1.00  0.00    -0.208 C  
HETATM   22  O   UNL     1     -10.013   8.019  66.669  1.00  0.00    -0.245 OA 
BRANCH  21  23
HETATM   23  C   UNL     1      -9.460   9.779  65.173  1.00  0.00    -0.338 A  
HETATM   24  C   UNL     1     -10.387  10.806  64.949  1.00  0.00    -0.369 A  
HETATM   25  C   UNL     1     -10.455  11.428  63.699  1.00  0.00    -0.472 A  
HETATM   26  C   UNL     1      -9.609  11.023  62.668  1.00  0.00    -0.285 A  
HETATM   27  C   UNL     1      -8.685  10.004  62.885  1.00  0.00    -0.211 A  
HETATM   28  C   UNL     1      -8.610   9.381  64.131  1.00  0.00    -0.216 A  
ENDBRANCH  21  23
ENDBRANCH  20  21
ENDBRANCH  19  20
ENDBRANCH  16  19
ENDBRANCH  14  15
ENDBRANCH  12  14
ENDBRANCH   9  10
ENDBRANCH   6   9
ENDBRANCH   3   5
TORSDOF 9
ENDMDL
MODEL      192
REMARK 921   NORMALIZED FREE ENERGY PREDICTED BY IDOCK:   -4.82 KCAL/MOL
REMARK 922        TOTAL FREE ENERGY PREDICTED BY IDOCK:   -8.20 KCAL/MOL
REMARK 923 INTER-LIGAND FREE ENERGY PREDICTED BY IDOCK:   -7.62 KCAL/MOL
REMARK 924 INTRA-LIGAND FREE ENERGY PREDICTED BY IDOCK:   -0.57 KCAL/MOL
REMARK 927      BINDING AFFINITY PREDICTED BY RF-SCORE:    0.00 PKD
ROOT
HETATM    1  O   UNL     1     -10.723  19.339  66.459  1.00  0.00    -0.424 OA 
HETATM    2  C   UNL     1      -9.412  19.262  66.791  1.00  0.00    -0.329 C  
HETATM    3  C   UNL     1      -8.975  17.892  67.299  1.00  0.00    -0.250 C  
HETATM    4  O   UNL     1      -8.662  20.221  66.715  1.00  0.00    -0.312 OA 
ENDROOT
BRANCH   3   5
HETATM    5  N   UNL     1     -10.067  16.925  67.325  1.00  0.00    -0.279 N  
HETATM    6  C   UNL     1     -10.270  16.024  66.301  1.00  0.00    -0.316 C  
HETATM    7  H   UNL     1     -10.700  16.914  68.126  1.00  0.00     0.000 HD 
HETATM    8  O   UNL     1      -9.575  16.007  65.290  1.00  0.00    -0.368 OA 
BRANCH   6   9
HETATM    9  C   UNL     1     -11.455  15.067  66.488  1.00  0.00    -0.239 C  
BRANCH   9  10
HETATM   10  N   UNL     1     -11.350  13.851  65.700  1.00  0.00    -0.305 N  
HETATM   11  H   UNL     1     -10.805  13.072  66.069  1.00  0.00     0.000 HD 
HETATM   12  C   UNL     1     -11.960  13.712  64.474  1.00  0.00    -0.418 C  
HETATM   13  O   UNL     1     -12.657  14.597  63.984  1.00  0.00    -0.819 OA 
BRANCH  12  14
HETATM   14  C   UNL     1     -11.700  12.373  63.770  1.00  0.00    -0.483 C  
BRANCH  14  15
HETATM   15  N   UNL     1     -10.858  11.471  64.549  1.00  0.00    -0.328 N  
HETATM   16  C   UNL     1      -9.883  10.707  63.940  1.00  0.00    -0.338 C  
HETATM   17  H   UNL     1     -10.993  11.403  65.558  1.00  0.00     0.000 HD 
HETATM   18  O   UNL     1      -9.772  10.641  62.719  1.00  0.00    -0.304 OA 
BRANCH  16  19
HETATM   19  C   UNL     1      -9.021   9.896  64.894  1.00  0.00    -0.207 C  
BRANCH  19  20
HETATM   20  S   UNL     1      -9.991   9.170  66.232  1.00  0.00    -0.243 SA 
BRANCH  20  21
HETATM   21  C   UNL     1      -9.067   7.704  66.526  1.00  0.00    -0.167 C  
HETATM   22  O   UNL     1      -8.171   7.355  65.762  1.00  0.00    -0.121 OA 
BRANCH  21  23
HETATM   23  C   UNL     1      -9.426   6.899  67.726  1.00  0.00    -0.128 A  
HETATM   24  C   UNL     1     -10.777   6.635  67.984  1.00  0.00    -0.330 A  
HETATM   25  C   UNL     1     -11.147   5.928  69.132  1.00  0.00    -0.328 A  
HETATM   26  C   UNL     1     -10.173   5.490  70.029  1.00  0.00    -0.337 A  
HETATM   27  C   UNL     1      -8.828   5.747  69.776  1.00  0.00    -0.129 A  
HETATM   28  C   UNL     1      -8.453   6.450  68.631  1.00  0.00    -0.123 A  
ENDBRANCH  21  23
ENDBRANCH  20  21
ENDBRANCH  19  20
ENDBRANCH  16  19
ENDBRANCH  14  15
ENDBRANCH  12  14
ENDBRANCH   9  10
ENDBRANCH   6   9
ENDBRANCH   3   5
TORSDOF 9
ENDMDL
MODEL      193
REMARK 921   NORMALIZED FREE ENERGY PREDICTED BY IDOCK:   -4.82 KCAL/MOL
REMARK 922        TOTAL FREE ENERGY PREDICTED BY IDOCK:   -8.19 KCAL/MOL
REMARK 923 INTER-LIGAND FREE ENERGY PREDICTED BY IDOCK:   -7.55 KCAL/MOL
REMARK 924 INTRA-LIGAND FREE ENERGY PREDICTED BY IDOCK:   -0.65 KCAL/MOL
REMARK 927      BINDING AFFINITY PREDICTED BY RF-SCORE:    0.00 PKD
ROOT
HETATM    1  O   UNL     1     -12.111  13.476  68.152  1.00  0.00    -0.346 OA 
HETATM    2  C   UNL     1     -11.631  14.732  67.985  1.00  0.00    -0.343 C  
HETATM    3  C   UNL     1     -10.990  14.979  66.624  1.00  0.00    -0.325 C  
HETATM    4  O   UNL     1     -11.685  15.574  68.866  1.00  0.00    -0.349 OA 
ENDROOT
BRANCH   3   5
HETATM    5  N   UNL     1     -11.023  13.803  65.761  1.00  0.00    -0.279 N  
HETATM    6  C   UNL     1     -11.919  13.687  64.719  1.00  0.00    -0.396 C  
HETATM    7  H   UNL     1     -10.365  13.044  65.935  1.00  0.00     0.000 HD 
HETATM    8  O   UNL     1     -12.766  14.541  64.478  1.00  0.00    -0.653 OA 
BRANCH   6   9
HETATM    9  C   UNL     1     -11.815  12.393  63.901  1.00  0.00    -0.466 C  
BRANCH   9  10
HETATM   10  N   UNL     1     -10.998  11.371  64.531  1.00  0.00    -0.310 N  
HETATM   11  H   UNL     1     -11.236  11.062  65.474  1.00  0.00     0.000 HD 
HETATM   12  C   UNL     1      -9.912  10.803  63.903  1.00  0.00    -0.343 C  
HETATM   13  O   UNL     1      -9.586  11.103  62.758  1.00  0.00    -0.323 OA 
BRANCH  12  14
HETATM   14  C   UNL     1      -9.144   9.773  64.742  1.00  0.00    -0.241 C  
BRANCH  14  15
HETATM   15  N   UNL     1      -9.826   9.424  65.985  1.00  0.00    -0.288 N  
HETATM   16  C   UNL     1      -9.636   8.192  66.578  1.00  0.00    -0.234 C  
HETATM   17  H   UNL     1     -10.452  10.101  66.422  1.00  0.00     0.000 HD 
HETATM   18  O   UNL     1      -9.010   7.291  66.026  1.00  0.00    -0.165 OA 
BRANCH  16  19
HETATM   19  C   UNL     1     -10.331   8.015  67.918  1.00  0.00    -0.222 C  
BRANCH  19  20
HETATM   20  S   UNL     1     -11.003   6.351  68.116  1.00  0.00    -0.264 SA 
BRANCH  20  21
HETATM   21  C   UNL     1     -11.322   6.349  69.845  1.00  0.00    -0.434 C  
HETATM   22  O   UNL     1     -12.117   7.141  70.344  1.00  0.00    -0.213 OA 
BRANCH  21  23
HETATM   23  C   UNL     1     -10.577   5.363  70.676  1.00  0.00    -0.302 A  
HETATM   24  C   UNL     1      -9.995   4.254  70.050  1.00  0.00    -0.196 A  
HETATM   25  C   UNL     1      -9.336   3.285  70.812  1.00  0.00    -0.223 A  
HETATM   26  C   UNL     1      -9.264   3.413  72.198  1.00  0.00    -0.166 A  
HETATM   27  C   UNL     1      -9.839   4.515  72.826  1.00  0.00    -0.191 A  
HETATM   28  C   UNL     1     -10.495   5.487  72.071  1.00  0.00    -0.277 A  
ENDBRANCH  21  23
ENDBRANCH  20  21
ENDBRANCH  19  20
ENDBRANCH  16  19
ENDBRANCH  14  15
ENDBRANCH  12  14
ENDBRANCH   9  10
ENDBRANCH   6   9
ENDBRANCH   3   5
TORSDOF 9
ENDMDL
MODEL      194
REMARK 921   NORMALIZED FREE ENERGY PREDICTED BY IDOCK:   -4.81 KCAL/MOL
REMARK 922        TOTAL FREE ENERGY PREDICTED BY IDOCK:   -8.18 KCAL/MOL
REMARK 923 INTER-LIGAND FREE ENERGY PREDICTED BY IDOCK:   -7.30 KCAL/MOL
REMARK 924 INTRA-LIGAND FREE ENERGY PREDICTED BY IDOCK:   -0.88 KCAL/MOL
REMARK 927      BINDING AFFINITY PREDICTED BY RF-SCORE:    0.00 PKD
ROOT
HETATM    1  O   UNL     1      -9.713   4.481  73.016  1.00  0.00    -0.134 OA 
HETATM    2  C   UNL     1     -10.025   3.935  71.816  1.00  0.00    -0.163 C  
HETATM    3  C   UNL     1     -10.255   4.955  70.706  1.00  0.00    -0.206 C  
HETATM    4  O   UNL     1     -10.139   2.731  71.656  1.00  0.00    -0.136 OA 
ENDROOT
BRANCH   3   5
HETATM    5  N   UNL     1     -10.090   6.332  71.161  1.00  0.00    -0.182 N  
HETATM    6  C   UNL     1     -11.165   7.180  71.327  1.00  0.00    -0.259 C  
HETATM    7  H   UNL     1      -9.151   6.678  71.361  1.00  0.00     0.000 HD 
HETATM    8  O   UNL     1     -12.316   6.846  71.066  1.00  0.00    -0.381 OA 
BRANCH   6   9
HETATM    9  C   UNL     1     -10.822   8.591  71.823  1.00  0.00    -0.304 C  
BRANCH   9  10
HETATM   10  N   UNL     1     -10.292   9.458  70.785  1.00  0.00    -0.276 N  
HETATM   11  H   UNL     1      -9.295   9.423  70.576  1.00  0.00     0.000 HD 
HETATM   12  C   UNL     1     -11.088  10.327  70.072  1.00  0.00    -0.311 C  
HETATM   13  O   UNL     1     -12.301  10.399  70.248  1.00  0.00    -0.287 OA 
BRANCH  12  14
HETATM   14  C   UNL     1     -10.345  11.194  69.047  1.00  0.00    -0.194 C  
BRANCH  14  15
HETATM   15  N   UNL     1     -10.782  10.960  67.674  1.00  0.00    -0.223 N  
HETATM   16  C   UNL     1      -9.925  11.164  66.612  1.00  0.00    -0.207 C  
HETATM   17  H   UNL     1     -11.736  10.641  67.498  1.00  0.00     0.000 HD 
HETATM   18  O   UNL     1      -8.820  11.680  66.753  1.00  0.00    -0.172 OA 
BRANCH  16  19
HETATM   19  C   UNL     1     -10.490  10.779  65.254  1.00  0.00    -0.212 C  
BRANCH  19  20
HETATM   20  S   UNL     1     -10.633  12.203  64.153  1.00  0.00    -0.404 SA 
BRANCH  20  21
HETATM   21  C   UNL     1     -11.771  13.187  65.062  1.00  0.00    -0.337 C  
HETATM   22  O   UNL     1     -12.975  12.945  65.042  1.00  0.00    -0.777 OA 
BRANCH  21  23
HETATM   23  C   UNL     1     -11.218  14.330  65.839  1.00  0.00    -0.319 A  
HETATM   24  C   UNL     1     -11.692  14.558  67.137  1.00  0.00    -0.420 A  
HETATM   25  C   UNL     1     -11.230  15.655  67.870  1.00  0.00    -0.328 A  
HETATM   26  C   UNL     1     -10.303  16.533  67.308  1.00  0.00    -0.296 A  
HETATM   27  C   UNL     1      -9.827  16.309  66.018  1.00  0.00    -0.371 A  
HETATM   28  C   UNL     1     -10.282  15.215  65.283  1.00  0.00    -0.400 A  
ENDBRANCH  21  23
ENDBRANCH  20  21
ENDBRANCH  19  20
ENDBRANCH  16  19
ENDBRANCH  14  15
ENDBRANCH  12  14
ENDBRANCH   9  10
ENDBRANCH   6   9
ENDBRANCH   3   5
TORSDOF 9
ENDMDL
MODEL      195
REMARK 921   NORMALIZED FREE ENERGY PREDICTED BY IDOCK:   -4.80 KCAL/MOL
REMARK 922        TOTAL FREE ENERGY PREDICTED BY IDOCK:   -8.16 KCAL/MOL
REMARK 923 INTER-LIGAND FREE ENERGY PREDICTED BY IDOCK:   -7.64 KCAL/MOL
REMARK 924 INTRA-LIGAND FREE ENERGY PREDICTED BY IDOCK:   -0.52 KCAL/MOL
REMARK 927      BINDING AFFINITY PREDICTED BY RF-SCORE:    0.00 PKD
ROOT
HETATM    1  O   UNL     1     -11.190   4.038  64.579  1.00  0.00    -0.336 OA 
HETATM    2  C   UNL     1      -9.885   3.810  64.297  1.00  0.00    -0.186 C  
HETATM    3  C   UNL     1      -8.948   4.938  64.717  1.00  0.00    -0.125 C  
HETATM    4  O   UNL     1      -9.507   2.800  63.727  1.00  0.00    -0.104 OA 
ENDROOT
BRANCH   3   5
HETATM    5  N   UNL     1      -9.651   6.049  65.349  1.00  0.00    -0.227 N  
HETATM    6  C   UNL     1      -9.728   6.181  66.719  1.00  0.00    -0.158 C  
HETATM    7  H   UNL     1     -10.098   6.751  64.758  1.00  0.00     0.000 HD 
HETATM    8  O   UNL     1      -9.251   5.354  67.490  1.00  0.00    -0.111 OA 
BRANCH   6   9
HETATM    9  C   UNL     1     -10.493   7.412  67.222  1.00  0.00    -0.315 C  
BRANCH   9  10
HETATM   10  N   UNL     1     -10.298   8.594  66.400  1.00  0.00    -0.358 N  
HETATM   11  H   UNL     1      -9.917   8.481  65.460  1.00  0.00     0.000 HD 
HETATM   12  C   UNL     1     -10.608   9.860  66.842  1.00  0.00    -0.178 C  
HETATM   13  O   UNL     1     -11.098  10.066  67.949  1.00  0.00    -0.275 OA 
BRANCH  12  14
HETATM   14  C   UNL     1     -10.292  10.988  65.850  1.00  0.00    -0.257 C  
BRANCH  14  15
HETATM   15  N   UNL     1     -10.551  12.318  66.394  1.00  0.00    -0.237 N  
HETATM   16  C   UNL     1     -11.763  12.946  66.186  1.00  0.00    -0.396 C  
HETATM   17  H   UNL     1      -9.827  12.789  66.937  1.00  0.00     0.000 HD 
HETATM   18  O   UNL     1     -12.614  12.490  65.427  1.00  0.00    -0.656 OA 
BRANCH  16  19
HETATM   19  C   UNL     1     -11.921  14.278  66.900  1.00  0.00    -0.438 C  
BRANCH  19  20
HETATM   20  S   UNL     1     -10.333  14.951  67.436  1.00  0.00    -0.245 SA 
BRANCH  20  21
HETATM   21  C   UNL     1     -10.884  16.298  68.423  1.00  0.00    -0.334 C  
HETATM   22  O   UNL     1     -11.772  16.150  69.258  1.00  0.00    -0.313 OA 
BRANCH  21  23
HETATM   23  C   UNL     1     -10.244  17.622  68.191  1.00  0.00    -0.371 A  
HETATM   24  C   UNL     1     -10.905  18.562  67.390  1.00  0.00    -0.342 A  
HETATM   25  C   UNL     1     -10.303  19.793  67.112  1.00  0.00    -0.589 A  
HETATM   26  C   UNL     1      -9.039  20.086  67.621  1.00  0.00    -0.441 A  
HETATM   27  C   UNL     1      -8.377  19.155  68.420  1.00  0.00    -0.384 A  
HETATM   28  C   UNL     1      -8.974  17.927  68.704  1.00  0.00    -0.262 A  
ENDBRANCH  21  23
ENDBRANCH  20  21
ENDBRANCH  19  20
ENDBRANCH  16  19
ENDBRANCH  14  15
ENDBRANCH  12  14
ENDBRANCH   9  10
ENDBRANCH   6   9
ENDBRANCH   3   5
TORSDOF 9
ENDMDL
MODEL      196
REMARK 921   NORMALIZED FREE ENERGY PREDICTED BY IDOCK:   -4.80 KCAL/MOL
REMARK 922        TOTAL FREE ENERGY PREDICTED BY IDOCK:   -8.16 KCAL/MOL
REMARK 923 INTER-LIGAND FREE ENERGY PREDICTED BY IDOCK:   -7.08 KCAL/MOL
REMARK 924 INTRA-LIGAND FREE ENERGY PREDICTED BY IDOCK:   -1.08 KCAL/MOL
REMARK 927      BINDING AFFINITY PREDICTED BY RF-SCORE:    0.00 PKD
ROOT
HETATM    1  O   UNL     1     -10.879  19.102  66.219  1.00  0.00    -0.363 OA 
HETATM    2  C   UNL     1      -9.636  19.059  66.757  1.00  0.00    -0.333 C  
HETATM    3  C   UNL     1      -9.288  17.730  67.418  1.00  0.00    -0.252 C  
HETATM    4  O   UNL     1      -8.881  20.017  66.734  1.00  0.00    -0.324 OA 
ENDROOT
BRANCH   3   5
HETATM    5  N   UNL     1     -10.372  16.758  67.339  1.00  0.00    -0.297 N  
HETATM    6  C   UNL     1     -10.473  15.858  66.299  1.00  0.00    -0.318 C  
HETATM    7  H   UNL     1     -11.078  16.743  68.076  1.00  0.00     0.000 HD 
HETATM    8  O   UNL     1      -9.686  15.846  65.358  1.00  0.00    -0.397 OA 
BRANCH   6   9
HETATM    9  C   UNL     1     -11.666  14.896  66.371  1.00  0.00    -0.190 C  
BRANCH   9  10
HETATM   10  N   UNL     1     -11.496  13.698  65.568  1.00  0.00    -0.302 N  
HETATM   11  H   UNL     1     -10.997  12.904  65.969  1.00  0.00     0.000 HD 
HETATM   12  C   UNL     1     -11.983  13.594  64.284  1.00  0.00    -0.445 C  
HETATM   13  O   UNL     1     -12.619  14.499  63.750  1.00  0.00    -0.825 OA 
BRANCH  12  14
HETATM   14  C   UNL     1     -11.668  12.269  63.576  1.00  0.00    -0.499 C  
BRANCH  14  15
HETATM   15  N   UNL     1     -10.906  11.343  64.409  1.00  0.00    -0.342 N  
HETATM   16  C   UNL     1      -9.751  10.751  63.938  1.00  0.00    -0.313 C  
HETATM   17  H   UNL     1     -11.232  11.131  65.352  1.00  0.00     0.000 HD 
HETATM   18  O   UNL     1      -9.392  10.858  62.769  1.00  0.00    -0.290 OA 
BRANCH  16  19
HETATM   19  C   UNL     1      -9.015   9.894  64.954  1.00  0.00    -0.207 C  
BRANCH  19  20
HETATM   20  S   UNL     1     -10.055   9.477  66.369  1.00  0.00    -0.233 SA 
BRANCH  20  21
HETATM   21  C   UNL     1      -8.927   9.775  67.683  1.00  0.00    -0.128 C  
HETATM   22  O   UNL     1      -8.727   8.930  68.552  1.00  0.00    -0.132 OA 
BRANCH  21  23
HETATM   23  C   UNL     1      -8.240  11.096  67.708  1.00  0.00    -0.119 A  
HETATM   24  C   UNL     1      -9.014  12.258  67.822  1.00  0.00    -0.177 A  
HETATM   25  C   UNL     1      -8.401  13.514  67.795  1.00  0.00    -0.181 A  
HETATM   26  C   UNL     1      -7.019  13.616  67.643  1.00  0.00    -0.183 A  
HETATM   27  C   UNL     1      -6.244  12.464  67.532  1.00  0.00    -0.148 A  
HETATM   28  C   UNL     1      -6.850  11.207  67.562  1.00  0.00    -0.086 A  
ENDBRANCH  21  23
ENDBRANCH  20  21
ENDBRANCH  19  20
ENDBRANCH  16  19
ENDBRANCH  14  15
ENDBRANCH  12  14
ENDBRANCH   9  10
ENDBRANCH   6   9
ENDBRANCH   3   5
TORSDOF 9
ENDMDL
MODEL      197
REMARK 921   NORMALIZED FREE ENERGY PREDICTED BY IDOCK:   -4.80 KCAL/MOL
REMARK 922        TOTAL FREE ENERGY PREDICTED BY IDOCK:   -8.16 KCAL/MOL
REMARK 923 INTER-LIGAND FREE ENERGY PREDICTED BY IDOCK:   -6.47 KCAL/MOL
REMARK 924 INTRA-LIGAND FREE ENERGY PREDICTED BY IDOCK:   -1.69 KCAL/MOL
REMARK 927      BINDING AFFINITY PREDICTED BY RF-SCORE:    0.00 PKD
ROOT
HETATM    1  O   UNL     1      -8.095  16.177  69.339  1.00  0.00    -0.226 OA 
HETATM    2  C   UNL     1      -6.778  16.481  69.265  1.00  0.00    -0.218 C  
HETATM    3  C   UNL     1      -5.862  15.268  69.143  1.00  0.00    -0.099 C  
HETATM    4  O   UNL     1      -6.369  17.629  69.323  1.00  0.00    -0.227 OA 
ENDROOT
BRANCH   3   5
HETATM    5  N   UNL     1      -6.594  14.007  69.128  1.00  0.00    -0.108 N  
HETATM    6  C   UNL     1      -6.293  12.997  68.238  1.00  0.00    -0.089 C  
HETATM    7  H   UNL     1      -7.352  13.867  69.797  1.00  0.00     0.000 HD 
HETATM    8  O   UNL     1      -5.423  13.111  67.380  1.00  0.00    -0.322 OA 
BRANCH   6   9
HETATM    9  C   UNL     1      -7.150  11.730  68.362  1.00  0.00    -0.085 C  
BRANCH   9  10
HETATM   10  N   UNL     1      -8.574  11.999  68.460  1.00  0.00    -0.297 N  
HETATM   11  H   UNL     1      -8.880  12.908  68.806  1.00  0.00     0.000 HD 
HETATM   12  C   UNL     1      -9.526  11.072  68.103  1.00  0.00    -0.172 C  
HETATM   13  O   UNL     1      -9.230   9.969  67.649  1.00  0.00    -0.136 OA 
BRANCH  12  14
HETATM   14  C   UNL     1     -10.979  11.519  68.316  1.00  0.00    -0.224 C  
BRANCH  14  15
HETATM   15  N   UNL     1     -11.504  12.306  67.205  1.00  0.00    -0.333 N  
HETATM   16  C   UNL     1     -11.987  13.584  67.406  1.00  0.00    -0.357 C  
HETATM   17  H   UNL     1     -11.515  11.907  66.266  1.00  0.00     0.000 HD 
HETATM   18  O   UNL     1     -12.130  14.059  68.530  1.00  0.00    -0.357 OA 
BRANCH  16  19
HETATM   19  C   UNL     1     -12.403  14.315  66.141  1.00  0.00    -0.387 C  
BRANCH  19  20
HETATM   20  S   UNL     1     -11.009  14.586  65.026  1.00  0.00    -0.418 SA 
BRANCH  20  21
HETATM   21  C   UNL     1      -9.793  15.126  66.175  1.00  0.00    -0.300 C  
HETATM   22  O   UNL     1      -9.055  14.324  66.742  1.00  0.00    -0.249 OA 
BRANCH  21  23
HETATM   23  C   UNL     1      -9.708  16.588  66.443  1.00  0.00    -0.305 A  
HETATM   24  C   UNL     1      -8.538  17.274  66.090  1.00  0.00    -0.207 A  
HETATM   25  C   UNL     1      -8.410  18.636  66.378  1.00  0.00    -0.292 A  
HETATM   26  C   UNL     1      -9.440  19.315  67.027  1.00  0.00    -0.385 A  
HETATM   27  C   UNL     1     -10.606  18.639  67.378  1.00  0.00    -0.490 A  
HETATM   28  C   UNL     1     -10.742  17.280  67.091  1.00  0.00    -0.181 A  
ENDBRANCH  21  23
ENDBRANCH  20  21
ENDBRANCH  19  20
ENDBRANCH  16  19
ENDBRANCH  14  15
ENDBRANCH  12  14
ENDBRANCH   9  10
ENDBRANCH   6   9
ENDBRANCH   3   5
TORSDOF 9
ENDMDL
MODEL      198
REMARK 921   NORMALIZED FREE ENERGY PREDICTED BY IDOCK:   -4.79 KCAL/MOL
REMARK 922        TOTAL FREE ENERGY PREDICTED BY IDOCK:   -8.16 KCAL/MOL
REMARK 923 INTER-LIGAND FREE ENERGY PREDICTED BY IDOCK:   -7.37 KCAL/MOL
REMARK 924 INTRA-LIGAND FREE ENERGY PREDICTED BY IDOCK:   -0.79 KCAL/MOL
REMARK 927      BINDING AFFINITY PREDICTED BY RF-SCORE:    0.00 PKD
ROOT
HETATM    1  O   UNL     1     -10.762   8.063  66.768  1.00  0.00    -0.289 OA 
HETATM    2  C   UNL     1      -9.548   7.624  66.356  1.00  0.00    -0.153 C  
HETATM    3  C   UNL     1      -8.894   8.501  65.294  1.00  0.00    -0.100 C  
HETATM    4  O   UNL     1      -9.046   6.598  66.783  1.00  0.00    -0.132 OA 
ENDROOT
BRANCH   3   5
HETATM    5  N   UNL     1      -9.712   9.653  64.929  1.00  0.00    -0.438 N  
HETATM    6  C   UNL     1      -9.604  10.265  63.699  1.00  0.00    -0.277 C  
HETATM    7  H   UNL     1     -10.384  10.016  65.606  1.00  0.00     0.000 HD 
HETATM    8  O   UNL     1      -8.789   9.909  62.853  1.00  0.00    -0.202 OA 
BRANCH   6   9
HETATM    9  C   UNL     1     -10.544  11.456  63.469  1.00  0.00    -0.402 C  
BRANCH   9  10
HETATM   10  N   UNL     1     -10.925  12.140  64.692  1.00  0.00    -0.300 N  
HETATM   11  H   UNL     1     -10.203  12.356  65.379  1.00  0.00     0.000 HD 
HETATM   12  C   UNL     1     -12.224  12.508  64.958  1.00  0.00    -0.456 C  
HETATM   13  O   UNL     1     -13.138  12.308  64.162  1.00  0.00    -0.749 OA 
BRANCH  12  14
HETATM   14  C   UNL     1     -12.441  13.182  66.320  1.00  0.00    -0.140 C  
BRANCH  14  15
HETATM   15  N   UNL     1     -11.332  12.972  67.245  1.00  0.00    -0.290 N  
HETATM   16  C   UNL     1     -11.369  11.955  68.178  1.00  0.00    -0.288 C  
HETATM   17  H   UNL     1     -10.518  13.586  67.202  1.00  0.00     0.000 HD 
HETATM   18  O   UNL     1     -12.377  11.279  68.369  1.00  0.00    -0.545 OA 
BRANCH  16  19
HETATM   19  C   UNL     1     -10.100  11.797  68.999  1.00  0.00     0.018 C  
BRANCH  19  20
HETATM   20  S   UNL     1      -9.192  10.299  68.561  1.00  0.00    -0.151 SA 
BRANCH  20  21
HETATM   21  C   UNL     1      -8.791   9.698  70.164  1.00  0.00    -0.231 C  
HETATM   22  O   UNL     1      -7.704   9.944  70.680  1.00  0.00    -0.289 OA 
BRANCH  21  23
HETATM   23  C   UNL     1      -9.814   8.869  70.858  1.00  0.00    -0.304 A  
HETATM   24  C   UNL     1      -9.642   8.580  72.218  1.00  0.00    -0.377 A  
HETATM   25  C   UNL     1     -10.558   7.759  72.883  1.00  0.00    -0.428 A  
HETATM   26  C   UNL     1     -11.641   7.217  72.192  1.00  0.00    -0.317 A  
HETATM   27  C   UNL     1     -11.819   7.502  70.841  1.00  0.00    -0.293 A  
HETATM   28  C   UNL     1     -10.910   8.323  70.173  1.00  0.00    -0.237 A  
ENDBRANCH  21  23
ENDBRANCH  20  21
ENDBRANCH  19  20
ENDBRANCH  16  19
ENDBRANCH  14  15
ENDBRANCH  12  14
ENDBRANCH   9  10
ENDBRANCH   6   9
ENDBRANCH   3   5
TORSDOF 9
ENDMDL
MODEL      199
REMARK 921   NORMALIZED FREE ENERGY PREDICTED BY IDOCK:   -4.79 KCAL/MOL
REMARK 922        TOTAL FREE ENERGY PREDICTED BY IDOCK:   -8.15 KCAL/MOL
REMARK 923 INTER-LIGAND FREE ENERGY PREDICTED BY IDOCK:   -6.97 KCAL/MOL
REMARK 924 INTRA-LIGAND FREE ENERGY PREDICTED BY IDOCK:   -1.17 KCAL/MOL
REMARK 927      BINDING AFFINITY PREDICTED BY RF-SCORE:    0.00 PKD
ROOT
HETATM    1  O   UNL     1     -12.153  10.926  67.942  1.00  0.00    -0.527 OA 
HETATM    2  C   UNL     1     -11.796  12.193  68.259  1.00  0.00    -0.301 C  
HETATM    3  C   UNL     1     -11.633  13.116  67.056  1.00  0.00    -0.359 C  
HETATM    4  O   UNL     1     -11.596  12.547  69.409  1.00  0.00    -0.284 OA 
ENDROOT
BRANCH   3   5
HETATM    5  N   UNL     1     -11.899  12.444  65.788  1.00  0.00    -0.421 N  
HETATM    6  C   UNL     1     -12.089  13.145  64.616  1.00  0.00    -0.408 C  
HETATM    7  H   UNL     1     -11.945  11.425  65.769  1.00  0.00     0.000 HD 
HETATM    8  O   UNL     1     -12.088  14.371  64.572  1.00  0.00    -0.445 OA 
BRANCH   6   9
HETATM    9  C   UNL     1     -12.346  12.288  63.369  1.00  0.00    -0.517 C  
BRANCH   9  10
HETATM   10  N   UNL     1     -11.440  11.160  63.242  1.00  0.00    -0.690 N  
HETATM   11  H   UNL     1     -11.827  10.216  63.239  1.00  0.00     0.000 HD 
HETATM   12  C   UNL     1     -10.077  11.317  63.126  1.00  0.00    -0.345 C  
HETATM   13  O   UNL     1      -9.546  12.424  63.091  1.00  0.00    -0.168 OA 
BRANCH  12  14
HETATM   14  C   UNL     1      -9.278  10.009  63.046  1.00  0.00    -0.286 C  
BRANCH  14  15
HETATM   15  N   UNL     1      -8.447   9.774  64.224  1.00  0.00    -0.163 N  
HETATM   16  C   UNL     1      -9.017   9.540  65.459  1.00  0.00    -0.194 C  
HETATM   17  H   UNL     1      -7.431   9.782  64.132  1.00  0.00     0.000 HD 
HETATM   18  O   UNL     1     -10.224   9.659  65.655  1.00  0.00    -0.253 OA 
BRANCH  16  19
HETATM   19  C   UNL     1      -8.029   9.210  66.565  1.00  0.00    -0.100 C  
BRANCH  19  20
HETATM   20  S   UNL     1      -7.020  10.638  67.019  1.00  0.00    -0.101 SA 
BRANCH  20  21
HETATM   21  C   UNL     1      -7.893  11.195  68.440  1.00  0.00    -0.133 C  
HETATM   22  O   UNL     1      -8.319  12.344  68.511  1.00  0.00    -0.153 OA 
BRANCH  21  23
HETATM   23  C   UNL     1      -8.076  10.224  69.553  1.00  0.00    -0.170 A  
HETATM   24  C   UNL     1      -6.942   9.648  70.142  1.00  0.00    -0.105 A  
HETATM   25  C   UNL     1      -7.086   8.693  71.153  1.00  0.00    -0.081 A  
HETATM   26  C   UNL     1      -8.357   8.304  71.573  1.00  0.00    -0.174 A  
HETATM   27  C   UNL     1      -9.487   8.875  70.994  1.00  0.00    -0.318 A  
HETATM   28  C   UNL     1      -9.351   9.830  69.987  1.00  0.00    -0.274 A  
ENDBRANCH  21  23
ENDBRANCH  20  21
ENDBRANCH  19  20
ENDBRANCH  16  19
ENDBRANCH  14  15
ENDBRANCH  12  14
ENDBRANCH   9  10
ENDBRANCH   6   9
ENDBRANCH   3   5
TORSDOF 9
ENDMDL
MODEL      200
REMARK 921   NORMALIZED FREE ENERGY PREDICTED BY IDOCK:   -4.77 KCAL/MOL
REMARK 922        TOTAL FREE ENERGY PREDICTED BY IDOCK:   -8.12 KCAL/MOL
REMARK 923 INTER-LIGAND FREE ENERGY PREDICTED BY IDOCK:   -7.55 KCAL/MOL
REMARK 924 INTRA-LIGAND FREE ENERGY PREDICTED BY IDOCK:   -0.57 KCAL/MOL
REMARK 927      BINDING AFFINITY PREDICTED BY RF-SCORE:    0.00 PKD
ROOT
HETATM    1  O   UNL     1      -8.109   3.149  67.268  1.00  0.00    -0.080 OA 
HETATM    2  C   UNL     1      -8.347   3.871  66.146  1.00  0.00    -0.108 C  
HETATM    3  C   UNL     1      -9.275   5.063  66.356  1.00  0.00    -0.139 C  
HETATM    4  O   UNL     1      -7.878   3.566  65.062  1.00  0.00    -0.084 OA 
ENDROOT
BRANCH   3   5
HETATM    5  N   UNL     1      -9.726   5.192  67.737  1.00  0.00    -0.141 N  
HETATM    6  C   UNL     1     -10.764   6.027  68.091  1.00  0.00    -0.278 C  
HETATM    7  H   UNL     1      -9.259   4.648  68.463  1.00  0.00     0.000 HD 
HETATM    8  O   UNL     1     -11.343   6.742  67.279  1.00  0.00    -0.300 OA 
BRANCH   6   9
HETATM    9  C   UNL     1     -11.123   6.039  69.583  1.00  0.00    -0.404 C  
BRANCH   9  10
HETATM   10  N   UNL     1     -11.453   7.359  70.091  1.00  0.00    -0.469 N  
HETATM   11  H   UNL     1     -11.020   8.175  69.659  1.00  0.00     0.000 HD 
HETATM   12  C   UNL     1     -12.330   7.550  71.136  1.00  0.00    -0.291 C  
HETATM   13  O   UNL     1     -12.911   6.616  71.682  1.00  0.00    -0.300 OA 
BRANCH  12  14
HETATM   14  C   UNL     1     -12.521   9.011  71.563  1.00  0.00    -0.331 C  
BRANCH  14  15
HETATM   15  N   UNL     1     -11.789   9.954  70.721  1.00  0.00    -0.308 N  
HETATM   16  C   UNL     1     -12.014  11.312  70.816  1.00  0.00    -0.279 C  
HETATM   17  H   UNL     1     -11.102   9.603  70.054  1.00  0.00     0.000 HD 
HETATM   18  O   UNL     1     -12.925  11.778  71.495  1.00  0.00    -0.419 OA 
BRANCH  16  19
HETATM   19  C   UNL     1     -11.105  12.170  69.952  1.00  0.00     0.247 C  
BRANCH  19  20
HETATM   20  S   UNL     1     -12.017  13.021  68.647  1.00  0.00    -0.183 SA 
BRANCH  20  21
HETATM   21  C   UNL     1     -11.900  14.680  69.216  1.00  0.00    -0.321 C  
HETATM   22  O   UNL     1     -11.456  15.569  68.495  1.00  0.00    -0.328 OA 
BRANCH  21  23
HETATM   23  C   UNL     1     -12.344  14.956  70.610  1.00  0.00    -0.406 A  
HETATM   24  C   UNL     1     -13.716  14.963  70.894  1.00  0.00    -0.266 A  
HETATM   25  C   UNL     1     -14.164  15.272  72.182  1.00  0.00    -0.667 A  
HETATM   26  C   UNL     1     -13.248  15.584  73.186  1.00  0.00    -0.657 A  
HETATM   27  C   UNL     1     -11.883  15.577  72.910  1.00  0.00    -0.565 A  
HETATM   28  C   UNL     1     -11.430  15.266  71.628  1.00  0.00    -0.471 A  
ENDBRANCH  21  23
ENDBRANCH  20  21
ENDBRANCH  19  20
ENDBRANCH  16  19
ENDBRANCH  14  15
ENDBRANCH  12  14
ENDBRANCH   9  10
ENDBRANCH   6   9
ENDBRANCH   3   5
TORSDOF 9
ENDMDL
MODEL      201
REMARK 921   NORMALIZED FREE ENERGY PREDICTED BY IDOCK:   -4.76 KCAL/MOL
REMARK 922        TOTAL FREE ENERGY PREDICTED BY IDOCK:   -8.11 KCAL/MOL
REMARK 923 INTER-LIGAND FREE ENERGY PREDICTED BY IDOCK:   -7.28 KCAL/MOL
REMARK 924 INTRA-LIGAND FREE ENERGY PREDICTED BY IDOCK:   -0.82 KCAL/MOL
REMARK 927      BINDING AFFINITY PREDICTED BY RF-SCORE:    0.00 PKD
ROOT
HETATM    1  O   UNL     1     -10.328   3.924  63.941  1.00  0.00    -0.214 OA 
HETATM    2  C   UNL     1      -9.711   3.243  64.936  1.00  0.00    -0.109 C  
HETATM    3  C   UNL     1      -9.586   4.020  66.242  1.00  0.00    -0.199 C  
HETATM    4  O   UNL     1      -9.270   2.116  64.780  1.00  0.00    -0.130 OA 
ENDROOT
BRANCH   3   5
HETATM    5  N   UNL     1     -10.163   5.358  66.160  1.00  0.00    -0.371 N  
HETATM    6  C   UNL     1      -9.987   6.292  67.160  1.00  0.00    -0.151 C  
HETATM    7  H   UNL     1     -10.713   5.610  65.339  1.00  0.00     0.000 HD 
HETATM    8  O   UNL     1      -9.374   6.045  68.193  1.00  0.00    -0.116 OA 
BRANCH   6   9
HETATM    9  C   UNL     1     -10.649   7.654  66.915  1.00  0.00    -0.289 C  
BRANCH   9  10
HETATM   10  N   UNL     1      -9.825   8.571  66.147  1.00  0.00    -0.447 N  
HETATM   11  H   UNL     1      -9.816   8.491  65.131  1.00  0.00     0.000 HD 
HETATM   12  C   UNL     1      -9.054   9.545  66.742  1.00  0.00    -0.146 C  
HETATM   13  O   UNL     1      -9.040   9.718  67.958  1.00  0.00    -0.125 OA 
BRANCH  12  14
HETATM   14  C   UNL     1      -8.217  10.390  65.773  1.00  0.00    -0.156 C  
BRANCH  14  15
HETATM   15  N   UNL     1      -8.960  11.509  65.201  1.00  0.00    -0.402 N  
HETATM   16  C   UNL     1      -9.780  11.330  64.105  1.00  0.00    -0.261 C  
HETATM   17  H   UNL     1      -8.871  12.437  65.617  1.00  0.00     0.000 HD 
HETATM   18  O   UNL     1      -9.814  10.274  63.479  1.00  0.00    -0.275 OA 
BRANCH  16  19
HETATM   19  C   UNL     1     -10.565  12.563  63.689  1.00  0.00    -0.409 C  
BRANCH  19  20
HETATM   20  S   UNL     1     -12.228  12.575  64.392  1.00  0.00    -0.452 SA 
BRANCH  20  21
HETATM   21  C   UNL     1     -11.840  12.628  66.106  1.00  0.00    -0.418 C  
HETATM   22  O   UNL     1     -11.835  11.606  66.787  1.00  0.00    -0.557 OA 
BRANCH  21  23
HETATM   23  C   UNL     1     -11.537  13.961  66.697  1.00  0.00    -0.392 A  
HETATM   24  C   UNL     1     -10.772  14.871  65.956  1.00  0.00    -0.326 A  
HETATM   25  C   UNL     1     -10.428  16.109  66.507  1.00  0.00    -0.298 A  
HETATM   26  C   UNL     1     -10.835  16.439  67.799  1.00  0.00    -0.306 A  
HETATM   27  C   UNL     1     -11.598  15.538  68.539  1.00  0.00    -0.379 A  
HETATM   28  C   UNL     1     -11.947  14.303  67.994  1.00  0.00    -0.353 A  
ENDBRANCH  21  23
ENDBRANCH  20  21
ENDBRANCH  19  20
ENDBRANCH  16  19
ENDBRANCH  14  15
ENDBRANCH  12  14
ENDBRANCH   9  10
ENDBRANCH   6   9
ENDBRANCH   3   5
TORSDOF 9
ENDMDL
MODEL      202
REMARK 921   NORMALIZED FREE ENERGY PREDICTED BY IDOCK:   -4.75 KCAL/MOL
REMARK 922        TOTAL FREE ENERGY PREDICTED BY IDOCK:   -8.09 KCAL/MOL
REMARK 923 INTER-LIGAND FREE ENERGY PREDICTED BY IDOCK:   -7.23 KCAL/MOL
REMARK 924 INTRA-LIGAND FREE ENERGY PREDICTED BY IDOCK:   -0.87 KCAL/MOL
REMARK 927      BINDING AFFINITY PREDICTED BY RF-SCORE:    0.00 PKD
ROOT
HETATM    1  O   UNL     1     -10.042  15.490  65.166  1.00  0.00    -0.328 OA 
HETATM    2  C   UNL     1     -11.240  15.765  64.599  1.00  0.00    -0.363 C  
HETATM    3  C   UNL     1     -12.253  14.628  64.695  1.00  0.00    -0.434 C  
HETATM    4  O   UNL     1     -11.469  16.823  64.036  1.00  0.00    -1.198 OA 
ENDROOT
BRANCH   3   5
HETATM    5  N   UNL     1     -11.724  13.458  65.387  1.00  0.00    -0.319 N  
HETATM    6  C   UNL     1     -11.801  13.323  66.758  1.00  0.00    -0.394 C  
HETATM    7  H   UNL     1     -11.284  12.717  64.841  1.00  0.00     0.000 HD 
HETATM    8  O   UNL     1     -12.278  14.192  67.481  1.00  0.00    -0.370 OA 
BRANCH   6   9
HETATM    9  C   UNL     1     -11.208  12.028  67.328  1.00  0.00    -0.311 C  
BRANCH   9  10
HETATM   10  N   UNL     1     -10.473  11.245  66.350  1.00  0.00    -0.249 N  
HETATM   11  H   UNL     1     -10.003  11.730  65.585  1.00  0.00     0.000 HD 
HETATM   12  C   UNL     1     -10.386   9.873  66.417  1.00  0.00    -0.176 C  
HETATM   13  O   UNL     1     -10.901   9.227  67.326  1.00  0.00    -0.238 OA 
BRANCH  12  14
HETATM   14  C   UNL     1      -9.604   9.216  65.271  1.00  0.00    -0.017 C  
BRANCH  14  15
HETATM   15  N   UNL     1      -9.290   7.813  65.524  1.00  0.00    -0.357 N  
HETATM   16  C   UNL     1      -8.153   7.454  66.219  1.00  0.00    -0.117 C  
HETATM   17  H   UNL     1      -9.920   7.087  65.181  1.00  0.00     0.000 HD 
HETATM   18  O   UNL     1      -7.290   8.273  66.529  1.00  0.00    -0.079 OA 
BRANCH  16  19
HETATM   19  C   UNL     1      -8.015   5.966  66.492  1.00  0.00    -0.102 C  
BRANCH  19  20
HETATM   20  S   UNL     1      -8.198   5.580  68.246  1.00  0.00    -0.095 SA 
BRANCH  20  21
HETATM   21  C   UNL     1      -9.898   5.966  68.474  1.00  0.00    -0.135 C  
HETATM   22  O   UNL     1     -10.689   5.924  67.536  1.00  0.00    -0.251 OA 
BRANCH  21  23
HETATM   23  C   UNL     1     -10.331   6.361  69.843  1.00  0.00    -0.242 A  
HETATM   24  C   UNL     1      -9.362   6.504  70.844  1.00  0.00    -0.165 A  
HETATM   25  C   UNL     1      -9.745   6.822  72.151  1.00  0.00    -0.156 A  
HETATM   26  C   UNL     1     -11.093   6.988  72.464  1.00  0.00    -0.310 A  
HETATM   27  C   UNL     1     -12.061   6.849  71.472  1.00  0.00    -0.401 A  
HETATM   28  C   UNL     1     -11.685   6.535  70.166  1.00  0.00    -0.419 A  
ENDBRANCH  21  23
ENDBRANCH  20  21
ENDBRANCH  19  20
ENDBRANCH  16  19
ENDBRANCH  14  15
ENDBRANCH  12  14
ENDBRANCH   9  10
ENDBRANCH   6   9
ENDBRANCH   3   5
TORSDOF 9
ENDMDL
MODEL      203
REMARK 921   NORMALIZED FREE ENERGY PREDICTED BY IDOCK:   -4.75 KCAL/MOL
REMARK 922        TOTAL FREE ENERGY PREDICTED BY IDOCK:   -8.09 KCAL/MOL
REMARK 923 INTER-LIGAND FREE ENERGY PREDICTED BY IDOCK:   -7.09 KCAL/MOL
REMARK 924 INTRA-LIGAND FREE ENERGY PREDICTED BY IDOCK:   -1.00 KCAL/MOL
REMARK 927      BINDING AFFINITY PREDICTED BY RF-SCORE:    0.00 PKD
ROOT
HETATM    1  O   UNL     1     -12.375   9.871  70.801  1.00  0.00    -0.295 OA 
HETATM    2  C   UNL     1     -12.795   9.143  71.864  1.00  0.00    -0.393 C  
HETATM    3  C   UNL     1     -11.974   7.885  72.124  1.00  0.00    -0.332 C  
HETATM    4  O   UNL     1     -13.767   9.462  72.529  1.00  0.00    -0.448 OA 
ENDROOT
BRANCH   3   5
HETATM    5  N   UNL     1     -10.886   7.712  71.168  1.00  0.00    -0.232 N  
HETATM    6  C   UNL     1      -9.858   6.820  71.384  1.00  0.00    -0.178 C  
HETATM    7  H   UNL     1     -10.886   8.269  70.313  1.00  0.00     0.000 HD 
HETATM    8  O   UNL     1      -9.771   6.148  72.408  1.00  0.00    -0.159 OA 
BRANCH   6   9
HETATM    9  C   UNL     1      -8.799   6.751  70.276  1.00  0.00    -0.152 C  
BRANCH   9  10
HETATM   10  N   UNL     1      -9.353   6.832  68.936  1.00  0.00    -0.131 N  
HETATM   11  H   UNL     1     -10.366   6.790  68.820  1.00  0.00     0.000 HD 
HETATM   12  C   UNL     1      -8.563   6.963  67.817  1.00  0.00    -0.122 C  
HETATM   13  O   UNL     1      -7.340   7.051  67.885  1.00  0.00    -0.092 OA 
BRANCH  12  14
HETATM   14  C   UNL     1      -9.324   6.988  66.485  1.00  0.00    -0.159 C  
BRANCH  14  15
HETATM   15  N   UNL     1      -9.413   8.323  65.901  1.00  0.00    -0.430 N  
HETATM   16  C   UNL     1     -10.155   9.316  66.510  1.00  0.00    -0.273 C  
HETATM   17  H   UNL     1      -8.919   8.526  65.032  1.00  0.00     0.000 HD 
HETATM   18  O   UNL     1     -10.881   9.090  67.475  1.00  0.00    -0.232 OA 
BRANCH  16  19
HETATM   19  C   UNL     1     -10.068  10.677  65.841  1.00  0.00    -0.261 C  
BRANCH  19  20
HETATM   20  S   UNL     1      -9.789  12.001  67.037  1.00  0.00    -0.196 SA 
BRANCH  20  21
HETATM   21  C   UNL     1     -11.398  12.708  67.099  1.00  0.00    -0.319 C  
HETATM   22  O   UNL     1     -12.265  12.382  66.293  1.00  0.00    -0.620 OA 
BRANCH  21  23
HETATM   23  C   UNL     1     -11.656  13.727  68.154  1.00  0.00    -0.370 A  
HETATM   24  C   UNL     1     -12.209  13.313  69.372  1.00  0.00    -0.210 A  
HETATM   25  C   UNL     1     -12.512  14.255  70.360  1.00  0.00    -0.426 A  
HETATM   26  C   UNL     1     -12.274  15.610  70.133  1.00  0.00    -0.387 A  
HETATM   27  C   UNL     1     -11.722  16.026  68.924  1.00  0.00    -0.322 A  
HETATM   28  C   UNL     1     -11.415  15.091  67.936  1.00  0.00    -0.354 A  
ENDBRANCH  21  23
ENDBRANCH  20  21
ENDBRANCH  19  20
ENDBRANCH  16  19
ENDBRANCH  14  15
ENDBRANCH  12  14
ENDBRANCH   9  10
ENDBRANCH   6   9
ENDBRANCH   3   5
TORSDOF 9
ENDMDL
MODEL      204
REMARK 921   NORMALIZED FREE ENERGY PREDICTED BY IDOCK:   -4.74 KCAL/MOL
REMARK 922        TOTAL FREE ENERGY PREDICTED BY IDOCK:   -8.08 KCAL/MOL
REMARK 923 INTER-LIGAND FREE ENERGY PREDICTED BY IDOCK:   -7.31 KCAL/MOL
REMARK 924 INTRA-LIGAND FREE ENERGY PREDICTED BY IDOCK:   -0.77 KCAL/MOL
REMARK 927      BINDING AFFINITY PREDICTED BY RF-SCORE:    0.00 PKD
ROOT
HETATM    1  O   UNL     1     -13.593  13.806  65.461  1.00  0.00    -0.511 OA 
HETATM    2  C   UNL     1     -12.459  13.600  64.750  1.00  0.00    -0.350 C  
HETATM    3  C   UNL     1     -11.223  13.343  65.605  1.00  0.00    -0.292 C  
HETATM    4  O   UNL     1     -12.435  13.647  63.531  1.00  0.00    -0.736 OA 
ENDROOT
BRANCH   3   5
HETATM    5  N   UNL     1     -11.510  13.370  67.035  1.00  0.00    -0.321 N  
HETATM    6  C   UNL     1     -11.535  12.221  67.797  1.00  0.00    -0.329 C  
HETATM    7  H   UNL     1     -11.698  14.266  67.486  1.00  0.00     0.000 HD 
HETATM    8  O   UNL     1     -11.361  11.106  67.316  1.00  0.00    -0.397 OA 
BRANCH   6   9
HETATM    9  C   UNL     1     -11.842  12.422  69.287  1.00  0.00    -0.304 C  
BRANCH   9  10
HETATM   10  N   UNL     1     -11.870  11.185  70.047  1.00  0.00    -0.329 N  
HETATM   11  H   UNL     1     -11.357  10.378  69.693  1.00  0.00     0.000 HD 
HETATM   12  C   UNL     1     -12.565  11.061  71.229  1.00  0.00    -0.412 C  
HETATM   13  O   UNL     1     -13.179  11.999  71.730  1.00  0.00    -0.450 OA 
BRANCH  12  14
HETATM   14  C   UNL     1     -12.515   9.665  71.867  1.00  0.00    -0.377 C  
BRANCH  14  15
HETATM   15  N   UNL     1     -12.463   8.588  70.882  1.00  0.00    -0.494 N  
HETATM   16  C   UNL     1     -11.453   7.647  70.914  1.00  0.00    -0.282 C  
HETATM   17  H   UNL     1     -13.182   8.530  70.161  1.00  0.00     0.000 HD 
HETATM   18  O   UNL     1     -10.487   7.749  71.666  1.00  0.00    -0.199 OA 
BRANCH  16  19
HETATM   19  C   UNL     1     -11.590   6.531  69.892  1.00  0.00    -0.368 C  
BRANCH  19  20
HETATM   20  S   UNL     1      -9.984   5.937  69.319  1.00  0.00    -0.189 SA 
BRANCH  20  21
HETATM   21  C   UNL     1      -9.961   6.616  67.698  1.00  0.00    -0.131 C  
HETATM   22  O   UNL     1     -10.841   7.385  67.320  1.00  0.00    -0.301 OA 
BRANCH  21  23
HETATM   23  C   UNL     1      -8.844   6.208  66.802  1.00  0.00    -0.122 A  
HETATM   24  C   UNL     1      -7.540   6.607  67.122  1.00  0.00    -0.096 A  
HETATM   25  C   UNL     1      -6.479   6.283  66.271  1.00  0.00    -0.047 A  
HETATM   26  C   UNL     1      -6.716   5.571  65.096  1.00  0.00    -0.044 A  
HETATM   27  C   UNL     1      -8.010   5.169  64.774  1.00  0.00    -0.104 A  
HETATM   28  C   UNL     1      -9.072   5.486  65.621  1.00  0.00    -0.131 A  
ENDBRANCH  21  23
ENDBRANCH  20  21
ENDBRANCH  19  20
ENDBRANCH  16  19
ENDBRANCH  14  15
ENDBRANCH  12  14
ENDBRANCH   9  10
ENDBRANCH   6   9
ENDBRANCH   3   5
TORSDOF 9
ENDMDL
MODEL      205
REMARK 921   NORMALIZED FREE ENERGY PREDICTED BY IDOCK:   -4.74 KCAL/MOL
REMARK 922        TOTAL FREE ENERGY PREDICTED BY IDOCK:   -8.07 KCAL/MOL
REMARK 923 INTER-LIGAND FREE ENERGY PREDICTED BY IDOCK:   -7.26 KCAL/MOL
REMARK 924 INTRA-LIGAND FREE ENERGY PREDICTED BY IDOCK:   -0.81 KCAL/MOL
REMARK 927      BINDING AFFINITY PREDICTED BY RF-SCORE:    0.00 PKD
ROOT
HETATM    1  O   UNL     1     -10.339   5.143  69.220  1.00  0.00    -0.226 OA 
HETATM    2  C   UNL     1      -9.862   4.542  70.336  1.00  0.00    -0.232 C  
HETATM    3  C   UNL     1     -10.413   5.114  71.638  1.00  0.00    -0.185 C  
HETATM    4  O   UNL     1      -9.041   3.641  70.291  1.00  0.00    -0.102 OA 
ENDROOT
BRANCH   3   5
HETATM    5  N   UNL     1     -11.355   6.207  71.421  1.00  0.00    -0.290 N  
HETATM    6  C   UNL     1     -11.243   7.410  72.085  1.00  0.00    -0.262 C  
HETATM    7  H   UNL     1     -12.120   6.077  70.758  1.00  0.00     0.000 HD 
HETATM    8  O   UNL     1     -10.375   7.622  72.925  1.00  0.00    -0.261 OA 
BRANCH   6   9
HETATM    9  C   UNL     1     -12.307   8.458  71.735  1.00  0.00    -0.331 C  
BRANCH   9  10
HETATM   10  N   UNL     1     -12.127   9.054  70.422  1.00  0.00    -0.465 N  
HETATM   11  H   UNL     1     -11.979   8.441  69.621  1.00  0.00     0.000 HD 
HETATM   12  C   UNL     1     -12.150  10.415  70.220  1.00  0.00    -0.286 C  
HETATM   13  O   UNL     1     -12.355  11.210  71.133  1.00  0.00    -0.365 OA 
BRANCH  12  14
HETATM   14  C   UNL     1     -11.898  10.859  68.773  1.00  0.00    -0.235 C  
BRANCH  14  15
HETATM   15  N   UNL     1     -11.013  12.016  68.675  1.00  0.00    -0.227 N  
HETATM   16  C   UNL     1     -10.836  12.675  67.475  1.00  0.00    -0.239 C  
HETATM   17  H   UNL     1     -10.518  12.342  69.506  1.00  0.00     0.000 HD 
HETATM   18  O   UNL     1     -11.292  12.244  66.419  1.00  0.00    -0.315 OA 
BRANCH  16  19
HETATM   19  C   UNL     1      -9.968  13.920  67.553  1.00  0.00    -0.240 C  
BRANCH  19  20
HETATM   20  S   UNL     1      -9.587  14.373  69.259  1.00  0.00     0.227 SA 
BRANCH  20  21
HETATM   21  C   UNL     1     -10.683  15.731  69.472  1.00  0.00    -0.278 C  
HETATM   22  O   UNL     1     -10.595  16.734  68.767  1.00  0.00    -0.306 OA 
BRANCH  21  23
HETATM   23  C   UNL     1     -11.706  15.622  70.548  1.00  0.00    -0.392 A  
HETATM   24  C   UNL     1     -12.842  14.832  70.324  1.00  0.00    -0.263 A  
HETATM   25  C   UNL     1     -13.844  14.754  71.296  1.00  0.00    -0.460 A  
HETATM   26  C   UNL     1     -13.722  15.468  72.487  1.00  0.00    -0.668 A  
HETATM   27  C   UNL     1     -12.594  16.253  72.716  1.00  0.00    -0.419 A  
HETATM   28  C   UNL     1     -11.590  16.333  71.751  1.00  0.00    -0.436 A  
ENDBRANCH  21  23
ENDBRANCH  20  21
ENDBRANCH  19  20
ENDBRANCH  16  19
ENDBRANCH  14  15
ENDBRANCH  12  14
ENDBRANCH   9  10
ENDBRANCH   6   9
ENDBRANCH   3   5
TORSDOF 9
ENDMDL
MODEL      206
REMARK 921   NORMALIZED FREE ENERGY PREDICTED BY IDOCK:   -4.73 KCAL/MOL
REMARK 922        TOTAL FREE ENERGY PREDICTED BY IDOCK:   -8.06 KCAL/MOL
REMARK 923 INTER-LIGAND FREE ENERGY PREDICTED BY IDOCK:   -7.10 KCAL/MOL
REMARK 924 INTRA-LIGAND FREE ENERGY PREDICTED BY IDOCK:   -0.96 KCAL/MOL
REMARK 927      BINDING AFFINITY PREDICTED BY RF-SCORE:    0.00 PKD
ROOT
HETATM    1  O   UNL     1     -12.822  11.813  71.351  1.00  0.00    -0.404 OA 
HETATM    2  C   UNL     1     -13.275  13.012  71.788  1.00  0.00    -0.392 C  
HETATM    3  C   UNL     1     -12.600  14.212  71.133  1.00  0.00    -0.367 C  
HETATM    4  O   UNL     1     -14.129  13.111  72.654  1.00  0.00    -0.701 OA 
ENDROOT
BRANCH   3   5
HETATM    5  N   UNL     1     -11.590  13.827  70.153  1.00  0.00    -0.480 N  
HETATM    6  C   UNL     1     -11.333  14.586  69.031  1.00  0.00    -0.272 C  
HETATM    7  H   UNL     1     -11.057  12.970  70.302  1.00  0.00     0.000 HD 
HETATM    8  O   UNL     1     -11.962  15.606  68.765  1.00  0.00    -0.348 OA 
BRANCH   6   9
HETATM    9  C   UNL     1     -10.233  14.048  68.107  1.00  0.00    -0.243 C  
BRANCH   9  10
HETATM   10  N   UNL     1      -9.594  12.842  68.605  1.00  0.00    -0.408 N  
HETATM   11  H   UNL     1      -9.907  12.451  69.493  1.00  0.00     0.000 HD 
HETATM   12  C   UNL     1      -8.581  12.208  67.922  1.00  0.00    -0.167 C  
HETATM   13  O   UNL     1      -8.175  12.606  66.833  1.00  0.00    -0.145 OA 
BRANCH  12  14
HETATM   14  C   UNL     1      -7.999  10.974  68.625  1.00  0.00    -0.143 C  
BRANCH  14  15
HETATM   15  N   UNL     1      -8.296   9.726  67.928  1.00  0.00    -0.113 N  
HETATM   16  C   UNL     1      -7.551   8.588  68.161  1.00  0.00    -0.098 C  
HETATM   17  H   UNL     1      -9.066   9.694  67.259  1.00  0.00     0.000 HD 
HETATM   18  O   UNL     1      -6.530   8.604  68.843  1.00  0.00    -0.047 OA 
BRANCH  16  19
HETATM   19  C   UNL     1      -8.044   7.344  67.440  1.00  0.00    -0.113 C  
BRANCH  19  20
HETATM   20  S   UNL     1      -8.753   6.138  68.581  1.00  0.00    -0.111 SA 
BRANCH  20  21
HETATM   21  C   UNL     1     -10.397   6.749  68.698  1.00  0.00    -0.186 C  
HETATM   22  O   UNL     1     -11.145   6.747  67.724  1.00  0.00    -0.255 OA 
BRANCH  21  23
HETATM   23  C   UNL     1     -10.835   7.283  70.017  1.00  0.00    -0.271 A  
HETATM   24  C   UNL     1     -10.390   8.550  70.416  1.00  0.00    -0.222 A  
HETATM   25  C   UNL     1     -10.742   9.053  71.671  1.00  0.00    -0.441 A  
HETATM   26  C   UNL     1     -11.530   8.293  72.535  1.00  0.00    -0.454 A  
HETATM   27  C   UNL     1     -11.978   7.034  72.143  1.00  0.00    -0.299 A  
HETATM   28  C   UNL     1     -11.632   6.527  70.890  1.00  0.00    -0.417 A  
ENDBRANCH  21  23
ENDBRANCH  20  21
ENDBRANCH  19  20
ENDBRANCH  16  19
ENDBRANCH  14  15
ENDBRANCH  12  14
ENDBRANCH   9  10
ENDBRANCH   6   9
ENDBRANCH   3   5
TORSDOF 9
ENDMDL
MODEL      207
REMARK 921   NORMALIZED FREE ENERGY PREDICTED BY IDOCK:   -4.73 KCAL/MOL
REMARK 922        TOTAL FREE ENERGY PREDICTED BY IDOCK:   -8.05 KCAL/MOL
REMARK 923 INTER-LIGAND FREE ENERGY PREDICTED BY IDOCK:   -7.33 KCAL/MOL
REMARK 924 INTRA-LIGAND FREE ENERGY PREDICTED BY IDOCK:   -0.72 KCAL/MOL
REMARK 927      BINDING AFFINITY PREDICTED BY RF-SCORE:    0.00 PKD
ROOT
HETATM    1  O   UNL     1      -8.116   8.225  65.469  1.00  0.00    -0.112 OA 
HETATM    2  C   UNL     1      -6.907   8.646  65.026  1.00  0.00    -0.072 C  
HETATM    3  C   UNL     1      -6.115   9.455  66.048  1.00  0.00    -0.063 C  
HETATM    4  O   UNL     1      -6.510   8.418  63.896  1.00  0.00    -0.071 OA 
ENDROOT
BRANCH   3   5
HETATM    5  N   UNL     1      -6.823   9.615  67.314  1.00  0.00    -0.082 N  
HETATM    6  C   UNL     1      -7.363  10.823  67.701  1.00  0.00    -0.094 C  
HETATM    7  H   UNL     1      -6.921   8.808  67.931  1.00  0.00     0.000 HD 
HETATM    8  O   UNL     1      -7.247  11.843  67.030  1.00  0.00    -0.144 OA 
BRANCH   6   9
HETATM    9  C   UNL     1      -8.085  10.819  69.055  1.00  0.00    -0.140 C  
BRANCH   9  10
HETATM   10  N   UNL     1      -9.361  11.514  69.035  1.00  0.00    -0.408 N  
HETATM   11  H   UNL     1      -9.366  12.531  68.973  1.00  0.00     0.000 HD 
HETATM   12  C   UNL     1     -10.564  10.847  69.097  1.00  0.00    -0.220 C  
HETATM   13  O   UNL     1     -10.634   9.622  69.142  1.00  0.00    -0.209 OA 
BRANCH  12  14
HETATM   14  C   UNL     1     -11.805  11.751  69.109  1.00  0.00    -0.326 C  
BRANCH  14  15
HETATM   15  N   UNL     1     -11.631  12.972  68.327  1.00  0.00    -0.317 N  
HETATM   16  C   UNL     1     -11.895  12.991  66.972  1.00  0.00    -0.377 C  
HETATM   17  H   UNL     1     -11.309  13.823  68.789  1.00  0.00     0.000 HD 
HETATM   18  O   UNL     1     -12.145  11.967  66.341  1.00  0.00    -0.610 OA 
BRANCH  16  19
HETATM   19  C   UNL     1     -11.767  14.356  66.317  1.00  0.00    -0.385 C  
BRANCH  19  20
HETATM   20  S   UNL     1     -10.640  15.438  67.222  1.00  0.00    -0.298 SA 
BRANCH  20  21
HETATM   21  C   UNL     1     -10.431  16.725  66.042  1.00  0.00    -0.293 C  
HETATM   22  O   UNL     1     -10.767  16.572  64.871  1.00  0.00    -0.702 OA 
BRANCH  21  23
HETATM   23  C   UNL     1      -9.817  17.995  66.518  1.00  0.00    -0.353 A  
HETATM   24  C   UNL     1      -8.630  17.935  67.260  1.00  0.00    -0.241 A  
HETATM   25  C   UNL     1      -8.059  19.108  67.765  1.00  0.00    -0.310 A  
HETATM   26  C   UNL     1      -8.674  20.339  67.541  1.00  0.00    -0.401 A  
HETATM   27  C   UNL     1      -9.854  20.404  66.802  1.00  0.00    -0.541 A  
HETATM   28  C   UNL     1     -10.426  19.238  66.293  1.00  0.00    -0.567 A  
ENDBRANCH  21  23
ENDBRANCH  20  21
ENDBRANCH  19  20
ENDBRANCH  16  19
ENDBRANCH  14  15
ENDBRANCH  12  14
ENDBRANCH   9  10
ENDBRANCH   6   9
ENDBRANCH   3   5
TORSDOF 9
ENDMDL
MODEL      208
REMARK 921   NORMALIZED FREE ENERGY PREDICTED BY IDOCK:   -4.71 KCAL/MOL
REMARK 922        TOTAL FREE ENERGY PREDICTED BY IDOCK:   -8.03 KCAL/MOL
REMARK 923 INTER-LIGAND FREE ENERGY PREDICTED BY IDOCK:   -7.25 KCAL/MOL
REMARK 924 INTRA-LIGAND FREE ENERGY PREDICTED BY IDOCK:   -0.78 KCAL/MOL
REMARK 927      BINDING AFFINITY PREDICTED BY RF-SCORE:    0.00 PKD
ROOT
HETATM    1  O   UNL     1     -10.506   5.343  70.735  1.00  0.00    -0.247 OA 
HETATM    2  C   UNL     1      -9.758   4.226  70.896  1.00  0.00    -0.196 C  
HETATM    3  C   UNL     1      -9.344   3.557  69.590  1.00  0.00    -0.174 C  
HETATM    4  O   UNL     1      -9.471   3.785  71.997  1.00  0.00    -0.121 OA 
ENDROOT
BRANCH   3   5
HETATM    5  N   UNL     1      -9.840   4.261  68.412  1.00  0.00    -0.086 N  
HETATM    6  C   UNL     1      -9.509   3.870  67.132  1.00  0.00    -0.201 C  
HETATM    7  H   UNL     1     -10.452   5.069  68.540  1.00  0.00     0.000 HD 
HETATM    8  O   UNL     1      -8.746   2.936  66.905  1.00  0.00    -0.111 OA 
BRANCH   6   9
HETATM    9  C   UNL     1     -10.123   4.709  66.005  1.00  0.00    -0.264 C  
BRANCH   9  10
HETATM   10  N   UNL     1     -10.254   6.118  66.334  1.00  0.00    -0.400 N  
HETATM   11  H   UNL     1     -11.159   6.468  66.646  1.00  0.00     0.000 HD 
HETATM   12  C   UNL     1      -9.200   6.999  66.241  1.00  0.00    -0.126 C  
HETATM   13  O   UNL     1      -8.075   6.641  65.903  1.00  0.00    -0.112 OA 
BRANCH  12  14
HETATM   14  C   UNL     1      -9.539   8.455  66.588  1.00  0.00    -0.229 C  
BRANCH  14  15
HETATM   15  N   UNL     1     -10.120   9.189  65.467  1.00  0.00    -0.292 N  
HETATM   16  C   UNL     1      -9.549  10.361  65.014  1.00  0.00    -0.280 C  
HETATM   17  H   UNL     1     -10.961   8.831  65.014  1.00  0.00     0.000 HD 
HETATM   18  O   UNL     1      -8.625  10.910  65.608  1.00  0.00    -0.178 OA 
BRANCH  16  19
HETATM   19  C   UNL     1     -10.205  10.954  63.778  1.00  0.00    -0.343 C  
BRANCH  19  20
HETATM   20  S   UNL     1     -10.565  12.712  63.981  1.00  0.00    -0.424 SA 
BRANCH  20  21
HETATM   21  C   UNL     1     -12.023  12.619  64.959  1.00  0.00    -0.419 C  
HETATM   22  O   UNL     1     -13.103  12.313  64.461  1.00  0.00    -0.791 OA 
BRANCH  21  23
HETATM   23  C   UNL     1     -11.896  12.944  66.407  1.00  0.00    -0.478 A  
HETATM   24  C   UNL     1     -11.872  11.895  67.336  1.00  0.00    -0.239 A  
HETATM   25  C   UNL     1     -11.807  12.172  68.704  1.00  0.00    -0.358 A  
HETATM   26  C   UNL     1     -11.777  13.493  69.151  1.00  0.00    -0.374 A  
HETATM   27  C   UNL     1     -11.798  14.539  68.232  1.00  0.00    -0.347 A  
HETATM   28  C   UNL     1     -11.860  14.269  66.865  1.00  0.00    -0.458 A  
ENDBRANCH  21  23
ENDBRANCH  20  21
ENDBRANCH  19  20
ENDBRANCH  16  19
ENDBRANCH  14  15
ENDBRANCH  12  14
ENDBRANCH   9  10
ENDBRANCH   6   9
ENDBRANCH   3   5
TORSDOF 9
ENDMDL
MODEL      209
REMARK 921   NORMALIZED FREE ENERGY PREDICTED BY IDOCK:   -4.70 KCAL/MOL
REMARK 922        TOTAL FREE ENERGY PREDICTED BY IDOCK:   -8.02 KCAL/MOL
REMARK 923 INTER-LIGAND FREE ENERGY PREDICTED BY IDOCK:   -6.70 KCAL/MOL
REMARK 924 INTRA-LIGAND FREE ENERGY PREDICTED BY IDOCK:   -1.32 KCAL/MOL
REMARK 927      BINDING AFFINITY PREDICTED BY RF-SCORE:    0.00 PKD
ROOT
HETATM    1  O   UNL     1     -12.332  14.186  66.174  1.00  0.00    -0.450 OA 
HETATM    2  C   UNL     1     -11.210  14.809  66.609  1.00  0.00    -0.346 C  
HETATM    3  C   UNL     1      -9.918  14.252  66.021  1.00  0.00    -0.319 C  
HETATM    4  O   UNL     1     -11.241  15.716  67.424  1.00  0.00    -0.306 OA 
ENDROOT
BRANCH   3   5
HETATM    5  N   UNL     1     -10.149  13.148  65.096  1.00  0.00    -0.460 N  
HETATM    6  C   UNL     1      -9.960  11.833  65.466  1.00  0.00    -0.242 C  
HETATM    7  H   UNL     1     -10.459  13.354  64.146  1.00  0.00     0.000 HD 
HETATM    8  O   UNL     1      -9.548  11.512  66.576  1.00  0.00    -0.195 OA 
BRANCH   6   9
HETATM    9  C   UNL     1     -10.257  10.791  64.379  1.00  0.00    -0.364 C  
BRANCH   9  10
HETATM   10  N   UNL     1      -9.585   9.521  64.592  1.00  0.00    -0.424 N  
HETATM   11  H   UNL     1      -9.852   8.953  65.395  1.00  0.00     0.000 HD 
HETATM   12  C   UNL     1      -8.602   9.056  63.748  1.00  0.00    -0.130 C  
HETATM   13  O   UNL     1      -8.254   9.672  62.744  1.00  0.00    -0.132 OA 
BRANCH  12  14
HETATM   14  C   UNL     1      -7.977   7.715  64.158  1.00  0.00    -0.105 C  
BRANCH  14  15
HETATM   15  N   UNL     1      -8.346   7.302  65.509  1.00  0.00    -0.138 N  
HETATM   16  C   UNL     1      -8.331   5.970  65.872  1.00  0.00    -0.138 C  
HETATM   17  H   UNL     1      -8.619   8.007  66.194  1.00  0.00     0.000 HD 
HETATM   18  O   UNL     1      -8.150   5.071  65.055  1.00  0.00    -0.103 OA 
BRANCH  16  19
HETATM   19  C   UNL     1      -8.638   5.706  67.337  1.00  0.00    -0.109 C  
BRANCH  19  20
HETATM   20  S   UNL     1     -10.410   5.769  67.679  1.00  0.00    -0.229 SA 
BRANCH  20  21
HETATM   21  C   UNL     1     -10.562   7.434  68.221  1.00  0.00    -0.157 C  
HETATM   22  O   UNL     1     -10.449   8.370  67.434  1.00  0.00    -0.263 OA 
BRANCH  21  23
HETATM   23  C   UNL     1     -10.816   7.661  69.671  1.00  0.00    -0.195 A  
HETATM   24  C   UNL     1     -11.336   6.610  70.438  1.00  0.00    -0.421 A  
HETATM   25  C   UNL     1     -11.633   6.810  71.789  1.00  0.00    -0.336 A  
HETATM   26  C   UNL     1     -11.423   8.058  72.376  1.00  0.00    -0.449 A  
HETATM   27  C   UNL     1     -10.903   9.105  71.618  1.00  0.00    -0.442 A  
HETATM   28  C   UNL     1     -10.602   8.910  70.270  1.00  0.00    -0.246 A  
ENDBRANCH  21  23
ENDBRANCH  20  21
ENDBRANCH  19  20
ENDBRANCH  16  19
ENDBRANCH  14  15
ENDBRANCH  12  14
ENDBRANCH   9  10
ENDBRANCH   6   9
ENDBRANCH   3   5
TORSDOF 9
ENDMDL
MODEL      210
REMARK 921   NORMALIZED FREE ENERGY PREDICTED BY IDOCK:   -4.70 KCAL/MOL
REMARK 922        TOTAL FREE ENERGY PREDICTED BY IDOCK:   -8.02 KCAL/MOL
REMARK 923 INTER-LIGAND FREE ENERGY PREDICTED BY IDOCK:   -7.46 KCAL/MOL
REMARK 924 INTRA-LIGAND FREE ENERGY PREDICTED BY IDOCK:   -0.55 KCAL/MOL
REMARK 927      BINDING AFFINITY PREDICTED BY RF-SCORE:    0.00 PKD
ROOT
HETATM    1  O   UNL     1     -11.441  14.596  64.952  1.00  0.00    -0.366 OA 
HETATM    2  C   UNL     1     -11.142  15.913  64.842  1.00  0.00    -0.389 C  
HETATM    3  C   UNL     1     -10.306  16.462  65.993  1.00  0.00    -0.352 C  
HETATM    4  O   UNL     1     -11.539  16.597  63.914  1.00  0.00    -1.204 OA 
ENDROOT
BRANCH   3   5
HETATM    5  N   UNL     1      -9.989  15.449  66.994  1.00  0.00    -0.235 N  
HETATM    6  C   UNL     1      -8.690  15.162  67.357  1.00  0.00    -0.190 C  
HETATM    7  H   UNL     1     -10.751  14.937  67.440  1.00  0.00     0.000 HD 
HETATM    8  O   UNL     1      -7.722  15.706  66.835  1.00  0.00    -0.226 OA 
BRANCH   6   9
HETATM    9  C   UNL     1      -8.528  14.079  68.432  1.00  0.00    -0.166 C  
BRANCH   9  10
HETATM   10  N   UNL     1      -9.779  13.696  69.063  1.00  0.00    -0.411 N  
HETATM   11  H   UNL     1     -10.018  14.101  69.968  1.00  0.00     0.000 HD 
HETATM   12  C   UNL     1     -10.655  12.805  68.485  1.00  0.00    -0.252 C  
HETATM   13  O   UNL     1     -10.447  12.302  67.384  1.00  0.00    -0.208 OA 
BRANCH  12  14
HETATM   14  C   UNL     1     -11.903  12.488  69.320  1.00  0.00    -0.304 C  
BRANCH  14  15
HETATM   15  N   UNL     1     -11.746  11.302  70.156  1.00  0.00    -0.346 N  
HETATM   16  C   UNL     1     -12.549  11.101  71.261  1.00  0.00    -0.398 C  
HETATM   17  H   UNL     1     -11.033  10.611  69.921  1.00  0.00     0.000 HD 
HETATM   18  O   UNL     1     -13.322  11.962  71.672  1.00  0.00    -0.335 OA 
BRANCH  16  19
HETATM   19  C   UNL     1     -12.337   9.774  71.971  1.00  0.00    -0.256 C  
BRANCH  19  20
HETATM   20  S   UNL     1     -11.748   8.491  70.845  1.00  0.00    -0.200 SA 
BRANCH  20  21
HETATM   21  C   UNL     1     -10.237   8.057  71.631  1.00  0.00    -0.202 C  
HETATM   22  O   UNL     1      -9.401   8.910  71.913  1.00  0.00    -0.284 OA 
BRANCH  21  23
HETATM   23  C   UNL     1     -10.009   6.615  71.923  1.00  0.00    -0.189 A  
HETATM   24  C   UNL     1     -10.229   5.676  70.907  1.00  0.00    -0.286 A  
HETATM   25  C   UNL     1     -10.074   4.311  71.168  1.00  0.00    -0.173 A  
HETATM   26  C   UNL     1      -9.710   3.878  72.442  1.00  0.00    -0.210 A  
HETATM   27  C   UNL     1      -9.488   4.808  73.456  1.00  0.00    -0.136 A  
HETATM   28  C   UNL     1      -9.638   6.171  73.201  1.00  0.00    -0.147 A  
ENDBRANCH  21  23
ENDBRANCH  20  21
ENDBRANCH  19  20
ENDBRANCH  16  19
ENDBRANCH  14  15
ENDBRANCH  12  14
ENDBRANCH   9  10
ENDBRANCH   6   9
ENDBRANCH   3   5
TORSDOF 9
ENDMDL
MODEL      211
REMARK 921   NORMALIZED FREE ENERGY PREDICTED BY IDOCK:   -4.70 KCAL/MOL
REMARK 922        TOTAL FREE ENERGY PREDICTED BY IDOCK:   -8.01 KCAL/MOL
REMARK 923 INTER-LIGAND FREE ENERGY PREDICTED BY IDOCK:   -6.94 KCAL/MOL
REMARK 924 INTRA-LIGAND FREE ENERGY PREDICTED BY IDOCK:   -1.07 KCAL/MOL
REMARK 927      BINDING AFFINITY PREDICTED BY RF-SCORE:    0.00 PKD
ROOT
HETATM    1  O   UNL     1     -11.075   5.852  71.246  1.00  0.00    -0.275 OA 
HETATM    2  C   UNL     1      -9.762   5.535  71.348  1.00  0.00    -0.158 C  
HETATM    3  C   UNL     1      -8.925   5.941  70.139  1.00  0.00    -0.142 C  
HETATM    4  O   UNL     1      -9.305   4.949  72.315  1.00  0.00    -0.135 OA 
ENDROOT
BRANCH   3   5
HETATM    5  N   UNL     1      -9.713   6.599  69.102  1.00  0.00    -0.145 N  
HETATM    6  C   UNL     1     -10.110   5.940  67.958  1.00  0.00    -0.162 C  
HETATM    7  H   UNL     1      -9.978   7.577  69.227  1.00  0.00     0.000 HD 
HETATM    8  O   UNL     1      -9.793   4.779  67.721  1.00  0.00    -0.159 OA 
BRANCH   6   9
HETATM    9  C   UNL     1     -10.942   6.771  66.973  1.00  0.00    -0.368 C  
BRANCH   9  10
HETATM   10  N   UNL     1     -10.348   8.056  66.648  1.00  0.00    -0.445 N  
HETATM   11  H   UNL     1     -10.794   8.905  66.994  1.00  0.00     0.000 HD 
HETATM   12  C   UNL     1      -9.203   8.169  65.891  1.00  0.00    -0.097 C  
HETATM   13  O   UNL     1      -8.596   7.188  65.469  1.00  0.00    -0.146 OA 
BRANCH  12  14
HETATM   14  C   UNL     1      -8.749   9.609  65.615  1.00  0.00    -0.141 C  
BRANCH  14  15
HETATM   15  N   UNL     1      -9.600  10.609  66.253  1.00  0.00    -0.179 N  
HETATM   16  C   UNL     1     -10.467  11.383  65.506  1.00  0.00    -0.268 C  
HETATM   17  H   UNL     1      -9.554  10.739  67.264  1.00  0.00     0.000 HD 
HETATM   18  O   UNL     1     -10.461  11.371  64.278  1.00  0.00    -0.292 OA 
BRANCH  16  19
HETATM   19  C   UNL     1     -11.359  12.305  66.320  1.00  0.00    -0.345 C  
BRANCH  19  20
HETATM   20  S   UNL     1     -10.568  12.833  67.854  1.00  0.00    -0.227 SA 
BRANCH  20  21
HETATM   21  C   UNL     1     -11.321  11.723  68.991  1.00  0.00    -0.278 C  
HETATM   22  O   UNL     1     -11.240  10.508  68.837  1.00  0.00    -0.243 OA 
BRANCH  21  23
HETATM   23  C   UNL     1     -12.071  12.318  70.131  1.00  0.00    -0.364 A  
HETATM   24  C   UNL     1     -12.113  13.712  70.259  1.00  0.00    -0.427 A  
HETATM   25  C   UNL     1     -12.766  14.296  71.349  1.00  0.00    -0.424 A  
HETATM   26  C   UNL     1     -13.369  13.494  72.317  1.00  0.00    -0.628 A  
HETATM   27  C   UNL     1     -13.332  12.107  72.193  1.00  0.00    -0.438 A  
HETATM   28  C   UNL     1     -12.685  11.518  71.106  1.00  0.00    -0.458 A  
ENDBRANCH  21  23
ENDBRANCH  20  21
ENDBRANCH  19  20
ENDBRANCH  16  19
ENDBRANCH  14  15
ENDBRANCH  12  14
ENDBRANCH   9  10
ENDBRANCH   6   9
ENDBRANCH   3   5
TORSDOF 9
ENDMDL
MODEL      212
REMARK 921   NORMALIZED FREE ENERGY PREDICTED BY IDOCK:   -4.69 KCAL/MOL
REMARK 922        TOTAL FREE ENERGY PREDICTED BY IDOCK:   -8.01 KCAL/MOL
REMARK 923 INTER-LIGAND FREE ENERGY PREDICTED BY IDOCK:   -7.28 KCAL/MOL
REMARK 924 INTRA-LIGAND FREE ENERGY PREDICTED BY IDOCK:   -0.73 KCAL/MOL
REMARK 927      BINDING AFFINITY PREDICTED BY RF-SCORE:    0.00 PKD
ROOT
HETATM    1  O   UNL     1     -10.750   5.761  71.401  1.00  0.00    -0.243 OA 
HETATM    2  C   UNL     1     -10.593   6.048  72.716  1.00  0.00    -0.225 C  
HETATM    3  C   UNL     1     -10.851   7.508  73.072  1.00  0.00    -0.392 C  
HETATM    4  O   UNL     1     -10.245   5.208  73.530  1.00  0.00    -0.171 OA 
ENDROOT
BRANCH   3   5
HETATM    5  N   UNL     1     -11.221   8.314  71.914  1.00  0.00    -0.279 N  
HETATM    6  C   UNL     1     -10.356   9.231  71.356  1.00  0.00    -0.321 C  
HETATM    7  H   UNL     1     -12.149   8.197  71.506  1.00  0.00     0.000 HD 
HETATM    8  O   UNL     1      -9.242   9.455  71.819  1.00  0.00    -0.233 OA 
BRANCH   6   9
HETATM    9  C   UNL     1     -10.895   9.990  70.136  1.00  0.00    -0.311 C  
BRANCH   9  10
HETATM   10  N   UNL     1     -11.386  11.321  70.449  1.00  0.00    -0.470 N  
HETATM   11  H   UNL     1     -10.894  12.129  70.069  1.00  0.00     0.000 HD 
HETATM   12  C   UNL     1     -12.492  11.532  71.242  1.00  0.00    -0.293 C  
HETATM   13  O   UNL     1     -13.151  10.606  71.708  1.00  0.00    -0.444 OA 
BRANCH  12  14
HETATM   14  C   UNL     1     -12.833  13.006  71.499  1.00  0.00    -0.290 C  
BRANCH  14  15
HETATM   15  N   UNL     1     -12.146  13.919  70.590  1.00  0.00    -0.392 N  
HETATM   16  C   UNL     1     -12.590  15.214  70.416  1.00  0.00    -0.359 C  
HETATM   17  H   UNL     1     -11.326  13.595  70.076  1.00  0.00     0.000 HD 
HETATM   18  O   UNL     1     -13.648  15.613  70.896  1.00  0.00    -0.568 OA 
BRANCH  16  19
HETATM   19  C   UNL     1     -11.714  16.073  69.520  1.00  0.00    -0.272 C  
BRANCH  19  20
HETATM   20  S   UNL     1     -11.253  15.214  68.000  1.00  0.00    -0.333 SA 
BRANCH  20  21
HETATM   21  C   UNL     1     -10.130  16.380  67.313  1.00  0.00    -0.270 C  
HETATM   22  O   UNL     1     -10.534  17.380  66.725  1.00  0.00    -0.310 OA 
BRANCH  21  23
HETATM   23  C   UNL     1      -8.676  16.094  67.457  1.00  0.00    -0.195 A  
HETATM   24  C   UNL     1      -7.753  17.087  67.103  1.00  0.00    -0.205 A  
HETATM   25  C   UNL     1      -6.381  16.829  67.178  1.00  0.00    -0.223 A  
HETATM   26  C   UNL     1      -5.926  15.578  67.595  1.00  0.00    -0.147 A  
HETATM   27  C   UNL     1      -6.839  14.588  67.950  1.00  0.00    -0.177 A  
HETATM   28  C   UNL     1      -8.209  14.841  67.880  1.00  0.00    -0.154 A  
ENDBRANCH  21  23
ENDBRANCH  20  21
ENDBRANCH  19  20
ENDBRANCH  16  19
ENDBRANCH  14  15
ENDBRANCH  12  14
ENDBRANCH   9  10
ENDBRANCH   6   9
ENDBRANCH   3   5
TORSDOF 9
ENDMDL
MODEL      213
REMARK 921   NORMALIZED FREE ENERGY PREDICTED BY IDOCK:   -4.69 KCAL/MOL
REMARK 922        TOTAL FREE ENERGY PREDICTED BY IDOCK:   -8.00 KCAL/MOL
REMARK 923 INTER-LIGAND FREE ENERGY PREDICTED BY IDOCK:   -6.64 KCAL/MOL
REMARK 924 INTRA-LIGAND FREE ENERGY PREDICTED BY IDOCK:   -1.37 KCAL/MOL
REMARK 927      BINDING AFFINITY PREDICTED BY RF-SCORE:    0.00 PKD
ROOT
HETATM    1  O   UNL     1      -9.658   5.842  68.455  1.00  0.00    -0.119 OA 
HETATM    2  C   UNL     1     -10.338   6.098  67.313  1.00  0.00    -0.219 C  
HETATM    3  C   UNL     1     -10.531   7.582  67.019  1.00  0.00    -0.338 C  
HETATM    4  O   UNL     1     -10.781   5.210  66.603  1.00  0.00    -0.279 OA 
ENDROOT
BRANCH   3   5
HETATM    5  N   UNL     1      -9.936   8.441  68.037  1.00  0.00    -0.174 N  
HETATM    6  C   UNL     1     -10.326   9.753  68.205  1.00  0.00    -0.198 C  
HETATM    7  H   UNL     1      -9.209   8.060  68.643  1.00  0.00     0.000 HD 
HETATM    8  O   UNL     1     -11.163  10.290  67.487  1.00  0.00    -0.295 OA 
BRANCH   6   9
HETATM    9  C   UNL     1      -9.610  10.517  69.327  1.00  0.00    -0.181 C  
BRANCH   9  10
HETATM   10  N   UNL     1      -8.794  11.620  68.851  1.00  0.00    -0.378 N  
HETATM   11  H   UNL     1      -9.245  12.383  68.347  1.00  0.00     0.000 HD 
HETATM   12  C   UNL     1      -7.433  11.673  69.054  1.00  0.00    -0.051 C  
HETATM   13  O   UNL     1      -6.830  10.805  69.680  1.00  0.00    -0.104 OA 
BRANCH  12  14
HETATM   14  C   UNL     1      -6.733  12.893  68.441  1.00  0.00    -0.092 C  
BRANCH  14  15
HETATM   15  N   UNL     1      -7.554  13.586  67.451  1.00  0.00    -0.280 N  
HETATM   16  C   UNL     1      -8.010  14.868  67.681  1.00  0.00    -0.169 C  
HETATM   17  H   UNL     1      -7.793  13.115  66.578  1.00  0.00     0.000 HD 
HETATM   18  O   UNL     1      -7.874  15.426  68.767  1.00  0.00    -0.133 OA 
BRANCH  16  19
HETATM   19  C   UNL     1      -8.763  15.494  66.519  1.00  0.00    -0.305 C  
BRANCH  19  20
HETATM   20  S   UNL     1     -10.511  15.739  66.899  1.00  0.00    -0.317 SA 
BRANCH  20  21
HETATM   21  C   UNL     1     -11.021  14.069  67.107  1.00  0.00    -0.296 C  
HETATM   22  O   UNL     1     -11.120  13.571  68.225  1.00  0.00    -0.241 OA 
BRANCH  21  23
HETATM   23  C   UNL     1     -11.308  13.284  65.875  1.00  0.00    -0.333 A  
HETATM   24  C   UNL     1     -10.236  12.746  65.151  1.00  0.00    -0.297 A  
HETATM   25  C   UNL     1     -10.473  12.049  63.962  1.00  0.00    -0.410 A  
HETATM   26  C   UNL     1     -11.775  11.896  63.487  1.00  0.00    -0.550 A  
HETATM   27  C   UNL     1     -12.844  12.427  64.204  1.00  0.00    -0.364 A  
HETATM   28  C   UNL     1     -12.615  13.120  65.393  1.00  0.00    -0.512 A  
ENDBRANCH  21  23
ENDBRANCH  20  21
ENDBRANCH  19  20
ENDBRANCH  16  19
ENDBRANCH  14  15
ENDBRANCH  12  14
ENDBRANCH   9  10
ENDBRANCH   6   9
ENDBRANCH   3   5
TORSDOF 9
ENDMDL
MODEL      214
REMARK 921   NORMALIZED FREE ENERGY PREDICTED BY IDOCK:   -4.68 KCAL/MOL
REMARK 922        TOTAL FREE ENERGY PREDICTED BY IDOCK:   -7.98 KCAL/MOL
REMARK 923 INTER-LIGAND FREE ENERGY PREDICTED BY IDOCK:   -7.07 KCAL/MOL
REMARK 924 INTRA-LIGAND FREE ENERGY PREDICTED BY IDOCK:   -0.91 KCAL/MOL
REMARK 927      BINDING AFFINITY PREDICTED BY RF-SCORE:    0.00 PKD
ROOT
HETATM    1  O   UNL     1     -10.920  15.050  65.312  1.00  0.00    -0.337 OA 
HETATM    2  C   UNL     1     -11.228  16.266  64.802  1.00  0.00    -0.259 C  
HETATM    3  C   UNL     1     -10.587  17.435  65.542  1.00  0.00    -0.108 C  
HETATM    4  O   UNL     1     -11.979  16.404  63.850  1.00  0.00    -1.023 OA 
ENDROOT
BRANCH   3   5
HETATM    5  N   UNL     1      -9.759  17.008  66.664  1.00  0.00    -0.264 N  
HETATM    6  C   UNL     1      -8.389  17.168  66.665  1.00  0.00    -0.251 C  
HETATM    7  H   UNL     1     -10.207  16.576  67.473  1.00  0.00     0.000 HD 
HETATM    8  O   UNL     1      -7.779  17.640  65.711  1.00  0.00    -0.540 OA 
BRANCH   6   9
HETATM    9  C   UNL     1      -7.667  16.676  67.926  1.00  0.00    -0.161 C  
BRANCH   9  10
HETATM   10  N   UNL     1      -7.354  15.258  67.900  1.00  0.00    -0.128 N  
HETATM   11  H   UNL     1      -7.716  14.688  67.137  1.00  0.00     0.000 HD 
HETATM   12  C   UNL     1      -6.584  14.655  68.870  1.00  0.00    -0.093 C  
HETATM   13  O   UNL     1      -6.089  15.285  69.800  1.00  0.00    -0.128 OA 
BRANCH  12  14
HETATM   14  C   UNL     1      -6.397  13.141  68.699  1.00  0.00    -0.083 C  
BRANCH  14  15
HETATM   15  N   UNL     1      -7.276  12.566  67.685  1.00  0.00    -0.123 N  
HETATM   16  C   UNL     1      -8.280  11.686  68.034  1.00  0.00    -0.146 C  
HETATM   17  H   UNL     1      -7.147  12.820  66.705  1.00  0.00     0.000 HD 
HETATM   18  O   UNL     1      -8.390  11.237  69.172  1.00  0.00    -0.065 OA 
BRANCH  16  19
HETATM   19  C   UNL     1      -9.176  11.254  66.885  1.00  0.00    -0.175 C  
BRANCH  19  20
HETATM   20  S   UNL     1     -10.806  10.729  67.458  1.00  0.00    -0.303 SA 
BRANCH  20  21
HETATM   21  C   UNL     1     -11.697  12.234  67.283  1.00  0.00    -0.324 C  
HETATM   22  O   UNL     1     -12.236  12.532  66.220  1.00  0.00    -0.600 OA 
BRANCH  21  23
HETATM   23  C   UNL     1     -11.754  13.136  68.466  1.00  0.00    -0.387 A  
HETATM   24  C   UNL     1     -11.493  14.501  68.289  1.00  0.00    -0.336 A  
HETATM   25  C   UNL     1     -11.487  15.362  69.391  1.00  0.00    -0.335 A  
HETATM   26  C   UNL     1     -11.732  14.865  70.670  1.00  0.00    -0.357 A  
HETATM   27  C   UNL     1     -11.995  13.509  70.851  1.00  0.00    -0.179 A  
HETATM   28  C   UNL     1     -12.005  12.645  69.756  1.00  0.00    -0.365 A  
ENDBRANCH  21  23
ENDBRANCH  20  21
ENDBRANCH  19  20
ENDBRANCH  16  19
ENDBRANCH  14  15
ENDBRANCH  12  14
ENDBRANCH   9  10
ENDBRANCH   6   9
ENDBRANCH   3   5
TORSDOF 9
ENDMDL
MODEL      215
REMARK 921   NORMALIZED FREE ENERGY PREDICTED BY IDOCK:   -4.67 KCAL/MOL
REMARK 922        TOTAL FREE ENERGY PREDICTED BY IDOCK:   -7.97 KCAL/MOL
REMARK 923 INTER-LIGAND FREE ENERGY PREDICTED BY IDOCK:   -7.28 KCAL/MOL
REMARK 924 INTRA-LIGAND FREE ENERGY PREDICTED BY IDOCK:   -0.69 KCAL/MOL
REMARK 927      BINDING AFFINITY PREDICTED BY RF-SCORE:    0.00 PKD
ROOT
HETATM    1  O   UNL     1     -10.609   9.380  67.592  1.00  0.00    -0.260 OA 
HETATM    2  C   UNL     1      -9.961   9.151  66.425  1.00  0.00    -0.288 C  
HETATM    3  C   UNL     1      -9.200   7.830  66.382  1.00  0.00    -0.180 C  
HETATM    4  O   UNL     1      -9.968   9.952  65.506  1.00  0.00    -0.304 OA 
ENDROOT
BRANCH   3   5
HETATM    5  N   UNL     1      -9.323   7.067  67.620  1.00  0.00    -0.122 N  
HETATM    6  C   UNL     1     -10.353   6.174  67.828  1.00  0.00    -0.198 C  
HETATM    7  H   UNL     1      -8.626   7.198  68.353  1.00  0.00     0.000 HD 
HETATM    8  O   UNL     1     -11.249   5.997  67.009  1.00  0.00    -0.238 OA 
BRANCH   6   9
HETATM    9  C   UNL     1     -10.331   5.444  69.177  1.00  0.00    -0.230 C  
BRANCH   9  10
HETATM   10  N   UNL     1     -10.375   6.337  70.322  1.00  0.00    -0.195 N  
HETATM   11  H   UNL     1     -10.587   7.322  70.169  1.00  0.00     0.000 HD 
HETATM   12  C   UNL     1     -10.141   5.901  71.607  1.00  0.00    -0.190 C  
HETATM   13  O   UNL     1      -9.911   4.724  71.868  1.00  0.00    -0.175 OA 
BRANCH  12  14
HETATM   14  C   UNL     1     -10.188   6.997  72.681  1.00  0.00    -0.194 C  
BRANCH  14  15
HETATM   15  N   UNL     1     -11.346   7.877  72.551  1.00  0.00    -0.363 N  
HETATM   16  C   UNL     1     -11.262   9.060  71.846  1.00  0.00    -0.368 C  
HETATM   17  H   UNL     1     -12.229   7.613  72.988  1.00  0.00     0.000 HD 
HETATM   18  O   UNL     1     -10.193   9.495  71.423  1.00  0.00    -0.283 OA 
BRANCH  16  19
HETATM   19  C   UNL     1     -12.573   9.816  71.711  1.00  0.00    -0.416 C  
BRANCH  19  20
HETATM   20  S   UNL     1     -12.546  10.977  70.328  1.00  0.00    -0.195 SA 
BRANCH  20  21
HETATM   21  C   UNL     1     -12.789  12.491  71.188  1.00  0.00    -0.211 C  
HETATM   22  O   UNL     1     -13.450  12.533  72.222  1.00  0.00    -0.556 OA 
BRANCH  21  23
HETATM   23  C   UNL     1     -12.179  13.716  70.601  1.00  0.00    -0.434 A  
HETATM   24  C   UNL     1     -12.011  14.844  71.415  1.00  0.00    -0.399 A  
HETATM   25  C   UNL     1     -11.490  16.024  70.878  1.00  0.00    -0.451 A  
HETATM   26  C   UNL     1     -11.144  16.087  69.528  1.00  0.00    -0.333 A  
HETATM   27  C   UNL     1     -11.307  14.968  68.715  1.00  0.00    -0.306 A  
HETATM   28  C   UNL     1     -11.823  13.786  69.246  1.00  0.00    -0.392 A  
ENDBRANCH  21  23
ENDBRANCH  20  21
ENDBRANCH  19  20
ENDBRANCH  16  19
ENDBRANCH  14  15
ENDBRANCH  12  14
ENDBRANCH   9  10
ENDBRANCH   6   9
ENDBRANCH   3   5
TORSDOF 9
ENDMDL
MODEL      216
REMARK 921   NORMALIZED FREE ENERGY PREDICTED BY IDOCK:   -4.65 KCAL/MOL
REMARK 922        TOTAL FREE ENERGY PREDICTED BY IDOCK:   -7.95 KCAL/MOL
REMARK 923 INTER-LIGAND FREE ENERGY PREDICTED BY IDOCK:   -7.29 KCAL/MOL
REMARK 924 INTRA-LIGAND FREE ENERGY PREDICTED BY IDOCK:   -0.66 KCAL/MOL
REMARK 927      BINDING AFFINITY PREDICTED BY RF-SCORE:    0.00 PKD
ROOT
HETATM    1  O   UNL     1     -11.070  13.800  67.236  1.00  0.00    -0.292 OA 
HETATM    2  C   UNL     1     -10.946  15.129  67.007  1.00  0.00    -0.322 C  
HETATM    3  C   UNL     1     -10.778  15.496  65.536  1.00  0.00    -0.381 C  
HETATM    4  O   UNL     1     -10.941  15.950  67.909  1.00  0.00    -0.317 OA 
ENDROOT
BRANCH   3   5
HETATM    5  N   UNL     1     -10.785  14.331  64.659  1.00  0.00    -0.568 N  
HETATM    6  C   UNL     1     -11.924  13.920  63.998  1.00  0.00    -0.387 C  
HETATM    7  H   UNL     1      -9.921  13.803  64.529  1.00  0.00     0.000 HD 
HETATM    8  O   UNL     1     -13.006  14.480  64.139  1.00  0.00    -0.470 OA 
BRANCH   6   9
HETATM    9  C   UNL     1     -11.759  12.684  63.105  1.00  0.00    -0.217 C  
BRANCH   9  10
HETATM   10  N   UNL     1     -11.190  11.539  63.795  1.00  0.00    -0.477 N  
HETATM   11  H   UNL     1     -11.749  11.064  64.503  1.00  0.00     0.000 HD 
HETATM   12  C   UNL     1      -9.922  11.073  63.529  1.00  0.00    -0.370 C  
HETATM   13  O   UNL     1      -9.206  11.577  62.668  1.00  0.00    -0.340 OA 
BRANCH  12  14
HETATM   14  C   UNL     1      -9.476   9.882  64.388  1.00  0.00    -0.239 C  
BRANCH  14  15
HETATM   15  N   UNL     1      -9.781  10.054  65.806  1.00  0.00    -0.238 N  
HETATM   16  C   UNL     1      -9.447   9.081  66.726  1.00  0.00    -0.182 C  
HETATM   17  H   UNL     1     -10.247  10.905  66.120  1.00  0.00     0.000 HD 
HETATM   18  O   UNL     1      -9.017   7.981  66.388  1.00  0.00    -0.151 OA 
BRANCH  16  19
HETATM   19  C   UNL     1      -9.734   9.447  68.173  1.00  0.00    -0.145 C  
BRANCH  19  20
HETATM   20  S   UNL     1     -11.143   8.533  68.836  1.00  0.00     0.409 SA 
BRANCH  20  21
HETATM   21  C   UNL     1     -11.064   9.021  70.523  1.00  0.00    -0.254 C  
HETATM   22  O   UNL     1     -11.044  10.208  70.840  1.00  0.00    -0.338 OA 
BRANCH  21  23
HETATM   23  C   UNL     1     -11.005   7.940  71.544  1.00  0.00    -0.269 A  
HETATM   24  C   UNL     1     -10.157   8.098  72.648  1.00  0.00    -0.379 A  
HETATM   25  C   UNL     1     -10.041   7.076  73.596  1.00  0.00    -0.376 A  
HETATM   26  C   UNL     1     -10.761   5.893  73.441  1.00  0.00    -0.293 A  
HETATM   27  C   UNL     1     -11.608   5.731  72.346  1.00  0.00    -0.320 A  
HETATM   28  C   UNL     1     -11.730   6.748  71.400  1.00  0.00    -0.371 A  
ENDBRANCH  21  23
ENDBRANCH  20  21
ENDBRANCH  19  20
ENDBRANCH  16  19
ENDBRANCH  14  15
ENDBRANCH  12  14
ENDBRANCH   9  10
ENDBRANCH   6   9
ENDBRANCH   3   5
TORSDOF 9
ENDMDL
MODEL      217
REMARK 921   NORMALIZED FREE ENERGY PREDICTED BY IDOCK:   -4.64 KCAL/MOL
REMARK 922        TOTAL FREE ENERGY PREDICTED BY IDOCK:   -7.93 KCAL/MOL
REMARK 923 INTER-LIGAND FREE ENERGY PREDICTED BY IDOCK:   -7.16 KCAL/MOL
REMARK 924 INTRA-LIGAND FREE ENERGY PREDICTED BY IDOCK:   -0.77 KCAL/MOL
REMARK 927      BINDING AFFINITY PREDICTED BY RF-SCORE:    0.00 PKD
ROOT
HETATM    1  O   UNL     1      -9.008  11.535  65.980  1.00  0.00    -0.208 OA 
HETATM    2  C   UNL     1      -9.977  11.152  65.115  1.00  0.00    -0.272 C  
HETATM    3  C   UNL     1     -11.227  12.024  65.151  1.00  0.00    -0.315 C  
HETATM    4  O   UNL     1      -9.860  10.174  64.395  1.00  0.00    -0.322 OA 
ENDROOT
BRANCH   3   5
HETATM    5  N   UNL     1     -11.130  13.110  66.120  1.00  0.00    -0.280 N  
HETATM    6  C   UNL     1     -11.581  12.975  67.417  1.00  0.00    -0.356 C  
HETATM    7  H   UNL     1     -10.717  13.997  65.830  1.00  0.00     0.000 HD 
HETATM    8  O   UNL     1     -12.126  11.954  67.823  1.00  0.00    -0.564 OA 
BRANCH   6   9
HETATM    9  C   UNL     1     -11.395  14.207  68.312  1.00  0.00    -0.291 C  
BRANCH   9  10
HETATM   10  N   UNL     1     -11.402  15.463  67.582  1.00  0.00    -0.321 N  
HETATM   11  H   UNL     1     -12.286  15.955  67.459  1.00  0.00     0.000 HD 
HETATM   12  C   UNL     1     -10.258  16.013  67.049  1.00  0.00    -0.282 C  
HETATM   13  O   UNL     1      -9.154  15.491  67.186  1.00  0.00    -0.201 OA 
BRANCH  12  14
HETATM   14  C   UNL     1     -10.468  17.321  66.274  1.00  0.00    -0.268 C  
BRANCH  14  15
HETATM   15  N   UNL     1      -9.945  18.491  66.973  1.00  0.00    -0.327 N  
HETATM   16  C   UNL     1      -8.813  19.140  66.522  1.00  0.00    -0.334 C  
HETATM   17  H   UNL     1     -10.423  18.834  67.807  1.00  0.00     0.000 HD 
HETATM   18  O   UNL     1      -8.119  18.690  65.614  1.00  0.00    -0.434 OA 
BRANCH  16  19
HETATM   19  C   UNL     1      -8.452  20.399  67.292  1.00  0.00    -0.331 C  
BRANCH  19  20
HETATM   20  S   UNL     1      -6.710  20.835  67.098  1.00  0.00    -0.341 SA 
BRANCH  20  21
HETATM   21  C   UNL     1      -6.061  20.199  68.603  1.00  0.00    -0.286 C  
HETATM   22  O   UNL     1      -5.812  20.941  69.549  1.00  0.00    -0.361 OA 
BRANCH  21  23
HETATM   23  C   UNL     1      -5.812  18.733  68.675  1.00  0.00    -0.214 A  
HETATM   24  C   UNL     1      -5.845  18.102  69.925  1.00  0.00    -0.238 A  
HETATM   25  C   UNL     1      -5.563  16.737  70.029  1.00  0.00    -0.216 A  
HETATM   26  C   UNL     1      -5.236  16.000  68.890  1.00  0.00    -0.107 A  
HETATM   27  C   UNL     1      -5.204  16.623  67.644  1.00  0.00    -0.147 A  
HETATM   28  C   UNL     1      -5.488  17.984  67.534  1.00  0.00    -0.142 A  
ENDBRANCH  21  23
ENDBRANCH  20  21
ENDBRANCH  19  20
ENDBRANCH  16  19
ENDBRANCH  14  15
ENDBRANCH  12  14
ENDBRANCH   9  10
ENDBRANCH   6   9
ENDBRANCH   3   5
TORSDOF 9
ENDMDL
MODEL      218
REMARK 921   NORMALIZED FREE ENERGY PREDICTED BY IDOCK:   -4.64 KCAL/MOL
REMARK 922        TOTAL FREE ENERGY PREDICTED BY IDOCK:   -7.92 KCAL/MOL
REMARK 923 INTER-LIGAND FREE ENERGY PREDICTED BY IDOCK:   -7.00 KCAL/MOL
REMARK 924 INTRA-LIGAND FREE ENERGY PREDICTED BY IDOCK:   -0.92 KCAL/MOL
REMARK 927      BINDING AFFINITY PREDICTED BY RF-SCORE:    0.00 PKD
ROOT
HETATM    1  O   UNL     1     -10.248  10.275  65.545  1.00  0.00    -0.284 OA 
HETATM    2  C   UNL     1     -10.009  11.003  64.428  1.00  0.00    -0.312 C  
HETATM    3  C   UNL     1      -9.254  10.248  63.340  1.00  0.00    -0.292 C  
HETATM    4  O   UNL     1     -10.348  12.171  64.325  1.00  0.00    -0.294 OA 
ENDROOT
BRANCH   3   5
HETATM    5  N   UNL     1      -8.936   8.876  63.721  1.00  0.00    -0.397 N  
HETATM    6  C   UNL     1      -7.665   8.499  64.101  1.00  0.00    -0.135 C  
HETATM    7  H   UNL     1      -9.676   8.174  63.706  1.00  0.00     0.000 HD 
HETATM    8  O   UNL     1      -6.718   9.279  64.103  1.00  0.00    -0.088 OA 
BRANCH   6   9
HETATM    9  C   UNL     1      -7.500   7.023  64.483  1.00  0.00    -0.099 C  
BRANCH   9  10
HETATM   10  N   UNL     1      -8.731   6.399  64.938  1.00  0.00    -0.352 N  
HETATM   11  H   UNL     1      -9.620   6.848  64.719  1.00  0.00     0.000 HD 
HETATM   12  C   UNL     1      -8.741   5.225  65.656  1.00  0.00    -0.146 C  
HETATM   13  O   UNL     1      -7.711   4.614  65.929  1.00  0.00    -0.092 OA 
BRANCH  12  14
HETATM   14  C   UNL     1     -10.132   4.742  66.089  1.00  0.00    -0.262 C  
BRANCH  14  15
HETATM   15  N   UNL     1     -10.444   5.066  67.478  1.00  0.00    -0.089 N  
HETATM   16  C   UNL     1     -10.950   6.304  67.821  1.00  0.00    -0.332 C  
HETATM   17  H   UNL     1     -10.286   4.368  68.205  1.00  0.00     0.000 HD 
HETATM   18  O   UNL     1     -11.026   7.226  67.013  1.00  0.00    -0.358 OA 
BRANCH  16  19
HETATM   19  C   UNL     1     -11.322   6.457  69.286  1.00  0.00    -0.338 C  
BRANCH  19  20
HETATM   20  S   UNL     1      -9.907   6.185  70.375  1.00  0.00    -0.181 SA 
BRANCH  20  21
HETATM   21  C   UNL     1      -9.609   7.832  70.913  1.00  0.00    -0.167 C  
HETATM   22  O   UNL     1      -8.465   8.259  71.043  1.00  0.00    -0.116 OA 
BRANCH  21  23
HETATM   23  C   UNL     1     -10.796   8.676  71.221  1.00  0.00    -0.327 A  
HETATM   24  C   UNL     1     -11.750   8.196  72.127  1.00  0.00    -0.418 A  
HETATM   25  C   UNL     1     -12.901   8.944  72.394  1.00  0.00    -0.446 A  
HETATM   26  C   UNL     1     -13.109  10.164  71.752  1.00  0.00    -0.568 A  
HETATM   27  C   UNL     1     -12.162  10.647  70.852  1.00  0.00    -0.497 A  
HETATM   28  C   UNL     1     -11.010   9.907  70.584  1.00  0.00    -0.405 A  
ENDBRANCH  21  23
ENDBRANCH  20  21
ENDBRANCH  19  20
ENDBRANCH  16  19
ENDBRANCH  14  15
ENDBRANCH  12  14
ENDBRANCH   9  10
ENDBRANCH   6   9
ENDBRANCH   3   5
TORSDOF 9
ENDMDL
MODEL      219
REMARK 921   NORMALIZED FREE ENERGY PREDICTED BY IDOCK:   -4.63 KCAL/MOL
REMARK 922        TOTAL FREE ENERGY PREDICTED BY IDOCK:   -7.91 KCAL/MOL
REMARK 923 INTER-LIGAND FREE ENERGY PREDICTED BY IDOCK:   -6.75 KCAL/MOL
REMARK 924 INTRA-LIGAND FREE ENERGY PREDICTED BY IDOCK:   -1.16 KCAL/MOL
REMARK 927      BINDING AFFINITY PREDICTED BY RF-SCORE:    0.00 PKD
ROOT
HETATM    1  O   UNL     1     -10.619  16.257  65.125  1.00  0.00    -0.576 OA 
HETATM    2  C   UNL     1      -9.592  16.544  65.960  1.00  0.00    -0.290 C  
HETATM    3  C   UNL     1      -9.539  15.669  67.208  1.00  0.00    -0.217 C  
HETATM    4  O   UNL     1      -8.802  17.446  65.738  1.00  0.00    -0.522 OA 
ENDROOT
BRANCH   3   5
HETATM    5  N   UNL     1     -10.615  14.685  67.254  1.00  0.00    -0.280 N  
HETATM    6  C   UNL     1     -10.411  13.399  67.709  1.00  0.00    -0.241 C  
HETATM    7  H   UNL     1     -11.548  14.956  66.941  1.00  0.00     0.000 HD 
HETATM    8  O   UNL     1      -9.309  12.991  68.062  1.00  0.00    -0.200 OA 
BRANCH   6   9
HETATM    9  C   UNL     1     -11.648  12.492  67.704  1.00  0.00    -0.355 C  
BRANCH   9  10
HETATM   10  N   UNL     1     -11.595  11.430  68.694  1.00  0.00    -0.293 N  
HETATM   11  H   UNL     1     -11.340  10.490  68.393  1.00  0.00     0.000 HD 
HETATM   12  C   UNL     1     -11.875  11.647  70.024  1.00  0.00    -0.355 C  
HETATM   13  O   UNL     1     -12.158  12.759  70.462  1.00  0.00    -0.367 OA 
BRANCH  12  14
HETATM   14  C   UNL     1     -11.810  10.397  70.912  1.00  0.00    -0.377 C  
BRANCH  14  15
HETATM   15  N   UNL     1     -10.456   9.873  71.063  1.00  0.00    -0.313 N  
HETATM   16  C   UNL     1     -10.211   8.745  71.821  1.00  0.00    -0.338 C  
HETATM   17  H   UNL     1      -9.678  10.347  70.602  1.00  0.00     0.000 HD 
HETATM   18  O   UNL     1     -11.082   8.220  72.511  1.00  0.00    -0.353 OA 
BRANCH  16  19
HETATM   19  C   UNL     1      -8.771   8.262  71.800  1.00  0.00    -0.164 C  
BRANCH  19  20
HETATM   20  S   UNL     1      -7.742   9.251  70.693  1.00  0.00    -0.142 SA 
BRANCH  20  21
HETATM   21  C   UNL     1      -7.764   8.236  69.259  1.00  0.00    -0.103 C  
HETATM   22  O   UNL     1      -7.167   7.163  69.232  1.00  0.00    -0.080 OA 
BRANCH  21  23
HETATM   23  C   UNL     1      -8.519   8.738  68.078  1.00  0.00    -0.126 A  
HETATM   24  C   UNL     1      -7.959   9.763  67.303  1.00  0.00    -0.106 A  
HETATM   25  C   UNL     1      -8.669  10.290  66.220  1.00  0.00    -0.157 A  
HETATM   26  C   UNL     1      -9.940   9.807  65.913  1.00  0.00    -0.345 A  
HETATM   27  C   UNL     1     -10.500   8.787  66.679  1.00  0.00    -0.240 A  
HETATM   28  C   UNL     1      -9.796   8.254  67.758  1.00  0.00    -0.214 A  
ENDBRANCH  21  23
ENDBRANCH  20  21
ENDBRANCH  19  20
ENDBRANCH  16  19
ENDBRANCH  14  15
ENDBRANCH  12  14
ENDBRANCH   9  10
ENDBRANCH   6   9
ENDBRANCH   3   5
TORSDOF 9
ENDMDL
MODEL      220
REMARK 921   NORMALIZED FREE ENERGY PREDICTED BY IDOCK:   -4.63 KCAL/MOL
REMARK 922        TOTAL FREE ENERGY PREDICTED BY IDOCK:   -7.90 KCAL/MOL
REMARK 923 INTER-LIGAND FREE ENERGY PREDICTED BY IDOCK:   -6.58 KCAL/MOL
REMARK 924 INTRA-LIGAND FREE ENERGY PREDICTED BY IDOCK:   -1.32 KCAL/MOL
REMARK 927      BINDING AFFINITY PREDICTED BY RF-SCORE:    0.00 PKD
ROOT
HETATM    1  O   UNL     1     -11.035  15.486  71.054  1.00  0.00    -0.345 OA 
HETATM    2  C   UNL     1     -11.797  15.166  69.981  1.00  0.00    -0.325 C  
HETATM    3  C   UNL     1     -11.523  16.015  68.745  1.00  0.00    -0.375 C  
HETATM    4  O   UNL     1     -12.647  14.292  70.021  1.00  0.00    -0.335 OA 
ENDROOT
BRANCH   3   5
HETATM    5  N   UNL     1     -10.482  17.014  68.965  1.00  0.00    -0.334 N  
HETATM    6  C   UNL     1     -10.380  18.147  68.186  1.00  0.00    -0.379 C  
HETATM    7  H   UNL     1      -9.809  16.869  69.718  1.00  0.00     0.000 HD 
HETATM    8  O   UNL     1     -11.128  18.366  67.238  1.00  0.00    -0.240 OA 
BRANCH   6   9
HETATM    9  C   UNL     1      -9.238  19.102  68.555  1.00  0.00    -0.376 C  
BRANCH   9  10
HETATM   10  N   UNL     1      -7.949  18.444  68.686  1.00  0.00    -0.310 N  
HETATM   11  H   UNL     1      -7.918  17.425  68.712  1.00  0.00     0.000 HD 
HETATM   12  C   UNL     1      -6.768  19.145  68.776  1.00  0.00    -0.296 C  
HETATM   13  O   UNL     1      -6.728  20.371  68.720  1.00  0.00    -0.276 OA 
BRANCH  12  14
HETATM   14  C   UNL     1      -5.513  18.280  68.953  1.00  0.00    -0.197 C  
BRANCH  14  15
HETATM   15  N   UNL     1      -5.791  16.848  68.887  1.00  0.00    -0.149 N  
HETATM   16  C   UNL     1      -5.527  16.126  67.740  1.00  0.00    -0.137 C  
HETATM   17  H   UNL     1      -6.186  16.374  69.700  1.00  0.00     0.000 HD 
HETATM   18  O   UNL     1      -5.187  16.667  66.691  1.00  0.00    -0.344 OA 
BRANCH  16  19
HETATM   19  C   UNL     1      -5.771  14.631  67.858  1.00  0.00    -0.118 C  
BRANCH  19  20
HETATM   20  S   UNL     1      -7.298  14.263  68.749  1.00  0.00    -0.134 SA 
BRANCH  20  21
HETATM   21  C   UNL     1      -8.447  14.286  67.419  1.00  0.00    -0.203 C  
HETATM   22  O   UNL     1      -8.654  15.312  66.777  1.00  0.00    -0.234 OA 
BRANCH  21  23
HETATM   23  C   UNL     1      -9.169  13.019  67.119  1.00  0.00    -0.226 A  
HETATM   24  C   UNL     1     -10.077  12.994  66.052  1.00  0.00    -0.286 A  
HETATM   25  C   UNL     1     -10.808  11.834  65.780  1.00  0.00    -0.341 A  
HETATM   26  C   UNL     1     -10.644  10.700  66.575  1.00  0.00    -0.257 A  
HETATM   27  C   UNL     1      -9.741  10.718  67.635  1.00  0.00    -0.185 A  
HETATM   28  C   UNL     1      -9.006  11.872  67.909  1.00  0.00    -0.179 A  
ENDBRANCH  21  23
ENDBRANCH  20  21
ENDBRANCH  19  20
ENDBRANCH  16  19
ENDBRANCH  14  15
ENDBRANCH  12  14
ENDBRANCH   9  10
ENDBRANCH   6   9
ENDBRANCH   3   5
TORSDOF 9
ENDMDL
MODEL      221
REMARK 921   NORMALIZED FREE ENERGY PREDICTED BY IDOCK:   -4.62 KCAL/MOL
REMARK 922        TOTAL FREE ENERGY PREDICTED BY IDOCK:   -7.90 KCAL/MOL
REMARK 923 INTER-LIGAND FREE ENERGY PREDICTED BY IDOCK:   -7.09 KCAL/MOL
REMARK 924 INTRA-LIGAND FREE ENERGY PREDICTED BY IDOCK:   -0.81 KCAL/MOL
REMARK 927      BINDING AFFINITY PREDICTED BY RF-SCORE:    0.00 PKD
ROOT
HETATM    1  O   UNL     1     -11.757   9.440  71.555  1.00  0.00    -0.342 OA 
HETATM    2  C   UNL     1     -12.962   8.986  71.976  1.00  0.00    -0.407 C  
HETATM    3  C   UNL     1     -13.258   7.543  71.585  1.00  0.00    -0.356 C  
HETATM    4  O   UNL     1     -13.748   9.691  72.588  1.00  0.00    -0.328 OA 
ENDROOT
BRANCH   3   5
HETATM    5  N   UNL     1     -12.172   6.929  70.828  1.00  0.00    -0.519 N  
HETATM    6  C   UNL     1     -11.395   5.918  71.353  1.00  0.00    -0.178 C  
HETATM    7  H   UNL     1     -11.981   7.258  69.881  1.00  0.00     0.000 HD 
HETATM    8  O   UNL     1     -11.540   5.501  72.498  1.00  0.00    -0.283 OA 
BRANCH   6   9
HETATM    9  C   UNL     1     -10.303   5.373  70.424  1.00  0.00    -0.283 C  
BRANCH   9  10
HETATM   10  N   UNL     1      -9.990   6.257  69.314  1.00  0.00    -0.150 N  
HETATM   11  H   UNL     1     -10.641   6.314  68.532  1.00  0.00     0.000 HD 
HETATM   12  C   UNL     1      -8.845   7.022  69.280  1.00  0.00    -0.139 C  
HETATM   13  O   UNL     1      -8.032   7.027  70.201  1.00  0.00    -0.110 OA 
BRANCH  12  14
HETATM   14  C   UNL     1      -8.664   7.860  68.008  1.00  0.00    -0.125 C  
BRANCH  14  15
HETATM   15  N   UNL     1      -9.809   8.719  67.720  1.00  0.00    -0.165 N  
HETATM   16  C   UNL     1      -9.883   9.999  68.233  1.00  0.00    -0.146 C  
HETATM   17  H   UNL     1     -10.565   8.368  67.132  1.00  0.00     0.000 HD 
HETATM   18  O   UNL     1      -9.075  10.420  69.057  1.00  0.00    -0.169 OA 
BRANCH  16  19
HETATM   19  C   UNL     1     -11.081  10.805  67.763  1.00  0.00    -0.318 C  
BRANCH  19  20
HETATM   20  S   UNL     1     -11.489  12.141  68.908  1.00  0.00    -0.320 SA 
BRANCH  20  21
HETATM   21  C   UNL     1     -10.633  13.474  68.148  1.00  0.00    -0.245 C  
HETATM   22  O   UNL     1      -9.680  14.015  68.704  1.00  0.00    -0.223 OA 
BRANCH  21  23
HETATM   23  C   UNL     1     -11.120  13.930  66.817  1.00  0.00    -0.310 A  
HETATM   24  C   UNL     1     -10.332  14.821  66.077  1.00  0.00    -0.318 A  
HETATM   25  C   UNL     1     -10.790  15.307  64.848  1.00  0.00    -0.444 A  
HETATM   26  C   UNL     1     -12.035  14.915  64.360  1.00  0.00    -0.408 A  
HETATM   27  C   UNL     1     -12.822  14.028  65.091  1.00  0.00    -0.368 A  
HETATM   28  C   UNL     1     -12.370  13.537  66.316  1.00  0.00    -0.440 A  
ENDBRANCH  21  23
ENDBRANCH  20  21
ENDBRANCH  19  20
ENDBRANCH  16  19
ENDBRANCH  14  15
ENDBRANCH  12  14
ENDBRANCH   9  10
ENDBRANCH   6   9
ENDBRANCH   3   5
TORSDOF 9
ENDMDL
MODEL      222
REMARK 921   NORMALIZED FREE ENERGY PREDICTED BY IDOCK:   -4.61 KCAL/MOL
REMARK 922        TOTAL FREE ENERGY PREDICTED BY IDOCK:   -7.88 KCAL/MOL
REMARK 923 INTER-LIGAND FREE ENERGY PREDICTED BY IDOCK:   -6.08 KCAL/MOL
REMARK 924 INTRA-LIGAND FREE ENERGY PREDICTED BY IDOCK:   -1.81 KCAL/MOL
REMARK 927      BINDING AFFINITY PREDICTED BY RF-SCORE:    0.00 PKD
ROOT
HETATM    1  O   UNL     1     -11.988  11.839  67.422  1.00  0.00    -0.617 OA 
HETATM    2  C   UNL     1     -11.683  13.071  66.948  1.00  0.00    -0.383 C  
HETATM    3  C   UNL     1     -10.603  13.076  65.872  1.00  0.00    -0.275 C  
HETATM    4  O   UNL     1     -12.212  14.084  67.374  1.00  0.00    -0.384 OA 
ENDROOT
BRANCH   3   5
HETATM    5  N   UNL     1     -10.108  11.739  65.562  1.00  0.00    -0.240 N  
HETATM    6  C   UNL     1      -9.929  11.309  64.264  1.00  0.00    -0.297 C  
HETATM    7  H   UNL     1      -9.888  11.102  66.328  1.00  0.00     0.000 HD 
HETATM    8  O   UNL     1     -10.212  12.004  63.293  1.00  0.00    -0.438 OA 
BRANCH   6   9
HETATM    9  C   UNL     1      -9.391   9.881  64.110  1.00  0.00    -0.237 C  
BRANCH   9  10
HETATM   10  N   UNL     1      -8.277   9.581  64.993  1.00  0.00    -0.129 N  
HETATM   11  H   UNL     1      -8.473   9.221  65.926  1.00  0.00     0.000 HD 
HETATM   12  C   UNL     1      -6.965   9.764  64.615  1.00  0.00    -0.124 C  
HETATM   13  O   UNL     1      -6.655  10.163  63.496  1.00  0.00    -0.133 OA 
BRANCH  12  14
HETATM   14  C   UNL     1      -5.928   9.435  65.697  1.00  0.00    -0.059 C  
BRANCH  14  15
HETATM   15  N   UNL     1      -6.474   9.488  67.049  1.00  0.00    -0.066 N  
HETATM   16  C   UNL     1      -6.520   8.358  67.841  1.00  0.00    -0.057 C  
HETATM   17  H   UNL     1      -6.828  10.373  67.415  1.00  0.00     0.000 HD 
HETATM   18  O   UNL     1      -6.243   7.243  67.406  1.00  0.00    -0.046 OA 
BRANCH  16  19
HETATM   19  C   UNL     1      -7.020   8.592  69.257  1.00  0.00    -0.054 C  
BRANCH  19  20
HETATM   20  S   UNL     1      -7.921  10.149  69.408  1.00  0.00    -0.165 SA 
BRANCH  20  21
HETATM   21  C   UNL     1      -9.505   9.650  68.832  1.00  0.00    -0.157 C  
HETATM   22  O   UNL     1      -9.773   9.650  67.634  1.00  0.00    -0.143 OA 
BRANCH  21  23
HETATM   23  C   UNL     1     -10.507   9.246  69.856  1.00  0.00    -0.247 A  
HETATM   24  C   UNL     1     -10.713   7.881  70.100  1.00  0.00    -0.244 A  
HETATM   25  C   UNL     1     -11.686   7.472  71.016  1.00  0.00    -0.317 A  
HETATM   26  C   UNL     1     -12.462   8.418  71.685  1.00  0.00    -0.363 A  
HETATM   27  C   UNL     1     -12.260   9.776  71.448  1.00  0.00    -0.486 A  
HETATM   28  C   UNL     1     -11.289  10.191  70.537  1.00  0.00    -0.416 A  
ENDBRANCH  21  23
ENDBRANCH  20  21
ENDBRANCH  19  20
ENDBRANCH  16  19
ENDBRANCH  14  15
ENDBRANCH  12  14
ENDBRANCH   9  10
ENDBRANCH   6   9
ENDBRANCH   3   5
TORSDOF 9
ENDMDL
MODEL      223
REMARK 921   NORMALIZED FREE ENERGY PREDICTED BY IDOCK:   -4.61 KCAL/MOL
REMARK 922        TOTAL FREE ENERGY PREDICTED BY IDOCK:   -7.88 KCAL/MOL
REMARK 923 INTER-LIGAND FREE ENERGY PREDICTED BY IDOCK:   -6.54 KCAL/MOL
REMARK 924 INTRA-LIGAND FREE ENERGY PREDICTED BY IDOCK:   -1.34 KCAL/MOL
REMARK 927      BINDING AFFINITY PREDICTED BY RF-SCORE:    0.00 PKD
ROOT
HETATM    1  O   UNL     1      -9.156   5.811  70.401  1.00  0.00    -0.142 OA 
HETATM    2  C   UNL     1     -10.041   5.319  69.501  1.00  0.00    -0.252 C  
HETATM    3  C   UNL     1     -11.246   6.221  69.254  1.00  0.00    -0.389 C  
HETATM    4  O   UNL     1      -9.893   4.234  68.965  1.00  0.00    -0.165 OA 
ENDROOT
BRANCH   3   5
HETATM    5  N   UNL     1     -11.205   7.448  70.041  1.00  0.00    -0.406 N  
HETATM    6  C   UNL     1     -12.105   7.696  71.056  1.00  0.00    -0.258 C  
HETATM    7  H   UNL     1     -10.488   8.145  69.835  1.00  0.00     0.000 HD 
HETATM    8  O   UNL     1     -13.018   6.924  71.332  1.00  0.00    -0.355 OA 
BRANCH   6   9
HETATM    9  C   UNL     1     -11.918   9.027  71.794  1.00  0.00    -0.368 C  
BRANCH   9  10
HETATM   10  N   UNL     1     -11.765  10.168  70.907  1.00  0.00    -0.350 N  
HETATM   11  H   UNL     1     -11.120  10.096  70.121  1.00  0.00     0.000 HD 
HETATM   12  C   UNL     1     -12.459  11.342  71.089  1.00  0.00    -0.360 C  
HETATM   13  O   UNL     1     -13.275  11.488  71.995  1.00  0.00    -0.509 OA 
BRANCH  12  14
HETATM   14  C   UNL     1     -12.134  12.450  70.078  1.00  0.00    -0.263 C  
BRANCH  14  15
HETATM   15  N   UNL     1     -10.956  12.157  69.267  1.00  0.00    -0.416 N  
HETATM   16  C   UNL     1     -11.040  12.088  67.891  1.00  0.00    -0.236 C  
HETATM   17  H   UNL     1     -10.057  12.001  69.725  1.00  0.00     0.000 HD 
HETATM   18  O   UNL     1     -12.116  12.126  67.300  1.00  0.00    -0.565 OA 
BRANCH  16  19
HETATM   19  C   UNL     1      -9.714  11.878  67.181  1.00  0.00    -0.185 C  
BRANCH  19  20
HETATM   20  S   UNL     1      -9.878  10.793  65.747  1.00  0.00    -0.254 SA 
BRANCH  20  21
HETATM   21  C   UNL     1      -9.812   9.224  66.535  1.00  0.00    -0.263 C  
HETATM   22  O   UNL     1     -10.756   8.809  67.203  1.00  0.00    -0.271 OA 
BRANCH  21  23
HETATM   23  C   UNL     1      -8.563   8.430  66.375  1.00  0.00    -0.139 A  
HETATM   24  C   UNL     1      -8.114   7.650  67.449  1.00  0.00    -0.119 A  
HETATM   25  C   UNL     1      -6.916   6.937  67.345  1.00  0.00    -0.079 A  
HETATM   26  C   UNL     1      -6.158   7.007  66.177  1.00  0.00    -0.036 A  
HETATM   27  C   UNL     1      -6.600   7.780  65.106  1.00  0.00    -0.047 A  
HETATM   28  C   UNL     1      -7.796   8.491  65.202  1.00  0.00    -0.116 A  
ENDBRANCH  21  23
ENDBRANCH  20  21
ENDBRANCH  19  20
ENDBRANCH  16  19
ENDBRANCH  14  15
ENDBRANCH  12  14
ENDBRANCH   9  10
ENDBRANCH   6   9
ENDBRANCH   3   5
TORSDOF 9
ENDMDL
MODEL      224
REMARK 921   NORMALIZED FREE ENERGY PREDICTED BY IDOCK:   -4.61 KCAL/MOL
REMARK 922        TOTAL FREE ENERGY PREDICTED BY IDOCK:   -7.87 KCAL/MOL
REMARK 923 INTER-LIGAND FREE ENERGY PREDICTED BY IDOCK:   -7.38 KCAL/MOL
REMARK 924 INTRA-LIGAND FREE ENERGY PREDICTED BY IDOCK:   -0.49 KCAL/MOL
REMARK 927      BINDING AFFINITY PREDICTED BY RF-SCORE:    0.00 PKD
ROOT
HETATM    1  O   UNL     1     -10.173   6.014  74.164  1.00  0.00    -0.247 OA 
HETATM    2  C   UNL     1     -10.140   4.976  73.295  1.00  0.00    -0.162 C  
HETATM    3  C   UNL     1     -10.313   5.377  71.834  1.00  0.00    -0.212 C  
HETATM    4  O   UNL     1     -10.013   3.820  73.664  1.00  0.00    -0.109 OA 
ENDROOT
BRANCH   3   5
HETATM    5  N   UNL     1     -10.480   6.816  71.659  1.00  0.00    -0.208 N  
HETATM    6  C   UNL     1     -11.595   7.354  71.052  1.00  0.00    -0.288 C  
HETATM    7  H   UNL     1      -9.749   7.443  71.996  1.00  0.00     0.000 HD 
HETATM    8  O   UNL     1     -12.493   6.659  70.586  1.00  0.00    -0.289 OA 
BRANCH   6   9
HETATM    9  C   UNL     1     -11.621   8.885  70.957  1.00  0.00    -0.293 C  
BRANCH   9  10
HETATM   10  N   UNL     1     -11.748   9.381  69.598  1.00  0.00    -0.389 N  
HETATM   11  H   UNL     1     -12.680   9.551  69.222  1.00  0.00     0.000 HD 
HETATM   12  C   UNL     1     -10.655   9.630  68.798  1.00  0.00    -0.216 C  
HETATM   13  O   UNL     1      -9.503   9.477  69.196  1.00  0.00    -0.153 OA 
BRANCH  12  14
HETATM   14  C   UNL     1     -10.987  10.107  67.378  1.00  0.00    -0.229 C  
BRANCH  14  15
HETATM   15  N   UNL     1     -11.322  11.527  67.316  1.00  0.00    -0.299 N  
HETATM   16  C   UNL     1     -11.629  12.132  66.113  1.00  0.00    -0.354 C  
HETATM   17  H   UNL     1     -11.331  12.080  68.173  1.00  0.00     0.000 HD 
HETATM   18  O   UNL     1     -11.496  11.553  65.038  1.00  0.00    -0.171 OA 
BRANCH  16  19
HETATM   19  C   UNL     1     -12.057  13.586  66.222  1.00  0.00    -0.428 C  
BRANCH  19  20
HETATM   20  S   UNL     1     -11.817  14.479  64.671  1.00  0.00    -0.450 SA 
BRANCH  20  21
HETATM   21  C   UNL     1     -10.992  15.914  65.264  1.00  0.00    -0.324 C  
HETATM   22  O   UNL     1     -11.050  16.977  64.651  1.00  0.00    -0.997 OA 
BRANCH  21  23
HETATM   23  C   UNL     1     -10.210  15.781  66.524  1.00  0.00    -0.294 A  
HETATM   24  C   UNL     1      -9.056  14.987  66.523  1.00  0.00    -0.319 A  
HETATM   25  C   UNL     1      -8.332  14.801  67.704  1.00  0.00    -0.180 A  
HETATM   26  C   UNL     1      -8.761  15.397  68.890  1.00  0.00    -0.208 A  
HETATM   27  C   UNL     1      -9.907  16.189  68.896  1.00  0.00    -0.239 A  
HETATM   28  C   UNL     1     -10.631  16.381  67.720  1.00  0.00    -0.321 A  
ENDBRANCH  21  23
ENDBRANCH  20  21
ENDBRANCH  19  20
ENDBRANCH  16  19
ENDBRANCH  14  15
ENDBRANCH  12  14
ENDBRANCH   9  10
ENDBRANCH   6   9
ENDBRANCH   3   5
TORSDOF 9
ENDMDL
MODEL      225
REMARK 921   NORMALIZED FREE ENERGY PREDICTED BY IDOCK:   -4.59 KCAL/MOL
REMARK 922        TOTAL FREE ENERGY PREDICTED BY IDOCK:   -7.85 KCAL/MOL
REMARK 923 INTER-LIGAND FREE ENERGY PREDICTED BY IDOCK:   -7.24 KCAL/MOL
REMARK 924 INTRA-LIGAND FREE ENERGY PREDICTED BY IDOCK:   -0.61 KCAL/MOL
REMARK 927      BINDING AFFINITY PREDICTED BY RF-SCORE:    0.00 PKD
ROOT
HETATM    1  O   UNL     1     -10.906   5.282  74.446  1.00  0.00    -0.294 OA 
HETATM    2  C   UNL     1     -10.829   4.441  73.387  1.00  0.00    -0.267 C  
HETATM    3  C   UNL     1     -10.515   5.131  72.064  1.00  0.00    -0.215 C  
HETATM    4  O   UNL     1     -11.026   3.242  73.490  1.00  0.00    -0.202 OA 
ENDROOT
BRANCH   3   5
HETATM    5  N   UNL     1     -10.357   6.574  72.202  1.00  0.00    -0.196 N  
HETATM    6  C   UNL     1     -11.174   7.466  71.540  1.00  0.00    -0.243 C  
HETATM    7  H   UNL     1      -9.619   6.935  72.807  1.00  0.00     0.000 HD 
HETATM    8  O   UNL     1     -12.054   7.105  70.765  1.00  0.00    -0.331 OA 
BRANCH   6   9
HETATM    9  C   UNL     1     -10.883   8.949  71.803  1.00  0.00    -0.365 C  
BRANCH   9  10
HETATM   10  N   UNL     1     -10.873   9.762  70.599  1.00  0.00    -0.308 N  
HETATM   11  H   UNL     1     -10.097   9.661  69.945  1.00  0.00     0.000 HD 
HETATM   12  C   UNL     1     -11.872  10.663  70.308  1.00  0.00    -0.342 C  
HETATM   13  O   UNL     1     -12.851  10.814  71.035  1.00  0.00    -0.359 OA 
BRANCH  12  14
HETATM   14  C   UNL     1     -11.667  11.463  69.015  1.00  0.00    -0.343 C  
BRANCH  14  15
HETATM   15  N   UNL     1     -10.661  12.512  69.144  1.00  0.00    -0.438 N  
HETATM   16  C   UNL     1     -10.350  13.333  68.078  1.00  0.00    -0.241 C  
HETATM   17  H   UNL     1     -10.180  12.641  70.035  1.00  0.00     0.000 HD 
HETATM   18  O   UNL     1     -10.791  13.133  66.949  1.00  0.00    -0.262 OA 
BRANCH  16  19
HETATM   19  C   UNL     1      -9.361  14.442  68.395  1.00  0.00    -0.206 C  
BRANCH  19  20
HETATM   20  S   UNL     1     -10.190  16.003  68.763  1.00  0.00    -0.238 SA 
BRANCH  20  21
HETATM   21  C   UNL     1      -9.793  16.915  67.313  1.00  0.00    -0.265 C  
HETATM   22  O   UNL     1     -10.268  16.610  66.223  1.00  0.00    -0.308 OA 
BRANCH  21  23
HETATM   23  C   UNL     1      -8.848  18.056  67.461  1.00  0.00    -0.252 A  
HETATM   24  C   UNL     1      -8.453  18.760  66.316  1.00  0.00    -0.256 A  
HETATM   25  C   UNL     1      -7.526  19.801  66.418  1.00  0.00    -0.297 A  
HETATM   26  C   UNL     1      -6.982  20.136  67.657  1.00  0.00    -0.302 A  
HETATM   27  C   UNL     1      -7.372  19.441  68.799  1.00  0.00    -0.390 A  
HETATM   28  C   UNL     1      -8.300  18.404  68.705  1.00  0.00    -0.319 A  
ENDBRANCH  21  23
ENDBRANCH  20  21
ENDBRANCH  19  20
ENDBRANCH  16  19
ENDBRANCH  14  15
ENDBRANCH  12  14
ENDBRANCH   9  10
ENDBRANCH   6   9
ENDBRANCH   3   5
TORSDOF 9
ENDMDL
MODEL      226
REMARK 921   NORMALIZED FREE ENERGY PREDICTED BY IDOCK:   -4.58 KCAL/MOL
REMARK 922        TOTAL FREE ENERGY PREDICTED BY IDOCK:   -7.84 KCAL/MOL
REMARK 923 INTER-LIGAND FREE ENERGY PREDICTED BY IDOCK:   -6.97 KCAL/MOL
REMARK 924 INTRA-LIGAND FREE ENERGY PREDICTED BY IDOCK:   -0.87 KCAL/MOL
REMARK 927      BINDING AFFINITY PREDICTED BY RF-SCORE:    0.00 PKD
ROOT
HETATM    1  O   UNL     1      -8.569  10.592  62.738  1.00  0.00    -0.181 OA 
HETATM    2  C   UNL     1      -7.535   9.751  62.977  1.00  0.00    -0.124 C  
HETATM    3  C   UNL     1      -7.767   8.788  64.136  1.00  0.00    -0.130 C  
HETATM    4  O   UNL     1      -6.500   9.789  62.332  1.00  0.00    -0.099 OA 
ENDROOT
BRANCH   3   5
HETATM    5  N   UNL     1      -9.072   8.965  64.765  1.00  0.00    -0.436 N  
HETATM    6  C   UNL     1      -9.210   9.137  66.126  1.00  0.00    -0.205 C  
HETATM    7  H   UNL     1      -9.908   8.962  64.179  1.00  0.00     0.000 HD 
HETATM    8  O   UNL     1      -8.254   9.109  66.895  1.00  0.00    -0.114 OA 
BRANCH   6   9
HETATM    9  C   UNL     1     -10.649   9.321  66.626  1.00  0.00    -0.091 C  
BRANCH   9  10
HETATM   10  N   UNL     1     -10.993  10.704  66.909  1.00  0.00    -0.211 N  
HETATM   11  H   UNL     1     -11.096  10.995  67.881  1.00  0.00     0.000 HD 
HETATM   12  C   UNL     1     -11.184  11.635  65.914  1.00  0.00    -0.238 C  
HETATM   13  O   UNL     1     -11.046  11.362  64.724  1.00  0.00    -0.275 OA 
BRANCH  12  14
HETATM   14  C   UNL     1     -11.585  13.034  66.403  1.00  0.00    -0.363 C  
BRANCH  14  15
HETATM   15  N   UNL     1     -10.460  13.799  66.932  1.00  0.00    -0.271 N  
HETATM   16  C   UNL     1      -9.830  14.757  66.163  1.00  0.00    -0.312 C  
HETATM   17  H   UNL     1     -10.135  13.624  67.883  1.00  0.00     0.000 HD 
HETATM   18  O   UNL     1     -10.084  14.910  64.971  1.00  0.00    -0.360 OA 
BRANCH  16  19
HETATM   19  C   UNL     1      -8.745  15.540  66.884  1.00  0.00    -0.250 C  
BRANCH  19  20
HETATM   20  S   UNL     1      -8.903  15.420  68.679  1.00  0.00    -0.199 SA 
BRANCH  20  21
HETATM   21  C   UNL     1     -10.065  16.705  68.976  1.00  0.00    -0.293 C  
HETATM   22  O   UNL     1     -11.011  16.540  69.741  1.00  0.00    -0.344 OA 
BRANCH  21  23
HETATM   23  C   UNL     1      -9.864  17.989  68.250  1.00  0.00    -0.357 A  
HETATM   24  C   UNL     1     -10.680  18.278  67.148  1.00  0.00    -0.334 A  
HETATM   25  C   UNL     1     -10.478  19.451  66.415  1.00  0.00    -0.581 A  
HETATM   26  C   UNL     1      -9.459  20.334  66.772  1.00  0.00    -0.518 A  
HETATM   27  C   UNL     1      -8.646  20.053  67.867  1.00  0.00    -0.309 A  
HETATM   28  C   UNL     1      -8.844  18.885  68.604  1.00  0.00    -0.374 A  
ENDBRANCH  21  23
ENDBRANCH  20  21
ENDBRANCH  19  20
ENDBRANCH  16  19
ENDBRANCH  14  15
ENDBRANCH  12  14
ENDBRANCH   9  10
ENDBRANCH   6   9
ENDBRANCH   3   5
TORSDOF 9
ENDMDL
MODEL      227
REMARK 921   NORMALIZED FREE ENERGY PREDICTED BY IDOCK:   -4.58 KCAL/MOL
REMARK 922        TOTAL FREE ENERGY PREDICTED BY IDOCK:   -7.83 KCAL/MOL
REMARK 923 INTER-LIGAND FREE ENERGY PREDICTED BY IDOCK:   -7.46 KCAL/MOL
REMARK 924 INTRA-LIGAND FREE ENERGY PREDICTED BY IDOCK:   -0.37 KCAL/MOL
REMARK 927      BINDING AFFINITY PREDICTED BY RF-SCORE:    0.00 PKD
ROOT
HETATM    1  O   UNL     1     -11.270  14.985  72.356  1.00  0.00    -0.273 OA 
HETATM    2  C   UNL     1     -12.594  15.257  72.263  1.00  0.00    -0.357 C  
HETATM    3  C   UNL     1     -13.070  15.571  70.849  1.00  0.00    -0.448 C  
HETATM    4  O   UNL     1     -13.326  15.277  73.239  1.00  0.00    -0.474 OA 
ENDROOT
BRANCH   3   5
HETATM    5  N   UNL     1     -11.994  15.514  69.865  1.00  0.00    -0.345 N  
HETATM    6  C   UNL     1     -11.734  14.375  69.132  1.00  0.00    -0.317 C  
HETATM    7  H   UNL     1     -11.417  16.342  69.715  1.00  0.00     0.000 HD 
HETATM    8  O   UNL     1     -12.360  13.332  69.290  1.00  0.00    -0.207 OA 
BRANCH   6   9
HETATM    9  C   UNL     1     -10.576  14.484  68.132  1.00  0.00    -0.238 C  
BRANCH   9  10
HETATM   10  N   UNL     1      -9.398  15.138  68.675  1.00  0.00    -0.192 N  
HETATM   11  H   UNL     1      -9.465  16.115  68.959  1.00  0.00     0.000 HD 
HETATM   12  C   UNL     1      -8.194  14.487  68.820  1.00  0.00    -0.146 C  
HETATM   13  O   UNL     1      -8.049  13.303  68.528  1.00  0.00    -0.145 OA 
BRANCH  12  14
HETATM   14  C   UNL     1      -7.051  15.352  69.369  1.00  0.00    -0.193 C  
BRANCH  14  15
HETATM   15  N   UNL     1      -6.862  16.591  68.622  1.00  0.00    -0.151 N  
HETATM   16  C   UNL     1      -6.151  16.605  67.438  1.00  0.00    -0.161 C  
HETATM   17  H   UNL     1      -7.260  17.460  68.979  1.00  0.00     0.000 HD 
HETATM   18  O   UNL     1      -5.532  15.623  67.037  1.00  0.00    -0.291 OA 
BRANCH  16  19
HETATM   19  C   UNL     1      -6.127  17.946  66.724  1.00  0.00    -0.161 C  
BRANCH  19  20
HETATM   20  S   UNL     1      -5.541  19.274  67.798  1.00  0.00    -0.182 SA 
BRANCH  20  21
HETATM   21  C   UNL     1      -6.982  19.549  68.766  1.00  0.00    -0.336 C  
HETATM   22  O   UNL     1      -6.909  19.698  69.983  1.00  0.00    -0.233 OA 
BRANCH  21  23
HETATM   23  C   UNL     1      -8.289  19.575  68.054  1.00  0.00    -0.355 A  
HETATM   24  C   UNL     1      -9.380  18.900  68.618  1.00  0.00    -0.415 A  
HETATM   25  C   UNL     1     -10.605  18.863  67.945  1.00  0.00    -0.425 A  
HETATM   26  C   UNL     1     -10.743  19.489  66.707  1.00  0.00    -0.569 A  
HETATM   27  C   UNL     1      -9.663  20.163  66.143  1.00  0.00    -0.481 A  
HETATM   28  C   UNL     1      -8.439  20.206  66.811  1.00  0.00    -0.365 A  
ENDBRANCH  21  23
ENDBRANCH  20  21
ENDBRANCH  19  20
ENDBRANCH  16  19
ENDBRANCH  14  15
ENDBRANCH  12  14
ENDBRANCH   9  10
ENDBRANCH   6   9
ENDBRANCH   3   5
TORSDOF 9
ENDMDL
MODEL      228
REMARK 921   NORMALIZED FREE ENERGY PREDICTED BY IDOCK:   -4.57 KCAL/MOL
REMARK 922        TOTAL FREE ENERGY PREDICTED BY IDOCK:   -7.82 KCAL/MOL
REMARK 923 INTER-LIGAND FREE ENERGY PREDICTED BY IDOCK:   -7.08 KCAL/MOL
REMARK 924 INTRA-LIGAND FREE ENERGY PREDICTED BY IDOCK:   -0.74 KCAL/MOL
REMARK 927      BINDING AFFINITY PREDICTED BY RF-SCORE:    0.00 PKD
ROOT
HETATM    1  O   UNL     1     -12.934  11.837  71.439  1.00  0.00    -0.398 OA 
HETATM    2  C   UNL     1     -13.296  13.080  71.836  1.00  0.00    -0.446 C  
HETATM    3  C   UNL     1     -12.532  14.204  71.145  1.00  0.00    -0.371 C  
HETATM    4  O   UNL     1     -14.140  13.272  72.696  1.00  0.00    -0.744 OA 
ENDROOT
BRANCH   3   5
HETATM    5  N   UNL     1     -11.553  13.712  70.180  1.00  0.00    -0.495 N  
HETATM    6  C   UNL     1     -11.262  14.399  69.020  1.00  0.00    -0.264 C  
HETATM    7  H   UNL     1     -11.070  12.834  70.370  1.00  0.00     0.000 HD 
HETATM    8  O   UNL     1     -11.833  15.438  68.707  1.00  0.00    -0.351 OA 
BRANCH   6   9
HETATM    9  C   UNL     1     -10.202  13.752  68.119  1.00  0.00    -0.253 C  
BRANCH   9  10
HETATM   10  N   UNL     1      -9.829  12.410  68.532  1.00  0.00    -0.341 N  
HETATM   11  H   UNL     1     -10.015  12.121  69.491  1.00  0.00     0.000 HD 
HETATM   12  C   UNL     1      -9.231  11.514  67.674  1.00  0.00    -0.171 C  
HETATM   13  O   UNL     1      -9.006  11.783  66.497  1.00  0.00    -0.191 OA 
BRANCH  12  14
HETATM   14  C   UNL     1      -8.870  10.160  68.300  1.00  0.00    -0.124 C  
BRANCH  14  15
HETATM   15  N   UNL     1      -9.853   9.118  68.018  1.00  0.00    -0.162 N  
HETATM   16  C   UNL     1      -9.457   7.865  67.597  1.00  0.00    -0.144 C  
HETATM   17  H   UNL     1     -10.846   9.319  68.134  1.00  0.00     0.000 HD 
HETATM   18  O   UNL     1      -8.291   7.611  67.305  1.00  0.00    -0.113 OA 
BRANCH  16  19
HETATM   19  C   UNL     1     -10.585   6.858  67.444  1.00  0.00    -0.303 C  
BRANCH  19  20
HETATM   20  S   UNL     1     -10.349   5.412  68.499  1.00  0.00    -0.114 SA 
BRANCH  20  21
HETATM   21  C   UNL     1     -11.070   5.996  69.992  1.00  0.00    -0.381 C  
HETATM   22  O   UNL     1     -11.962   6.840  69.978  1.00  0.00    -0.291 OA 
BRANCH  21  23
HETATM   23  C   UNL     1     -10.543   5.439  71.268  1.00  0.00    -0.276 A  
HETATM   24  C   UNL     1     -11.290   5.612  72.441  1.00  0.00    -0.327 A  
HETATM   25  C   UNL     1     -10.794   5.146  73.663  1.00  0.00    -0.363 A  
HETATM   26  C   UNL     1      -9.551   4.518  73.721  1.00  0.00    -0.140 A  
HETATM   27  C   UNL     1      -8.805   4.341  72.558  1.00  0.00    -0.119 A  
HETATM   28  C   UNL     1      -9.296   4.800  71.335  1.00  0.00    -0.201 A  
ENDBRANCH  21  23
ENDBRANCH  20  21
ENDBRANCH  19  20
ENDBRANCH  16  19
ENDBRANCH  14  15
ENDBRANCH  12  14
ENDBRANCH   9  10
ENDBRANCH   6   9
ENDBRANCH   3   5
TORSDOF 9
ENDMDL
MODEL      229
REMARK 921   NORMALIZED FREE ENERGY PREDICTED BY IDOCK:   -4.57 KCAL/MOL
REMARK 922        TOTAL FREE ENERGY PREDICTED BY IDOCK:   -7.81 KCAL/MOL
REMARK 923 INTER-LIGAND FREE ENERGY PREDICTED BY IDOCK:   -6.90 KCAL/MOL
REMARK 924 INTRA-LIGAND FREE ENERGY PREDICTED BY IDOCK:   -0.91 KCAL/MOL
REMARK 927      BINDING AFFINITY PREDICTED BY RF-SCORE:    0.00 PKD
ROOT
HETATM    1  O   UNL     1     -10.806   6.640  70.422  1.00  0.00    -0.234 OA 
HETATM    2  C   UNL     1      -9.845   5.750  70.076  1.00  0.00    -0.180 C  
HETATM    3  C   UNL     1      -8.486   6.379  69.787  1.00  0.00    -0.127 C  
HETATM    4  O   UNL     1     -10.067   4.555  69.978  1.00  0.00    -0.227 OA 
ENDROOT
BRANCH   3   5
HETATM    5  N   UNL     1      -8.491   7.830  69.944  1.00  0.00    -0.131 N  
HETATM    6  C   UNL     1      -8.432   8.682  68.861  1.00  0.00    -0.129 C  
HETATM    7  H   UNL     1      -8.538   8.226  70.883  1.00  0.00     0.000 HD 
HETATM    8  O   UNL     1      -8.332   8.277  67.707  1.00  0.00    -0.125 OA 
BRANCH   6   9
HETATM    9  C   UNL     1      -8.457  10.178  69.196  1.00  0.00    -0.156 C  
BRANCH   9  10
HETATM   10  N   UNL     1      -9.790  10.692  69.462  1.00  0.00    -0.413 N  
HETATM   11  H   UNL     1     -10.231  10.475  70.355  1.00  0.00     0.000 HD 
HETATM   12  C   UNL     1     -10.479  11.463  68.552  1.00  0.00    -0.203 C  
HETATM   13  O   UNL     1      -9.996  11.789  67.471  1.00  0.00    -0.189 OA 
BRANCH  12  14
HETATM   14  C   UNL     1     -11.890  11.877  68.991  1.00  0.00    -0.308 C  
BRANCH  14  15
HETATM   15  N   UNL     1     -12.118  13.316  68.899  1.00  0.00    -0.287 N  
HETATM   16  C   UNL     1     -12.284  14.083  70.035  1.00  0.00    -0.352 C  
HETATM   17  H   UNL     1     -12.156  13.762  67.982  1.00  0.00     0.000 HD 
HETATM   18  O   UNL     1     -12.389  13.582  71.152  1.00  0.00    -0.354 OA 
BRANCH  16  19
HETATM   19  C   UNL     1     -12.409  15.576  69.784  1.00  0.00    -0.232 C  
BRANCH  19  20
HETATM   20  S   UNL     1     -10.804  16.403  69.806  1.00  0.00    -0.298 SA 
BRANCH  20  21
HETATM   21  C   UNL     1     -10.514  16.566  68.080  1.00  0.00    -0.313 C  
HETATM   22  O   UNL     1     -10.827  15.672  67.297  1.00  0.00    -0.305 OA 
BRANCH  21  23
HETATM   23  C   UNL     1      -9.860  17.819  67.612  1.00  0.00    -0.299 A  
HETATM   24  C   UNL     1      -8.468  17.838  67.458  1.00  0.00    -0.227 A  
HETATM   25  C   UNL     1      -7.822  19.017  67.071  1.00  0.00    -0.255 A  
HETATM   26  C   UNL     1      -8.559  20.179  66.847  1.00  0.00    -0.397 A  
HETATM   27  C   UNL     1      -9.944  20.164  66.997  1.00  0.00    -0.596 A  
HETATM   28  C   UNL     1     -10.595  18.991  67.379  1.00  0.00    -0.559 A  
ENDBRANCH  21  23
ENDBRANCH  20  21
ENDBRANCH  19  20
ENDBRANCH  16  19
ENDBRANCH  14  15
ENDBRANCH  12  14
ENDBRANCH   9  10
ENDBRANCH   6   9
ENDBRANCH   3   5
TORSDOF 9
ENDMDL
MODEL      230
REMARK 921   NORMALIZED FREE ENERGY PREDICTED BY IDOCK:   -4.56 KCAL/MOL
REMARK 922        TOTAL FREE ENERGY PREDICTED BY IDOCK:   -7.79 KCAL/MOL
REMARK 923 INTER-LIGAND FREE ENERGY PREDICTED BY IDOCK:   -6.95 KCAL/MOL
REMARK 924 INTRA-LIGAND FREE ENERGY PREDICTED BY IDOCK:   -0.85 KCAL/MOL
REMARK 927      BINDING AFFINITY PREDICTED BY RF-SCORE:    0.00 PKD
ROOT
HETATM    1  O   UNL     1      -8.832   5.129  71.138  1.00  0.00    -0.129 OA 
HETATM    2  C   UNL     1      -9.722   4.696  70.214  1.00  0.00    -0.225 C  
HETATM    3  C   UNL     1     -10.701   5.764  69.739  1.00  0.00    -0.348 C  
HETATM    4  O   UNL     1      -9.749   3.540  69.825  1.00  0.00    -0.171 OA 
ENDROOT
BRANCH   3   5
HETATM    5  N   UNL     1     -10.481   7.056  70.380  1.00  0.00    -0.203 N  
HETATM    6  C   UNL     1     -11.487   7.720  71.051  1.00  0.00    -0.281 C  
HETATM    7  H   UNL     1      -9.556   7.482  70.331  1.00  0.00     0.000 HD 
HETATM    8  O   UNL     1     -12.634   7.288  71.116  1.00  0.00    -0.351 OA 
BRANCH   6   9
HETATM    9  C   UNL     1     -11.089   9.062  71.679  1.00  0.00    -0.363 C  
BRANCH   9  10
HETATM   10  N   UNL     1     -11.302  10.200  70.802  1.00  0.00    -0.340 N  
HETATM   11  H   UNL     1     -10.645  10.364  70.040  1.00  0.00     0.000 HD 
HETATM   12  C   UNL     1     -12.361  11.066  70.961  1.00  0.00    -0.385 C  
HETATM   13  O   UNL     1     -13.209  10.911  71.836  1.00  0.00    -0.467 OA 
BRANCH  12  14
HETATM   14  C   UNL     1     -12.398  12.234  69.966  1.00  0.00    -0.089 C  
BRANCH  14  15
HETATM   15  N   UNL     1     -11.274  13.153  70.122  1.00  0.00    -0.371 N  
HETATM   16  C   UNL     1     -11.231  14.345  69.427  1.00  0.00    -0.281 C  
HETATM   17  H   UNL     1     -10.511  12.912  70.754  1.00  0.00     0.000 HD 
HETATM   18  O   UNL     1     -12.046  14.621  68.551  1.00  0.00    -0.284 OA 
BRANCH  16  19
HETATM   19  C   UNL     1     -10.053  15.241  69.771  1.00  0.00    -0.218 C  
BRANCH  19  20
HETATM   20  S   UNL     1      -9.007  15.565  68.335  1.00  0.00    -0.196 SA 
BRANCH  20  21
HETATM   21  C   UNL     1      -8.655  13.918  67.830  1.00  0.00    -0.182 C  
HETATM   22  O   UNL     1      -7.787  13.254  68.391  1.00  0.00    -0.132 OA 
BRANCH  21  23
HETATM   23  C   UNL     1      -9.438  13.373  66.687  1.00  0.00    -0.264 A  
HETATM   24  C   UNL     1      -9.567  11.984  66.557  1.00  0.00    -0.234 A  
HETATM   25  C   UNL     1     -10.251  11.442  65.465  1.00  0.00    -0.312 A  
HETATM   26  C   UNL     1     -10.799  12.281  64.495  1.00  0.00    -0.355 A  
HETATM   27  C   UNL     1     -10.675  13.663  64.620  1.00  0.00    -0.433 A  
HETATM   28  C   UNL     1      -9.997  14.209  65.709  1.00  0.00    -0.331 A  
ENDBRANCH  21  23
ENDBRANCH  20  21
ENDBRANCH  19  20
ENDBRANCH  16  19
ENDBRANCH  14  15
ENDBRANCH  12  14
ENDBRANCH   9  10
ENDBRANCH   6   9
ENDBRANCH   3   5
TORSDOF 9
ENDMDL
MODEL      231
REMARK 921   NORMALIZED FREE ENERGY PREDICTED BY IDOCK:   -4.55 KCAL/MOL
REMARK 922        TOTAL FREE ENERGY PREDICTED BY IDOCK:   -7.79 KCAL/MOL
REMARK 923 INTER-LIGAND FREE ENERGY PREDICTED BY IDOCK:   -6.74 KCAL/MOL
REMARK 924 INTRA-LIGAND FREE ENERGY PREDICTED BY IDOCK:   -1.05 KCAL/MOL
REMARK 927      BINDING AFFINITY PREDICTED BY RF-SCORE:    0.00 PKD
ROOT
HETATM    1  O   UNL     1      -8.095  10.523  63.108  1.00  0.00    -0.155 OA 
HETATM    2  C   UNL     1      -7.047   9.816  63.593  1.00  0.00    -0.116 C  
HETATM    3  C   UNL     1      -7.351   9.046  64.874  1.00  0.00    -0.100 C  
HETATM    4  O   UNL     1      -5.950   9.826  63.060  1.00  0.00    -0.099 OA 
ENDROOT
BRANCH   3   5
HETATM    5  N   UNL     1      -8.726   9.224  65.327  1.00  0.00    -0.172 N  
HETATM    6  C   UNL     1      -9.033   9.494  66.644  1.00  0.00    -0.146 C  
HETATM    7  H   UNL     1      -9.485   9.146  64.648  1.00  0.00     0.000 HD 
HETATM    8  O   UNL     1      -8.178   9.560  67.521  1.00  0.00    -0.119 OA 
BRANCH   6   9
HETATM    9  C   UNL     1     -10.526   9.665  66.953  1.00  0.00    -0.212 C  
BRANCH   9  10
HETATM   10  N   UNL     1     -10.983  11.041  66.874  1.00  0.00    -0.272 N  
HETATM   11  H   UNL     1     -11.106  11.568  67.738  1.00  0.00     0.000 HD 
HETATM   12  C   UNL     1     -11.255  11.661  65.675  1.00  0.00    -0.214 C  
HETATM   13  O   UNL     1     -11.099  11.098  64.596  1.00  0.00    -0.231 OA 
BRANCH  12  14
HETATM   14  C   UNL     1     -11.769  13.103  65.794  1.00  0.00    -0.374 C  
BRANCH  14  15
HETATM   15  N   UNL     1     -10.905  13.953  66.609  1.00  0.00    -0.288 N  
HETATM   16  C   UNL     1     -10.307  15.076  66.075  1.00  0.00    -0.312 C  
HETATM   17  H   UNL     1     -10.742  13.713  67.587  1.00  0.00     0.000 HD 
HETATM   18  O   UNL     1     -10.352  15.333  64.875  1.00  0.00    -0.363 OA 
BRANCH  16  19
HETATM   19  C   UNL     1      -9.523  15.915  67.070  1.00  0.00    -0.222 C  
BRANCH  19  20
HETATM   20  S   UNL     1      -9.533  15.188  68.724  1.00  0.00    -0.217 SA 
BRANCH  20  21
HETATM   21  C   UNL     1     -10.838  16.108  69.459  1.00  0.00    -0.329 C  
HETATM   22  O   UNL     1     -11.057  17.271  69.131  1.00  0.00     0.006 OA 
BRANCH  21  23
HETATM   23  C   UNL     1     -11.650  15.427  70.504  1.00  0.00    -0.355 A  
HETATM   24  C   UNL     1     -11.798  16.042  71.754  1.00  0.00    -0.599 A  
HETATM   25  C   UNL     1     -12.511  15.400  72.771  1.00  0.00    -0.502 A  
HETATM   26  C   UNL     1     -13.068  14.141  72.550  1.00  0.00    -0.554 A  
HETATM   27  C   UNL     1     -12.926  13.526  71.308  1.00  0.00    -0.384 A  
HETATM   28  C   UNL     1     -12.219  14.163  70.288  1.00  0.00    -0.416 A  
ENDBRANCH  21  23
ENDBRANCH  20  21
ENDBRANCH  19  20
ENDBRANCH  16  19
ENDBRANCH  14  15
ENDBRANCH  12  14
ENDBRANCH   9  10
ENDBRANCH   6   9
ENDBRANCH   3   5
TORSDOF 9
ENDMDL
MODEL      232
REMARK 921   NORMALIZED FREE ENERGY PREDICTED BY IDOCK:   -4.54 KCAL/MOL
REMARK 922        TOTAL FREE ENERGY PREDICTED BY IDOCK:   -7.78 KCAL/MOL
REMARK 923 INTER-LIGAND FREE ENERGY PREDICTED BY IDOCK:   -6.90 KCAL/MOL
REMARK 924 INTRA-LIGAND FREE ENERGY PREDICTED BY IDOCK:   -0.87 KCAL/MOL
REMARK 927      BINDING AFFINITY PREDICTED BY RF-SCORE:    0.00 PKD
ROOT
HETATM    1  O   UNL     1      -8.549  14.581  69.262  1.00  0.00    -0.041 OA 
HETATM    2  C   UNL     1      -7.352  15.143  68.968  1.00  0.00    -0.155 C  
HETATM    3  C   UNL     1      -6.614  14.474  67.813  1.00  0.00    -0.172 C  
HETATM    4  O   UNL     1      -6.899  16.083  69.600  1.00  0.00    -0.200 OA 
ENDROOT
BRANCH   3   5
HETATM    5  N   UNL     1      -7.353  13.351  67.246  1.00  0.00    -0.350 N  
HETATM    6  C   UNL     1      -6.907  12.051  67.360  1.00  0.00    -0.142 C  
HETATM    7  H   UNL     1      -8.226  13.533  66.749  1.00  0.00     0.000 HD 
HETATM    8  O   UNL     1      -5.847  11.762  67.905  1.00  0.00    -0.044 OA 
BRANCH   6   9
HETATM    9  C   UNL     1      -7.806  10.986  66.718  1.00  0.00    -0.149 C  
BRANCH   9  10
HETATM   10  N   UNL     1      -8.522  11.460  65.546  1.00  0.00    -0.385 N  
HETATM   11  H   UNL     1      -8.818  12.435  65.512  1.00  0.00     0.000 HD 
HETATM   12  C   UNL     1      -8.817  10.640  64.480  1.00  0.00    -0.176 C  
HETATM   13  O   UNL     1      -8.465   9.464  64.440  1.00  0.00    -0.162 OA 
BRANCH  12  14
HETATM   14  C   UNL     1      -9.618  11.306  63.353  1.00  0.00    -0.333 C  
BRANCH  14  15
HETATM   15  N   UNL     1     -10.184  12.595  63.738  1.00  0.00    -0.505 N  
HETATM   16  C   UNL     1     -11.546  12.815  63.691  1.00  0.00    -0.506 C  
HETATM   17  H   UNL     1      -9.564  13.345  64.046  1.00  0.00     0.000 HD 
HETATM   18  O   UNL     1     -12.323  12.002  63.195  1.00  0.00    -0.486 OA 
BRANCH  16  19
HETATM   19  C   UNL     1     -11.992  14.168  64.219  1.00  0.00    -0.435 C  
BRANCH  19  20
HETATM   20  S   UNL     1     -13.011  14.013  65.702  1.00  0.00    -0.077 SA 
BRANCH  20  21
HETATM   21  C   UNL     1     -11.762  14.037  66.939  1.00  0.00    -0.410 C  
HETATM   22  O   UNL     1     -11.641  13.109  67.735  1.00  0.00    -0.296 OA 
BRANCH  21  23
HETATM   23  C   UNL     1     -10.874  15.231  66.992  1.00  0.00    -0.321 A  
HETATM   24  C   UNL     1     -11.221  16.295  67.835  1.00  0.00    -0.213 A  
HETATM   25  C   UNL     1     -10.435  17.450  67.865  1.00  0.00    -0.383 A  
HETATM   26  C   UNL     1      -9.309  17.553  67.049  1.00  0.00    -0.262 A  
HETATM   27  C   UNL     1      -8.958  16.497  66.211  1.00  0.00    -0.359 A  
HETATM   28  C   UNL     1      -9.737  15.340  66.179  1.00  0.00    -0.343 A  
ENDBRANCH  21  23
ENDBRANCH  20  21
ENDBRANCH  19  20
ENDBRANCH  16  19
ENDBRANCH  14  15
ENDBRANCH  12  14
ENDBRANCH   9  10
ENDBRANCH   6   9
ENDBRANCH   3   5
TORSDOF 9
ENDMDL
MODEL      233
REMARK 921   NORMALIZED FREE ENERGY PREDICTED BY IDOCK:   -4.53 KCAL/MOL
REMARK 922        TOTAL FREE ENERGY PREDICTED BY IDOCK:   -7.76 KCAL/MOL
REMARK 923 INTER-LIGAND FREE ENERGY PREDICTED BY IDOCK:   -7.12 KCAL/MOL
REMARK 924 INTRA-LIGAND FREE ENERGY PREDICTED BY IDOCK:   -0.64 KCAL/MOL
REMARK 927      BINDING AFFINITY PREDICTED BY RF-SCORE:    0.00 PKD
ROOT
HETATM    1  O   UNL     1      -9.249   3.361  71.417  1.00  0.00    -0.103 OA 
HETATM    2  C   UNL     1      -9.273   4.351  72.341  1.00  0.00    -0.121 C  
HETATM    3  C   UNL     1      -9.490   5.743  71.759  1.00  0.00    -0.148 C  
HETATM    4  O   UNL     1      -9.105   4.138  73.531  1.00  0.00    -0.102 OA 
ENDROOT
BRANCH   3   5
HETATM    5  N   UNL     1      -9.631   5.733  70.307  1.00  0.00    -0.160 N  
HETATM    6  C   UNL     1     -10.815   6.072  69.686  1.00  0.00    -0.369 C  
HETATM    7  H   UNL     1      -8.830   5.468  69.734  1.00  0.00     0.000 HD 
HETATM    8  O   UNL     1     -11.830   6.361  70.311  1.00  0.00    -0.396 OA 
BRANCH   6   9
HETATM    9  C   UNL     1     -10.793   6.022  68.152  1.00  0.00    -0.281 C  
BRANCH   9  10
HETATM   10  N   UNL     1     -11.084   7.299  67.525  1.00  0.00    -0.562 N  
HETATM   11  H   UNL     1     -11.995   7.435  67.086  1.00  0.00     0.000 HD 
HETATM   12  C   UNL     1     -10.176   8.333  67.501  1.00  0.00    -0.243 C  
HETATM   13  O   UNL     1      -9.074   8.251  68.036  1.00  0.00    -0.137 OA 
BRANCH  12  14
HETATM   14  C   UNL     1     -10.645   9.590  66.754  1.00  0.00    -0.137 C  
BRANCH  14  15
HETATM   15  N   UNL     1     -10.076  10.821  67.294  1.00  0.00    -0.190 N  
HETATM   16  C   UNL     1     -10.866  11.735  67.961  1.00  0.00    -0.213 C  
HETATM   17  H   UNL     1      -9.080  11.009  67.176  1.00  0.00     0.000 HD 
HETATM   18  O   UNL     1     -12.089  11.631  68.008  1.00  0.00    -0.597 OA 
BRANCH  16  19
HETATM   19  C   UNL     1     -10.114  12.915  68.554  1.00  0.00    -0.189 C  
BRANCH  19  20
HETATM   20  S   UNL     1     -10.761  14.495  67.965  1.00  0.00    -0.246 SA 
BRANCH  20  21
HETATM   21  C   UNL     1     -10.159  14.482  66.314  1.00  0.00    -0.295 C  
HETATM   22  O   UNL     1      -9.183  15.155  65.990  1.00  0.00    -0.301 OA 
BRANCH  21  23
HETATM   23  C   UNL     1     -10.888  13.639  65.327  1.00  0.00    -0.324 A  
HETATM   24  C   UNL     1     -10.168  12.701  64.576  1.00  0.00    -0.331 A  
HETATM   25  C   UNL     1     -10.818  11.934  63.604  1.00  0.00    -0.510 A  
HETATM   26  C   UNL     1     -12.182  12.106  63.372  1.00  0.00    -0.635 A  
HETATM   27  C   UNL     1     -12.903  13.036  64.118  1.00  0.00    -0.078 A  
HETATM   28  C   UNL     1     -12.261  13.802  65.091  1.00  0.00    -0.453 A  
ENDBRANCH  21  23
ENDBRANCH  20  21
ENDBRANCH  19  20
ENDBRANCH  16  19
ENDBRANCH  14  15
ENDBRANCH  12  14
ENDBRANCH   9  10
ENDBRANCH   6   9
ENDBRANCH   3   5
TORSDOF 9
ENDMDL
MODEL      234
REMARK 921   NORMALIZED FREE ENERGY PREDICTED BY IDOCK:   -4.53 KCAL/MOL
REMARK 922        TOTAL FREE ENERGY PREDICTED BY IDOCK:   -7.76 KCAL/MOL
REMARK 923 INTER-LIGAND FREE ENERGY PREDICTED BY IDOCK:   -6.78 KCAL/MOL
REMARK 924 INTRA-LIGAND FREE ENERGY PREDICTED BY IDOCK:   -0.98 KCAL/MOL
REMARK 927      BINDING AFFINITY PREDICTED BY RF-SCORE:    0.00 PKD
ROOT
HETATM    1  O   UNL     1      -9.033   3.744  66.341  1.00  0.00    -0.122 OA 
HETATM    2  C   UNL     1      -7.793   4.285  66.278  1.00  0.00    -0.095 C  
HETATM    3  C   UNL     1      -7.706   5.712  66.807  1.00  0.00    -0.100 C  
HETATM    4  O   UNL     1      -6.841   3.683  65.809  1.00  0.00    -0.054 OA 
ENDROOT
BRANCH   3   5
HETATM    5  N   UNL     1      -8.990   6.217  67.283  1.00  0.00    -0.114 N  
HETATM    6  C   UNL     1      -9.210   6.519  68.610  1.00  0.00    -0.127 C  
HETATM    7  H   UNL     1      -9.748   6.352  66.613  1.00  0.00     0.000 HD 
HETATM    8  O   UNL     1      -8.360   6.343  69.477  1.00  0.00    -0.123 OA 
BRANCH   6   9
HETATM    9  C   UNL     1     -10.610   7.050  68.943  1.00  0.00    -0.215 C  
BRANCH   9  10
HETATM   10  N   UNL     1     -10.844   8.405  68.475  1.00  0.00    -0.435 N  
HETATM   11  H   UNL     1     -11.230   8.543  67.541  1.00  0.00     0.000 HD 
HETATM   12  C   UNL     1     -10.562   9.511  69.245  1.00  0.00    -0.220 C  
HETATM   13  O   UNL     1     -10.125   9.419  70.389  1.00  0.00    -0.218 OA 
BRANCH  12  14
HETATM   14  C   UNL     1     -10.834  10.860  68.566  1.00  0.00    -0.220 C  
BRANCH  14  15
HETATM   15  N   UNL     1     -11.091  10.738  67.134  1.00  0.00    -0.274 N  
HETATM   16  C   UNL     1     -10.176  11.197  66.207  1.00  0.00    -0.239 C  
HETATM   17  H   UNL     1     -11.958  10.308  66.813  1.00  0.00     0.000 HD 
HETATM   18  O   UNL     1      -9.187  11.849  66.533  1.00  0.00    -0.205 OA 
BRANCH  16  19
HETATM   19  C   UNL     1     -10.535  10.907  64.760  1.00  0.00    -0.303 C  
BRANCH  19  20
HETATM   20  S   UNL     1     -10.736  12.421  63.796  1.00  0.00    -0.459 SA 
BRANCH  20  21
HETATM   21  C   UNL     1     -11.919  13.265  64.786  1.00  0.00    -0.388 C  
HETATM   22  O   UNL     1     -13.097  12.918  64.800  1.00  0.00    -0.754 OA 
BRANCH  21  23
HETATM   23  C   UNL     1     -11.437  14.423  65.588  1.00  0.00    -0.336 A  
HETATM   24  C   UNL     1     -11.666  14.430  66.970  1.00  0.00    -0.420 A  
HETATM   25  C   UNL     1     -11.272  15.529  67.740  1.00  0.00    -0.302 A  
HETATM   26  C   UNL     1     -10.658  16.625  67.135  1.00  0.00    -0.264 A  
HETATM   27  C   UNL     1     -10.426  16.621  65.762  1.00  0.00    -0.324 A  
HETATM   28  C   UNL     1     -10.814  15.527  64.989  1.00  0.00    -0.468 A  
ENDBRANCH  21  23
ENDBRANCH  20  21
ENDBRANCH  19  20
ENDBRANCH  16  19
ENDBRANCH  14  15
ENDBRANCH  12  14
ENDBRANCH   9  10
ENDBRANCH   6   9
ENDBRANCH   3   5
TORSDOF 9
ENDMDL
MODEL      235
REMARK 921   NORMALIZED FREE ENERGY PREDICTED BY IDOCK:   -4.51 KCAL/MOL
REMARK 922        TOTAL FREE ENERGY PREDICTED BY IDOCK:   -7.72 KCAL/MOL
REMARK 923 INTER-LIGAND FREE ENERGY PREDICTED BY IDOCK:   -6.78 KCAL/MOL
REMARK 924 INTRA-LIGAND FREE ENERGY PREDICTED BY IDOCK:   -0.94 KCAL/MOL
REMARK 927      BINDING AFFINITY PREDICTED BY RF-SCORE:    0.00 PKD
ROOT
HETATM    1  O   UNL     1      -7.392  14.000  69.131  1.00  0.00    -0.110 OA 
HETATM    2  C   UNL     1      -6.072  13.942  68.832  1.00  0.00    -0.087 C  
HETATM    3  C   UNL     1      -5.739  13.048  67.642  1.00  0.00    -0.118 C  
HETATM    4  O   UNL     1      -5.228  14.534  69.486  1.00  0.00    -0.091 OA 
ENDROOT
BRANCH   3   5
HETATM    5  N   UNL     1      -6.920  12.428  67.054  1.00  0.00    -0.359 N  
HETATM    6  C   UNL     1      -6.964  11.084  66.748  1.00  0.00    -0.131 C  
HETATM    7  H   UNL     1      -7.739  13.006  66.861  1.00  0.00     0.000 HD 
HETATM    8  O   UNL     1      -6.004  10.337  66.913  1.00  0.00    -0.050 OA 
BRANCH   6   9
HETATM    9  C   UNL     1      -8.284  10.586  66.145  1.00  0.00    -0.151 C  
BRANCH   9  10
HETATM   10  N   UNL     1      -8.984  11.594  65.366  1.00  0.00    -0.405 N  
HETATM   11  H   UNL     1      -8.883  12.574  65.627  1.00  0.00     0.000 HD 
HETATM   12  C   UNL     1      -9.778  11.273  64.288  1.00  0.00    -0.256 C  
HETATM   13  O   UNL     1      -9.919  10.117  63.899  1.00  0.00    -0.213 OA 
BRANCH  12  14
HETATM   14  C   UNL     1     -10.471  12.466  63.616  1.00  0.00    -0.426 C  
BRANCH  14  15
HETATM   15  N   UNL     1     -10.343  13.705  64.378  1.00  0.00    -0.659 N  
HETATM   16  C   UNL     1     -11.444  14.289  64.973  1.00  0.00    -0.364 C  
HETATM   17  H   UNL     1      -9.427  14.146  64.473  1.00  0.00     0.000 HD 
HETATM   18  O   UNL     1     -12.586  13.884  64.774  1.00  0.00    -0.603 OA 
BRANCH  16  19
HETATM   19  C   UNL     1     -11.137  15.515  65.816  1.00  0.00    -0.217 C  
BRANCH  19  20
HETATM   20  S   UNL     1     -10.190  15.099  67.296  1.00  0.00    -0.245 SA 
BRANCH  20  21
HETATM   21  C   UNL     1     -10.914  16.209  68.451  1.00  0.00    -0.341 C  
HETATM   22  O   UNL     1     -10.884  17.423  68.268  1.00  0.00    -0.355 OA 
BRANCH  21  23
HETATM   23  C   UNL     1     -11.547  15.618  69.662  1.00  0.00    -0.364 A  
HETATM   24  C   UNL     1     -12.746  14.908  69.521  1.00  0.00     0.088 A  
HETATM   25  C   UNL     1     -13.390  14.388  70.647  1.00  0.00    -0.107 A  
HETATM   26  C   UNL     1     -12.846  14.582  71.917  1.00  0.00    -0.410 A  
HETATM   27  C   UNL     1     -11.653  15.286  72.063  1.00  0.00    -0.529 A  
HETATM   28  C   UNL     1     -11.005  15.804  70.942  1.00  0.00    -0.277 A  
ENDBRANCH  21  23
ENDBRANCH  20  21
ENDBRANCH  19  20
ENDBRANCH  16  19
ENDBRANCH  14  15
ENDBRANCH  12  14
ENDBRANCH   9  10
ENDBRANCH   6   9
ENDBRANCH   3   5
TORSDOF 9
ENDMDL
MODEL      236
REMARK 921   NORMALIZED FREE ENERGY PREDICTED BY IDOCK:   -4.50 KCAL/MOL
REMARK 922        TOTAL FREE ENERGY PREDICTED BY IDOCK:   -7.72 KCAL/MOL
REMARK 923 INTER-LIGAND FREE ENERGY PREDICTED BY IDOCK:   -6.82 KCAL/MOL
REMARK 924 INTRA-LIGAND FREE ENERGY PREDICTED BY IDOCK:   -0.90 KCAL/MOL
REMARK 927      BINDING AFFINITY PREDICTED BY RF-SCORE:    0.00 PKD
ROOT
HETATM    1  O   UNL     1     -13.282  12.954  65.012  1.00  0.00    -0.765 OA 
HETATM    2  C   UNL     1     -12.300  12.988  64.080  1.00  0.00    -0.358 C  
HETATM    3  C   UNL     1     -10.953  12.469  64.572  1.00  0.00    -0.323 C  
HETATM    4  O   UNL     1     -12.481  13.427  62.956  1.00  0.00    -0.667 OA 
ENDROOT
BRANCH   3   5
HETATM    5  N   UNL     1     -10.990  12.031  65.963  1.00  0.00    -0.293 N  
HETATM    6  C   UNL     1     -10.401  10.855  66.375  1.00  0.00    -0.251 C  
HETATM    7  H   UNL     1     -11.468  12.613  66.652  1.00  0.00     0.000 HD 
HETATM    8  O   UNL     1      -9.847  10.086  65.596  1.00  0.00    -0.257 OA 
BRANCH   6   9
HETATM    9  C   UNL     1     -10.520  10.546  67.873  1.00  0.00    -0.210 C  
BRANCH   9  10
HETATM   10  N   UNL     1      -9.381  11.001  68.653  1.00  0.00    -0.190 N  
HETATM   11  H   UNL     1      -9.373  11.961  68.996  1.00  0.00     0.000 HD 
HETATM   12  C   UNL     1      -8.313  10.182  68.946  1.00  0.00    -0.130 C  
HETATM   13  O   UNL     1      -8.272   9.007  68.592  1.00  0.00    -0.115 OA 
BRANCH  12  14
HETATM   14  C   UNL     1      -7.185  10.851  69.742  1.00  0.00    -0.054 C  
BRANCH  14  15
HETATM   15  N   UNL     1      -6.905  12.215  69.304  1.00  0.00    -0.236 N  
HETATM   16  C   UNL     1      -6.134  12.457  68.185  1.00  0.00    -0.065 C  
HETATM   17  H   UNL     1      -7.286  13.001  69.832  1.00  0.00     0.000 HD 
HETATM   18  O   UNL     1      -5.535  11.559  67.597  1.00  0.00    -0.046 OA 
BRANCH  16  19
HETATM   19  C   UNL     1      -6.017  13.921  67.795  1.00  0.00    -0.108 C  
BRANCH  19  20
HETATM   20  S   UNL     1      -7.631  14.726  67.698  1.00  0.00    -0.188 SA 
BRANCH  20  21
HETATM   21  C   UNL     1      -7.160  16.288  67.044  1.00  0.00    -0.224 C  
HETATM   22  O   UNL     1      -5.989  16.531  66.763  1.00  0.00    -0.309 OA 
BRANCH  21  23
HETATM   23  C   UNL     1      -8.232  17.304  66.863  1.00  0.00    -0.256 A  
HETATM   24  C   UNL     1      -9.491  16.886  66.410  1.00  0.00    -0.306 A  
HETATM   25  C   UNL     1     -10.500  17.826  66.180  1.00  0.00    -0.301 A  
HETATM   26  C   UNL     1     -10.257  19.182  66.391  1.00  0.00    -0.515 A  
HETATM   27  C   UNL     1      -9.008  19.603  66.844  1.00  0.00    -0.395 A  
HETATM   28  C   UNL     1      -7.998  18.670  67.078  1.00  0.00    -0.254 A  
ENDBRANCH  21  23
ENDBRANCH  20  21
ENDBRANCH  19  20
ENDBRANCH  16  19
ENDBRANCH  14  15
ENDBRANCH  12  14
ENDBRANCH   9  10
ENDBRANCH   6   9
ENDBRANCH   3   5
TORSDOF 9
ENDMDL
MODEL      237
REMARK 921   NORMALIZED FREE ENERGY PREDICTED BY IDOCK:   -4.50 KCAL/MOL
REMARK 922        TOTAL FREE ENERGY PREDICTED BY IDOCK:   -7.71 KCAL/MOL
REMARK 923 INTER-LIGAND FREE ENERGY PREDICTED BY IDOCK:   -6.60 KCAL/MOL
REMARK 924 INTRA-LIGAND FREE ENERGY PREDICTED BY IDOCK:   -1.11 KCAL/MOL
REMARK 927      BINDING AFFINITY PREDICTED BY RF-SCORE:    0.00 PKD
ROOT
HETATM    1  O   UNL     1      -7.521   5.853  67.660  1.00  0.00    -0.076 OA 
HETATM    2  C   UNL     1      -8.567   5.043  67.370  1.00  0.00    -0.104 C  
HETATM    3  C   UNL     1      -9.440   5.537  66.221  1.00  0.00    -0.157 C  
HETATM    4  O   UNL     1      -8.798   4.024  67.999  1.00  0.00    -0.097 OA 
ENDROOT
BRANCH   3   5
HETATM    5  N   UNL     1      -8.970   6.797  65.656  1.00  0.00    -0.358 N  
HETATM    6  C   UNL     1      -9.493   8.012  66.045  1.00  0.00    -0.053 C  
HETATM    7  H   UNL     1      -8.232   6.779  64.951  1.00  0.00     0.000 HD 
HETATM    8  O   UNL     1     -10.410   8.108  66.855  1.00  0.00    -0.303 OA 
BRANCH   6   9
HETATM    9  C   UNL     1      -8.881   9.243  65.363  1.00  0.00    -0.192 C  
BRANCH   9  10
HETATM   10  N   UNL     1      -9.862  10.245  64.982  1.00  0.00    -0.310 N  
HETATM   11  H   UNL     1     -10.431  10.676  65.710  1.00  0.00     0.000 HD 
HETATM   12  C   UNL     1     -10.052  10.633  63.675  1.00  0.00    -0.245 C  
HETATM   13  O   UNL     1      -9.381  10.178  62.752  1.00  0.00    -0.284 OA 
BRANCH  12  14
HETATM   14  C   UNL     1     -11.163  11.670  63.462  1.00  0.00    -0.373 C  
BRANCH  14  15
HETATM   15  N   UNL     1     -10.995  12.865  64.284  1.00  0.00    -0.365 N  
HETATM   16  C   UNL     1     -11.992  13.282  65.142  1.00  0.00    -0.381 C  
HETATM   17  H   UNL     1     -10.128  13.400  64.223  1.00  0.00     0.000 HD 
HETATM   18  O   UNL     1     -13.105  12.763  65.152  1.00  0.00    -0.750 OA 
BRANCH  16  19
HETATM   19  C   UNL     1     -11.631  14.479  66.005  1.00  0.00    -0.356 C  
BRANCH  19  20
HETATM   20  S   UNL     1     -10.793  13.989  67.527  1.00  0.00    -0.273 SA 
BRANCH  20  21
HETATM   21  C   UNL     1      -9.164  13.736  66.917  1.00  0.00    -0.255 C  
HETATM   22  O   UNL     1      -8.821  12.650  66.456  1.00  0.00    -0.172 OA 
BRANCH  21  23
HETATM   23  C   UNL     1      -8.218  14.882  67.000  1.00  0.00    -0.228 A  
HETATM   24  C   UNL     1      -8.455  16.013  66.207  1.00  0.00    -0.337 A  
HETATM   25  C   UNL     1      -7.554  17.082  66.224  1.00  0.00    -0.340 A  
HETATM   26  C   UNL     1      -6.413  17.024  67.022  1.00  0.00    -0.233 A  
HETATM   27  C   UNL     1      -6.173  15.904  67.814  1.00  0.00    -0.166 A  
HETATM   28  C   UNL     1      -7.070  14.835  67.804  1.00  0.00    -0.191 A  
ENDBRANCH  21  23
ENDBRANCH  20  21
ENDBRANCH  19  20
ENDBRANCH  16  19
ENDBRANCH  14  15
ENDBRANCH  12  14
ENDBRANCH   9  10
ENDBRANCH   6   9
ENDBRANCH   3   5
TORSDOF 9
ENDMDL
MODEL      238
REMARK 921   NORMALIZED FREE ENERGY PREDICTED BY IDOCK:   -4.50 KCAL/MOL
REMARK 922        TOTAL FREE ENERGY PREDICTED BY IDOCK:   -7.71 KCAL/MOL
REMARK 923 INTER-LIGAND FREE ENERGY PREDICTED BY IDOCK:   -6.80 KCAL/MOL
REMARK 924 INTRA-LIGAND FREE ENERGY PREDICTED BY IDOCK:   -0.91 KCAL/MOL
REMARK 927      BINDING AFFINITY PREDICTED BY RF-SCORE:    0.00 PKD
ROOT
HETATM    1  O   UNL     1     -10.240  15.473  66.676  1.00  0.00    -0.261 OA 
HETATM    2  C   UNL     1     -10.021  16.573  65.916  1.00  0.00    -0.317 C  
HETATM    3  C   UNL     1      -8.986  17.534  66.492  1.00  0.00    -0.261 C  
HETATM    4  O   UNL     1     -10.626  16.780  64.877  1.00  0.00    -0.702 OA 
ENDROOT
BRANCH   3   5
HETATM    5  N   UNL     1      -8.431  17.073  67.759  1.00  0.00    -0.196 N  
HETATM    6  C   UNL     1      -7.083  16.832  67.923  1.00  0.00    -0.141 C  
HETATM    7  H   UNL     1      -9.059  16.924  68.550  1.00  0.00     0.000 HD 
HETATM    8  O   UNL     1      -6.276  16.950  67.006  1.00  0.00    -0.157 OA 
BRANCH   6   9
HETATM    9  C   UNL     1      -6.660  16.364  69.321  1.00  0.00    -0.206 C  
BRANCH   9  10
HETATM   10  N   UNL     1      -6.548  14.920  69.441  1.00  0.00    -0.130 N  
HETATM   11  H   UNL     1      -6.978  14.333  68.727  1.00  0.00     0.000 HD 
HETATM   12  C   UNL     1      -5.883  14.316  70.484  1.00  0.00    -0.173 C  
HETATM   13  O   UNL     1      -5.316  14.961  71.362  1.00  0.00    -0.136 OA 
BRANCH  12  14
HETATM   14  C   UNL     1      -5.908  12.781  70.466  1.00  0.00    -0.132 C  
BRANCH  14  15
HETATM   15  N   UNL     1      -6.982  12.236  69.641  1.00  0.00    -0.338 N  
HETATM   16  C   UNL     1      -7.403  10.931  69.796  1.00  0.00    -0.007 C  
HETATM   17  H   UNL     1      -7.429  12.829  68.941  1.00  0.00     0.000 HD 
HETATM   18  O   UNL     1      -6.810  10.134  70.519  1.00  0.00    -0.215 OA 
BRANCH  16  19
HETATM   19  C   UNL     1      -8.596  10.540  68.940  1.00  0.00    -0.153 C  
BRANCH  19  20
HETATM   20  S   UNL     1      -8.473  11.201  67.264  1.00  0.00    -0.141 SA 
BRANCH  20  21
HETATM   21  C   UNL     1      -9.922  10.508  66.550  1.00  0.00    -0.214 C  
HETATM   22  O   UNL     1     -10.281   9.367  66.825  1.00  0.00    -0.238 OA 
BRANCH  21  23
HETATM   23  C   UNL     1     -10.681  11.354  65.588  1.00  0.00    -0.301 A  
HETATM   24  C   UNL     1     -11.750  12.125  66.062  1.00  0.00    -0.388 A  
HETATM   25  C   UNL     1     -12.513  12.887  65.173  1.00  0.00    -0.561 A  
HETATM   26  C   UNL     1     -12.220  12.876  63.810  1.00  0.00    -0.555 A  
HETATM   27  C   UNL     1     -11.157  12.112  63.333  1.00  0.00    -0.495 A  
HETATM   28  C   UNL     1     -10.390  11.352  64.215  1.00  0.00    -0.383 A  
ENDBRANCH  21  23
ENDBRANCH  20  21
ENDBRANCH  19  20
ENDBRANCH  16  19
ENDBRANCH  14  15
ENDBRANCH  12  14
ENDBRANCH   9  10
ENDBRANCH   6   9
ENDBRANCH   3   5
TORSDOF 9
ENDMDL
MODEL      239
REMARK 921   NORMALIZED FREE ENERGY PREDICTED BY IDOCK:   -4.48 KCAL/MOL
REMARK 922        TOTAL FREE ENERGY PREDICTED BY IDOCK:   -7.68 KCAL/MOL
REMARK 923 INTER-LIGAND FREE ENERGY PREDICTED BY IDOCK:   -6.93 KCAL/MOL
REMARK 924 INTRA-LIGAND FREE ENERGY PREDICTED BY IDOCK:   -0.75 KCAL/MOL
REMARK 927      BINDING AFFINITY PREDICTED BY RF-SCORE:    0.00 PKD
ROOT
HETATM    1  O   UNL     1     -10.878   6.466  70.187  1.00  0.00    -0.243 OA 
HETATM    2  C   UNL     1     -10.099   5.808  71.078  1.00  0.00    -0.205 C  
HETATM    3  C   UNL     1      -8.676   6.347  71.183  1.00  0.00    -0.135 C  
HETATM    4  O   UNL     1     -10.502   4.847  71.713  1.00  0.00    -0.200 OA 
ENDROOT
BRANCH   3   5
HETATM    5  N   UNL     1      -8.434   7.479  70.296  1.00  0.00    -0.137 N  
HETATM    6  C   UNL     1      -8.611   8.783  70.709  1.00  0.00    -0.187 C  
HETATM    7  H   UNL     1      -8.126   7.301  69.339  1.00  0.00     0.000 HD 
HETATM    8  O   UNL     1      -9.019   9.071  71.830  1.00  0.00    -0.343 OA 
BRANCH   6   9
HETATM    9  C   UNL     1      -8.302   9.857  69.658  1.00  0.00    -0.172 C  
BRANCH   9  10
HETATM   10  N   UNL     1      -9.325   9.977  68.633  1.00  0.00    -0.151 N  
HETATM   11  H   UNL     1     -10.304  10.001  68.915  1.00  0.00     0.000 HD 
HETATM   12  C   UNL     1      -9.020  10.060  67.292  1.00  0.00    -0.135 C  
HETATM   13  O   UNL     1      -7.862  10.069  66.883  1.00  0.00    -0.104 OA 
BRANCH  12  14
HETATM   14  C   UNL     1     -10.233  10.137  66.356  1.00  0.00    -0.221 C  
BRANCH  14  15
HETATM   15  N   UNL     1     -10.725  11.499  66.168  1.00  0.00    -0.267 N  
HETATM   16  C   UNL     1     -11.629  12.055  67.051  1.00  0.00    -0.317 C  
HETATM   17  H   UNL     1     -10.396  12.047  65.373  1.00  0.00     0.000 HD 
HETATM   18  O   UNL     1     -12.164  11.397  67.939  1.00  0.00    -0.592 OA 
BRANCH  16  19
HETATM   19  C   UNL     1     -11.967  13.512  66.783  1.00  0.00    -0.404 C  
BRANCH  19  20
HETATM   20  S   UNL     1     -10.492  14.551  66.727  1.00  0.00    -0.274 SA 
BRANCH  20  21
HETATM   21  C   UNL     1     -10.948  15.802  67.875  1.00  0.00    -0.324 C  
HETATM   22  O   UNL     1     -11.889  15.640  68.647  1.00  0.00    -0.372 OA 
BRANCH  21  23
HETATM   23  C   UNL     1     -10.161  17.065  67.857  1.00  0.00    -0.317 A  
HETATM   24  C   UNL     1      -8.914  17.094  68.495  1.00  0.00    -0.265 A  
HETATM   25  C   UNL     1      -8.177  18.281  68.540  1.00  0.00    -0.329 A  
HETATM   26  C   UNL     1      -8.684  19.443  67.960  1.00  0.00    -0.362 A  
HETATM   27  C   UNL     1      -9.922  19.420  67.323  1.00  0.00    -0.470 A  
HETATM   28  C   UNL     1     -10.661  18.237  67.271  1.00  0.00    -0.406 A  
ENDBRANCH  21  23
ENDBRANCH  20  21
ENDBRANCH  19  20
ENDBRANCH  16  19
ENDBRANCH  14  15
ENDBRANCH  12  14
ENDBRANCH   9  10
ENDBRANCH   6   9
ENDBRANCH   3   5
TORSDOF 9
ENDMDL
MODEL      240
REMARK 921   NORMALIZED FREE ENERGY PREDICTED BY IDOCK:   -4.48 KCAL/MOL
REMARK 922        TOTAL FREE ENERGY PREDICTED BY IDOCK:   -7.68 KCAL/MOL
REMARK 923 INTER-LIGAND FREE ENERGY PREDICTED BY IDOCK:   -7.40 KCAL/MOL
REMARK 924 INTRA-LIGAND FREE ENERGY PREDICTED BY IDOCK:   -0.28 KCAL/MOL
REMARK 927      BINDING AFFINITY PREDICTED BY RF-SCORE:    0.00 PKD
ROOT
HETATM    1  O   UNL     1     -13.343   7.967  71.746  1.00  0.00    -0.332 OA 
HETATM    2  C   UNL     1     -12.351   7.105  71.417  1.00  0.00    -0.377 C  
HETATM    3  C   UNL     1     -11.444   7.596  70.294  1.00  0.00    -0.127 C  
HETATM    4  O   UNL     1     -12.222   6.020  71.958  1.00  0.00    -0.257 OA 
ENDROOT
BRANCH   3   5
HETATM    5  N   UNL     1     -11.827   8.912  69.792  1.00  0.00    -0.149 N  
HETATM    6  C   UNL     1     -11.339  10.076  70.347  1.00  0.00    -0.320 C  
HETATM    7  H   UNL     1     -12.476   8.972  69.007  1.00  0.00     0.000 HD 
HETATM    8  O   UNL     1     -10.589  10.081  71.318  1.00  0.00    -0.071 OA 
BRANCH   6   9
HETATM    9  C   UNL     1     -11.832  11.375  69.695  1.00  0.00    -0.362 C  
BRANCH   9  10
HETATM   10  N   UNL     1     -11.374  11.549  68.328  1.00  0.00    -0.259 N  
HETATM   11  H   UNL     1     -12.058  11.770  67.605  1.00  0.00     0.000 HD 
HETATM   12  C   UNL     1     -10.049  11.427  67.972  1.00  0.00    -0.180 C  
HETATM   13  O   UNL     1      -9.168  11.193  68.795  1.00  0.00    -0.180 OA 
BRANCH  12  14
HETATM   14  C   UNL     1      -9.762  11.602  66.474  1.00  0.00    -0.206 C  
BRANCH  14  15
HETATM   15  N   UNL     1      -9.296  12.943  66.134  1.00  0.00    -0.441 N  
HETATM   16  C   UNL     1     -10.192  13.955  65.855  1.00  0.00    -0.315 C  
HETATM   17  H   UNL     1      -8.295  13.134  66.102  1.00  0.00     0.000 HD 
HETATM   18  O   UNL     1     -11.397  13.749  65.739  1.00  0.00    -0.300 OA 
BRANCH  16  19
HETATM   19  C   UNL     1      -9.561  15.318  65.620  1.00  0.00    -0.278 C  
BRANCH  19  20
HETATM   20  S   UNL     1      -8.169  15.619  66.730  1.00  0.00    -0.243 SA 
BRANCH  20  21
HETATM   21  C   UNL     1      -7.845  17.309  66.370  1.00  0.00    -0.310 C  
HETATM   22  O   UNL     1      -6.913  17.634  65.639  1.00  0.00    -0.374 OA 
BRANCH  21  23
HETATM   23  C   UNL     1      -8.733  18.325  66.999  1.00  0.00    -0.265 A  
HETATM   24  C   UNL     1      -9.049  19.485  66.280  1.00  0.00    -0.403 A  
HETATM   25  C   UNL     1      -9.837  20.480  66.866  1.00  0.00    -0.506 A  
HETATM   26  C   UNL     1     -10.303  20.326  68.172  1.00  0.00    -0.357 A  
HETATM   27  C   UNL     1      -9.994  19.174  68.890  1.00  0.00    -0.481 A  
HETATM   28  C   UNL     1      -9.211  18.176  68.309  1.00  0.00    -0.307 A  
ENDBRANCH  21  23
ENDBRANCH  20  21
ENDBRANCH  19  20
ENDBRANCH  16  19
ENDBRANCH  14  15
ENDBRANCH  12  14
ENDBRANCH   9  10
ENDBRANCH   6   9
ENDBRANCH   3   5
TORSDOF 9
ENDMDL
MODEL      241
REMARK 921   NORMALIZED FREE ENERGY PREDICTED BY IDOCK:   -4.47 KCAL/MOL
REMARK 922        TOTAL FREE ENERGY PREDICTED BY IDOCK:   -7.67 KCAL/MOL
REMARK 923 INTER-LIGAND FREE ENERGY PREDICTED BY IDOCK:   -6.98 KCAL/MOL
REMARK 924 INTRA-LIGAND FREE ENERGY PREDICTED BY IDOCK:   -0.69 KCAL/MOL
REMARK 927      BINDING AFFINITY PREDICTED BY RF-SCORE:    0.00 PKD
ROOT
HETATM    1  O   UNL     1     -12.427  12.467  65.654  1.00  0.00    -0.648 OA 
HETATM    2  C   UNL     1     -11.637  11.975  64.670  1.00  0.00    -0.297 C  
HETATM    3  C   UNL     1     -10.388  11.257  65.172  1.00  0.00    -0.295 C  
HETATM    4  O   UNL     1     -11.897  12.124  63.488  1.00  0.00    -0.464 OA 
ENDROOT
BRANCH   3   5
HETATM    5  N   UNL     1     -10.291  11.243  66.627  1.00  0.00    -0.229 N  
HETATM    6  C   UNL     1     -10.483  10.091  67.361  1.00  0.00    -0.260 C  
HETATM    7  H   UNL     1     -10.075  12.111  67.118  1.00  0.00     0.000 HD 
HETATM    8  O   UNL     1     -10.786   9.021  66.843  1.00  0.00    -0.155 OA 
BRANCH   6   9
HETATM    9  C   UNL     1     -10.335  10.243  68.880  1.00  0.00    -0.204 C  
BRANCH   9  10
HETATM   10  N   UNL     1      -9.238  11.111  69.273  1.00  0.00    -0.399 N  
HETATM   11  H   UNL     1      -9.442  12.078  69.525  1.00  0.00     0.000 HD 
HETATM   12  C   UNL     1      -7.932  10.676  69.318  1.00  0.00    -0.135 C  
HETATM   13  O   UNL     1      -7.618   9.518  69.058  1.00  0.00    -0.072 OA 
BRANCH  12  14
HETATM   14  C   UNL     1      -6.906  11.747  69.713  1.00  0.00     0.090 C  
BRANCH  14  15
HETATM   15  N   UNL     1      -7.283  13.089  69.278  1.00  0.00    -0.314 N  
HETATM   16  C   UNL     1      -7.675  13.329  67.976  1.00  0.00    -0.147 C  
HETATM   17  H   UNL     1      -7.256  13.860  69.946  1.00  0.00     0.000 HD 
HETATM   18  O   UNL     1      -7.589  12.473  67.099  1.00  0.00    -0.148 OA 
BRANCH  16  19
HETATM   19  C   UNL     1      -8.135  14.751  67.701  1.00  0.00    -0.170 C  
BRANCH  19  20
HETATM   20  S   UNL     1      -9.872  14.817  67.212  1.00  0.00    -0.232 SA 
BRANCH  20  21
HETATM   21  C   UNL     1     -10.446  16.094  68.276  1.00  0.00    -0.276 C  
HETATM   22  O   UNL     1     -11.193  15.846  69.218  1.00  0.00    -0.288 OA 
BRANCH  21  23
HETATM   23  C   UNL     1     -10.003  17.483  67.976  1.00  0.00    -0.310 A  
HETATM   24  C   UNL     1      -8.997  18.058  68.765  1.00  0.00    -0.221 A  
HETATM   25  C   UNL     1      -8.599  19.379  68.541  1.00  0.00    -0.401 A  
HETATM   26  C   UNL     1      -9.207  20.133  67.538  1.00  0.00    -0.487 A  
HETATM   27  C   UNL     1     -10.205  19.567  66.749  1.00  0.00    -0.543 A  
HETATM   28  C   UNL     1     -10.605  18.248  66.966  1.00  0.00    -0.375 A  
ENDBRANCH  21  23
ENDBRANCH  20  21
ENDBRANCH  19  20
ENDBRANCH  16  19
ENDBRANCH  14  15
ENDBRANCH  12  14
ENDBRANCH   9  10
ENDBRANCH   6   9
ENDBRANCH   3   5
TORSDOF 9
ENDMDL
MODEL      242
REMARK 921   NORMALIZED FREE ENERGY PREDICTED BY IDOCK:   -4.45 KCAL/MOL
REMARK 922        TOTAL FREE ENERGY PREDICTED BY IDOCK:   -7.64 KCAL/MOL
REMARK 923 INTER-LIGAND FREE ENERGY PREDICTED BY IDOCK:   -7.06 KCAL/MOL
REMARK 924 INTRA-LIGAND FREE ENERGY PREDICTED BY IDOCK:   -0.57 KCAL/MOL
REMARK 927      BINDING AFFINITY PREDICTED BY RF-SCORE:    0.00 PKD
ROOT
HETATM    1  O   UNL     1     -13.658  13.983  65.607  1.00  0.00    -0.499 OA 
HETATM    2  C   UNL     1     -12.570  13.637  64.878  1.00  0.00    -0.336 C  
HETATM    3  C   UNL     1     -11.419  13.072  65.703  1.00  0.00    -0.333 C  
HETATM    4  O   UNL     1     -12.517  13.796  63.670  1.00  0.00    -0.718 OA 
ENDROOT
BRANCH   3   5
HETATM    5  N   UNL     1     -11.720  13.015  67.129  1.00  0.00    -0.367 N  
HETATM    6  C   UNL     1     -11.738  11.824  67.825  1.00  0.00    -0.267 C  
HETATM    7  H   UNL     1     -11.925  13.882  67.627  1.00  0.00     0.000 HD 
HETATM    8  O   UNL     1     -11.544  10.740  67.284  1.00  0.00    -0.439 OA 
BRANCH   6   9
HETATM    9  C   UNL     1     -12.062  11.938  69.320  1.00  0.00    -0.210 C  
BRANCH   9  10
HETATM   10  N   UNL     1     -12.602  10.717  69.893  1.00  0.00    -0.495 N  
HETATM   11  H   UNL     1     -12.616   9.871  69.323  1.00  0.00     0.000 HD 
HETATM   12  C   UNL     1     -13.096  10.659  71.176  1.00  0.00    -0.322 C  
HETATM   13  O   UNL     1     -13.082  11.630  71.928  1.00  0.00    -0.478 OA 
BRANCH  12  14
HETATM   14  C   UNL     1     -13.665   9.296  71.591  1.00  0.00    -0.354 C  
BRANCH  14  15
HETATM   15  N   UNL     1     -12.765   8.540  72.458  1.00  0.00    -0.566 N  
HETATM   16  C   UNL     1     -11.549   8.084  71.993  1.00  0.00    -0.316 C  
HETATM   17  H   UNL     1     -13.040   8.347  73.422  1.00  0.00     0.000 HD 
HETATM   18  O   UNL     1     -11.230   8.163  70.809  1.00  0.00    -0.257 OA 
BRANCH  16  19
HETATM   19  C   UNL     1     -10.680   7.405  73.039  1.00  0.00    -0.364 C  
BRANCH  19  20
HETATM   20  S   UNL     1      -9.222   6.630  72.308  1.00  0.00    -0.135 SA 
BRANCH  20  21
HETATM   21  C   UNL     1      -8.280   6.312  73.758  1.00  0.00    -0.109 C  
HETATM   22  O   UNL     1      -8.000   7.215  74.542  1.00  0.00    -0.138 OA 
BRANCH  21  23
HETATM   23  C   UNL     1      -7.823   4.913  73.983  1.00  0.00    -0.101 A  
HETATM   24  C   UNL     1      -8.781   3.918  74.217  1.00  0.00    -0.095 A  
HETATM   25  C   UNL     1      -8.379   2.606  74.484  1.00  0.00    -0.067 A  
HETATM   26  C   UNL     1      -7.023   2.285  74.529  1.00  0.00    -0.027 A  
HETATM   27  C   UNL     1      -6.066   3.270  74.295  1.00  0.00    -0.015 A  
HETATM   28  C   UNL     1      -6.461   4.580  74.025  1.00  0.00    -0.053 A  
ENDBRANCH  21  23
ENDBRANCH  20  21
ENDBRANCH  19  20
ENDBRANCH  16  19
ENDBRANCH  14  15
ENDBRANCH  12  14
ENDBRANCH   9  10
ENDBRANCH   6   9
ENDBRANCH   3   5
TORSDOF 9
ENDMDL
MODEL      243
REMARK 921   NORMALIZED FREE ENERGY PREDICTED BY IDOCK:   -4.45 KCAL/MOL
REMARK 922        TOTAL FREE ENERGY PREDICTED BY IDOCK:   -7.63 KCAL/MOL
REMARK 923 INTER-LIGAND FREE ENERGY PREDICTED BY IDOCK:   -6.40 KCAL/MOL
REMARK 924 INTRA-LIGAND FREE ENERGY PREDICTED BY IDOCK:   -1.24 KCAL/MOL
REMARK 927      BINDING AFFINITY PREDICTED BY RF-SCORE:    0.00 PKD
ROOT
HETATM    1  O   UNL     1     -10.604  13.944  67.653  1.00  0.00    -0.243 OA 
HETATM    2  C   UNL     1     -11.496  13.060  68.160  1.00  0.00    -0.319 C  
HETATM    3  C   UNL     1     -11.901  11.956  67.190  1.00  0.00    -0.139 C  
HETATM    4  O   UNL     1     -11.953  13.166  69.286  1.00  0.00    -0.311 OA 
ENDROOT
BRANCH   3   5
HETATM    5  N   UNL     1     -11.238  12.070  65.895  1.00  0.00    -0.329 N  
HETATM    6  C   UNL     1     -11.941  12.317  64.734  1.00  0.00    -0.362 C  
HETATM    7  H   UNL     1     -10.225  11.964  65.847  1.00  0.00     0.000 HD 
HETATM    8  O   UNL     1     -13.163  12.414  64.710  1.00  0.00    -0.784 OA 
BRANCH   6   9
HETATM    9  C   UNL     1     -11.093  12.420  63.459  1.00  0.00    -0.458 C  
BRANCH   9  10
HETATM   10  N   UNL     1     -10.554  11.146  63.015  1.00  0.00    -0.801 N  
HETATM   11  H   UNL     1     -11.069  10.612  62.315  1.00  0.00     0.000 HD 
HETATM   12  C   UNL     1      -9.374  10.633  63.504  1.00  0.00    -0.290 C  
HETATM   13  O   UNL     1      -8.687  11.237  64.324  1.00  0.00     0.089 OA 
BRANCH  12  14
HETATM   14  C   UNL     1      -8.987   9.256  62.949  1.00  0.00    -0.102 C  
BRANCH  14  15
HETATM   15  N   UNL     1      -8.645   8.294  63.994  1.00  0.00    -0.396 N  
HETATM   16  C   UNL     1      -7.353   7.831  64.136  1.00  0.00    -0.090 C  
HETATM   17  H   UNL     1      -9.372   7.960  64.627  1.00  0.00     0.000 HD 
HETATM   18  O   UNL     1      -6.473   8.087  63.319  1.00  0.00    -0.074 OA 
BRANCH  16  19
HETATM   19  C   UNL     1      -7.132   6.916  65.329  1.00  0.00    -0.067 C  
BRANCH  19  20
HETATM   20  S   UNL     1      -6.512   7.816  66.766  1.00  0.00    -0.056 SA 
BRANCH  20  21
HETATM   21  C   UNL     1      -8.024   8.413  67.435  1.00  0.00    -0.106 C  
HETATM   22  O   UNL     1      -8.299   9.610  67.412  1.00  0.00    -0.114 OA 
BRANCH  21  23
HETATM   23  C   UNL     1      -8.943   7.414  68.044  1.00  0.00    -0.132 A  
HETATM   24  C   UNL     1     -10.213   7.231  67.482  1.00  0.00    -0.284 A  
HETATM   25  C   UNL     1     -11.117   6.338  68.064  1.00  0.00    -0.365 A  
HETATM   26  C   UNL     1     -10.762   5.633  69.214  1.00  0.00    -0.350 A  
HETATM   27  C   UNL     1      -9.500   5.808  69.776  1.00  0.00    -0.183 A  
HETATM   28  C   UNL     1      -8.593   6.695  69.197  1.00  0.00    -0.130 A  
ENDBRANCH  21  23
ENDBRANCH  20  21
ENDBRANCH  19  20
ENDBRANCH  16  19
ENDBRANCH  14  15
ENDBRANCH  12  14
ENDBRANCH   9  10
ENDBRANCH   6   9
ENDBRANCH   3   5
TORSDOF 9
ENDMDL
MODEL      244
REMARK 921   NORMALIZED FREE ENERGY PREDICTED BY IDOCK:   -4.44 KCAL/MOL
REMARK 922        TOTAL FREE ENERGY PREDICTED BY IDOCK:   -7.62 KCAL/MOL
REMARK 923 INTER-LIGAND FREE ENERGY PREDICTED BY IDOCK:   -6.79 KCAL/MOL
REMARK 924 INTRA-LIGAND FREE ENERGY PREDICTED BY IDOCK:   -0.83 KCAL/MOL
REMARK 927      BINDING AFFINITY PREDICTED BY RF-SCORE:    0.00 PKD
ROOT
HETATM    1  O   UNL     1     -10.831  19.128  66.598  1.00  0.00    -0.395 OA 
HETATM    2  C   UNL     1      -9.506  19.296  66.370  1.00  0.00    -0.365 C  
HETATM    3  C   UNL     1      -8.646  18.106  66.781  1.00  0.00    -0.259 C  
HETATM    4  O   UNL     1      -9.049  20.326  65.902  1.00  0.00    -0.212 OA 
ENDROOT
BRANCH   3   5
HETATM    5  N   UNL     1      -9.428  17.011  67.344  1.00  0.00    -0.240 N  
HETATM    6  C   UNL     1      -9.797  15.914  66.593  1.00  0.00    -0.254 C  
HETATM    7  H   UNL     1      -9.712  17.057  68.323  1.00  0.00     0.000 HD 
HETATM    8  O   UNL     1      -9.528  15.810  65.401  1.00  0.00    -0.321 OA 
BRANCH   6   9
HETATM    9  C   UNL     1     -10.608  14.846  67.338  1.00  0.00    -0.263 C  
BRANCH   9  10
HETATM   10  N   UNL     1     -10.798  13.624  66.576  1.00  0.00    -0.282 N  
HETATM   11  H   UNL     1     -10.120  12.870  66.680  1.00  0.00     0.000 HD 
HETATM   12  C   UNL     1     -11.860  13.447  65.718  1.00  0.00    -0.377 C  
HETATM   13  O   UNL     1     -12.730  14.301  65.567  1.00  0.00    -0.472 OA 
BRANCH  12  14
HETATM   14  C   UNL     1     -11.870  12.109  64.967  1.00  0.00    -0.298 C  
BRANCH  14  15
HETATM   15  N   UNL     1     -10.728  11.260  65.295  1.00  0.00    -0.266 N  
HETATM   16  C   UNL     1      -9.673  11.118  64.416  1.00  0.00    -0.268 C  
HETATM   17  H   UNL     1     -10.709  10.765  66.187  1.00  0.00     0.000 HD 
HETATM   18  O   UNL     1      -9.707  11.573  63.275  1.00  0.00    -0.344 OA 
BRANCH  16  19
HETATM   19  C   UNL     1      -8.514  10.287  64.940  1.00  0.00    -0.177 C  
BRANCH  19  20
HETATM   20  S   UNL     1      -9.060   9.028  66.114  1.00  0.00    -0.215 SA 
BRANCH  20  21
HETATM   21  C   UNL     1      -8.314   9.632  67.587  1.00  0.00    -0.121 C  
HETATM   22  O   UNL     1      -7.158  10.045  67.588  1.00  0.00    -0.085 OA 
BRANCH  21  23
HETATM   23  C   UNL     1      -9.135   9.606  68.829  1.00  0.00    -0.134 A  
HETATM   24  C   UNL     1      -8.798   8.699  69.842  1.00  0.00    -0.144 A  
HETATM   25  C   UNL     1      -9.583   8.615  70.996  1.00  0.00    -0.264 A  
HETATM   26  C   UNL     1     -10.708   9.426  71.139  1.00  0.00    -0.417 A  
HETATM   27  C   UNL     1     -11.046  10.331  70.136  1.00  0.00    -0.385 A  
HETATM   28  C   UNL     1     -10.265  10.422  68.983  1.00  0.00    -0.233 A  
ENDBRANCH  21  23
ENDBRANCH  20  21
ENDBRANCH  19  20
ENDBRANCH  16  19
ENDBRANCH  14  15
ENDBRANCH  12  14
ENDBRANCH   9  10
ENDBRANCH   6   9
ENDBRANCH   3   5
TORSDOF 9
ENDMDL
MODEL      245
REMARK 921   NORMALIZED FREE ENERGY PREDICTED BY IDOCK:   -4.44 KCAL/MOL
REMARK 922        TOTAL FREE ENERGY PREDICTED BY IDOCK:   -7.62 KCAL/MOL
REMARK 923 INTER-LIGAND FREE ENERGY PREDICTED BY IDOCK:   -6.44 KCAL/MOL
REMARK 924 INTRA-LIGAND FREE ENERGY PREDICTED BY IDOCK:   -1.18 KCAL/MOL
REMARK 927      BINDING AFFINITY PREDICTED BY RF-SCORE:    0.00 PKD
ROOT
HETATM    1  O   UNL     1      -6.014   7.124  68.327  1.00  0.00    -0.027 OA 
HETATM    2  C   UNL     1      -5.915   6.187  67.354  1.00  0.00    -0.017 C  
HETATM    3  C   UNL     1      -6.894   6.376  66.201  1.00  0.00    -0.057 C  
HETATM    4  O   UNL     1      -5.126   5.258  67.420  1.00  0.00    -0.004 OA 
ENDROOT
BRANCH   3   5
HETATM    5  N   UNL     1      -7.753   7.543  66.375  1.00  0.00    -0.088 N  
HETATM    6  C   UNL     1      -9.110   7.426  66.592  1.00  0.00    -0.154 C  
HETATM    7  H   UNL     1      -7.337   8.474  66.335  1.00  0.00     0.000 HD 
HETATM    8  O   UNL     1      -9.684   6.343  66.611  1.00  0.00    -0.156 OA 
BRANCH   6   9
HETATM    9  C   UNL     1      -9.867   8.749  66.766  1.00  0.00    -0.247 C  
BRANCH   9  10
HETATM   10  N   UNL     1     -10.001   9.509  65.535  1.00  0.00    -0.399 N  
HETATM   11  H   UNL     1     -10.849   9.399  64.980  1.00  0.00     0.000 HD 
HETATM   12  C   UNL     1      -9.024  10.371  65.090  1.00  0.00    -0.191 C  
HETATM   13  O   UNL     1      -7.992  10.575  65.723  1.00  0.00    -0.151 OA 
BRANCH  12  14
HETATM   14  C   UNL     1      -9.323  11.052  63.747  1.00  0.00    -0.226 C  
BRANCH  14  15
HETATM   15  N   UNL     1      -9.948  12.363  63.897  1.00  0.00    -0.590 N  
HETATM   16  C   UNL     1     -11.311  12.521  63.744  1.00  0.00    -0.466 C  
HETATM   17  H   UNL     1      -9.369  13.173  64.118  1.00  0.00     0.000 HD 
HETATM   18  O   UNL     1     -12.033  11.613  63.340  1.00  0.00    -0.424 OA 
BRANCH  16  19
HETATM   19  C   UNL     1     -11.826  13.921  64.031  1.00  0.00    -0.337 C  
BRANCH  19  20
HETATM   20  S   UNL     1     -12.905  13.962  65.478  1.00  0.00    -0.298 SA 
BRANCH  20  21
HETATM   21  C   UNL     1     -11.883  13.144  66.651  1.00  0.00    -0.391 C  
HETATM   22  O   UNL     1     -11.788  11.920  66.666  1.00  0.00    -0.591 OA 
BRANCH  21  23
HETATM   23  C   UNL     1     -11.154  13.994  67.632  1.00  0.00    -0.298 A  
HETATM   24  C   UNL     1      -9.757  13.908  67.696  1.00  0.00    -0.226 A  
HETATM   25  C   UNL     1      -9.051  14.655  68.644  1.00  0.00    -0.189 A  
HETATM   26  C   UNL     1      -9.734  15.481  69.535  1.00  0.00    -0.282 A  
HETATM   27  C   UNL     1     -11.122  15.573  69.474  1.00  0.00    -0.286 A  
HETATM   28  C   UNL     1     -11.832  14.833  68.529  1.00  0.00    -0.340 A  
ENDBRANCH  21  23
ENDBRANCH  20  21
ENDBRANCH  19  20
ENDBRANCH  16  19
ENDBRANCH  14  15
ENDBRANCH  12  14
ENDBRANCH   9  10
ENDBRANCH   6   9
ENDBRANCH   3   5
TORSDOF 9
ENDMDL
MODEL      246
REMARK 921   NORMALIZED FREE ENERGY PREDICTED BY IDOCK:   -4.43 KCAL/MOL
REMARK 922        TOTAL FREE ENERGY PREDICTED BY IDOCK:   -7.60 KCAL/MOL
REMARK 923 INTER-LIGAND FREE ENERGY PREDICTED BY IDOCK:   -7.02 KCAL/MOL
REMARK 924 INTRA-LIGAND FREE ENERGY PREDICTED BY IDOCK:   -0.58 KCAL/MOL
REMARK 927      BINDING AFFINITY PREDICTED BY RF-SCORE:    0.00 PKD
ROOT
HETATM    1  O   UNL     1     -12.131   9.427  70.869  1.00  0.00    -0.289 OA 
HETATM    2  C   UNL     1     -12.927   8.803  71.769  1.00  0.00    -0.361 C  
HETATM    3  C   UNL     1     -12.555   7.347  72.029  1.00  0.00    -0.230 C  
HETATM    4  O   UNL     1     -13.877   9.358  72.297  1.00  0.00    -0.443 OA 
ENDROOT
BRANCH   3   5
HETATM    5  N   UNL     1     -11.401   6.912  71.250  1.00  0.00    -0.266 N  
HETATM    6  C   UNL     1     -10.726   5.743  71.534  1.00  0.00    -0.258 C  
HETATM    7  H   UNL     1     -11.083   7.489  70.472  1.00  0.00     0.000 HD 
HETATM    8  O   UNL     1     -11.026   5.021  72.480  1.00  0.00    -0.220 OA 
BRANCH   6   9
HETATM    9  C   UNL     1      -9.542   5.423  70.612  1.00  0.00    -0.172 C  
BRANCH   9  10
HETATM   10  N   UNL     1      -9.877   5.466  69.200  1.00  0.00    -0.162 N  
HETATM   11  H   UNL     1     -10.828   5.713  68.927  1.00  0.00     0.000 HD 
HETATM   12  C   UNL     1      -8.958   5.185  68.214  1.00  0.00    -0.110 C  
HETATM   13  O   UNL     1      -7.788   4.910  68.468  1.00  0.00    -0.080 OA 
BRANCH  12  14
HETATM   14  C   UNL     1      -9.506   5.238  66.782  1.00  0.00    -0.140 C  
BRANCH  14  15
HETATM   15  N   UNL     1      -9.253   6.515  66.120  1.00  0.00    -0.279 N  
HETATM   16  C   UNL     1      -9.978   7.642  66.451  1.00  0.00    -0.072 C  
HETATM   17  H   UNL     1      -8.531   6.574  65.402  1.00  0.00     0.000 HD 
HETATM   18  O   UNL     1     -10.950   7.597  67.201  1.00  0.00    -0.266 OA 
BRANCH  16  19
HETATM   19  C   UNL     1      -9.532   8.915  65.753  1.00  0.00    -0.202 C  
BRANCH  19  20
HETATM   20  S   UNL     1      -9.287  10.275  66.915  1.00  0.00    -0.161 SA 
BRANCH  20  21
HETATM   21  C   UNL     1     -10.913  10.942  66.960  1.00  0.00    -0.247 C  
HETATM   22  O   UNL     1     -11.665  10.715  67.904  1.00  0.00    -0.506 OA 
BRANCH  21  23
HETATM   23  C   UNL     1     -11.342  11.773  65.802  1.00  0.00    -0.309 A  
HETATM   24  C   UNL     1     -12.086  12.936  66.044  1.00  0.00    -0.484 A  
HETATM   25  C   UNL     1     -12.548  13.708  64.973  1.00  0.00    -0.434 A  
HETATM   26  C   UNL     1     -12.279  13.318  63.662  1.00  0.00    -0.522 A  
HETATM   27  C   UNL     1     -11.538  12.164  63.416  1.00  0.00    -0.508 A  
HETATM   28  C   UNL     1     -11.072  11.392  64.480  1.00  0.00    -0.302 A  
ENDBRANCH  21  23
ENDBRANCH  20  21
ENDBRANCH  19  20
ENDBRANCH  16  19
ENDBRANCH  14  15
ENDBRANCH  12  14
ENDBRANCH   9  10
ENDBRANCH   6   9
ENDBRANCH   3   5
TORSDOF 9
ENDMDL
MODEL      247
REMARK 921   NORMALIZED FREE ENERGY PREDICTED BY IDOCK:   -4.43 KCAL/MOL
REMARK 922        TOTAL FREE ENERGY PREDICTED BY IDOCK:   -7.60 KCAL/MOL
REMARK 923 INTER-LIGAND FREE ENERGY PREDICTED BY IDOCK:   -7.06 KCAL/MOL
REMARK 924 INTRA-LIGAND FREE ENERGY PREDICTED BY IDOCK:   -0.54 KCAL/MOL
REMARK 927      BINDING AFFINITY PREDICTED BY RF-SCORE:    0.00 PKD
ROOT
HETATM    1  O   UNL     1      -9.788   3.569  71.116  1.00  0.00    -0.179 OA 
HETATM    2  C   UNL     1      -9.697   4.546  72.049  1.00  0.00    -0.170 C  
HETATM    3  C   UNL     1      -9.699   5.959  71.476  1.00  0.00    -0.161 C  
HETATM    4  O   UNL     1      -9.592   4.305  73.240  1.00  0.00    -0.117 OA 
ENDROOT
BRANCH   3   5
HETATM    5  N   UNL     1      -9.802   5.979  70.021  1.00  0.00    -0.167 N  
HETATM    6  C   UNL     1     -10.984   6.274  69.375  1.00  0.00    -0.375 C  
HETATM    7  H   UNL     1      -8.974   5.766  69.463  1.00  0.00     0.000 HD 
HETATM    8  O   UNL     1     -12.028   6.498  69.979  1.00  0.00    -0.358 OA 
BRANCH   6   9
HETATM    9  C   UNL     1     -10.920   6.263  67.842  1.00  0.00    -0.327 C  
BRANCH   9  10
HETATM   10  N   UNL     1     -11.094   7.575  67.244  1.00  0.00    -0.532 N  
HETATM   11  H   UNL     1     -11.918   7.749  66.670  1.00  0.00     0.000 HD 
HETATM   12  C   UNL     1     -10.185   8.594  67.423  1.00  0.00    -0.262 C  
HETATM   13  O   UNL     1      -9.186   8.465  68.126  1.00  0.00    -0.138 OA 
BRANCH  12  14
HETATM   14  C   UNL     1     -10.514   9.894  66.677  1.00  0.00    -0.169 C  
BRANCH  14  15
HETATM   15  N   UNL     1     -10.664  11.042  67.567  1.00  0.00    -0.227 N  
HETATM   16  C   UNL     1     -10.457  12.327  67.109  1.00  0.00    -0.219 C  
HETATM   17  H   UNL     1     -10.925  10.892  68.542  1.00  0.00     0.000 HD 
HETATM   18  O   UNL     1     -10.006  12.558  65.990  1.00  0.00    -0.250 OA 
BRANCH  16  19
HETATM   19  C   UNL     1     -10.751  13.421  68.122  1.00  0.00    -0.253 C  
BRANCH  19  20
HETATM   20  S   UNL     1     -10.995  15.027  67.334  1.00  0.00    -0.321 SA 
BRANCH  20  21
HETATM   21  C   UNL     1     -10.410  16.090  68.606  1.00  0.00    -0.241 C  
HETATM   22  O   UNL     1     -10.372  15.717  69.776  1.00  0.00    -0.273 OA 
BRANCH  21  23
HETATM   23  C   UNL     1      -9.982  17.459  68.209  1.00  0.00    -0.320 A  
HETATM   24  C   UNL     1     -10.848  18.239  67.431  1.00  0.00    -0.281 A  
HETATM   25  C   UNL     1     -10.451  19.508  66.999  1.00  0.00    -0.587 A  
HETATM   26  C   UNL     1      -9.189  19.998  67.332  1.00  0.00    -0.477 A  
HETATM   27  C   UNL     1      -8.325  19.228  68.108  1.00  0.00    -0.358 A  
HETATM   28  C   UNL     1      -8.717  17.963  68.544  1.00  0.00    -0.297 A  
ENDBRANCH  21  23
ENDBRANCH  20  21
ENDBRANCH  19  20
ENDBRANCH  16  19
ENDBRANCH  14  15
ENDBRANCH  12  14
ENDBRANCH   9  10
ENDBRANCH   6   9
ENDBRANCH   3   5
TORSDOF 9
ENDMDL
MODEL      248
REMARK 921   NORMALIZED FREE ENERGY PREDICTED BY IDOCK:   -4.43 KCAL/MOL
REMARK 922        TOTAL FREE ENERGY PREDICTED BY IDOCK:   -7.60 KCAL/MOL
REMARK 923 INTER-LIGAND FREE ENERGY PREDICTED BY IDOCK:   -6.24 KCAL/MOL
REMARK 924 INTRA-LIGAND FREE ENERGY PREDICTED BY IDOCK:   -1.35 KCAL/MOL
REMARK 927      BINDING AFFINITY PREDICTED BY RF-SCORE:    0.00 PKD
ROOT
HETATM    1  O   UNL     1      -9.864  15.109  65.028  1.00  0.00    -0.242 OA 
HETATM    2  C   UNL     1     -10.809  16.067  64.878  1.00  0.00    -0.372 C  
HETATM    3  C   UNL     1     -12.059  15.602  64.139  1.00  0.00     0.009 C  
HETATM    4  O   UNL     1     -10.650  17.209  65.277  1.00  0.00    -0.662 OA 
ENDROOT
BRANCH   3   5
HETATM    5  N   UNL     1     -11.990  14.202  63.738  1.00  0.00    -0.772 N  
HETATM    6  C   UNL     1     -12.740  13.225  64.359  1.00  0.00    -0.117 C  
HETATM    7  H   UNL     1     -11.368  13.936  62.974  1.00  0.00     0.000 HD 
HETATM    8  O   UNL     1     -13.478  13.465  65.310  1.00  0.00    -0.456 OA 
BRANCH   6   9
HETATM    9  C   UNL     1     -12.560  11.804  63.810  1.00  0.00    -0.302 C  
BRANCH   9  10
HETATM   10  N   UNL     1     -11.338  11.159  64.257  1.00  0.00    -0.214 N  
HETATM   11  H   UNL     1     -11.364  10.590  65.103  1.00  0.00     0.000 HD 
HETATM   12  C   UNL     1     -10.145  11.288  63.581  1.00  0.00    -0.382 C  
HETATM   13  O   UNL     1     -10.048  11.931  62.540  1.00  0.00     0.293 OA 
BRANCH  12  14
HETATM   14  C   UNL     1      -8.953  10.570  64.228  1.00  0.00    -0.216 C  
BRANCH  14  15
HETATM   15  N   UNL     1      -8.306  11.361  65.271  1.00  0.00    -0.341 N  
HETATM   16  C   UNL     1      -8.578  11.135  66.605  1.00  0.00    -0.165 C  
HETATM   17  H   UNL     1      -7.644  12.092  65.009  1.00  0.00     0.000 HD 
HETATM   18  O   UNL     1      -9.467  10.370  66.970  1.00  0.00    -0.159 OA 
BRANCH  16  19
HETATM   19  C   UNL     1      -7.753  11.965  67.574  1.00  0.00    -0.151 C  
BRANCH  19  20
HETATM   20  S   UNL     1      -8.494  13.583  67.880  1.00  0.00    -0.193 SA 
BRANCH  20  21
HETATM   21  C   UNL     1      -7.064  14.602  67.788  1.00  0.00    -0.177 C  
HETATM   22  O   UNL     1      -5.941  14.112  67.699  1.00  0.00    -0.283 OA 
BRANCH  21  23
HETATM   23  C   UNL     1      -7.270  16.075  67.840  1.00  0.00    -0.147 A  
HETATM   24  C   UNL     1      -7.180  16.814  66.653  1.00  0.00    -0.289 A  
HETATM   25  C   UNL     1      -7.316  18.205  66.680  1.00  0.00    -0.252 A  
HETATM   26  C   UNL     1      -7.533  18.864  67.890  1.00  0.00    -0.269 A  
HETATM   27  C   UNL     1      -7.626  18.134  69.073  1.00  0.00    -0.155 A  
HETATM   28  C   UNL     1      -7.494  16.746  69.052  1.00  0.00    -0.228 A  
ENDBRANCH  21  23
ENDBRANCH  20  21
ENDBRANCH  19  20
ENDBRANCH  16  19
ENDBRANCH  14  15
ENDBRANCH  12  14
ENDBRANCH   9  10
ENDBRANCH   6   9
ENDBRANCH   3   5
TORSDOF 9
ENDMDL
MODEL      249
REMARK 921   NORMALIZED FREE ENERGY PREDICTED BY IDOCK:   -4.41 KCAL/MOL
REMARK 922        TOTAL FREE ENERGY PREDICTED BY IDOCK:   -7.57 KCAL/MOL
REMARK 923 INTER-LIGAND FREE ENERGY PREDICTED BY IDOCK:   -6.47 KCAL/MOL
REMARK 924 INTRA-LIGAND FREE ENERGY PREDICTED BY IDOCK:   -1.10 KCAL/MOL
REMARK 927      BINDING AFFINITY PREDICTED BY RF-SCORE:    0.00 PKD
ROOT
HETATM    1  O   UNL     1     -12.555  11.187  70.176  1.00  0.00    -0.258 OA 
HETATM    2  C   UNL     1     -12.874  10.836  71.444  1.00  0.00    -0.452 C  
HETATM    3  C   UNL     1     -12.569   9.381  71.785  1.00  0.00    -0.387 C  
HETATM    4  O   UNL     1     -13.389  11.616  72.228  1.00  0.00    -0.443 OA 
ENDROOT
BRANCH   3   5
HETATM    5  N   UNL     1     -11.986   8.649  70.666  1.00  0.00    -0.478 N  
HETATM    6  C   UNL     1     -10.951   7.754  70.838  1.00  0.00    -0.250 C  
HETATM    7  H   UNL     1     -12.355   8.804  69.728  1.00  0.00     0.000 HD 
HETATM    8  O   UNL     1     -10.430   7.549  71.930  1.00  0.00    -0.199 OA 
BRANCH   6   9
HETATM    9  C   UNL     1     -10.460   7.059  69.562  1.00  0.00    -0.220 C  
BRANCH   9  10
HETATM   10  N   UNL     1     -10.167   7.978  68.475  1.00  0.00    -0.203 N  
HETATM   11  H   UNL     1      -9.633   8.822  68.676  1.00  0.00     0.000 HD 
HETATM   12  C   UNL     1     -10.586   7.750  67.184  1.00  0.00    -0.331 C  
HETATM   13  O   UNL     1     -11.207   6.740  66.864  1.00  0.00    -0.375 OA 
BRANCH  12  14
HETATM   14  C   UNL     1     -10.221   8.853  66.181  1.00  0.00    -0.022 C  
BRANCH  14  15
HETATM   15  N   UNL     1      -8.976   9.540  66.513  1.00  0.00    -0.144 N  
HETATM   16  C   UNL     1      -8.862  10.908  66.374  1.00  0.00    -0.171 C  
HETATM   17  H   UNL     1      -8.180   9.000  66.853  1.00  0.00     0.000 HD 
HETATM   18  O   UNL     1      -9.735  11.586  65.838  1.00  0.00    -0.218 OA 
BRANCH  16  19
HETATM   19  C   UNL     1      -7.544  11.490  66.857  1.00  0.00    -0.151 C  
BRANCH  19  20
HETATM   20  S   UNL     1      -7.690  12.231  68.497  1.00  0.00    -0.089 SA 
BRANCH  20  21
HETATM   21  C   UNL     1      -8.053  13.893  68.055  1.00  0.00    -0.154 C  
HETATM   22  O   UNL     1      -7.300  14.535  67.328  1.00  0.00    -0.189 OA 
BRANCH  21  23
HETATM   23  C   UNL     1      -9.297  14.492  68.613  1.00  0.00    -0.199 A  
HETATM   24  C   UNL     1     -10.482  13.745  68.579  1.00  0.00    -0.248 A  
HETATM   25  C   UNL     1     -11.675  14.302  69.047  1.00  0.00    -0.352 A  
HETATM   26  C   UNL     1     -11.694  15.606  69.539  1.00  0.00    -0.382 A  
HETATM   27  C   UNL     1     -10.519  16.353  69.577  1.00  0.00    -0.301 A  
HETATM   28  C   UNL     1      -9.324  15.802  69.115  1.00  0.00    -0.258 A  
ENDBRANCH  21  23
ENDBRANCH  20  21
ENDBRANCH  19  20
ENDBRANCH  16  19
ENDBRANCH  14  15
ENDBRANCH  12  14
ENDBRANCH   9  10
ENDBRANCH   6   9
ENDBRANCH   3   5
TORSDOF 9
ENDMDL
MODEL      250
REMARK 921   NORMALIZED FREE ENERGY PREDICTED BY IDOCK:   -4.40 KCAL/MOL
REMARK 922        TOTAL FREE ENERGY PREDICTED BY IDOCK:   -7.56 KCAL/MOL
REMARK 923 INTER-LIGAND FREE ENERGY PREDICTED BY IDOCK:   -6.10 KCAL/MOL
REMARK 924 INTRA-LIGAND FREE ENERGY PREDICTED BY IDOCK:   -1.46 KCAL/MOL
REMARK 927      BINDING AFFINITY PREDICTED BY RF-SCORE:    0.00 PKD
ROOT
HETATM    1  O   UNL     1     -11.510   6.257  69.323  1.00  0.00    -0.411 OA 
HETATM    2  C   UNL     1     -10.576   5.905  70.239  1.00  0.00    -0.286 C  
HETATM    3  C   UNL     1      -9.896   7.086  70.924  1.00  0.00    -0.185 C  
HETATM    4  O   UNL     1     -10.291   4.741  70.465  1.00  0.00    -0.218 OA 
ENDROOT
BRANCH   3   5
HETATM    5  N   UNL     1     -10.393   8.374  70.454  1.00  0.00    -0.201 N  
HETATM    6  C   UNL     1     -11.255   9.144  71.206  1.00  0.00    -0.337 C  
HETATM    7  H   UNL     1     -10.094   8.717  69.540  1.00  0.00     0.000 HD 
HETATM    8  O   UNL     1     -11.688   8.778  72.294  1.00  0.00    -0.363 OA 
BRANCH   6   9
HETATM    9  C   UNL     1     -11.674  10.478  70.573  1.00  0.00    -0.350 C  
BRANCH   9  10
HETATM   10  N   UNL     1     -10.712  10.993  69.615  1.00  0.00    -0.428 N  
HETATM   11  H   UNL     1      -9.729  11.044  69.882  1.00  0.00     0.000 HD 
HETATM   12  C   UNL     1     -11.078  11.417  68.357  1.00  0.00    -0.242 C  
HETATM   13  O   UNL     1     -12.238  11.356  67.956  1.00  0.00    -0.607 OA 
BRANCH  12  14
HETATM   14  C   UNL     1      -9.932  11.971  67.500  1.00  0.00    -0.192 C  
BRANCH  14  15
HETATM   15  N   UNL     1      -9.308  10.957  66.655  1.00  0.00    -0.168 N  
HETATM   16  C   UNL     1      -9.692  10.795  65.339  1.00  0.00    -0.245 C  
HETATM   17  H   UNL     1      -8.577  10.359  67.043  1.00  0.00     0.000 HD 
HETATM   18  O   UNL     1     -10.659  11.386  64.863  1.00  0.00    -0.289 OA 
BRANCH  16  19
HETATM   19  C   UNL     1      -8.882   9.773  64.559  1.00  0.00    -0.216 C  
BRANCH  19  20
HETATM   20  S   UNL     1      -7.637   8.968  65.590  1.00  0.00    -0.087 SA 
BRANCH  20  21
HETATM   21  C   UNL     1      -8.655   7.860  66.499  1.00  0.00    -0.142 C  
HETATM   22  O   UNL     1      -9.073   8.155  67.616  1.00  0.00    -0.134 OA 
BRANCH  21  23
HETATM   23  C   UNL     1      -8.971   6.549  65.869  1.00  0.00    -0.103 A  
HETATM   24  C   UNL     1      -9.956   5.740  66.450  1.00  0.00    -0.173 A  
HETATM   25  C   UNL     1     -10.236   4.481  65.911  1.00  0.00    -0.289 A  
HETATM   26  C   UNL     1      -9.531   4.022  64.800  1.00  0.00    -0.170 A  
HETATM   27  C   UNL     1      -8.552   4.823  64.216  1.00  0.00    -0.141 A  
HETATM   28  C   UNL     1      -8.270   6.082  64.748  1.00  0.00    -0.123 A  
ENDBRANCH  21  23
ENDBRANCH  20  21
ENDBRANCH  19  20
ENDBRANCH  16  19
ENDBRANCH  14  15
ENDBRANCH  12  14
ENDBRANCH   9  10
ENDBRANCH   6   9
ENDBRANCH   3   5
TORSDOF 9
ENDMDL
MODEL      251
REMARK 921   NORMALIZED FREE ENERGY PREDICTED BY IDOCK:   -4.40 KCAL/MOL
REMARK 922        TOTAL FREE ENERGY PREDICTED BY IDOCK:   -7.56 KCAL/MOL
REMARK 923 INTER-LIGAND FREE ENERGY PREDICTED BY IDOCK:   -6.98 KCAL/MOL
REMARK 924 INTRA-LIGAND FREE ENERGY PREDICTED BY IDOCK:   -0.57 KCAL/MOL
REMARK 927      BINDING AFFINITY PREDICTED BY RF-SCORE:    0.00 PKD
ROOT
HETATM    1  O   UNL     1     -10.550  15.538  65.478  1.00  0.00    -0.343 OA 
HETATM    2  C   UNL     1      -9.586  16.026  66.294  1.00  0.00    -0.307 C  
HETATM    3  C   UNL     1      -9.646  15.494  67.722  1.00  0.00    -0.209 C  
HETATM    4  O   UNL     1      -8.764  16.845  65.916  1.00  0.00    -0.516 OA 
ENDROOT
BRANCH   3   5
HETATM    5  N   UNL     1     -10.741  14.552  67.928  1.00  0.00    -0.243 N  
HETATM    6  C   UNL     1     -10.520  13.247  68.314  1.00  0.00    -0.250 C  
HETATM    7  H   UNL     1     -11.700  14.869  67.782  1.00  0.00     0.000 HD 
HETATM    8  O   UNL     1      -9.393  12.786  68.467  1.00  0.00    -0.176 OA 
BRANCH   6   9
HETATM    9  C   UNL     1     -11.779  12.390  68.498  1.00  0.00    -0.326 C  
BRANCH   9  10
HETATM   10  N   UNL     1     -11.564  11.210  69.317  1.00  0.00    -0.288 N  
HETATM   11  H   UNL     1     -11.007  10.445  68.940  1.00  0.00     0.000 HD 
HETATM   12  C   UNL     1     -12.086  11.086  70.585  1.00  0.00    -0.373 C  
HETATM   13  O   UNL     1     -12.740  11.981  71.115  1.00  0.00    -0.364 OA 
BRANCH  12  14
HETATM   14  C   UNL     1     -11.791   9.750  71.280  1.00  0.00    -0.399 C  
BRANCH  14  15
HETATM   15  N   UNL     1     -11.441   8.684  70.346  1.00  0.00    -0.426 N  
HETATM   16  C   UNL     1     -10.161   8.573  69.842  1.00  0.00    -0.204 C  
HETATM   17  H   UNL     1     -12.154   8.012  70.061  1.00  0.00     0.000 HD 
HETATM   18  O   UNL     1      -9.305   9.433  70.037  1.00  0.00    -0.192 OA 
BRANCH  16  19
HETATM   19  C   UNL     1      -9.925   7.356  68.965  1.00  0.00    -0.176 C  
BRANCH  19  20
HETATM   20  S   UNL     1     -11.144   6.058  69.264  1.00  0.00    -0.277 SA 
BRANCH  20  21
HETATM   21  C   UNL     1     -10.137   4.866  70.073  1.00  0.00    -0.266 C  
HETATM   22  O   UNL     1      -9.397   4.123  69.434  1.00  0.00    -0.136 OA 
BRANCH  21  23
HETATM   23  C   UNL     1     -10.233   4.784  71.556  1.00  0.00    -0.246 A  
HETATM   24  C   UNL     1     -10.097   3.534  72.175  1.00  0.00    -0.205 A  
HETATM   25  C   UNL     1     -10.236   3.419  73.561  1.00  0.00    -0.212 A  
HETATM   26  C   UNL     1     -10.518   4.545  74.333  1.00  0.00    -0.318 A  
HETATM   27  C   UNL     1     -10.652   5.791  73.723  1.00  0.00    -0.285 A  
HETATM   28  C   UNL     1     -10.512   5.912  72.341  1.00  0.00    -0.246 A  
ENDBRANCH  21  23
ENDBRANCH  20  21
ENDBRANCH  19  20
ENDBRANCH  16  19
ENDBRANCH  14  15
ENDBRANCH  12  14
ENDBRANCH   9  10
ENDBRANCH   6   9
ENDBRANCH   3   5
TORSDOF 9
ENDMDL
MODEL      252
REMARK 921   NORMALIZED FREE ENERGY PREDICTED BY IDOCK:   -4.40 KCAL/MOL
REMARK 922        TOTAL FREE ENERGY PREDICTED BY IDOCK:   -7.55 KCAL/MOL
REMARK 923 INTER-LIGAND FREE ENERGY PREDICTED BY IDOCK:   -6.86 KCAL/MOL
REMARK 924 INTRA-LIGAND FREE ENERGY PREDICTED BY IDOCK:   -0.69 KCAL/MOL
REMARK 927      BINDING AFFINITY PREDICTED BY RF-SCORE:    0.00 PKD
ROOT
HETATM    1  O   UNL     1      -8.004   4.704  64.894  1.00  0.00    -0.094 OA 
HETATM    2  C   UNL     1      -9.059   4.224  65.596  1.00  0.00    -0.136 C  
HETATM    3  C   UNL     1      -9.988   5.303  66.143  1.00  0.00    -0.165 C  
HETATM    4  O   UNL     1      -9.225   3.032  65.791  1.00  0.00    -0.151 OA 
ENDROOT
BRANCH   3   5
HETATM    5  N   UNL     1      -9.552   6.652  65.798  1.00  0.00    -0.351 N  
HETATM    6  C   UNL     1      -9.815   7.734  66.611  1.00  0.00    -0.225 C  
HETATM    7  H   UNL     1      -9.038   6.799  64.929  1.00  0.00     0.000 HD 
HETATM    8  O   UNL     1     -10.463   7.639  67.649  1.00  0.00    -0.225 OA 
BRANCH   6   9
HETATM    9  C   UNL     1      -9.279   9.082  66.110  1.00  0.00    -0.216 C  
BRANCH   9  10
HETATM   10  N   UNL     1     -10.322  10.048  65.811  1.00  0.00    -0.186 N  
HETATM   11  H   UNL     1     -11.170  10.046  66.376  1.00  0.00     0.000 HD 
HETATM   12  C   UNL     1     -10.207  10.965  64.790  1.00  0.00    -0.333 C  
HETATM   13  O   UNL     1      -9.202  11.044  64.089  1.00  0.00    -0.199 OA 
BRANCH  12  14
HETATM   14  C   UNL     1     -11.428  11.874  64.596  1.00  0.00    -0.279 C  
BRANCH  14  15
HETATM   15  N   UNL     1     -11.070  13.250  64.264  1.00  0.00    -0.389 N  
HETATM   16  C   UNL     1     -11.855  14.307  64.677  1.00  0.00    -0.448 C  
HETATM   17  H   UNL     1     -10.227  13.432  63.719  1.00  0.00     0.000 HD 
HETATM   18  O   UNL     1     -12.950  14.140  65.209  1.00  0.00    -0.725 OA 
BRANCH  16  19
HETATM   19  C   UNL     1     -11.300  15.682  64.344  1.00  0.00    -0.263 C  
BRANCH  19  20
HETATM   20  S   UNL     1     -10.782  16.578  65.823  1.00  0.00    -0.150 SA 
BRANCH  20  21
HETATM   21  C   UNL     1      -9.726  15.381  66.559  1.00  0.00    -0.272 C  
HETATM   22  O   UNL     1      -8.536  15.316  66.261  1.00  0.00    -0.241 OA 
BRANCH  21  23
HETATM   23  C   UNL     1     -10.336  14.442  67.539  1.00  0.00    -0.251 A  
HETATM   24  C   UNL     1      -9.843  13.133  67.620  1.00  0.00    -0.219 A  
HETATM   25  C   UNL     1     -10.432  12.214  68.494  1.00  0.00    -0.248 A  
HETATM   26  C   UNL     1     -11.518  12.593  69.281  1.00  0.00    -0.354 A  
HETATM   27  C   UNL     1     -12.012  13.894  69.206  1.00  0.00    -0.402 A  
HETATM   28  C   UNL     1     -11.426  14.816  68.339  1.00  0.00    -0.336 A  
ENDBRANCH  21  23
ENDBRANCH  20  21
ENDBRANCH  19  20
ENDBRANCH  16  19
ENDBRANCH  14  15
ENDBRANCH  12  14
ENDBRANCH   9  10
ENDBRANCH   6   9
ENDBRANCH   3   5
TORSDOF 9
ENDMDL
MODEL      253
REMARK 921   NORMALIZED FREE ENERGY PREDICTED BY IDOCK:   -4.39 KCAL/MOL
REMARK 922        TOTAL FREE ENERGY PREDICTED BY IDOCK:   -7.55 KCAL/MOL
REMARK 923 INTER-LIGAND FREE ENERGY PREDICTED BY IDOCK:   -6.99 KCAL/MOL
REMARK 924 INTRA-LIGAND FREE ENERGY PREDICTED BY IDOCK:   -0.56 KCAL/MOL
REMARK 927      BINDING AFFINITY PREDICTED BY RF-SCORE:    0.00 PKD
ROOT
HETATM    1  O   UNL     1     -11.438  14.753  73.549  1.00  0.00     0.038 OA 
HETATM    2  C   UNL     1     -12.069  15.762  72.902  1.00  0.00    -0.490 C  
HETATM    3  C   UNL     1     -12.810  15.330  71.642  1.00  0.00    -0.395 C  
HETATM    4  O   UNL     1     -12.015  16.919  73.287  1.00  0.00    -0.357 OA 
ENDROOT
BRANCH   3   5
HETATM    5  N   UNL     1     -12.694  13.899  71.381  1.00  0.00    -0.351 N  
HETATM    6  C   UNL     1     -13.529  12.978  71.976  1.00  0.00    -0.492 C  
HETATM    7  H   UNL     1     -11.973  13.571  70.738  1.00  0.00     0.000 HD 
HETATM    8  O   UNL     1     -14.391  13.296  72.790  1.00  0.00    -0.606 OA 
BRANCH   6   9
HETATM    9  C   UNL     1     -13.283  11.514  71.587  1.00  0.00    -0.286 C  
BRANCH   9  10
HETATM   10  N   UNL     1     -12.141  11.332  70.707  1.00  0.00    -0.364 N  
HETATM   11  H   UNL     1     -11.960  12.029  69.986  1.00  0.00     0.000 HD 
HETATM   12  C   UNL     1     -11.296  10.250  70.810  1.00  0.00    -0.337 C  
HETATM   13  O   UNL     1     -11.436   9.389  71.674  1.00  0.00    -0.369 OA 
BRANCH  12  14
HETATM   14  C   UNL     1     -10.172  10.204  69.767  1.00  0.00    -0.247 C  
BRANCH  14  15
HETATM   15  N   UNL     1      -9.575   8.879  69.626  1.00  0.00    -0.166 N  
HETATM   16  C   UNL     1      -9.758   8.137  68.476  1.00  0.00    -0.162 C  
HETATM   17  H   UNL     1      -9.015   8.496  70.388  1.00  0.00     0.000 HD 
HETATM   18  O   UNL     1     -10.535   8.485  67.590  1.00  0.00    -0.244 OA 
BRANCH  16  19
HETATM   19  C   UNL     1      -8.992   6.826  68.436  1.00  0.00    -0.124 C  
BRANCH  19  20
HETATM   20  S   UNL     1     -10.092   5.397  68.536  1.00  0.00    -0.167 SA 
BRANCH  20  21
HETATM   21  C   UNL     1     -10.913   5.742  70.052  1.00  0.00    -0.311 C  
HETATM   22  O   UNL     1     -11.969   6.369  70.072  1.00  0.00    -0.333 OA 
BRANCH  21  23
HETATM   23  C   UNL     1     -10.267   5.261  71.304  1.00  0.00    -0.291 A  
HETATM   24  C   UNL     1     -10.999   5.295  72.498  1.00  0.00    -0.298 A  
HETATM   25  C   UNL     1     -10.400   4.899  73.698  1.00  0.00    -0.259 A  
HETATM   26  C   UNL     1      -9.071   4.478  73.713  1.00  0.00    -0.105 A  
HETATM   27  C   UNL     1      -8.340   4.439  72.528  1.00  0.00    -0.109 A  
HETATM   28  C   UNL     1      -8.933   4.830  71.327  1.00  0.00    -0.162 A  
ENDBRANCH  21  23
ENDBRANCH  20  21
ENDBRANCH  19  20
ENDBRANCH  16  19
ENDBRANCH  14  15
ENDBRANCH  12  14
ENDBRANCH   9  10
ENDBRANCH   6   9
ENDBRANCH   3   5
TORSDOF 9
ENDMDL
MODEL      254
REMARK 921   NORMALIZED FREE ENERGY PREDICTED BY IDOCK:   -4.39 KCAL/MOL
REMARK 922        TOTAL FREE ENERGY PREDICTED BY IDOCK:   -7.54 KCAL/MOL
REMARK 923 INTER-LIGAND FREE ENERGY PREDICTED BY IDOCK:   -6.94 KCAL/MOL
REMARK 924 INTRA-LIGAND FREE ENERGY PREDICTED BY IDOCK:   -0.60 KCAL/MOL
REMARK 927      BINDING AFFINITY PREDICTED BY RF-SCORE:    0.00 PKD
ROOT
HETATM    1  O   UNL     1     -10.496  16.238  65.167  1.00  0.00    -0.591 OA 
HETATM    2  C   UNL     1      -9.411  16.376  65.966  1.00  0.00    -0.310 C  
HETATM    3  C   UNL     1      -9.419  15.470  67.192  1.00  0.00    -0.215 C  
HETATM    4  O   UNL     1      -8.525  17.180  65.730  1.00  0.00    -0.522 OA 
ENDROOT
BRANCH   3   5
HETATM    5  N   UNL     1     -10.606  14.624  67.262  1.00  0.00    -0.280 N  
HETATM    6  C   UNL     1     -10.571  13.361  67.814  1.00  0.00    -0.245 C  
HETATM    7  H   UNL     1     -11.488  14.978  66.892  1.00  0.00     0.000 HD 
HETATM    8  O   UNL     1      -9.537  12.855  68.240  1.00  0.00    -0.218 OA 
BRANCH   6   9
HETATM    9  C   UNL     1     -11.907  12.606  67.821  1.00  0.00    -0.323 C  
BRANCH   9  10
HETATM   10  N   UNL     1     -11.978  11.560  68.826  1.00  0.00    -0.319 N  
HETATM   11  H   UNL     1     -11.890  10.588  68.530  1.00  0.00     0.000 HD 
HETATM   12  C   UNL     1     -12.160  11.832  70.163  1.00  0.00    -0.317 C  
HETATM   13  O   UNL     1     -12.241  12.979  70.593  1.00  0.00    -0.364 OA 
BRANCH  12  14
HETATM   14  C   UNL     1     -12.254  10.597  71.069  1.00  0.00    -0.393 C  
BRANCH  14  15
HETATM   15  N   UNL     1     -11.021   9.814  71.098  1.00  0.00    -0.352 N  
HETATM   16  C   UNL     1     -10.938   8.649  71.834  1.00  0.00    -0.342 C  
HETATM   17  H   UNL     1     -10.210  10.133  70.568  1.00  0.00     0.000 HD 
HETATM   18  O   UNL     1     -11.830   8.295  72.601  1.00  0.00    -0.401 OA 
BRANCH  16  19
HETATM   19  C   UNL     1      -9.629   7.892  71.684  1.00  0.00    -0.163 C  
BRANCH  19  20
HETATM   20  S   UNL     1      -8.880   8.152  70.062  1.00  0.00    -0.140 SA 
BRANCH  20  21
HETATM   21  C   UNL     1      -8.585   6.485  69.585  1.00  0.00    -0.132 C  
HETATM   22  O   UNL     1      -7.837   5.762  70.238  1.00  0.00    -0.095 OA 
BRANCH  21  23
HETATM   23  C   UNL     1      -9.264   5.997  68.354  1.00  0.00    -0.114 A  
HETATM   24  C   UNL     1     -10.444   6.626  67.937  1.00  0.00    -0.267 A  
HETATM   25  C   UNL     1     -11.131   6.154  66.814  1.00  0.00    -0.230 A  
HETATM   26  C   UNL     1     -10.650   5.050  66.111  1.00  0.00    -0.321 A  
HETATM   27  C   UNL     1      -9.476   4.423  66.519  1.00  0.00    -0.186 A  
HETATM   28  C   UNL     1      -8.784   4.891  67.637  1.00  0.00    -0.103 A  
ENDBRANCH  21  23
ENDBRANCH  20  21
ENDBRANCH  19  20
ENDBRANCH  16  19
ENDBRANCH  14  15
ENDBRANCH  12  14
ENDBRANCH   9  10
ENDBRANCH   6   9
ENDBRANCH   3   5
TORSDOF 9
ENDMDL
MODEL      255
REMARK 921   NORMALIZED FREE ENERGY PREDICTED BY IDOCK:   -4.37 KCAL/MOL
REMARK 922        TOTAL FREE ENERGY PREDICTED BY IDOCK:   -7.51 KCAL/MOL
REMARK 923 INTER-LIGAND FREE ENERGY PREDICTED BY IDOCK:   -6.87 KCAL/MOL
REMARK 924 INTRA-LIGAND FREE ENERGY PREDICTED BY IDOCK:   -0.64 KCAL/MOL
REMARK 927      BINDING AFFINITY PREDICTED BY RF-SCORE:    0.00 PKD
ROOT
HETATM    1  O   UNL     1     -10.041  16.037  66.950  1.00  0.00    -0.253 OA 
HETATM    2  C   UNL     1     -10.352  16.615  65.765  1.00  0.00    -0.321 C  
HETATM    3  C   UNL     1     -10.768  15.628  64.679  1.00  0.00    -0.137 C  
HETATM    4  O   UNL     1     -10.274  17.819  65.585  1.00  0.00    -0.590 OA 
ENDROOT
BRANCH   3   5
HETATM    5  N   UNL     1     -10.750  14.243  65.137  1.00  0.00    -0.368 N  
HETATM    6  C   UNL     1     -11.893  13.473  65.183  1.00  0.00    -0.343 C  
HETATM    7  H   UNL     1      -9.864  13.832  65.433  1.00  0.00     0.000 HD 
HETATM    8  O   UNL     1     -12.998  13.913  64.883  1.00  0.00    -0.711 OA 
BRANCH   6   9
HETATM    9  C   UNL     1     -11.700  12.034  65.678  1.00  0.00    -0.246 C  
BRANCH   9  10
HETATM   10  N   UNL     1     -10.525  11.859  66.514  1.00  0.00    -0.216 N  
HETATM   11  H   UNL     1      -9.614  11.760  66.067  1.00  0.00     0.000 HD 
HETATM   12  C   UNL     1     -10.596  11.821  67.889  1.00  0.00    -0.201 C  
HETATM   13  O   UNL     1     -11.655  11.965  68.494  1.00  0.00    -0.270 OA 
BRANCH  12  14
HETATM   14  C   UNL     1      -9.257  11.585  68.601  1.00  0.00    -0.132 C  
BRANCH  14  15
HETATM   15  N   UNL     1      -9.252  10.379  69.424  1.00  0.00    -0.324 N  
HETATM   16  C   UNL     1      -8.070   9.853  69.904  1.00  0.00    -0.188 C  
HETATM   17  H   UNL     1     -10.135   9.919  69.647  1.00  0.00     0.000 HD 
HETATM   18  O   UNL     1      -6.973  10.280  69.552  1.00  0.00    -0.069 OA 
BRANCH  16  19
HETATM   19  C   UNL     1      -8.233   8.659  70.829  1.00  0.00    -0.142 C  
BRANCH  19  20
HETATM   20  S   UNL     1      -9.213   7.345  70.072  1.00  0.00    -0.146 SA 
BRANCH  20  21
HETATM   21  C   UNL     1     -10.276   6.940  71.412  1.00  0.00    -0.197 C  
HETATM   22  O   UNL     1      -9.934   6.131  72.270  1.00  0.00    -0.167 OA 
BRANCH  21  23
HETATM   23  C   UNL     1     -11.609   7.602  71.451  1.00  0.00    -0.300 A  
HETATM   24  C   UNL     1     -11.724   8.919  70.988  1.00  0.00    -0.340 A  
HETATM   25  C   UNL     1     -12.952   9.584  71.062  1.00  0.00    -0.277 A  
HETATM   26  C   UNL     1     -14.064   8.942  71.606  1.00  0.00    -0.395 A  
HETATM   27  C   UNL     1     -13.956   7.632  72.065  1.00  0.00    -0.311 A  
HETATM   28  C   UNL     1     -12.735   6.962  71.991  1.00  0.00    -0.230 A  
ENDBRANCH  21  23
ENDBRANCH  20  21
ENDBRANCH  19  20
ENDBRANCH  16  19
ENDBRANCH  14  15
ENDBRANCH  12  14
ENDBRANCH   9  10
ENDBRANCH   6   9
ENDBRANCH   3   5
TORSDOF 9
ENDMDL
MODEL      256
REMARK 921   NORMALIZED FREE ENERGY PREDICTED BY IDOCK:   -4.37 KCAL/MOL
REMARK 922        TOTAL FREE ENERGY PREDICTED BY IDOCK:   -7.50 KCAL/MOL
REMARK 923 INTER-LIGAND FREE ENERGY PREDICTED BY IDOCK:   -6.59 KCAL/MOL
REMARK 924 INTRA-LIGAND FREE ENERGY PREDICTED BY IDOCK:   -0.91 KCAL/MOL
REMARK 927      BINDING AFFINITY PREDICTED BY RF-SCORE:    0.00 PKD
ROOT
HETATM    1  O   UNL     1      -7.375   6.370  65.398  1.00  0.00    -0.071 OA 
HETATM    2  C   UNL     1      -8.102   7.504  65.256  1.00  0.00    -0.130 C  
HETATM    3  C   UNL     1      -8.782   7.975  66.536  1.00  0.00    -0.146 C  
HETATM    4  O   UNL     1      -8.219   8.073  64.184  1.00  0.00    -0.139 OA 
ENDROOT
BRANCH   3   5
HETATM    5  N   UNL     1      -8.511   7.102  67.674  1.00  0.00    -0.120 N  
HETATM    6  C   UNL     1      -8.291   7.601  68.941  1.00  0.00    -0.129 C  
HETATM    7  H   UNL     1      -8.484   6.093  67.528  1.00  0.00     0.000 HD 
HETATM    8  O   UNL     1      -8.268   8.803  69.183  1.00  0.00    -0.115 OA 
BRANCH   6   9
HETATM    9  C   UNL     1      -8.033   6.549  70.028  1.00  0.00    -0.116 C  
BRANCH   9  10
HETATM   10  N   UNL     1      -9.044   6.530  71.071  1.00  0.00    -0.150 N  
HETATM   11  H   UNL     1      -9.056   7.283  71.758  1.00  0.00     0.000 HD 
HETATM   12  C   UNL     1      -9.988   5.532  71.165  1.00  0.00    -0.195 C  
HETATM   13  O   UNL     1     -10.052   4.612  70.354  1.00  0.00    -0.237 OA 
BRANCH  12  14
HETATM   14  C   UNL     1     -10.946   5.657  72.357  1.00  0.00    -0.259 C  
BRANCH  14  15
HETATM   15  N   UNL     1     -12.133   6.453  72.056  1.00  0.00    -0.397 N  
HETATM   16  C   UNL     1     -12.075   7.832  72.032  1.00  0.00    -0.311 C  
HETATM   17  H   UNL     1     -13.017   5.983  71.861  1.00  0.00     0.000 HD 
HETATM   18  O   UNL     1     -11.079   8.451  72.396  1.00  0.00    -0.346 OA 
BRANCH  16  19
HETATM   19  C   UNL     1     -13.362   8.516  71.603  1.00  0.00    -0.343 C  
BRANCH  19  20
HETATM   20  S   UNL     1     -13.525  10.164  72.323  1.00  0.00    -0.010 SA 
BRANCH  20  21
HETATM   21  C   UNL     1     -12.947  11.147  70.985  1.00  0.00    -0.245 C  
HETATM   22  O   UNL     1     -12.604  10.633  69.923  1.00  0.00    -0.277 OA 
BRANCH  21  23
HETATM   23  C   UNL     1     -12.876  12.618  71.199  1.00  0.00    -0.311 A  
HETATM   24  C   UNL     1     -13.576  13.180  72.274  1.00  0.00    -0.677 A  
HETATM   25  C   UNL     1     -13.570  14.565  72.467  1.00  0.00    -0.586 A  
HETATM   26  C   UNL     1     -12.875  15.392  71.586  1.00  0.00    -0.492 A  
HETATM   27  C   UNL     1     -12.175  14.839  70.517  1.00  0.00    -0.385 A  
HETATM   28  C   UNL     1     -12.174  13.458  70.321  1.00  0.00    -0.405 A  
ENDBRANCH  21  23
ENDBRANCH  20  21
ENDBRANCH  19  20
ENDBRANCH  16  19
ENDBRANCH  14  15
ENDBRANCH  12  14
ENDBRANCH   9  10
ENDBRANCH   6   9
ENDBRANCH   3   5
TORSDOF 9
ENDMDL
MODEL      257
REMARK 921   NORMALIZED FREE ENERGY PREDICTED BY IDOCK:   -4.35 KCAL/MOL
REMARK 922        TOTAL FREE ENERGY PREDICTED BY IDOCK:   -7.47 KCAL/MOL
REMARK 923 INTER-LIGAND FREE ENERGY PREDICTED BY IDOCK:   -6.68 KCAL/MOL
REMARK 924 INTRA-LIGAND FREE ENERGY PREDICTED BY IDOCK:   -0.79 KCAL/MOL
REMARK 927      BINDING AFFINITY PREDICTED BY RF-SCORE:    0.00 PKD
ROOT
HETATM    1  O   UNL     1     -11.754  15.323  68.803  1.00  0.00    -0.340 OA 
HETATM    2  C   UNL     1     -11.087  16.081  67.901  1.00  0.00    -0.307 C  
HETATM    3  C   UNL     1     -10.726  15.348  66.614  1.00  0.00    -0.309 C  
HETATM    4  O   UNL     1     -10.780  17.241  68.122  1.00  0.00    -0.377 OA 
ENDROOT
BRANCH   3   5
HETATM    5  N   UNL     1     -11.176  13.960  66.608  1.00  0.00    -0.313 N  
HETATM    6  C   UNL     1     -10.949  13.122  65.537  1.00  0.00    -0.277 C  
HETATM    7  H   UNL     1     -11.675  13.599  67.422  1.00  0.00     0.000 HD 
HETATM    8  O   UNL     1     -10.394  13.499  64.510  1.00  0.00    -0.423 OA 
BRANCH   6   9
HETATM    9  C   UNL     1     -11.477  11.690  65.696  1.00  0.00    -0.105 C  
BRANCH   9  10
HETATM   10  N   UNL     1     -10.781  10.923  66.714  1.00  0.00    -0.264 N  
HETATM   11  H   UNL     1      -9.946  10.401  66.450  1.00  0.00     0.000 HD 
HETATM   12  C   UNL     1     -11.207  10.875  68.022  1.00  0.00    -0.314 C  
HETATM   13  O   UNL     1     -12.186  11.503  68.416  1.00  0.00    -0.540 OA 
BRANCH  12  14
HETATM   14  C   UNL     1     -10.370   9.977  68.944  1.00  0.00    -0.202 C  
BRANCH  14  15
HETATM   15  N   UNL     1     -11.082   8.777  69.374  1.00  0.00    -0.436 N  
HETATM   16  C   UNL     1     -10.706   7.529  68.921  1.00  0.00    -0.115 C  
HETATM   17  H   UNL     1     -11.868   8.863  70.019  1.00  0.00     0.000 HD 
HETATM   18  O   UNL     1      -9.865   7.379  68.039  1.00  0.00    -0.141 OA 
BRANCH  16  19
HETATM   19  C   UNL     1     -11.473   6.370  69.536  1.00  0.00    -0.343 C  
BRANCH  19  20
HETATM   20  S   UNL     1     -10.394   5.263  70.470  1.00  0.00    -0.245 SA 
BRANCH  20  21
HETATM   21  C   UNL     1     -10.777   5.766  72.110  1.00  0.00    -0.231 C  
HETATM   22  O   UNL     1     -11.905   5.617  72.572  1.00  0.00    -0.282 OA 
BRANCH  21  23
HETATM   23  C   UNL     1      -9.686   6.394  72.905  1.00  0.00    -0.164 A  
HETATM   24  C   UNL     1      -8.719   5.570  73.495  1.00  0.00    -0.117 A  
HETATM   25  C   UNL     1      -7.714   6.128  74.291  1.00  0.00    -0.095 A  
HETATM   26  C   UNL     1      -7.675   7.505  74.507  1.00  0.00    -0.189 A  
HETATM   27  C   UNL     1      -8.632   8.329  73.921  1.00  0.00    -0.214 A  
HETATM   28  C   UNL     1      -9.635   7.779  73.123  1.00  0.00    -0.337 A  
ENDBRANCH  21  23
ENDBRANCH  20  21
ENDBRANCH  19  20
ENDBRANCH  16  19
ENDBRANCH  14  15
ENDBRANCH  12  14
ENDBRANCH   9  10
ENDBRANCH   6   9
ENDBRANCH   3   5
TORSDOF 9
ENDMDL
MODEL      258
REMARK 921   NORMALIZED FREE ENERGY PREDICTED BY IDOCK:   -4.34 KCAL/MOL
REMARK 922        TOTAL FREE ENERGY PREDICTED BY IDOCK:   -7.46 KCAL/MOL
REMARK 923 INTER-LIGAND FREE ENERGY PREDICTED BY IDOCK:   -6.61 KCAL/MOL
REMARK 924 INTRA-LIGAND FREE ENERGY PREDICTED BY IDOCK:   -0.85 KCAL/MOL
REMARK 927      BINDING AFFINITY PREDICTED BY RF-SCORE:    0.00 PKD
ROOT
HETATM    1  O   UNL     1      -8.462   6.905  68.256  1.00  0.00    -0.124 OA 
HETATM    2  C   UNL     1      -9.346   6.037  68.802  1.00  0.00    -0.122 C  
HETATM    3  C   UNL     1      -9.638   4.815  67.938  1.00  0.00    -0.154 C  
HETATM    4  O   UNL     1      -9.879   6.240  69.880  1.00  0.00    -0.163 OA 
ENDROOT
BRANCH   3   5
HETATM    5  N   UNL     1      -8.898   4.822  66.681  1.00  0.00    -0.111 N  
HETATM    6  C   UNL     1      -9.529   4.703  65.461  1.00  0.00    -0.173 C  
HETATM    7  H   UNL     1      -7.882   4.919  66.705  1.00  0.00     0.000 HD 
HETATM    8  O   UNL     1     -10.741   4.542  65.357  1.00  0.00    -0.270 OA 
BRANCH   6   9
HETATM    9  C   UNL     1      -8.608   4.741  64.234  1.00  0.00    -0.141 C  
BRANCH   9  10
HETATM   10  N   UNL     1      -8.594   6.027  63.558  1.00  0.00    -0.333 N  
HETATM   11  H   UNL     1      -9.221   6.173  62.767  1.00  0.00     0.000 HD 
HETATM   12  C   UNL     1      -7.764   7.055  63.945  1.00  0.00    -0.119 C  
HETATM   13  O   UNL     1      -7.007   6.959  64.908  1.00  0.00    -0.049 OA 
BRANCH  12  14
HETATM   14  C   UNL     1      -7.858   8.322  63.085  1.00  0.00    -0.148 C  
BRANCH  14  15
HETATM   15  N   UNL     1      -9.078   9.087  63.324  1.00  0.00    -0.396 N  
HETATM   16  C   UNL     1      -9.101  10.117  64.243  1.00  0.00    -0.250 C  
HETATM   17  H   UNL     1      -9.925   8.858  62.804  1.00  0.00     0.000 HD 
HETATM   18  O   UNL     1      -8.157  10.343  64.995  1.00  0.00    -0.153 OA 
BRANCH  16  19
HETATM   19  C   UNL     1     -10.411  10.886  64.305  1.00  0.00    -0.368 C  
BRANCH  19  20
HETATM   20  S   UNL     1     -10.844  11.348  65.996  1.00  0.00    -0.210 SA 
BRANCH  20  21
HETATM   21  C   UNL     1     -11.846  12.758  65.686  1.00  0.00    -0.425 C  
HETATM   22  O   UNL     1     -12.927  12.654  65.113  1.00  0.00    -0.754 OA 
BRANCH  21  23
HETATM   23  C   UNL     1     -11.322  14.080  66.129  1.00  0.00    -0.322 A  
HETATM   24  C   UNL     1     -11.590  14.510  67.435  1.00  0.00    -0.406 A  
HETATM   25  C   UNL     1     -11.157  15.769  67.861  1.00  0.00    -0.326 A  
HETATM   26  C   UNL     1     -10.465  16.605  66.985  1.00  0.00    -0.283 A  
HETATM   27  C   UNL     1     -10.194  16.182  65.686  1.00  0.00    -0.390 A  
HETATM   28  C   UNL     1     -10.621  14.925  65.256  1.00  0.00    -0.421 A  
ENDBRANCH  21  23
ENDBRANCH  20  21
ENDBRANCH  19  20
ENDBRANCH  16  19
ENDBRANCH  14  15
ENDBRANCH  12  14
ENDBRANCH   9  10
ENDBRANCH   6   9
ENDBRANCH   3   5
TORSDOF 9
ENDMDL
MODEL      259
REMARK 921   NORMALIZED FREE ENERGY PREDICTED BY IDOCK:   -4.32 KCAL/MOL
REMARK 922        TOTAL FREE ENERGY PREDICTED BY IDOCK:   -7.43 KCAL/MOL
REMARK 923 INTER-LIGAND FREE ENERGY PREDICTED BY IDOCK:   -6.43 KCAL/MOL
REMARK 924 INTRA-LIGAND FREE ENERGY PREDICTED BY IDOCK:   -1.00 KCAL/MOL
REMARK 927      BINDING AFFINITY PREDICTED BY RF-SCORE:    0.00 PKD
ROOT
HETATM    1  O   UNL     1     -11.955   7.189  70.689  1.00  0.00    -0.319 OA 
HETATM    2  C   UNL     1     -11.450   7.648  71.859  1.00  0.00    -0.272 C  
HETATM    3  C   UNL     1     -10.556   8.875  71.716  1.00  0.00    -0.362 C  
HETATM    4  O   UNL     1     -11.674   7.101  72.926  1.00  0.00    -0.142 OA 
ENDROOT
BRANCH   3   5
HETATM    5  N   UNL     1     -10.421   9.317  70.332  1.00  0.00    -0.226 N  
HETATM    6  C   UNL     1     -11.099  10.416  69.847  1.00  0.00    -0.305 C  
HETATM    7  H   UNL     1      -9.807   8.797  69.704  1.00  0.00     0.000 HD 
HETATM    8  O   UNL     1     -11.885  11.062  70.532  1.00  0.00    -0.331 OA 
BRANCH   6   9
HETATM    9  C   UNL     1     -10.838  10.754  68.373  1.00  0.00    -0.232 C  
BRANCH   9  10
HETATM   10  N   UNL     1     -11.557  11.929  67.911  1.00  0.00    -0.322 N  
HETATM   11  H   UNL     1     -12.078  12.485  68.588  1.00  0.00     0.000 HD 
HETATM   12  C   UNL     1     -11.561  12.319  66.590  1.00  0.00    -0.375 C  
HETATM   13  O   UNL     1     -10.930  11.716  65.727  1.00  0.00    -0.292 OA 
BRANCH  12  14
HETATM   14  C   UNL     1     -12.411  13.559  66.284  1.00  0.00    -0.326 C  
BRANCH  14  15
HETATM   15  N   UNL     1     -11.719  14.813  66.569  1.00  0.00    -0.319 N  
HETATM   16  C   UNL     1     -10.842  15.363  65.656  1.00  0.00    -0.355 C  
HETATM   17  H   UNL     1     -11.886  15.289  67.456  1.00  0.00     0.000 HD 
HETATM   18  O   UNL     1     -10.496  14.765  64.640  1.00  0.00    -0.354 OA 
BRANCH  16  19
HETATM   19  C   UNL     1     -10.279  16.718  66.049  1.00  0.00    -0.346 C  
BRANCH  19  20
HETATM   20  S   UNL     1      -8.540  16.617  66.523  1.00  0.00    -0.312 SA 
BRANCH  20  21
HETATM   21  C   UNL     1      -8.704  16.135  68.206  1.00  0.00    -0.180 C  
HETATM   22  O   UNL     1      -9.459  16.736  68.966  1.00  0.00    -0.258 OA 
BRANCH  21  23
HETATM   23  C   UNL     1      -7.880  14.986  68.671  1.00  0.00    -0.138 A  
HETATM   24  C   UNL     1      -8.047  13.740  68.052  1.00  0.00    -0.163 A  
HETATM   25  C   UNL     1      -7.325  12.631  68.504  1.00  0.00    -0.115 A  
HETATM   26  C   UNL     1      -6.444  12.758  69.577  1.00  0.00    -0.077 A  
HETATM   27  C   UNL     1      -6.273  13.995  70.194  1.00  0.00    -0.138 A  
HETATM   28  C   UNL     1      -6.988  15.106  69.746  1.00  0.00    -0.174 A  
ENDBRANCH  21  23
ENDBRANCH  20  21
ENDBRANCH  19  20
ENDBRANCH  16  19
ENDBRANCH  14  15
ENDBRANCH  12  14
ENDBRANCH   9  10
ENDBRANCH   6   9
ENDBRANCH   3   5
TORSDOF 9
ENDMDL
MODEL      260
REMARK 921   NORMALIZED FREE ENERGY PREDICTED BY IDOCK:   -4.32 KCAL/MOL
REMARK 922        TOTAL FREE ENERGY PREDICTED BY IDOCK:   -7.43 KCAL/MOL
REMARK 923 INTER-LIGAND FREE ENERGY PREDICTED BY IDOCK:   -5.77 KCAL/MOL
REMARK 924 INTRA-LIGAND FREE ENERGY PREDICTED BY IDOCK:   -1.66 KCAL/MOL
REMARK 927      BINDING AFFINITY PREDICTED BY RF-SCORE:    0.00 PKD
ROOT
HETATM    1  O   UNL     1      -9.364   2.977  69.134  1.00  0.00    -0.148 OA 
HETATM    2  C   UNL     1      -8.206   3.479  69.627  1.00  0.00    -0.052 C  
HETATM    3  C   UNL     1      -8.299   4.929  70.089  1.00  0.00    -0.080 C  
HETATM    4  O   UNL     1      -7.176   2.826  69.665  1.00  0.00    -0.043 OA 
ENDROOT
BRANCH   3   5
HETATM    5  N   UNL     1      -9.632   5.495  69.908  1.00  0.00    -0.155 N  
HETATM    6  C   UNL     1     -10.371   5.976  70.968  1.00  0.00    -0.216 C  
HETATM    7  H   UNL     1     -10.029   5.535  68.969  1.00  0.00     0.000 HD 
HETATM    8  O   UNL     1      -9.975   5.922  72.128  1.00  0.00    -0.169 OA 
BRANCH   6   9
HETATM    9  C   UNL     1     -11.748   6.549  70.606  1.00  0.00    -0.374 C  
BRANCH   9  10
HETATM   10  N   UNL     1     -11.746   7.989  70.413  1.00  0.00    -0.469 N  
HETATM   11  H   UNL     1     -11.433   8.364  69.519  1.00  0.00     0.000 HD 
HETATM   12  C   UNL     1     -12.151   8.865  71.395  1.00  0.00    -0.322 C  
HETATM   13  O   UNL     1     -12.570   8.482  72.484  1.00  0.00    -0.376 OA 
BRANCH  12  14
HETATM   14  C   UNL     1     -12.038  10.350  71.024  1.00  0.00    -0.385 C  
BRANCH  14  15
HETATM   15  N   UNL     1     -11.003  10.614  70.029  1.00  0.00    -0.393 N  
HETATM   16  C   UNL     1     -11.299  11.282  68.858  1.00  0.00    -0.275 C  
HETATM   17  H   UNL     1     -10.048  10.300  70.201  1.00  0.00     0.000 HD 
HETATM   18  O   UNL     1     -12.452  11.556  68.534  1.00  0.00    -0.328 OA 
BRANCH  16  19
HETATM   19  C   UNL     1     -10.101  11.573  67.970  1.00  0.00    -0.186 C  
BRANCH  19  20
HETATM   20  S   UNL     1      -9.912  10.341  66.663  1.00  0.00    -0.225 SA 
BRANCH  20  21
HETATM   21  C   UNL     1      -9.076   9.074  67.548  1.00  0.00    -0.132 C  
HETATM   22  O   UNL     1      -8.353   9.340  68.505  1.00  0.00    -0.116 OA 
BRANCH  21  23
HETATM   23  C   UNL     1      -9.266   7.674  67.080  1.00  0.00    -0.158 A  
HETATM   24  C   UNL     1     -10.568   7.168  66.972  1.00  0.00    -0.413 A  
HETATM   25  C   UNL     1     -10.775   5.840  66.586  1.00  0.00    -0.333 A  
HETATM   26  C   UNL     1      -9.686   5.011  66.317  1.00  0.00    -0.195 A  
HETATM   27  C   UNL     1      -8.389   5.509  66.421  1.00  0.00    -0.111 A  
HETATM   28  C   UNL     1      -8.177   6.834  66.802  1.00  0.00    -0.114 A  
ENDBRANCH  21  23
ENDBRANCH  20  21
ENDBRANCH  19  20
ENDBRANCH  16  19
ENDBRANCH  14  15
ENDBRANCH  12  14
ENDBRANCH   9  10
ENDBRANCH   6   9
ENDBRANCH   3   5
TORSDOF 9
ENDMDL
MODEL      261
REMARK 921   NORMALIZED FREE ENERGY PREDICTED BY IDOCK:   -4.31 KCAL/MOL
REMARK 922        TOTAL FREE ENERGY PREDICTED BY IDOCK:   -7.42 KCAL/MOL
REMARK 923 INTER-LIGAND FREE ENERGY PREDICTED BY IDOCK:   -6.14 KCAL/MOL
REMARK 924 INTRA-LIGAND FREE ENERGY PREDICTED BY IDOCK:   -1.29 KCAL/MOL
REMARK 927      BINDING AFFINITY PREDICTED BY RF-SCORE:    0.00 PKD
ROOT
HETATM    1  O   UNL     1      -9.706  15.713  69.620  1.00  0.00    -0.274 OA 
HETATM    2  C   UNL     1     -10.507  16.472  68.835  1.00  0.00    -0.304 C  
HETATM    3  C   UNL     1     -11.493  15.672  67.989  1.00  0.00    -0.291 C  
HETATM    4  O   UNL     1     -10.419  17.688  68.793  1.00  0.00    -0.351 OA 
ENDROOT
BRANCH   3   5
HETATM    5  N   UNL     1     -11.376  14.233  68.197  1.00  0.00    -0.273 N  
HETATM    6  C   UNL     1     -12.026  13.588  69.229  1.00  0.00    -0.330 C  
HETATM    7  H   UNL     1     -10.797  13.686  67.560  1.00  0.00     0.000 HD 
HETATM    8  O   UNL     1     -12.705  14.187  70.057  1.00  0.00    -0.292 OA 
BRANCH   6   9
HETATM    9  C   UNL     1     -11.809  12.071  69.301  1.00  0.00    -0.318 C  
BRANCH   9  10
HETATM   10  N   UNL     1     -10.433  11.693  69.573  1.00  0.00    -0.429 N  
HETATM   11  H   UNL     1     -10.040  11.897  70.492  1.00  0.00     0.000 HD 
HETATM   12  C   UNL     1      -9.639  11.070  68.637  1.00  0.00    -0.195 C  
HETATM   13  O   UNL     1     -10.056  10.767  67.522  1.00  0.00    -0.177 OA 
BRANCH  12  14
HETATM   14  C   UNL     1      -8.201  10.788  69.091  1.00  0.00    -0.120 C  
BRANCH  14  15
HETATM   15  N   UNL     1      -7.327  11.952  68.978  1.00  0.00    -0.260 N  
HETATM   16  C   UNL     1      -6.267  12.130  69.844  1.00  0.00    -0.120 C  
HETATM   17  H   UNL     1      -7.501  12.643  68.248  1.00  0.00     0.000 HD 
HETATM   18  O   UNL     1      -6.096  11.410  70.824  1.00  0.00    -0.348 OA 
BRANCH  16  19
HETATM   19  C   UNL     1      -5.388  13.331  69.538  1.00  0.00    -0.086 C  
BRANCH  19  20
HETATM   20  S   UNL     1      -6.282  14.889  69.722  1.00  0.00    -0.155 SA 
BRANCH  20  21
HETATM   21  C   UNL     1      -6.584  15.276  68.034  1.00  0.00    -0.141 C  
HETATM   22  O   UNL     1      -6.598  14.398  67.175  1.00  0.00    -0.205 OA 
BRANCH  21  23
HETATM   23  C   UNL     1      -6.803  16.707  67.689  1.00  0.00    -0.162 A  
HETATM   24  C   UNL     1      -6.864  17.076  66.339  1.00  0.00    -0.248 A  
HETATM   25  C   UNL     1      -7.015  18.421  65.986  1.00  0.00    -0.310 A  
HETATM   26  C   UNL     1      -7.097  19.400  66.975  1.00  0.00    -0.222 A  
HETATM   27  C   UNL     1      -7.039  19.038  68.319  1.00  0.00    -0.296 A  
HETATM   28  C   UNL     1      -6.892  17.699  68.678  1.00  0.00    -0.229 A  
ENDBRANCH  21  23
ENDBRANCH  20  21
ENDBRANCH  19  20
ENDBRANCH  16  19
ENDBRANCH  14  15
ENDBRANCH  12  14
ENDBRANCH   9  10
ENDBRANCH   6   9
ENDBRANCH   3   5
TORSDOF 9
ENDMDL
MODEL      262
REMARK 921   NORMALIZED FREE ENERGY PREDICTED BY IDOCK:   -4.31 KCAL/MOL
REMARK 922        TOTAL FREE ENERGY PREDICTED BY IDOCK:   -7.41 KCAL/MOL
REMARK 923 INTER-LIGAND FREE ENERGY PREDICTED BY IDOCK:   -6.36 KCAL/MOL
REMARK 924 INTRA-LIGAND FREE ENERGY PREDICTED BY IDOCK:   -1.05 KCAL/MOL
REMARK 927      BINDING AFFINITY PREDICTED BY RF-SCORE:    0.00 PKD
ROOT
HETATM    1  O   UNL     1     -10.327   4.862  66.232  1.00  0.00    -0.255 OA 
HETATM    2  C   UNL     1      -9.701   4.267  65.188  1.00  0.00    -0.194 C  
HETATM    3  C   UNL     1      -8.702   5.164  64.465  1.00  0.00    -0.106 C  
HETATM    4  O   UNL     1      -9.946   3.122  64.847  1.00  0.00    -0.086 OA 
ENDROOT
BRANCH   3   5
HETATM    5  N   UNL     1      -8.616   6.499  65.047  1.00  0.00    -0.342 N  
HETATM    6  C   UNL     1      -7.515   7.308  64.861  1.00  0.00    -0.091 C  
HETATM    7  H   UNL     1      -9.394   6.844  65.610  1.00  0.00     0.000 HD 
HETATM    8  O   UNL     1      -6.527   6.943  64.232  1.00  0.00    -0.035 OA 
BRANCH   6   9
HETATM    9  C   UNL     1      -7.588   8.686  65.530  1.00  0.00    -0.087 C  
BRANCH   9  10
HETATM   10  N   UNL     1      -8.462   9.621  64.843  1.00  0.00    -0.140 N  
HETATM   11  H   UNL     1      -8.098  10.137  64.043  1.00  0.00     0.000 HD 
HETATM   12  C   UNL     1      -9.765   9.835  65.233  1.00  0.00    -0.300 C  
HETATM   13  O   UNL     1     -10.278   9.225  66.168  1.00  0.00    -0.273 OA 
BRANCH  12  14
HETATM   14  C   UNL     1     -10.521  10.891  64.415  1.00  0.00    -0.333 C  
BRANCH  14  15
HETATM   15  N   UNL     1     -10.518  12.210  65.042  1.00  0.00    -0.280 N  
HETATM   16  C   UNL     1     -11.666  12.975  65.090  1.00  0.00    -0.343 C  
HETATM   17  H   UNL     1      -9.656  12.571  65.451  1.00  0.00     0.000 HD 
HETATM   18  O   UNL     1     -12.691  12.655  64.492  1.00  0.00    -0.650 OA 
BRANCH  16  19
HETATM   19  C   UNL     1     -11.534  14.276  65.864  1.00  0.00    -0.335 C  
BRANCH  19  20
HETATM   20  S   UNL     1     -10.325  14.149  67.199  1.00  0.00    -0.267 SA 
BRANCH  20  21
HETATM   21  C   UNL     1     -11.369  13.631  68.515  1.00  0.00    -0.290 C  
HETATM   22  O   UNL     1     -12.252  14.365  68.950  1.00  0.00    -0.281 OA 
BRANCH  21  23
HETATM   23  C   UNL     1     -11.127  12.278  69.088  1.00  0.00    -0.261 A  
HETATM   24  C   UNL     1     -12.122  11.690  69.879  1.00  0.00    -0.373 A  
HETATM   25  C   UNL     1     -11.901  10.444  70.473  1.00  0.00    -0.430 A  
HETATM   26  C   UNL     1     -10.685   9.786  70.289  1.00  0.00    -0.358 A  
HETATM   27  C   UNL     1      -9.693  10.365  69.501  1.00  0.00    -0.196 A  
HETATM   28  C   UNL     1      -9.909  11.607  68.903  1.00  0.00    -0.057 A  
ENDBRANCH  21  23
ENDBRANCH  20  21
ENDBRANCH  19  20
ENDBRANCH  16  19
ENDBRANCH  14  15
ENDBRANCH  12  14
ENDBRANCH   9  10
ENDBRANCH   6   9
ENDBRANCH   3   5
TORSDOF 9
ENDMDL
MODEL      263
REMARK 921   NORMALIZED FREE ENERGY PREDICTED BY IDOCK:   -4.29 KCAL/MOL
REMARK 922        TOTAL FREE ENERGY PREDICTED BY IDOCK:   -7.39 KCAL/MOL
REMARK 923 INTER-LIGAND FREE ENERGY PREDICTED BY IDOCK:   -6.27 KCAL/MOL
REMARK 924 INTRA-LIGAND FREE ENERGY PREDICTED BY IDOCK:   -1.12 KCAL/MOL
REMARK 927      BINDING AFFINITY PREDICTED BY RF-SCORE:    0.00 PKD
ROOT
HETATM    1  O   UNL     1      -9.408   7.452  68.775  1.00  0.00    -0.144 OA 
HETATM    2  C   UNL     1     -10.045   8.292  69.626  1.00  0.00    -0.199 C  
HETATM    3  C   UNL     1     -10.067   9.747  69.168  1.00  0.00    -0.192 C  
HETATM    4  O   UNL     1     -10.530   7.911  70.678  1.00  0.00    -0.209 OA 
ENDROOT
BRANCH   3   5
HETATM    5  N   UNL     1      -9.391   9.947  67.891  1.00  0.00    -0.137 N  
HETATM    6  C   UNL     1      -8.268  10.740  67.775  1.00  0.00    -0.112 C  
HETATM    7  H   UNL     1      -9.760   9.488  67.058  1.00  0.00     0.000 HD 
HETATM    8  O   UNL     1      -7.794  11.356  68.724  1.00  0.00    -0.136 OA 
BRANCH   6   9
HETATM    9  C   UNL     1      -7.672  10.838  66.365  1.00  0.00    -0.145 C  
BRANCH   9  10
HETATM   10  N   UNL     1      -8.636  11.228  65.352  1.00  0.00    -0.386 N  
HETATM   11  H   UNL     1      -8.762  12.219  65.148  1.00  0.00     0.000 HD 
HETATM   12  C   UNL     1      -9.388  10.308  64.655  1.00  0.00    -0.266 C  
HETATM   13  O   UNL     1      -9.266   9.098  64.826  1.00  0.00    -0.174 OA 
BRANCH  12  14
HETATM   14  C   UNL     1     -10.385  10.910  63.656  1.00  0.00    -0.298 C  
BRANCH  14  15
HETATM   15  N   UNL     1     -10.735  12.294  63.960  1.00  0.00    -0.359 N  
HETATM   16  C   UNL     1     -12.046  12.660  64.192  1.00  0.00    -0.439 C  
HETATM   17  H   UNL     1     -10.001  13.001  64.003  1.00  0.00     0.000 HD 
HETATM   18  O   UNL     1     -12.982  11.885  64.015  1.00  0.00    -0.532 OA 
BRANCH  16  19
HETATM   19  C   UNL     1     -12.240  14.112  64.597  1.00  0.00    -0.445 C  
BRANCH  19  20
HETATM   20  S   UNL     1     -10.669  14.940  64.922  1.00  0.00    -0.358 SA 
BRANCH  20  21
HETATM   21  C   UNL     1     -10.274  14.251  66.491  1.00  0.00    -0.276 C  
HETATM   22  O   UNL     1     -10.801  13.212  66.878  1.00  0.00    -0.262 OA 
BRANCH  21  23
HETATM   23  C   UNL     1      -9.292  14.988  67.332  1.00  0.00    -0.204 A  
HETATM   24  C   UNL     1      -8.064  14.381  67.627  1.00  0.00    -0.188 A  
HETATM   25  C   UNL     1      -7.144  15.026  68.458  1.00  0.00    -0.110 A  
HETATM   26  C   UNL     1      -7.448  16.272  69.006  1.00  0.00    -0.220 A  
HETATM   27  C   UNL     1      -8.667  16.881  68.715  1.00  0.00    -0.248 A  
HETATM   28  C   UNL     1      -9.587  16.244  67.883  1.00  0.00    -0.227 A  
ENDBRANCH  21  23
ENDBRANCH  20  21
ENDBRANCH  19  20
ENDBRANCH  16  19
ENDBRANCH  14  15
ENDBRANCH  12  14
ENDBRANCH   9  10
ENDBRANCH   6   9
ENDBRANCH   3   5
TORSDOF 9
ENDMDL
MODEL      264
REMARK 921   NORMALIZED FREE ENERGY PREDICTED BY IDOCK:   -4.28 KCAL/MOL
REMARK 922        TOTAL FREE ENERGY PREDICTED BY IDOCK:   -7.37 KCAL/MOL
REMARK 923 INTER-LIGAND FREE ENERGY PREDICTED BY IDOCK:   -6.69 KCAL/MOL
REMARK 924 INTRA-LIGAND FREE ENERGY PREDICTED BY IDOCK:   -0.68 KCAL/MOL
REMARK 927      BINDING AFFINITY PREDICTED BY RF-SCORE:    0.00 PKD
ROOT
HETATM    1  O   UNL     1     -10.022   3.110  62.995  1.00  0.00    -0.102 OA 
HETATM    2  C   UNL     1      -8.688   3.199  63.211  1.00  0.00    -0.089 C  
HETATM    3  C   UNL     1      -8.291   4.241  64.250  1.00  0.00    -0.105 C  
HETATM    4  O   UNL     1      -7.881   2.519  62.598  1.00  0.00    -0.060 OA 
ENDROOT
BRANCH   3   5
HETATM    5  N   UNL     1      -9.439   4.943  64.814  1.00  0.00    -0.350 N  
HETATM    6  C   UNL     1      -9.768   4.850  66.150  1.00  0.00    -0.190 C  
HETATM    7  H   UNL     1     -10.017   5.519  64.201  1.00  0.00     0.000 HD 
HETATM    8  O   UNL     1      -9.145   4.144  66.936  1.00  0.00    -0.123 OA 
BRANCH   6   9
HETATM    9  C   UNL     1     -10.998   5.658  66.584  1.00  0.00    -0.091 C  
BRANCH   9  10
HETATM   10  N   UNL     1     -10.672   6.835  67.372  1.00  0.00    -0.294 N  
HETATM   11  H   UNL     1     -10.236   7.631  66.908  1.00  0.00     0.000 HD 
HETATM   12  C   UNL     1     -10.929   6.913  68.722  1.00  0.00    -0.157 C  
HETATM   13  O   UNL     1     -11.479   6.004  69.339  1.00  0.00    -0.372 OA 
BRANCH  12  14
HETATM   14  C   UNL     1     -10.475   8.216  69.394  1.00  0.00    -0.220 C  
BRANCH  14  15
HETATM   15  N   UNL     1     -11.190   9.391  68.905  1.00  0.00    -0.451 N  
HETATM   16  C   UNL     1     -10.729  10.101  67.815  1.00  0.00    -0.277 C  
HETATM   17  H   UNL     1     -12.044   9.692  69.376  1.00  0.00     0.000 HD 
HETATM   18  O   UNL     1      -9.638   9.871  67.299  1.00  0.00    -0.153 OA 
BRANCH  16  19
HETATM   19  C   UNL     1     -11.634  11.234  67.362  1.00  0.00    -0.130 C  
BRANCH  19  20
HETATM   20  S   UNL     1     -11.031  12.020  65.852  1.00  0.00    -0.308 SA 
BRANCH  20  21
HETATM   21  C   UNL     1     -12.041  13.459  65.826  1.00  0.00    -0.436 C  
HETATM   22  O   UNL     1     -13.160  13.439  65.321  1.00  0.00    -0.687 OA 
BRANCH  21  23
HETATM   23  C   UNL     1     -11.477  14.700  66.425  1.00  0.00    -0.348 A  
HETATM   24  C   UNL     1     -10.734  15.566  65.611  1.00  0.00    -0.378 A  
HETATM   25  C   UNL     1     -10.148  16.711  66.158  1.00  0.00    -0.361 A  
HETATM   26  C   UNL     1     -10.292  16.991  67.517  1.00  0.00    -0.329 A  
HETATM   27  C   UNL     1     -11.031  16.135  68.330  1.00  0.00    -0.340 A  
HETATM   28  C   UNL     1     -11.621  14.992  67.789  1.00  0.00    -0.336 A  
ENDBRANCH  21  23
ENDBRANCH  20  21
ENDBRANCH  19  20
ENDBRANCH  16  19
ENDBRANCH  14  15
ENDBRANCH  12  14
ENDBRANCH   9  10
ENDBRANCH   6   9
ENDBRANCH   3   5
TORSDOF 9
ENDMDL
MODEL      265
REMARK 921   NORMALIZED FREE ENERGY PREDICTED BY IDOCK:   -4.27 KCAL/MOL
REMARK 922        TOTAL FREE ENERGY PREDICTED BY IDOCK:   -7.36 KCAL/MOL
REMARK 923 INTER-LIGAND FREE ENERGY PREDICTED BY IDOCK:   -6.76 KCAL/MOL
REMARK 924 INTRA-LIGAND FREE ENERGY PREDICTED BY IDOCK:   -0.59 KCAL/MOL
REMARK 927      BINDING AFFINITY PREDICTED BY RF-SCORE:    0.00 PKD
ROOT
HETATM    1  O   UNL     1     -11.451   6.271  70.337  1.00  0.00    -0.364 OA 
HETATM    2  C   UNL     1     -11.891   6.693  71.547  1.00  0.00    -0.337 C  
HETATM    3  C   UNL     1     -11.588   8.157  71.846  1.00  0.00    -0.306 C  
HETATM    4  O   UNL     1     -12.452   5.948  72.333  1.00  0.00    -0.152 OA 
ENDROOT
BRANCH   3   5
HETATM    5  N   UNL     1     -10.879   8.821  70.758  1.00  0.00    -0.224 N  
HETATM    6  C   UNL     1     -11.410   9.908  70.096  1.00  0.00    -0.275 C  
HETATM    7  H   UNL     1      -9.962   8.471  70.479  1.00  0.00     0.000 HD 
HETATM    8  O   UNL     1     -12.524  10.356  70.349  1.00  0.00    -0.296 OA 
BRANCH   6   9
HETATM    9  C   UNL     1     -10.532  10.497  68.984  1.00  0.00    -0.217 C  
BRANCH   9  10
HETATM   10  N   UNL     1     -11.186  11.547  68.222  1.00  0.00    -0.237 N  
HETATM   11  H   UNL     1     -11.713  12.262  68.723  1.00  0.00     0.000 HD 
HETATM   12  C   UNL     1     -11.120  11.613  66.849  1.00  0.00    -0.308 C  
HETATM   13  O   UNL     1     -10.477  10.805  66.184  1.00  0.00    -0.249 OA 
BRANCH  12  14
HETATM   14  C   UNL     1     -11.909  12.768  66.217  1.00  0.00    -0.423 C  
BRANCH  14  15
HETATM   15  N   UNL     1     -11.667  14.051  66.870  1.00  0.00    -0.388 N  
HETATM   16  C   UNL     1     -10.963  15.051  66.230  1.00  0.00    -0.338 C  
HETATM   17  H   UNL     1     -12.024  14.211  67.812  1.00  0.00     0.000 HD 
HETATM   18  O   UNL     1     -10.390  14.865  65.159  1.00  0.00    -0.382 OA 
BRANCH  16  19
HETATM   19  C   UNL     1     -10.882  16.362  66.994  1.00  0.00    -0.145 C  
BRANCH  19  20
HETATM   20  S   UNL     1     -10.145  17.679  66.002  1.00  0.00    -0.198 SA 
BRANCH  20  21
HETATM   21  C   UNL     1      -9.477  18.690  67.275  1.00  0.00    -0.298 C  
HETATM   22  O   UNL     1     -10.161  19.548  67.828  1.00  0.00    -0.364 OA 
BRANCH  21  23
HETATM   23  C   UNL     1      -8.050  18.476  67.641  1.00  0.00    -0.262 A  
HETATM   24  C   UNL     1      -7.054  19.073  66.857  1.00  0.00    -0.215 A  
HETATM   25  C   UNL     1      -5.705  18.846  67.145  1.00  0.00    -0.157 A  
HETATM   26  C   UNL     1      -5.345  18.016  68.206  1.00  0.00    -0.160 A  
HETATM   27  C   UNL     1      -6.331  17.421  68.990  1.00  0.00    -0.220 A  
HETATM   28  C   UNL     1      -7.679  17.647  68.710  1.00  0.00    -0.246 A  
ENDBRANCH  21  23
ENDBRANCH  20  21
ENDBRANCH  19  20
ENDBRANCH  16  19
ENDBRANCH  14  15
ENDBRANCH  12  14
ENDBRANCH   9  10
ENDBRANCH   6   9
ENDBRANCH   3   5
TORSDOF 9
ENDMDL
MODEL      266
REMARK 921   NORMALIZED FREE ENERGY PREDICTED BY IDOCK:   -4.25 KCAL/MOL
REMARK 922        TOTAL FREE ENERGY PREDICTED BY IDOCK:   -7.33 KCAL/MOL
REMARK 923 INTER-LIGAND FREE ENERGY PREDICTED BY IDOCK:   -6.12 KCAL/MOL
REMARK 924 INTRA-LIGAND FREE ENERGY PREDICTED BY IDOCK:   -1.22 KCAL/MOL
REMARK 927      BINDING AFFINITY PREDICTED BY RF-SCORE:    0.00 PKD
ROOT
HETATM    1  O   UNL     1      -7.118  14.850  69.955  1.00  0.00    -0.176 OA 
HETATM    2  C   UNL     1      -6.257  14.497  68.971  1.00  0.00    -0.092 C  
HETATM    3  C   UNL     1      -6.839  14.600  67.565  1.00  0.00    -0.149 C  
HETATM    4  O   UNL     1      -5.126  14.104  69.203  1.00  0.00    -0.078 OA 
ENDROOT
BRANCH   3   5
HETATM    5  N   UNL     1      -8.222  15.065  67.559  1.00  0.00    -0.168 N  
HETATM    6  C   UNL     1      -8.651  16.071  66.719  1.00  0.00    -0.257 C  
HETATM    7  H   UNL     1      -8.892  14.632  68.195  1.00  0.00     0.000 HD 
HETATM    8  O   UNL     1      -7.892  16.665  65.959  1.00  0.00    -0.262 OA 
BRANCH   6   9
HETATM    9  C   UNL     1     -10.137  16.433  66.829  1.00  0.00    -0.285 C  
BRANCH   9  10
HETATM   10  N   UNL     1     -11.009  15.547  66.077  1.00  0.00    -0.292 N  
HETATM   11  H   UNL     1     -11.161  15.731  65.086  1.00  0.00     0.000 HD 
HETATM   12  C   UNL     1     -11.636  14.465  66.654  1.00  0.00    -0.384 C  
HETATM   13  O   UNL     1     -11.473  14.166  67.834  1.00  0.00    -0.278 OA 
BRANCH  12  14
HETATM   14  C   UNL     1     -12.552  13.670  65.713  1.00  0.00    -0.461 C  
BRANCH  14  15
HETATM   15  N   UNL     1     -12.120  12.288  65.529  1.00  0.00    -0.350 N  
HETATM   16  C   UNL     1     -10.921  11.995  64.911  1.00  0.00    -0.306 C  
HETATM   17  H   UNL     1     -12.714  11.527  65.861  1.00  0.00     0.000 HD 
HETATM   18  O   UNL     1     -10.238  12.859  64.367  1.00  0.00    -0.362 OA 
BRANCH  16  19
HETATM   19  C   UNL     1     -10.561  10.519  64.885  1.00  0.00    -0.028 C  
BRANCH  19  20
HETATM   20  S   UNL     1      -9.176  10.141  65.979  1.00  0.00    -0.168 SA 
BRANCH  20  21
HETATM   21  C   UNL     1      -9.890   8.865  66.955  1.00  0.00    -0.223 C  
HETATM   22  O   UNL     1     -10.106   7.751  66.484  1.00  0.00    -0.233 OA 
BRANCH  21  23
HETATM   23  C   UNL     1     -10.236   9.195  68.365  1.00  0.00    -0.230 A  
HETATM   24  C   UNL     1     -10.794  10.449  68.648  1.00  0.00    -0.270 A  
HETATM   25  C   UNL     1     -11.079  10.807  69.969  1.00  0.00    -0.327 A  
HETATM   26  C   UNL     1     -10.802   9.923  71.010  1.00  0.00    -0.300 A  
HETATM   27  C   UNL     1     -10.250   8.674  70.734  1.00  0.00    -0.250 A  
HETATM   28  C   UNL     1      -9.965   8.310  69.418  1.00  0.00    -0.188 A  
ENDBRANCH  21  23
ENDBRANCH  20  21
ENDBRANCH  19  20
ENDBRANCH  16  19
ENDBRANCH  14  15
ENDBRANCH  12  14
ENDBRANCH   9  10
ENDBRANCH   6   9
ENDBRANCH   3   5
TORSDOF 9
ENDMDL
MODEL      267
REMARK 921   NORMALIZED FREE ENERGY PREDICTED BY IDOCK:   -4.25 KCAL/MOL
REMARK 922        TOTAL FREE ENERGY PREDICTED BY IDOCK:   -7.33 KCAL/MOL
REMARK 923 INTER-LIGAND FREE ENERGY PREDICTED BY IDOCK:   -6.28 KCAL/MOL
REMARK 924 INTRA-LIGAND FREE ENERGY PREDICTED BY IDOCK:   -1.04 KCAL/MOL
REMARK 927      BINDING AFFINITY PREDICTED BY RF-SCORE:    0.00 PKD
ROOT
HETATM    1  O   UNL     1     -11.468  10.621  68.765  1.00  0.00    -0.266 OA 
HETATM    2  C   UNL     1     -11.661  10.460  70.096  1.00  0.00    -0.312 C  
HETATM    3  C   UNL     1     -10.590   9.622  70.786  1.00  0.00    -0.322 C  
HETATM    4  O   UNL     1     -12.628  10.924  70.676  1.00  0.00    -0.331 OA 
ENDROOT
BRANCH   3   5
HETATM    5  N   UNL     1      -9.557   9.157  69.866  1.00  0.00    -0.181 N  
HETATM    6  C   UNL     1      -9.409   7.823  69.548  1.00  0.00    -0.149 C  
HETATM    7  H   UNL     1      -8.925   9.838  69.445  1.00  0.00     0.000 HD 
HETATM    8  O   UNL     1     -10.105   6.944  70.047  1.00  0.00    -0.179 OA 
BRANCH   6   9
HETATM    9  C   UNL     1      -8.283   7.501  68.557  1.00  0.00    -0.125 C  
BRANCH   9  10
HETATM   10  N   UNL     1      -7.467   8.652  68.210  1.00  0.00    -0.094 N  
HETATM   11  H   UNL     1      -6.961   9.136  68.951  1.00  0.00     0.000 HD 
HETATM   12  C   UNL     1      -7.353   9.113  66.918  1.00  0.00    -0.090 C  
HETATM   13  O   UNL     1      -7.909   8.560  65.973  1.00  0.00    -0.094 OA 
BRANCH  12  14
HETATM   14  C   UNL     1      -6.482  10.366  66.752  1.00  0.00    -0.076 C  
BRANCH  14  15
HETATM   15  N   UNL     1      -7.261  11.573  66.490  1.00  0.00    -0.337 N  
HETATM   16  C   UNL     1      -7.983  12.184  67.496  1.00  0.00    -0.163 C  
HETATM   17  H   UNL     1      -7.272  11.970  65.550  1.00  0.00     0.000 HD 
HETATM   18  O   UNL     1      -8.121  11.673  68.604  1.00  0.00    -0.150 OA 
BRANCH  16  19
HETATM   19  C   UNL     1      -8.658  13.485  67.095  1.00  0.00    -0.195 C  
BRANCH  19  20
HETATM   20  S   UNL     1      -8.922  14.574  68.512  1.00  0.00    -0.183 SA 
BRANCH  20  21
HETATM   21  C   UNL     1     -10.617  14.980  68.279  1.00  0.00    -0.247 C  
HETATM   22  O   UNL     1     -11.310  15.369  69.216  1.00  0.00    -0.273 OA 
BRANCH  21  23
HETATM   23  C   UNL     1     -11.177  14.815  66.910  1.00  0.00    -0.347 A  
HETATM   24  C   UNL     1     -10.686  15.624  65.876  1.00  0.00    -0.336 A  
HETATM   25  C   UNL     1     -11.230  15.528  64.592  1.00  0.00    -0.381 A  
HETATM   26  C   UNL     1     -12.271  14.636  64.337  1.00  0.00    -0.473 A  
HETATM   27  C   UNL     1     -12.762  13.828  65.360  1.00  0.00    -0.513 A  
HETATM   28  C   UNL     1     -12.220  13.916  66.643  1.00  0.00    -0.465 A  
ENDBRANCH  21  23
ENDBRANCH  20  21
ENDBRANCH  19  20
ENDBRANCH  16  19
ENDBRANCH  14  15
ENDBRANCH  12  14
ENDBRANCH   9  10
ENDBRANCH   6   9
ENDBRANCH   3   5
TORSDOF 9
ENDMDL
MODEL      268
REMARK 921   NORMALIZED FREE ENERGY PREDICTED BY IDOCK:   -4.23 KCAL/MOL
REMARK 922        TOTAL FREE ENERGY PREDICTED BY IDOCK:   -7.29 KCAL/MOL
REMARK 923 INTER-LIGAND FREE ENERGY PREDICTED BY IDOCK:   -5.97 KCAL/MOL
REMARK 924 INTRA-LIGAND FREE ENERGY PREDICTED BY IDOCK:   -1.32 KCAL/MOL
REMARK 927      BINDING AFFINITY PREDICTED BY RF-SCORE:    0.00 PKD
ROOT
HETATM    1  O   UNL     1     -12.785  12.212  71.415  1.00  0.00    -0.358 OA 
HETATM    2  C   UNL     1     -13.022  13.512  71.119  1.00  0.00    -0.262 C  
HETATM    3  C   UNL     1     -12.074  14.099  70.079  1.00  0.00    -0.346 C  
HETATM    4  O   UNL     1     -13.902  14.156  71.665  1.00  0.00    -0.374 OA 
ENDROOT
BRANCH   3   5
HETATM    5  N   UNL     1     -11.089  13.133  69.603  1.00  0.00    -0.467 N  
HETATM    6  C   UNL     1     -11.256  12.442  68.421  1.00  0.00    -0.273 C  
HETATM    7  H   UNL     1     -10.252  12.963  70.161  1.00  0.00     0.000 HD 
HETATM    8  O   UNL     1     -12.256  12.563  67.720  1.00  0.00    -0.372 OA 
BRANCH   6   9
HETATM    9  C   UNL     1     -10.124  11.472  68.058  1.00  0.00    -0.186 C  
BRANCH   9  10
HETATM   10  N   UNL     1      -9.497  10.852  69.213  1.00  0.00    -0.410 N  
HETATM   11  H   UNL     1     -10.007  10.829  70.096  1.00  0.00     0.000 HD 
HETATM   12  C   UNL     1      -8.239  10.296  69.159  1.00  0.00    -0.152 C  
HETATM   13  O   UNL     1      -7.581  10.260  68.122  1.00  0.00    -0.086 OA 
BRANCH  12  14
HETATM   14  C   UNL     1      -7.724   9.728  70.489  1.00  0.00    -0.066 C  
BRANCH  14  15
HETATM   15  N   UNL     1      -8.270   8.409  70.797  1.00  0.00    -0.114 N  
HETATM   16  C   UNL     1      -9.529   8.273  71.346  1.00  0.00    -0.175 C  
HETATM   17  H   UNL     1      -7.712   7.576  70.604  1.00  0.00     0.000 HD 
HETATM   18  O   UNL     1     -10.183   9.239  71.729  1.00  0.00    -0.311 OA 
BRANCH  16  19
HETATM   19  C   UNL     1      -9.999   6.838  71.514  1.00  0.00    -0.177 C  
BRANCH  19  20
HETATM   20  S   UNL     1     -11.240   6.383  70.284  1.00  0.00    -0.403 SA 
BRANCH  20  21
HETATM   21  C   UNL     1     -10.246   5.461  69.165  1.00  0.00    -0.232 C  
HETATM   22  O   UNL     1     -10.025   4.267  69.350  1.00  0.00    -0.183 OA 
BRANCH  21  23
HETATM   23  C   UNL     1      -9.672   6.189  68.001  1.00  0.00    -0.122 A  
HETATM   24  C   UNL     1      -8.470   5.733  67.444  1.00  0.00    -0.103 A  
HETATM   25  C   UNL     1      -7.880   6.429  66.384  1.00  0.00    -0.104 A  
HETATM   26  C   UNL     1      -8.480   7.584  65.884  1.00  0.00    -0.153 A  
HETATM   27  C   UNL     1      -9.676   8.040  66.432  1.00  0.00    -0.255 A  
HETATM   28  C   UNL     1     -10.271   7.349  67.488  1.00  0.00    -0.289 A  
ENDBRANCH  21  23
ENDBRANCH  20  21
ENDBRANCH  19  20
ENDBRANCH  16  19
ENDBRANCH  14  15
ENDBRANCH  12  14
ENDBRANCH   9  10
ENDBRANCH   6   9
ENDBRANCH   3   5
TORSDOF 9
ENDMDL
MODEL      269
REMARK 921   NORMALIZED FREE ENERGY PREDICTED BY IDOCK:   -4.22 KCAL/MOL
REMARK 922        TOTAL FREE ENERGY PREDICTED BY IDOCK:   -7.28 KCAL/MOL
REMARK 923 INTER-LIGAND FREE ENERGY PREDICTED BY IDOCK:   -6.58 KCAL/MOL
REMARK 924 INTRA-LIGAND FREE ENERGY PREDICTED BY IDOCK:   -0.71 KCAL/MOL
REMARK 927      BINDING AFFINITY PREDICTED BY RF-SCORE:    0.00 PKD
ROOT
HETATM    1  O   UNL     1      -5.816  10.693  65.287  1.00  0.00    -0.135 OA 
HETATM    2  C   UNL     1      -6.534   9.756  64.623  1.00  0.00    -0.111 C  
HETATM    3  C   UNL     1      -7.733   9.223  65.400  1.00  0.00    -0.099 C  
HETATM    4  O   UNL     1      -6.223   9.359  63.513  1.00  0.00    -0.089 OA 
ENDROOT
BRANCH   3   5
HETATM    5  N   UNL     1      -7.871   9.834  66.717  1.00  0.00    -0.102 N  
HETATM    6  C   UNL     1      -7.985   9.079  67.865  1.00  0.00    -0.102 C  
HETATM    7  H   UNL     1      -7.883  10.852  66.791  1.00  0.00     0.000 HD 
HETATM    8  O   UNL     1      -8.020   7.853  67.848  1.00  0.00    -0.123 OA 
BRANCH   6   9
HETATM    9  C   UNL     1      -8.111   9.876  69.170  1.00  0.00    -0.118 C  
BRANCH   9  10
HETATM   10  N   UNL     1      -9.480  10.224  69.510  1.00  0.00    -0.316 N  
HETATM   11  H   UNL     1      -9.945  10.961  68.980  1.00  0.00     0.000 HD 
HETATM   12  C   UNL     1     -10.172   9.595  70.520  1.00  0.00    -0.287 C  
HETATM   13  O   UNL     1      -9.684   8.679  71.177  1.00  0.00    -0.187 OA 
BRANCH  12  14
HETATM   14  C   UNL     1     -11.591  10.127  70.762  1.00  0.00    -0.357 C  
BRANCH  14  15
HETATM   15  N   UNL     1     -11.725  11.552  70.472  1.00  0.00    -0.485 N  
HETATM   16  C   UNL     1     -12.578  12.349  71.209  1.00  0.00    -0.230 C  
HETATM   17  H   UNL     1     -11.180  11.964  69.715  1.00  0.00     0.000 HD 
HETATM   18  O   UNL     1     -13.359  11.882  72.034  1.00  0.00    -0.487 OA 
BRANCH  16  19
HETATM   19  C   UNL     1     -12.532  13.827  70.858  1.00  0.00    -0.377 C  
BRANCH  19  20
HETATM   20  S   UNL     1     -11.828  14.112  69.220  1.00  0.00    -0.353 SA 
BRANCH  20  21
HETATM   21  C   UNL     1     -11.234  15.754  69.418  1.00  0.00    -0.324 C  
HETATM   22  O   UNL     1     -11.125  16.258  70.533  1.00  0.00    -0.348 OA 
BRANCH  21  23
HETATM   23  C   UNL     1     -10.886  16.509  68.183  1.00  0.00    -0.345 A  
HETATM   24  C   UNL     1     -10.725  15.805  66.983  1.00  0.00    -0.306 A  
HETATM   25  C   UNL     1     -10.347  16.481  65.819  1.00  0.00    -0.359 A  
HETATM   26  C   UNL     1     -10.120  17.856  65.850  1.00  0.00    -0.177 A  
HETATM   27  C   UNL     1     -10.280  18.561  67.040  1.00  0.00    -0.410 A  
HETATM   28  C   UNL     1     -10.661  17.893  68.204  1.00  0.00    -0.351 A  
ENDBRANCH  21  23
ENDBRANCH  20  21
ENDBRANCH  19  20
ENDBRANCH  16  19
ENDBRANCH  14  15
ENDBRANCH  12  14
ENDBRANCH   9  10
ENDBRANCH   6   9
ENDBRANCH   3   5
TORSDOF 9
ENDMDL
MODEL      270
REMARK 921   NORMALIZED FREE ENERGY PREDICTED BY IDOCK:   -4.22 KCAL/MOL
REMARK 922        TOTAL FREE ENERGY PREDICTED BY IDOCK:   -7.28 KCAL/MOL
REMARK 923 INTER-LIGAND FREE ENERGY PREDICTED BY IDOCK:   -6.62 KCAL/MOL
REMARK 924 INTRA-LIGAND FREE ENERGY PREDICTED BY IDOCK:   -0.66 KCAL/MOL
REMARK 927      BINDING AFFINITY PREDICTED BY RF-SCORE:    0.00 PKD
ROOT
HETATM    1  O   UNL     1      -9.992   4.842  67.131  1.00  0.00    -0.186 OA 
HETATM    2  C   UNL     1      -9.593   4.553  65.869  1.00  0.00    -0.189 C  
HETATM    3  C   UNL     1      -8.970   5.730  65.126  1.00  0.00     0.059 C  
HETATM    4  O   UNL     1      -9.751   3.451  65.370  1.00  0.00    -0.143 OA 
ENDROOT
BRANCH   3   5
HETATM    5  N   UNL     1      -8.925   6.946  65.930  1.00  0.00    -0.313 N  
HETATM    6  C   UNL     1      -8.020   7.956  65.679  1.00  0.00    -0.116 C  
HETATM    7  H   UNL     1      -9.583   7.053  66.703  1.00  0.00     0.000 HD 
HETATM    8  O   UNL     1      -7.173   7.878  64.795  1.00  0.00    -0.069 OA 
BRANCH   6   9
HETATM    9  C   UNL     1      -8.111   9.172  66.610  1.00  0.00    -0.111 C  
BRANCH   9  10
HETATM   10  N   UNL     1      -8.999  10.213  66.121  1.00  0.00    -0.147 N  
HETATM   11  H   UNL     1      -8.648  10.871  65.426  1.00  0.00     0.000 HD 
HETATM   12  C   UNL     1     -10.297  10.343  66.560  1.00  0.00    -0.224 C  
HETATM   13  O   UNL     1     -10.795   9.566  67.371  1.00  0.00    -0.269 OA 
BRANCH  12  14
HETATM   14  C   UNL     1     -11.068  11.528  65.963  1.00  0.00    -0.230 C  
BRANCH  14  15
HETATM   15  N   UNL     1     -11.014  12.724  66.798  1.00  0.00    -0.264 N  
HETATM   16  C   UNL     1     -11.869  13.784  66.575  1.00  0.00    -0.407 C  
HETATM   17  H   UNL     1     -10.333  12.778  67.557  1.00  0.00     0.000 HD 
HETATM   18  O   UNL     1     -12.607  13.834  65.594  1.00  0.00    -0.491 OA 
BRANCH  16  19
HETATM   19  C   UNL     1     -11.763  14.913  67.588  1.00  0.00    -0.307 C  
BRANCH  19  20
HETATM   20  S   UNL     1     -10.058  15.198  68.107  1.00  0.00    -0.224 SA 
BRANCH  20  21
HETATM   21  C   UNL     1      -9.483  16.174  66.763  1.00  0.00    -0.238 C  
HETATM   22  O   UNL     1      -9.097  15.653  65.720  1.00  0.00    -0.303 OA 
BRANCH  21  23
HETATM   23  C   UNL     1      -9.466  17.651  66.949  1.00  0.00    -0.278 A  
HETATM   24  C   UNL     1      -8.318  18.366  66.584  1.00  0.00    -0.280 A  
HETATM   25  C   UNL     1      -8.254  19.746  66.797  1.00  0.00    -0.344 A  
HETATM   26  C   UNL     1      -9.329  20.415  67.382  1.00  0.00    -0.536 A  
HETATM   27  C   UNL     1     -10.474  19.710  67.745  1.00  0.00    -0.573 A  
HETATM   28  C   UNL     1     -10.544  18.333  67.532  1.00  0.00    -0.432 A  
ENDBRANCH  21  23
ENDBRANCH  20  21
ENDBRANCH  19  20
ENDBRANCH  16  19
ENDBRANCH  14  15
ENDBRANCH  12  14
ENDBRANCH   9  10
ENDBRANCH   6   9
ENDBRANCH   3   5
TORSDOF 9
ENDMDL
MODEL      271
REMARK 921   NORMALIZED FREE ENERGY PREDICTED BY IDOCK:   -4.21 KCAL/MOL
REMARK 922        TOTAL FREE ENERGY PREDICTED BY IDOCK:   -7.26 KCAL/MOL
REMARK 923 INTER-LIGAND FREE ENERGY PREDICTED BY IDOCK:   -6.53 KCAL/MOL
REMARK 924 INTRA-LIGAND FREE ENERGY PREDICTED BY IDOCK:   -0.73 KCAL/MOL
REMARK 927      BINDING AFFINITY PREDICTED BY RF-SCORE:    0.00 PKD
ROOT
HETATM    1  O   UNL     1     -13.199  13.718  65.422  1.00  0.00    -0.722 OA 
HETATM    2  C   UNL     1     -12.317  13.023  64.666  1.00  0.00    -0.422 C  
HETATM    3  C   UNL     1     -11.323  12.192  65.470  1.00  0.00    -0.344 C  
HETATM    4  O   UNL     1     -12.308  13.088  63.447  1.00  0.00    -0.682 OA 
ENDROOT
BRANCH   3   5
HETATM    5  N   UNL     1     -11.523  12.310  66.910  1.00  0.00    -0.339 N  
HETATM    6  C   UNL     1     -11.479  11.214  67.746  1.00  0.00    -0.272 C  
HETATM    7  H   UNL     1     -11.702  13.231  67.311  1.00  0.00     0.000 HD 
HETATM    8  O   UNL     1     -11.310  10.072  67.330  1.00  0.00    -0.187 OA 
BRANCH   6   9
HETATM    9  C   UNL     1     -11.698  11.511  69.236  1.00  0.00    -0.330 C  
BRANCH   9  10
HETATM   10  N   UNL     1     -12.556  10.545  69.901  1.00  0.00    -0.535 N  
HETATM   11  H   UNL     1     -12.872   9.728  69.380  1.00  0.00     0.000 HD 
HETATM   12  C   UNL     1     -12.957  10.693  71.209  1.00  0.00    -0.414 C  
HETATM   13  O   UNL     1     -12.589  11.636  71.905  1.00  0.00    -0.190 OA 
BRANCH  12  14
HETATM   14  C   UNL     1     -13.898   9.596  71.726  1.00  0.00    -0.186 C  
BRANCH  14  15
HETATM   15  N   UNL     1     -13.189   8.479  72.344  1.00  0.00    -0.560 N  
HETATM   16  C   UNL     1     -12.743   7.415  71.586  1.00  0.00    -0.365 C  
HETATM   17  H   UNL     1     -13.020   8.485  73.350  1.00  0.00     0.000 HD 
HETATM   18  O   UNL     1     -13.040   7.287  70.401  1.00  0.00     0.241 OA 
BRANCH  16  19
HETATM   19  C   UNL     1     -11.933   6.382  72.351  1.00  0.00    -0.170 C  
BRANCH  19  20
HETATM   20  S   UNL     1     -10.484   7.110  73.146  1.00  0.00    -0.356 SA 
BRANCH  20  21
HETATM   21  C   UNL     1      -9.271   5.903  72.744  1.00  0.00    -0.142 C  
HETATM   22  O   UNL     1      -9.570   4.884  72.128  1.00  0.00    -0.145 OA 
BRANCH  21  23
HETATM   23  C   UNL     1      -7.876   6.161  73.196  1.00  0.00    -0.104 A  
HETATM   24  C   UNL     1      -7.281   7.392  72.889  1.00  0.00    -0.079 A  
HETATM   25  C   UNL     1      -5.955   7.640  73.254  1.00  0.00    -0.059 A  
HETATM   26  C   UNL     1      -5.216   6.661  73.917  1.00  0.00    -0.042 A  
HETATM   27  C   UNL     1      -5.802   5.436  74.227  1.00  0.00    -0.048 A  
HETATM   28  C   UNL     1      -7.126   5.184  73.868  1.00  0.00    -0.082 A  
ENDBRANCH  21  23
ENDBRANCH  20  21
ENDBRANCH  19  20
ENDBRANCH  16  19
ENDBRANCH  14  15
ENDBRANCH  12  14
ENDBRANCH   9  10
ENDBRANCH   6   9
ENDBRANCH   3   5
TORSDOF 9
ENDMDL
MODEL      272
REMARK 921   NORMALIZED FREE ENERGY PREDICTED BY IDOCK:   -4.20 KCAL/MOL
REMARK 922        TOTAL FREE ENERGY PREDICTED BY IDOCK:   -7.25 KCAL/MOL
REMARK 923 INTER-LIGAND FREE ENERGY PREDICTED BY IDOCK:   -6.35 KCAL/MOL
REMARK 924 INTRA-LIGAND FREE ENERGY PREDICTED BY IDOCK:   -0.90 KCAL/MOL
REMARK 927      BINDING AFFINITY PREDICTED BY RF-SCORE:    0.00 PKD
ROOT
HETATM    1  O   UNL     1     -11.573   7.503  72.368  1.00  0.00    -0.294 OA 
HETATM    2  C   UNL     1     -12.378   7.120  71.348  1.00  0.00    -0.377 C  
HETATM    3  C   UNL     1     -11.632   6.583  70.132  1.00  0.00    -0.402 C  
HETATM    4  O   UNL     1     -13.592   7.227  71.399  1.00  0.00    -0.388 OA 
ENDROOT
BRANCH   3   5
HETATM    5  N   UNL     1     -10.184   6.587  70.310  1.00  0.00    -0.189 N  
HETATM    6  C   UNL     1      -9.464   5.422  70.470  1.00  0.00    -0.165 C  
HETATM    7  H   UNL     1      -9.689   7.479  70.315  1.00  0.00     0.000 HD 
HETATM    8  O   UNL     1      -9.997   4.318  70.516  1.00  0.00    -0.209 OA 
BRANCH   6   9
HETATM    9  C   UNL     1      -7.949   5.599  70.634  1.00  0.00    -0.104 C  
BRANCH   9  10
HETATM   10  N   UNL     1      -7.488   6.948  70.354  1.00  0.00    -0.084 N  
HETATM   11  H   UNL     1      -7.597   7.319  69.410  1.00  0.00     0.000 HD 
HETATM   12  C   UNL     1      -6.907   7.744  71.315  1.00  0.00    -0.049 C  
HETATM   13  O   UNL     1      -6.772   7.374  72.479  1.00  0.00    -0.058 OA 
BRANCH  12  14
HETATM   14  C   UNL     1      -6.443   9.122  70.822  1.00  0.00    -0.069 C  
BRANCH  14  15
HETATM   15  N   UNL     1      -7.257   9.641  69.727  1.00  0.00    -0.080 N  
HETATM   16  C   UNL     1      -8.613   9.847  69.886  1.00  0.00    -0.194 C  
HETATM   17  H   UNL     1      -6.817   9.856  68.832  1.00  0.00     0.000 HD 
HETATM   18  O   UNL     1      -9.217   9.475  70.889  1.00  0.00    -0.217 OA 
BRANCH  16  19
HETATM   19  C   UNL     1      -9.304  10.488  68.694  1.00  0.00    -0.172 C  
BRANCH  19  20
HETATM   20  S   UNL     1     -11.095  10.264  68.750  1.00  0.00    -0.206 SA 
BRANCH  20  21
HETATM   21  C   UNL     1     -11.618  11.742  67.955  1.00  0.00    -0.316 C  
HETATM   22  O   UNL     1     -11.775  11.786  66.738  1.00  0.00    -0.555 OA 
BRANCH  21  23
HETATM   23  C   UNL     1     -11.843  12.937  68.814  1.00  0.00    -0.353 A  
HETATM   24  C   UNL     1     -12.225  12.749  70.149  1.00  0.00    -0.320 A  
HETATM   25  C   UNL     1     -12.494  13.852  70.964  1.00  0.00    -0.452 A  
HETATM   26  C   UNL     1     -12.394  15.144  70.449  1.00  0.00    -0.411 A  
HETATM   27  C   UNL     1     -12.013  15.338  69.123  1.00  0.00    -0.308 A  
HETATM   28  C   UNL     1     -11.739  14.240  68.306  1.00  0.00    -0.377 A  
ENDBRANCH  21  23
ENDBRANCH  20  21
ENDBRANCH  19  20
ENDBRANCH  16  19
ENDBRANCH  14  15
ENDBRANCH  12  14
ENDBRANCH   9  10
ENDBRANCH   6   9
ENDBRANCH   3   5
TORSDOF 9
ENDMDL
MODEL      273
REMARK 921   NORMALIZED FREE ENERGY PREDICTED BY IDOCK:   -4.18 KCAL/MOL
REMARK 922        TOTAL FREE ENERGY PREDICTED BY IDOCK:   -7.23 KCAL/MOL
REMARK 923 INTER-LIGAND FREE ENERGY PREDICTED BY IDOCK:   -6.36 KCAL/MOL
REMARK 924 INTRA-LIGAND FREE ENERGY PREDICTED BY IDOCK:   -0.86 KCAL/MOL
REMARK 927      BINDING AFFINITY PREDICTED BY RF-SCORE:    0.00 PKD
ROOT
HETATM    1  O   UNL     1     -10.936   8.630  72.572  1.00  0.00    -0.316 OA 
HETATM    2  C   UNL     1     -12.084   8.258  71.957  1.00  0.00    -0.348 C  
HETATM    3  C   UNL     1     -11.896   7.779  70.521  1.00  0.00    -0.045 C  
HETATM    4  O   UNL     1     -13.171   8.331  72.505  1.00  0.00    -0.199 OA 
ENDROOT
BRANCH   3   5
HETATM    5  N   UNL     1     -10.503   7.817  70.091  1.00  0.00    -0.226 N  
HETATM    6  C   UNL     1      -9.746   6.671  69.965  1.00  0.00    -0.162 C  
HETATM    7  H   UNL     1     -10.075   8.718  69.876  1.00  0.00     0.000 HD 
HETATM    8  O   UNL     1     -10.180   5.559  70.246  1.00  0.00    -0.214 OA 
BRANCH   6   9
HETATM    9  C   UNL     1      -8.302   6.882  69.491  1.00  0.00    -0.133 C  
BRANCH   9  10
HETATM   10  N   UNL     1      -7.956   8.278  69.286  1.00  0.00    -0.112 N  
HETATM   11  H   UNL     1      -7.880   8.631  68.332  1.00  0.00     0.000 HD 
HETATM   12  C   UNL     1      -7.726   9.143  70.332  1.00  0.00    -0.127 C  
HETATM   13  O   UNL     1      -7.830   8.794  71.505  1.00  0.00    -0.149 OA 
BRANCH  12  14
HETATM   14  C   UNL     1      -7.329  10.567  69.921  1.00  0.00    -0.108 C  
BRANCH  14  15
HETATM   15  N   UNL     1      -8.171  11.111  68.859  1.00  0.00    -0.256 N  
HETATM   16  C   UNL     1      -9.540  11.204  69.016  1.00  0.00    -0.083 C  
HETATM   17  H   UNL     1      -7.742  11.428  67.990  1.00  0.00     0.000 HD 
HETATM   18  O   UNL     1     -10.122  10.709  69.978  1.00  0.00    -0.041 OA 
BRANCH  16  19
HETATM   19  C   UNL     1     -10.268  11.885  67.870  1.00  0.00    -0.193 C  
BRANCH  19  20
HETATM   20  S   UNL     1     -11.836  12.608  68.399  1.00  0.00    -0.244 SA 
BRANCH  20  21
HETATM   21  C   UNL     1     -11.249  14.010  69.283  1.00  0.00    -0.261 C  
HETATM   22  O   UNL     1     -10.385  14.743  68.808  1.00  0.00    -0.234 OA 
BRANCH  21  23
HETATM   23  C   UNL     1     -11.828  14.259  70.631  1.00  0.00    -0.349 A  
HETATM   24  C   UNL     1     -12.966  13.542  71.022  1.00  0.00    -0.276 A  
HETATM   25  C   UNL     1     -13.562  13.793  72.261  1.00  0.00    -0.656 A  
HETATM   26  C   UNL     1     -13.033  14.766  73.109  1.00  0.00    -0.623 A  
HETATM   27  C   UNL     1     -11.900  15.481  72.727  1.00  0.00    -0.575 A  
HETATM   28  C   UNL     1     -11.299  15.232  71.493  1.00  0.00    -0.432 A  
ENDBRANCH  21  23
ENDBRANCH  20  21
ENDBRANCH  19  20
ENDBRANCH  16  19
ENDBRANCH  14  15
ENDBRANCH  12  14
ENDBRANCH   9  10
ENDBRANCH   6   9
ENDBRANCH   3   5
TORSDOF 9
ENDMDL
MODEL      274
REMARK 921   NORMALIZED FREE ENERGY PREDICTED BY IDOCK:   -4.18 KCAL/MOL
REMARK 922        TOTAL FREE ENERGY PREDICTED BY IDOCK:   -7.22 KCAL/MOL
REMARK 923 INTER-LIGAND FREE ENERGY PREDICTED BY IDOCK:   -5.63 KCAL/MOL
REMARK 924 INTRA-LIGAND FREE ENERGY PREDICTED BY IDOCK:   -1.59 KCAL/MOL
REMARK 927      BINDING AFFINITY PREDICTED BY RF-SCORE:    0.00 PKD
ROOT
HETATM    1  O   UNL     1     -12.354   6.589  70.753  1.00  0.00    -0.284 OA 
HETATM    2  C   UNL     1     -11.555   6.562  71.847  1.00  0.00    -0.312 C  
HETATM    3  C   UNL     1     -10.905   7.901  72.179  1.00  0.00    -0.269 C  
HETATM    4  O   UNL     1     -11.356   5.542  72.485  1.00  0.00    -0.278 OA 
ENDROOT
BRANCH   3   5
HETATM    5  N   UNL     1     -11.278   8.957  71.244  1.00  0.00    -0.274 N  
HETATM    6  C   UNL     1     -12.265   9.876  71.535  1.00  0.00    -0.416 C  
HETATM    7  H   UNL     1     -10.795   9.018  70.348  1.00  0.00     0.000 HD 
HETATM    8  O   UNL     1     -12.916   9.838  72.574  1.00  0.00    -0.299 OA 
BRANCH   6   9
HETATM    9  C   UNL     1     -12.528  10.929  70.451  1.00  0.00    -0.327 C  
BRANCH   9  10
HETATM   10  N   UNL     1     -11.323  11.587  69.976  1.00  0.00    -0.492 N  
HETATM   11  H   UNL     1     -10.550  11.726  70.625  1.00  0.00     0.000 HD 
HETATM   12  C   UNL     1     -11.187  12.031  68.679  1.00  0.00    -0.258 C  
HETATM   13  O   UNL     1     -12.065  11.869  67.836  1.00  0.00    -0.558 OA 
BRANCH  12  14
HETATM   14  C   UNL     1      -9.861  12.741  68.374  1.00  0.00    -0.196 C  
BRANCH  14  15
HETATM   15  N   UNL     1      -8.719  11.833  68.346  1.00  0.00    -0.182 N  
HETATM   16  C   UNL     1      -8.321  11.228  67.170  1.00  0.00    -0.151 C  
HETATM   17  H   UNL     1      -8.206  11.643  69.208  1.00  0.00     0.000 HD 
HETATM   18  O   UNL     1      -8.982  11.308  66.138  1.00  0.00    -0.194 OA 
BRANCH  16  19
HETATM   19  C   UNL     1      -7.056  10.393  67.279  1.00  0.00    -0.088 C  
BRANCH  19  20
HETATM   20  S   UNL     1      -6.577  10.112  68.997  1.00  0.00    -0.055 SA 
BRANCH  20  21
HETATM   21  C   UNL     1      -8.002   9.266  69.583  1.00  0.00    -0.096 C  
HETATM   22  O   UNL     1      -8.704   9.744  70.470  1.00  0.00    -0.171 OA 
BRANCH  21  23
HETATM   23  C   UNL     1      -8.310   7.943  68.973  1.00  0.00    -0.130 A  
HETATM   24  C   UNL     1      -9.587   7.724  68.441  1.00  0.00    -0.157 A  
HETATM   25  C   UNL     1      -9.922   6.475  67.910  1.00  0.00    -0.148 A  
HETATM   26  C   UNL     1      -8.989   5.439  67.917  1.00  0.00    -0.109 A  
HETATM   27  C   UNL     1      -7.716   5.651  68.443  1.00  0.00    -0.092 A  
HETATM   28  C   UNL     1      -7.376   6.896  68.971  1.00  0.00    -0.093 A  
ENDBRANCH  21  23
ENDBRANCH  20  21
ENDBRANCH  19  20
ENDBRANCH  16  19
ENDBRANCH  14  15
ENDBRANCH  12  14
ENDBRANCH   9  10
ENDBRANCH   6   9
ENDBRANCH   3   5
TORSDOF 9
ENDMDL
MODEL      275
REMARK 921   NORMALIZED FREE ENERGY PREDICTED BY IDOCK:   -4.17 KCAL/MOL
REMARK 922        TOTAL FREE ENERGY PREDICTED BY IDOCK:   -7.21 KCAL/MOL
REMARK 923 INTER-LIGAND FREE ENERGY PREDICTED BY IDOCK:   -6.42 KCAL/MOL
REMARK 924 INTRA-LIGAND FREE ENERGY PREDICTED BY IDOCK:   -0.80 KCAL/MOL
REMARK 927      BINDING AFFINITY PREDICTED BY RF-SCORE:    0.00 PKD
ROOT
HETATM    1  O   UNL     1     -12.935  11.836  71.439  1.00  0.00    -0.398 OA 
HETATM    2  C   UNL     1     -13.299  13.080  71.831  1.00  0.00    -0.446 C  
HETATM    3  C   UNL     1     -12.544  14.203  71.128  1.00  0.00    -0.367 C  
HETATM    4  O   UNL     1     -14.138  13.273  72.695  1.00  0.00    -0.744 OA 
ENDROOT
BRANCH   3   5
HETATM    5  N   UNL     1     -11.570  13.710  70.161  1.00  0.00    -0.495 N  
HETATM    6  C   UNL     1     -11.290  14.389  68.994  1.00  0.00    -0.269 C  
HETATM    7  H   UNL     1     -11.081  12.835  70.353  1.00  0.00     0.000 HD 
HETATM    8  O   UNL     1     -11.869  15.423  68.677  1.00  0.00    -0.346 OA 
BRANCH   6   9
HETATM    9  C   UNL     1     -10.232  13.742  68.090  1.00  0.00    -0.253 C  
BRANCH   9  10
HETATM   10  N   UNL     1      -9.849  12.405  68.510  1.00  0.00    -0.341 N  
HETATM   11  H   UNL     1      -9.091  12.300  69.184  1.00  0.00     0.000 HD 
HETATM   12  C   UNL     1     -10.471  11.274  68.031  1.00  0.00    -0.188 C  
HETATM   13  O   UNL     1     -11.411  11.327  67.243  1.00  0.00    -0.464 OA 
BRANCH  12  14
HETATM   14  C   UNL     1      -9.901   9.949  68.555  1.00  0.00    -0.156 C  
BRANCH  14  15
HETATM   15  N   UNL     1     -10.678   9.387  69.656  1.00  0.00    -0.230 N  
HETATM   16  C   UNL     1     -11.026   8.052  69.669  1.00  0.00    -0.101 C  
HETATM   17  H   UNL     1     -10.967   9.990  70.427  1.00  0.00     0.000 HD 
HETATM   18  O   UNL     1     -10.830   7.315  68.706  1.00  0.00    -0.180 OA 
BRANCH  16  19
HETATM   19  C   UNL     1     -11.744   7.593  70.928  1.00  0.00    -0.271 C  
BRANCH  19  20
HETATM   20  S   UNL     1     -10.819   6.315  71.806  1.00  0.00    -0.259 SA 
BRANCH  20  21
HETATM   21  C   UNL     1      -9.751   7.317  72.778  1.00  0.00    -0.162 C  
HETATM   22  O   UNL     1     -10.084   8.447  73.126  1.00  0.00    -0.155 OA 
BRANCH  21  23
HETATM   23  C   UNL     1      -8.425   6.747  73.145  1.00  0.00    -0.130 A  
HETATM   24  C   UNL     1      -7.690   7.351  74.173  1.00  0.00    -0.155 A  
HETATM   25  C   UNL     1      -6.419   6.871  74.502  1.00  0.00    -0.087 A  
HETATM   26  C   UNL     1      -5.874   5.794  73.803  1.00  0.00    -0.055 A  
HETATM   27  C   UNL     1      -6.602   5.188  72.781  1.00  0.00    -0.061 A  
HETATM   28  C   UNL     1      -7.871   5.662  72.450  1.00  0.00    -0.103 A  
ENDBRANCH  21  23
ENDBRANCH  20  21
ENDBRANCH  19  20
ENDBRANCH  16  19
ENDBRANCH  14  15
ENDBRANCH  12  14
ENDBRANCH   9  10
ENDBRANCH   6   9
ENDBRANCH   3   5
TORSDOF 9
ENDMDL
MODEL      276
REMARK 921   NORMALIZED FREE ENERGY PREDICTED BY IDOCK:   -4.16 KCAL/MOL
REMARK 922        TOTAL FREE ENERGY PREDICTED BY IDOCK:   -7.19 KCAL/MOL
REMARK 923 INTER-LIGAND FREE ENERGY PREDICTED BY IDOCK:   -6.27 KCAL/MOL
REMARK 924 INTRA-LIGAND FREE ENERGY PREDICTED BY IDOCK:   -0.92 KCAL/MOL
REMARK 927      BINDING AFFINITY PREDICTED BY RF-SCORE:    0.00 PKD
ROOT
HETATM    1  O   UNL     1      -9.166   9.071  65.867  1.00  0.00    -0.198 OA 
HETATM    2  C   UNL     1      -7.993   9.405  65.280  1.00  0.00    -0.110 C  
HETATM    3  C   UNL     1      -6.767   9.180  66.160  1.00  0.00    -0.074 C  
HETATM    4  O   UNL     1      -7.936   9.873  64.155  1.00  0.00    -0.137 OA 
ENDROOT
BRANCH   3   5
HETATM    5  N   UNL     1      -7.106   8.643  67.473  1.00  0.00    -0.079 N  
HETATM    6  C   UNL     1      -6.995   7.299  67.763  1.00  0.00    -0.076 C  
HETATM    7  H   UNL     1      -7.434   9.280  68.199  1.00  0.00     0.000 HD 
HETATM    8  O   UNL     1      -6.648   6.470  66.928  1.00  0.00    -0.048 OA 
BRANCH   6   9
HETATM    9  C   UNL     1      -7.379   6.898  69.193  1.00  0.00    -0.093 C  
BRANCH   9  10
HETATM   10  N   UNL     1      -8.065   7.948  69.927  1.00  0.00    -0.116 N  
HETATM   11  H   UNL     1      -7.998   8.908  69.589  1.00  0.00     0.000 HD 
HETATM   12  C   UNL     1      -8.803   7.695  71.061  1.00  0.00    -0.142 C  
HETATM   13  O   UNL     1      -8.953   6.559  71.505  1.00  0.00    -0.140 OA 
BRANCH  12  14
HETATM   14  C   UNL     1      -9.419   8.934  71.724  1.00  0.00    -0.264 C  
BRANCH  14  15
HETATM   15  N   UNL     1     -10.135   9.790  70.783  1.00  0.00    -0.341 N  
HETATM   16  C   UNL     1     -11.441  10.169  71.021  1.00  0.00    -0.354 C  
HETATM   17  H   UNL     1      -9.664  10.113  69.937  1.00  0.00     0.000 HD 
HETATM   18  O   UNL     1     -12.100   9.698  71.945  1.00  0.00    -0.376 OA 
BRANCH  16  19
HETATM   19  C   UNL     1     -12.018  11.142  70.007  1.00  0.00    -0.367 C  
BRANCH  19  20
HETATM   20  S   UNL     1     -10.781  11.679  68.805  1.00  0.00    -0.215 SA 
BRANCH  20  21
HETATM   21  C   UNL     1     -11.563  13.124  68.180  1.00  0.00    -0.339 C  
HETATM   22  O   UNL     1     -11.917  14.029  68.930  1.00  0.00    -0.335 OA 
BRANCH  21  23
HETATM   23  C   UNL     1     -11.791  13.195  66.710  1.00  0.00    -0.444 A  
HETATM   24  C   UNL     1     -11.341  12.142  65.904  1.00  0.00    -0.407 A  
HETATM   25  C   UNL     1     -11.494  12.206  64.516  1.00  0.00    -0.397 A  
HETATM   26  C   UNL     1     -12.087  13.323  63.928  1.00  0.00    -0.531 A  
HETATM   27  C   UNL     1     -12.538  14.373  64.725  1.00  0.00    -0.282 A  
HETATM   28  C   UNL     1     -12.391  14.313  66.110  1.00  0.00    -0.411 A  
ENDBRANCH  21  23
ENDBRANCH  20  21
ENDBRANCH  19  20
ENDBRANCH  16  19
ENDBRANCH  14  15
ENDBRANCH  12  14
ENDBRANCH   9  10
ENDBRANCH   6   9
ENDBRANCH   3   5
TORSDOF 9
ENDMDL
MODEL      277
REMARK 921   NORMALIZED FREE ENERGY PREDICTED BY IDOCK:   -4.15 KCAL/MOL
REMARK 922        TOTAL FREE ENERGY PREDICTED BY IDOCK:   -7.18 KCAL/MOL
REMARK 923 INTER-LIGAND FREE ENERGY PREDICTED BY IDOCK:   -6.49 KCAL/MOL
REMARK 924 INTRA-LIGAND FREE ENERGY PREDICTED BY IDOCK:   -0.69 KCAL/MOL
REMARK 927      BINDING AFFINITY PREDICTED BY RF-SCORE:    0.00 PKD
ROOT
HETATM    1  O   UNL     1     -14.016  13.384  72.101  1.00  0.00    -0.494 OA 
HETATM    2  C   UNL     1     -13.226  12.357  71.707  1.00  0.00    -0.334 C  
HETATM    3  C   UNL     1     -12.164  12.744  70.682  1.00  0.00    -0.288 C  
HETATM    4  O   UNL     1     -13.379  11.220  72.119  1.00  0.00    -0.457 OA 
ENDROOT
BRANCH   3   5
HETATM    5  N   UNL     1     -12.210  14.158  70.328  1.00  0.00    -0.329 N  
HETATM    6  C   UNL     1     -11.618  15.127  71.110  1.00  0.00    -0.360 C  
HETATM    7  H   UNL     1     -12.695  14.439  69.475  1.00  0.00     0.000 HD 
HETATM    8  O   UNL     1     -11.056  14.868  72.169  1.00  0.00    -0.083 OA 
BRANCH   6   9
HETATM    9  C   UNL     1     -11.748  16.565  70.591  1.00  0.00     0.192 C  
BRANCH   9  10
HETATM   10  N   UNL     1     -11.464  16.699  69.172  1.00  0.00    -0.210 N  
HETATM   11  H   UNL     1     -12.220  16.967  68.543  1.00  0.00     0.000 HD 
HETATM   12  C   UNL     1     -10.212  16.475  68.646  1.00  0.00    -0.264 C  
HETATM   13  O   UNL     1      -9.248  16.180  69.348  1.00  0.00    -0.248 OA 
BRANCH  12  14
HETATM   14  C   UNL     1     -10.114  16.621  67.121  1.00  0.00    -0.276 C  
BRANCH  14  15
HETATM   15  N   UNL     1      -9.440  17.848  66.706  1.00  0.00    -0.278 N  
HETATM   16  C   UNL     1     -10.050  19.078  66.855  1.00  0.00    -0.371 C  
HETATM   17  H   UNL     1      -8.506  17.796  66.300  1.00  0.00     0.000 HD 
HETATM   18  O   UNL     1     -11.223  19.188  67.203  1.00  0.00    -0.271 OA 
BRANCH  16  19
HETATM   19  C   UNL     1      -9.186  20.268  66.474  1.00  0.00    -0.273 C  
BRANCH  19  20
HETATM   20  S   UNL     1      -7.575  19.758  65.835  1.00  0.00    -0.279 SA 
BRANCH  20  21
HETATM   21  C   UNL     1      -6.545  20.229  67.180  1.00  0.00    -0.223 C  
HETATM   22  O   UNL     1      -6.122  21.377  67.283  1.00  0.00    -0.356 OA 
BRANCH  21  23
HETATM   23  C   UNL     1      -6.194  19.176  68.173  1.00  0.00    -0.235 A  
HETATM   24  C   UNL     1      -6.251  17.832  67.782  1.00  0.00    -0.172 A  
HETATM   25  C   UNL     1      -5.979  16.820  68.708  1.00  0.00    -0.147 A  
HETATM   26  C   UNL     1      -5.660  17.144  70.026  1.00  0.00    -0.234 A  
HETATM   27  C   UNL     1      -5.599  18.479  70.419  1.00  0.00    -0.212 A  
HETATM   28  C   UNL     1      -5.867  19.493  69.499  1.00  0.00    -0.285 A  
ENDBRANCH  21  23
ENDBRANCH  20  21
ENDBRANCH  19  20
ENDBRANCH  16  19
ENDBRANCH  14  15
ENDBRANCH  12  14
ENDBRANCH   9  10
ENDBRANCH   6   9
ENDBRANCH   3   5
TORSDOF 9
ENDMDL
MODEL      278
REMARK 921   NORMALIZED FREE ENERGY PREDICTED BY IDOCK:   -4.14 KCAL/MOL
REMARK 922        TOTAL FREE ENERGY PREDICTED BY IDOCK:   -7.17 KCAL/MOL
REMARK 923 INTER-LIGAND FREE ENERGY PREDICTED BY IDOCK:   -5.61 KCAL/MOL
REMARK 924 INTRA-LIGAND FREE ENERGY PREDICTED BY IDOCK:   -1.55 KCAL/MOL
REMARK 927      BINDING AFFINITY PREDICTED BY RF-SCORE:    0.00 PKD
ROOT
HETATM    1  O   UNL     1     -12.394  10.597  70.229  1.00  0.00    -0.304 OA 
HETATM    2  C   UNL     1     -12.930  10.240  71.420  1.00  0.00    -0.440 C  
HETATM    3  C   UNL     1     -12.934   8.737  71.678  1.00  0.00    -0.349 C  
HETATM    4  O   UNL     1     -13.395  11.057  72.198  1.00  0.00    -0.451 OA 
ENDROOT
BRANCH   3   5
HETATM    5  N   UNL     1     -12.352   7.974  70.580  1.00  0.00    -0.413 N  
HETATM    6  C   UNL     1     -11.625   6.822  70.795  1.00  0.00    -0.366 C  
HETATM    7  H   UNL     1     -12.486   8.302  69.623  1.00  0.00     0.000 HD 
HETATM    8  O   UNL     1     -11.389   6.391  71.919  1.00  0.00    -0.263 OA 
BRANCH   6   9
HETATM    9  C   UNL     1     -11.091   6.132  69.533  1.00  0.00    -0.420 C  
BRANCH   9  10
HETATM   10  N   UNL     1     -10.306   7.008  68.680  1.00  0.00    -0.180 N  
HETATM   11  H   UNL     1      -9.628   7.636  69.112  1.00  0.00     0.000 HD 
HETATM   12  C   UNL     1     -10.443   7.021  67.310  1.00  0.00    -0.293 C  
HETATM   13  O   UNL     1     -11.216   6.270  66.722  1.00  0.00    -0.310 OA 
BRANCH  12  14
HETATM   14  C   UNL     1      -9.560   8.043  66.581  1.00  0.00    -0.230 C  
BRANCH  14  15
HETATM   15  N   UNL     1      -8.277   8.266  67.242  1.00  0.00    -0.119 N  
HETATM   16  C   UNL     1      -7.799   9.544  67.450  1.00  0.00    -0.102 C  
HETATM   17  H   UNL     1      -7.727   7.466  67.554  1.00  0.00     0.000 HD 
HETATM   18  O   UNL     1      -8.348  10.534  66.971  1.00  0.00    -0.125 OA 
BRANCH  16  19
HETATM   19  C   UNL     1      -6.504   9.619  68.240  1.00  0.00    -0.056 C  
BRANCH  19  20
HETATM   20  S   UNL     1      -6.768  10.235  69.917  1.00  0.00    -0.140 SA 
BRANCH  20  21
HETATM   21  C   UNL     1      -8.196   9.312  70.364  1.00  0.00    -0.178 C  
HETATM   22  O   UNL     1      -9.321   9.692  70.048  1.00  0.00    -0.213 OA 
BRANCH  21  23
HETATM   23  C   UNL     1      -7.986   8.068  71.154  1.00  0.00    -0.095 A  
HETATM   24  C   UNL     1      -8.363   8.052  72.504  1.00  0.00    -0.211 A  
HETATM   25  C   UNL     1      -8.128   6.915  73.283  1.00  0.00    -0.113 A  
HETATM   26  C   UNL     1      -7.511   5.797  72.724  1.00  0.00    -0.096 A  
HETATM   27  C   UNL     1      -7.137   5.807  71.382  1.00  0.00    -0.073 A  
HETATM   28  C   UNL     1      -7.371   6.937  70.598  1.00  0.00    -0.074 A  
ENDBRANCH  21  23
ENDBRANCH  20  21
ENDBRANCH  19  20
ENDBRANCH  16  19
ENDBRANCH  14  15
ENDBRANCH  12  14
ENDBRANCH   9  10
ENDBRANCH   6   9
ENDBRANCH   3   5
TORSDOF 9
ENDMDL
MODEL      279
REMARK 921   NORMALIZED FREE ENERGY PREDICTED BY IDOCK:   -4.14 KCAL/MOL
REMARK 922        TOTAL FREE ENERGY PREDICTED BY IDOCK:   -7.16 KCAL/MOL
REMARK 923 INTER-LIGAND FREE ENERGY PREDICTED BY IDOCK:   -6.50 KCAL/MOL
REMARK 924 INTRA-LIGAND FREE ENERGY PREDICTED BY IDOCK:   -0.66 KCAL/MOL
REMARK 927      BINDING AFFINITY PREDICTED BY RF-SCORE:    0.00 PKD
ROOT
HETATM    1  O   UNL     1      -9.111   7.086  69.463  1.00  0.00    -0.146 OA 
HETATM    2  C   UNL     1      -8.910   6.217  68.444  1.00  0.00    -0.114 C  
HETATM    3  C   UNL     1      -8.461   6.874  67.143  1.00  0.00    -0.121 C  
HETATM    4  O   UNL     1      -9.103   5.018  68.560  1.00  0.00    -0.105 OA 
ENDROOT
BRANCH   3   5
HETATM    5  N   UNL     1      -8.335   8.323  67.255  1.00  0.00    -0.123 N  
HETATM    6  C   UNL     1      -9.206   9.183  66.620  1.00  0.00    -0.164 C  
HETATM    7  H   UNL     1      -7.580   8.712  67.821  1.00  0.00     0.000 HD 
HETATM    8  O   UNL     1     -10.111   8.788  65.891  1.00  0.00    -0.152 OA 
BRANCH   6   9
HETATM    9  C   UNL     1      -8.943  10.677  66.850  1.00  0.00    -0.137 C  
BRANCH   9  10
HETATM   10  N   UNL     1     -10.155  11.467  66.982  1.00  0.00    -0.206 N  
HETATM   11  H   UNL     1     -10.622  11.504  67.888  1.00  0.00     0.000 HD 
HETATM   12  C   UNL     1     -10.697  12.169  65.929  1.00  0.00    -0.266 C  
HETATM   13  O   UNL     1     -10.172  12.196  64.819  1.00  0.00    -0.272 OA 
BRANCH  12  14
HETATM   14  C   UNL     1     -12.004  12.909  66.248  1.00  0.00    -0.408 C  
BRANCH  14  15
HETATM   15  N   UNL     1     -11.790  14.293  66.663  1.00  0.00    -0.408 N  
HETATM   16  C   UNL     1     -11.784  14.640  67.999  1.00  0.00    -0.342 C  
HETATM   17  H   UNL     1     -11.644  15.013  65.956  1.00  0.00     0.000 HD 
HETATM   18  O   UNL     1     -12.095  13.845  68.882  1.00  0.00    -0.351 OA 
BRANCH  16  19
HETATM   19  C   UNL     1     -11.448  16.095  68.278  1.00  0.00    -0.259 C  
BRANCH  19  20
HETATM   20  S   UNL     1      -9.686  16.434  68.072  1.00  0.00    -0.239 SA 
BRANCH  20  21
HETATM   21  C   UNL     1      -9.727  18.180  67.875  1.00  0.00    -0.299 C  
HETATM   22  O   UNL     1     -10.788  18.775  67.705  1.00  0.00    -0.426 OA 
BRANCH  21  23
HETATM   23  C   UNL     1      -8.425  18.902  67.906  1.00  0.00    -0.318 A  
HETATM   24  C   UNL     1      -7.430  18.464  68.790  1.00  0.00    -0.298 A  
HETATM   25  C   UNL     1      -6.218  19.155  68.879  1.00  0.00    -0.276 A  
HETATM   26  C   UNL     1      -5.998  20.287  68.095  1.00  0.00    -0.292 A  
HETATM   27  C   UNL     1      -6.982  20.725  67.213  1.00  0.00    -0.414 A  
HETATM   28  C   UNL     1      -8.193  20.038  67.118  1.00  0.00    -0.365 A  
ENDBRANCH  21  23
ENDBRANCH  20  21
ENDBRANCH  19  20
ENDBRANCH  16  19
ENDBRANCH  14  15
ENDBRANCH  12  14
ENDBRANCH   9  10
ENDBRANCH   6   9
ENDBRANCH   3   5
TORSDOF 9
ENDMDL
MODEL      280
REMARK 921   NORMALIZED FREE ENERGY PREDICTED BY IDOCK:   -4.13 KCAL/MOL
REMARK 922        TOTAL FREE ENERGY PREDICTED BY IDOCK:   -7.14 KCAL/MOL
REMARK 923 INTER-LIGAND FREE ENERGY PREDICTED BY IDOCK:   -6.08 KCAL/MOL
REMARK 924 INTRA-LIGAND FREE ENERGY PREDICTED BY IDOCK:   -1.07 KCAL/MOL
REMARK 927      BINDING AFFINITY PREDICTED BY RF-SCORE:    0.00 PKD
ROOT
HETATM    1  O   UNL     1     -10.420  16.204  65.091  1.00  0.00    -0.560 OA 
HETATM    2  C   UNL     1      -9.554  16.656  66.029  1.00  0.00    -0.266 C  
HETATM    3  C   UNL     1      -9.764  16.054  67.415  1.00  0.00    -0.232 C  
HETATM    4  O   UNL     1      -8.703  17.494  65.783  1.00  0.00    -0.514 OA 
ENDROOT
BRANCH   3   5
HETATM    5  N   UNL     1     -10.868  15.100  67.455  1.00  0.00    -0.295 N  
HETATM    6  C   UNL     1     -10.705  13.814  67.925  1.00  0.00    -0.247 C  
HETATM    7  H   UNL     1     -11.788  15.394  67.125  1.00  0.00     0.000 HD 
HETATM    8  O   UNL     1      -9.620  13.379  68.297  1.00  0.00    -0.218 OA 
BRANCH   6   9
HETATM    9  C   UNL     1     -11.967  12.941  67.911  1.00  0.00    -0.282 C  
BRANCH   9  10
HETATM   10  N   UNL     1     -11.904  11.814  68.825  1.00  0.00    -0.324 N  
HETATM   11  H   UNL     1     -11.671  10.893  68.454  1.00  0.00     0.000 HD 
HETATM   12  C   UNL     1     -12.148  11.943  70.174  1.00  0.00    -0.302 C  
HETATM   13  O   UNL     1     -12.403  13.027  70.693  1.00  0.00    -0.356 OA 
BRANCH  12  14
HETATM   14  C   UNL     1     -12.079  10.635  70.973  1.00  0.00    -0.368 C  
BRANCH  14  15
HETATM   15  N   UNL     1     -11.687   9.488  70.159  1.00  0.00    -0.447 N  
HETATM   16  C   UNL     1     -10.625   8.686  70.528  1.00  0.00    -0.217 C  
HETATM   17  H   UNL     1     -12.206   9.275  69.307  1.00  0.00     0.000 HD 
HETATM   18  O   UNL     1      -9.881   8.976  71.461  1.00  0.00    -0.296 OA 
BRANCH  16  19
HETATM   19  C   UNL     1     -10.404   7.474  69.639  1.00  0.00    -0.225 C  
BRANCH  19  20
HETATM   20  S   UNL     1      -8.652   7.068  69.472  1.00  0.00    -0.134 SA 
BRANCH  20  21
HETATM   21  C   UNL     1      -8.131   8.372  68.414  1.00  0.00    -0.123 C  
HETATM   22  O   UNL     1      -8.443   8.389  67.227  1.00  0.00    -0.121 OA 
BRANCH  21  23
HETATM   23  C   UNL     1      -7.285   9.441  69.013  1.00  0.00    -0.071 A  
HETATM   24  C   UNL     1      -6.501   9.135  70.133  1.00  0.00    -0.046 A  
HETATM   25  C   UNL     1      -5.738  10.132  70.748  1.00  0.00    -0.089 A  
HETATM   26  C   UNL     1      -5.762  11.437  70.256  1.00  0.00    -0.143 A  
HETATM   27  C   UNL     1      -6.538  11.746  69.142  1.00  0.00    -0.102 A  
HETATM   28  C   UNL     1      -7.299  10.755  68.522  1.00  0.00    -0.096 A  
ENDBRANCH  21  23
ENDBRANCH  20  21
ENDBRANCH  19  20
ENDBRANCH  16  19
ENDBRANCH  14  15
ENDBRANCH  12  14
ENDBRANCH   9  10
ENDBRANCH   6   9
ENDBRANCH   3   5
TORSDOF 9
ENDMDL
MODEL      281
REMARK 921   NORMALIZED FREE ENERGY PREDICTED BY IDOCK:   -4.13 KCAL/MOL
REMARK 922        TOTAL FREE ENERGY PREDICTED BY IDOCK:   -7.14 KCAL/MOL
REMARK 923 INTER-LIGAND FREE ENERGY PREDICTED BY IDOCK:   -6.10 KCAL/MOL
REMARK 924 INTRA-LIGAND FREE ENERGY PREDICTED BY IDOCK:   -1.04 KCAL/MOL
REMARK 927      BINDING AFFINITY PREDICTED BY RF-SCORE:    0.00 PKD
ROOT
HETATM    1  O   UNL     1      -6.881   6.682  67.091  1.00  0.00    -0.064 OA 
HETATM    2  C   UNL     1      -7.885   7.052  66.261  1.00  0.00    -0.104 C  
HETATM    3  C   UNL     1      -8.323   8.504  66.418  1.00  0.00    -0.114 C  
HETATM    4  O   UNL     1      -8.407   6.273  65.480  1.00  0.00    -0.139 OA 
ENDROOT
BRANCH   3   5
HETATM    5  N   UNL     1      -7.565   9.215  67.441  1.00  0.00    -0.085 N  
HETATM    6  C   UNL     1      -8.172   9.772  68.547  1.00  0.00    -0.106 C  
HETATM    7  H   UNL     1      -6.554   9.304  67.335  1.00  0.00     0.000 HD 
HETATM    8  O   UNL     1      -9.387   9.740  68.719  1.00  0.00    -0.143 OA 
BRANCH   6   9
HETATM    9  C   UNL     1      -7.231  10.475  69.533  1.00  0.00    -0.137 C  
BRANCH   9  10
HETATM   10  N   UNL     1      -7.115  11.905  69.307  1.00  0.00    -0.285 N  
HETATM   11  H   UNL     1      -7.590  12.316  68.503  1.00  0.00     0.000 HD 
HETATM   12  C   UNL     1      -6.388  12.728  70.138  1.00  0.00     0.063 C  
HETATM   13  O   UNL     1      -5.818  12.307  71.141  1.00  0.00    -0.362 OA 
BRANCH  12  14
HETATM   14  C   UNL     1      -6.344  14.202  69.714  1.00  0.00    -0.141 C  
BRANCH  14  15
HETATM   15  N   UNL     1      -7.651  14.851  69.764  1.00  0.00    -0.374 N  
HETATM   16  C   UNL     1      -8.459  14.906  68.646  1.00  0.00    -0.166 C  
HETATM   17  H   UNL     1      -7.972  15.270  70.637  1.00  0.00     0.000 HD 
HETATM   18  O   UNL     1      -8.068  14.547  67.538  1.00  0.00    -0.161 OA 
BRANCH  16  19
HETATM   19  C   UNL     1      -9.829  15.520  68.880  1.00  0.00    -0.219 C  
BRANCH  19  20
HETATM   20  S   UNL     1     -10.789  15.634  67.355  1.00  0.00    -0.295 SA 
BRANCH  20  21
HETATM   21  C   UNL     1     -11.471  14.014  67.296  1.00  0.00    -0.348 C  
HETATM   22  O   UNL     1     -12.011  13.517  68.281  1.00  0.00    -0.356 OA 
BRANCH  21  23
HETATM   23  C   UNL     1     -11.352  13.269  66.012  1.00  0.00    -0.329 A  
HETATM   24  C   UNL     1     -12.414  13.317  65.101  1.00  0.00    -0.525 A  
HETATM   25  C   UNL     1     -12.351  12.584  63.912  1.00  0.00    -0.576 A  
HETATM   26  C   UNL     1     -11.236  11.795  63.633  1.00  0.00    -0.519 A  
HETATM   27  C   UNL     1     -10.176  11.745  64.535  1.00  0.00    -0.327 A  
HETATM   28  C   UNL     1     -10.231  12.477  65.721  1.00  0.00    -0.289 A  
ENDBRANCH  21  23
ENDBRANCH  20  21
ENDBRANCH  19  20
ENDBRANCH  16  19
ENDBRANCH  14  15
ENDBRANCH  12  14
ENDBRANCH   9  10
ENDBRANCH   6   9
ENDBRANCH   3   5
TORSDOF 9
ENDMDL
MODEL      282
REMARK 921   NORMALIZED FREE ENERGY PREDICTED BY IDOCK:   -4.12 KCAL/MOL
REMARK 922        TOTAL FREE ENERGY PREDICTED BY IDOCK:   -7.14 KCAL/MOL
REMARK 923 INTER-LIGAND FREE ENERGY PREDICTED BY IDOCK:   -6.54 KCAL/MOL
REMARK 924 INTRA-LIGAND FREE ENERGY PREDICTED BY IDOCK:   -0.60 KCAL/MOL
REMARK 927      BINDING AFFINITY PREDICTED BY RF-SCORE:    0.00 PKD
ROOT
HETATM    1  O   UNL     1     -11.660   7.667  72.105  1.00  0.00    -0.281 OA 
HETATM    2  C   UNL     1     -11.651   6.357  71.762  1.00  0.00    -0.316 C  
HETATM    3  C   UNL     1     -11.240   6.091  70.318  1.00  0.00    -0.322 C  
HETATM    4  O   UNL     1     -11.976   5.476  72.542  1.00  0.00    -0.223 OA 
ENDROOT
BRANCH   3   5
HETATM    5  N   UNL     1     -10.932   7.313  69.584  1.00  0.00    -0.354 N  
HETATM    6  C   UNL     1     -10.882   7.345  68.206  1.00  0.00    -0.023 C  
HETATM    7  H   UNL     1     -10.749   8.171  70.106  1.00  0.00     0.000 HD 
HETATM    8  O   UNL     1     -11.050   6.345  67.516  1.00  0.00    -0.352 OA 
BRANCH   6   9
HETATM    9  C   UNL     1     -10.556   8.712  67.589  1.00  0.00    -0.203 C  
BRANCH   9  10
HETATM   10  N   UNL     1     -11.315   9.807  68.168  1.00  0.00    -0.520 N  
HETATM   11  H   UNL     1     -12.333   9.784  68.112  1.00  0.00     0.000 HD 
HETATM   12  C   UNL     1     -10.710  10.875  68.791  1.00  0.00    -0.207 C  
HETATM   13  O   UNL     1      -9.491  10.953  68.923  1.00  0.00    -0.188 OA 
BRANCH  12  14
HETATM   14  C   UNL     1     -11.671  11.956  69.303  1.00  0.00    -0.328 C  
BRANCH  14  15
HETATM   15  N   UNL     1     -11.708  13.140  68.449  1.00  0.00    -0.331 N  
HETATM   16  C   UNL     1     -12.094  13.049  67.127  1.00  0.00    -0.264 C  
HETATM   17  H   UNL     1     -11.445  14.047  68.835  1.00  0.00     0.000 HD 
HETATM   18  O   UNL     1     -12.283  11.969  66.574  1.00  0.00    -0.548 OA 
BRANCH  16  19
HETATM   19  C   UNL     1     -12.182  14.378  66.395  1.00  0.00    -0.340 C  
BRANCH  19  20
HETATM   20  S   UNL     1     -11.210  15.664  67.210  1.00  0.00    -0.109 SA 
BRANCH  20  21
HETATM   21  C   UNL     1      -9.614  15.301  66.567  1.00  0.00    -0.271 C  
HETATM   22  O   UNL     1      -9.480  14.683  65.514  1.00  0.00    -0.200 OA 
BRANCH  21  23
HETATM   23  C   UNL     1      -8.439  15.757  67.359  1.00  0.00    -0.191 A  
HETATM   24  C   UNL     1      -8.311  15.330  68.688  1.00  0.00    -0.162 A  
HETATM   25  C   UNL     1      -7.247  15.785  69.471  1.00  0.00    -0.186 A  
HETATM   26  C   UNL     1      -6.313  16.673  68.937  1.00  0.00    -0.164 A  
HETATM   27  C   UNL     1      -6.434  17.099  67.617  1.00  0.00    -0.164 A  
HETATM   28  C   UNL     1      -7.492  16.646  66.829  1.00  0.00    -0.289 A  
ENDBRANCH  21  23
ENDBRANCH  20  21
ENDBRANCH  19  20
ENDBRANCH  16  19
ENDBRANCH  14  15
ENDBRANCH  12  14
ENDBRANCH   9  10
ENDBRANCH   6   9
ENDBRANCH   3   5
TORSDOF 9
ENDMDL
MODEL      283
REMARK 921   NORMALIZED FREE ENERGY PREDICTED BY IDOCK:   -4.12 KCAL/MOL
REMARK 922        TOTAL FREE ENERGY PREDICTED BY IDOCK:   -7.14 KCAL/MOL
REMARK 923 INTER-LIGAND FREE ENERGY PREDICTED BY IDOCK:   -6.26 KCAL/MOL
REMARK 924 INTRA-LIGAND FREE ENERGY PREDICTED BY IDOCK:   -0.87 KCAL/MOL
REMARK 927      BINDING AFFINITY PREDICTED BY RF-SCORE:    0.00 PKD
ROOT
HETATM    1  O   UNL     1     -11.339   7.323  72.628  1.00  0.00    -0.292 OA 
HETATM    2  C   UNL     1     -12.196   7.063  71.611  1.00  0.00    -0.357 C  
HETATM    3  C   UNL     1     -11.520   6.589  70.329  1.00  0.00    -0.411 C  
HETATM    4  O   UNL     1     -13.401   7.227  71.715  1.00  0.00    -0.350 OA 
ENDROOT
BRANCH   3   5
HETATM    5  N   UNL     1     -10.069   6.507  70.453  1.00  0.00    -0.182 N  
HETATM    6  C   UNL     1      -9.419   5.307  70.652  1.00  0.00    -0.168 C  
HETATM    7  H   UNL     1      -9.517   7.363  70.392  1.00  0.00     0.000 HD 
HETATM    8  O   UNL     1     -10.020   4.244  70.777  1.00  0.00    -0.200 OA 
BRANCH   6   9
HETATM    9  C   UNL     1      -7.891   5.391  70.749  1.00  0.00    -0.095 C  
BRANCH   9  10
HETATM   10  N   UNL     1      -7.370   6.735  70.567  1.00  0.00    -0.079 N  
HETATM   11  H   UNL     1      -7.117   7.041  69.628  1.00  0.00     0.000 HD 
HETATM   12  C   UNL     1      -7.206   7.611  71.617  1.00  0.00    -0.064 C  
HETATM   13  O   UNL     1      -7.519   7.321  72.768  1.00  0.00    -0.075 OA 
BRANCH  12  14
HETATM   14  C   UNL     1      -6.602   8.970  71.237  1.00  0.00    -0.086 C  
BRANCH  14  15
HETATM   15  N   UNL     1      -7.097   9.481  69.962  1.00  0.00    -0.077 N  
HETATM   16  C   UNL     1      -8.442   9.726  69.770  1.00  0.00    -0.193 C  
HETATM   17  H   UNL     1      -6.440   9.658  69.202  1.00  0.00     0.000 HD 
HETATM   18  O   UNL     1      -9.291   9.399  70.595  1.00  0.00    -0.248 OA 
BRANCH  16  19
HETATM   19  C   UNL     1      -8.791  10.352  68.430  1.00  0.00    -0.136 C  
BRANCH  19  20
HETATM   20  S   UNL     1     -10.295   9.646  67.725  1.00  0.00    -0.251 SA 
BRANCH  20  21
HETATM   21  C   UNL     1     -11.445  10.919  68.108  1.00  0.00    -0.295 C  
HETATM   22  O   UNL     1     -12.165  10.845  69.101  1.00  0.00    -0.421 OA 
BRANCH  21  23
HETATM   23  C   UNL     1     -11.522  12.075  67.174  1.00  0.00    -0.401 A  
HETATM   24  C   UNL     1     -11.801  13.346  67.692  1.00  0.00    -0.394 A  
HETATM   25  C   UNL     1     -11.931  14.441  66.832  1.00  0.00    -0.425 A  
HETATM   26  C   UNL     1     -11.793  14.270  65.455  1.00  0.00    -0.363 A  
HETATM   27  C   UNL     1     -11.513  13.009  64.935  1.00  0.00    -0.348 A  
HETATM   28  C   UNL     1     -11.378  11.914  65.788  1.00  0.00    -0.354 A  
ENDBRANCH  21  23
ENDBRANCH  20  21
ENDBRANCH  19  20
ENDBRANCH  16  19
ENDBRANCH  14  15
ENDBRANCH  12  14
ENDBRANCH   9  10
ENDBRANCH   6   9
ENDBRANCH   3   5
TORSDOF 9
ENDMDL
MODEL      284
REMARK 921   NORMALIZED FREE ENERGY PREDICTED BY IDOCK:   -4.12 KCAL/MOL
REMARK 922        TOTAL FREE ENERGY PREDICTED BY IDOCK:   -7.13 KCAL/MOL
REMARK 923 INTER-LIGAND FREE ENERGY PREDICTED BY IDOCK:   -6.13 KCAL/MOL
REMARK 924 INTRA-LIGAND FREE ENERGY PREDICTED BY IDOCK:   -0.99 KCAL/MOL
REMARK 927      BINDING AFFINITY PREDICTED BY RF-SCORE:    0.00 PKD
ROOT
HETATM    1  O   UNL     1     -10.477  13.907  64.509  1.00  0.00    -0.431 OA 
HETATM    2  C   UNL     1     -11.820  13.734  64.539  1.00  0.00    -0.417 C  
HETATM    3  C   UNL     1     -12.311  12.851  65.682  1.00  0.00    -0.423 C  
HETATM    4  O   UNL     1     -12.560  14.223  63.702  1.00  0.00    -0.831 OA 
ENDROOT
BRANCH   3   5
HETATM    5  N   UNL     1     -11.225  12.363  66.526  1.00  0.00    -0.301 N  
HETATM    6  C   UNL     1     -11.350  12.272  67.896  1.00  0.00    -0.298 C  
HETATM    7  H   UNL     1     -10.347  12.082  66.089  1.00  0.00     0.000 HD 
HETATM    8  O   UNL     1     -12.360  12.631  68.493  1.00  0.00    -0.036 OA 
BRANCH   6   9
HETATM    9  C   UNL     1     -10.120  11.729  68.636  1.00  0.00    -0.189 C  
BRANCH   9  10
HETATM   10  N   UNL     1      -9.397  10.711  67.893  1.00  0.00    -0.147 N  
HETATM   11  H   UNL     1      -9.310  10.809  66.882  1.00  0.00     0.000 HD 
HETATM   12  C   UNL     1      -8.826   9.617  68.504  1.00  0.00    -0.124 C  
HETATM   13  O   UNL     1      -8.866   9.451  69.721  1.00  0.00    -0.152 OA 
BRANCH  12  14
HETATM   14  C   UNL     1      -8.142   8.626  67.552  1.00  0.00    -0.106 C  
BRANCH  14  15
HETATM   15  N   UNL     1      -7.743   7.385  68.209  1.00  0.00    -0.118 N  
HETATM   16  C   UNL     1      -8.352   6.187  67.892  1.00  0.00    -0.117 C  
HETATM   17  H   UNL     1      -7.003   7.403  68.912  1.00  0.00     0.000 HD 
HETATM   18  O   UNL     1      -9.339   6.128  67.163  1.00  0.00    -0.116 OA 
BRANCH  16  19
HETATM   19  C   UNL     1      -7.760   4.969  68.582  1.00  0.00    -0.078 C  
BRANCH  19  20
HETATM   20  S   UNL     1      -8.955   4.155  69.663  1.00  0.00    -0.114 SA 
BRANCH  20  21
HETATM   21  C   UNL     1      -8.731   5.092  71.134  1.00  0.00    -0.128 C  
HETATM   22  O   UNL     1      -7.731   4.946  71.832  1.00  0.00    -0.097 OA 
BRANCH  21  23
HETATM   23  C   UNL     1      -9.808   6.051  71.504  1.00  0.00    -0.197 A  
HETATM   24  C   UNL     1     -10.854   6.275  70.599  1.00  0.00    -0.339 A  
HETATM   25  C   UNL     1     -11.850   7.210  70.897  1.00  0.00    -0.379 A  
HETATM   26  C   UNL     1     -11.801   7.929  72.091  1.00  0.00    -0.384 A  
HETATM   27  C   UNL     1     -10.765   7.709  72.994  1.00  0.00    -0.449 A  
HETATM   28  C   UNL     1      -9.770   6.775  72.704  1.00  0.00    -0.164 A  
ENDBRANCH  21  23
ENDBRANCH  20  21
ENDBRANCH  19  20
ENDBRANCH  16  19
ENDBRANCH  14  15
ENDBRANCH  12  14
ENDBRANCH   9  10
ENDBRANCH   6   9
ENDBRANCH   3   5
TORSDOF 9
ENDMDL
MODEL      285
REMARK 921   NORMALIZED FREE ENERGY PREDICTED BY IDOCK:   -4.11 KCAL/MOL
REMARK 922        TOTAL FREE ENERGY PREDICTED BY IDOCK:   -7.12 KCAL/MOL
REMARK 923 INTER-LIGAND FREE ENERGY PREDICTED BY IDOCK:   -6.27 KCAL/MOL
REMARK 924 INTRA-LIGAND FREE ENERGY PREDICTED BY IDOCK:   -0.85 KCAL/MOL
REMARK 927      BINDING AFFINITY PREDICTED BY RF-SCORE:    0.00 PKD
ROOT
HETATM    1  O   UNL     1     -10.911   8.362  69.681  1.00  0.00    -0.224 OA 
HETATM    2  C   UNL     1     -10.549   7.058  69.635  1.00  0.00    -0.234 C  
HETATM    3  C   UNL     1      -9.901   6.636  68.320  1.00  0.00    -0.137 C  
HETATM    4  O   UNL     1     -10.755   6.289  70.559  1.00  0.00    -0.234 OA 
ENDROOT
BRANCH   3   5
HETATM    5  N   UNL     1      -9.798   7.732  67.364  1.00  0.00    -0.161 N  
HETATM    6  C   UNL     1      -9.225   7.566  66.120  1.00  0.00    -0.105 C  
HETATM    7  H   UNL     1     -10.160   8.651  67.622  1.00  0.00     0.000 HD 
HETATM    8  O   UNL     1      -8.731   6.503  65.757  1.00  0.00    -0.151 OA 
BRANCH   6   9
HETATM    9  C   UNL     1      -9.204   8.815  65.230  1.00  0.00    -0.031 C  
BRANCH   9  10
HETATM   10  N   UNL     1     -10.194   9.811  65.603  1.00  0.00    -0.218 N  
HETATM   11  H   UNL     1     -11.118   9.770  65.174  1.00  0.00     0.000 HD 
HETATM   12  C   UNL     1      -9.930  10.809  66.515  1.00  0.00    -0.213 C  
HETATM   13  O   UNL     1      -8.850  10.899  67.093  1.00  0.00    -0.134 OA 
BRANCH  12  14
HETATM   14  C   UNL     1     -11.083  11.794  66.749  1.00  0.00    -0.306 C  
BRANCH  14  15
HETATM   15  N   UNL     1     -10.640  13.073  67.296  1.00  0.00    -0.241 N  
HETATM   16  C   UNL     1     -10.837  13.383  68.627  1.00  0.00    -0.263 C  
HETATM   17  H   UNL     1     -10.178  13.748  66.686  1.00  0.00     0.000 HD 
HETATM   18  O   UNL     1     -11.510  12.673  69.370  1.00  0.00    -0.276 OA 
BRANCH  16  19
HETATM   19  C   UNL     1     -10.231  14.703  69.071  1.00  0.00    -0.220 C  
BRANCH  19  20
HETATM   20  S   UNL     1     -11.300  16.104  68.679  1.00  0.00    -0.323 SA 
BRANCH  20  21
HETATM   21  C   UNL     1     -10.590  16.621  67.156  1.00  0.00    -0.264 C  
HETATM   22  O   UNL     1     -10.752  15.969  66.127  1.00  0.00    -0.305 OA 
BRANCH  21  23
HETATM   23  C   UNL     1      -9.774  17.866  67.170  1.00  0.00    -0.289 A  
HETATM   24  C   UNL     1      -8.438  17.794  67.583  1.00  0.00    -0.229 A  
HETATM   25  C   UNL     1      -7.663  18.956  67.657  1.00  0.00    -0.259 A  
HETATM   26  C   UNL     1      -8.220  20.191  67.329  1.00  0.00    -0.381 A  
HETATM   27  C   UNL     1      -9.548  20.268  66.915  1.00  0.00    -0.564 A  
HETATM   28  C   UNL     1     -10.325  19.112  66.836  1.00  0.00    -0.504 A  
ENDBRANCH  21  23
ENDBRANCH  20  21
ENDBRANCH  19  20
ENDBRANCH  16  19
ENDBRANCH  14  15
ENDBRANCH  12  14
ENDBRANCH   9  10
ENDBRANCH   6   9
ENDBRANCH   3   5
TORSDOF 9
ENDMDL
MODEL      286
REMARK 921   NORMALIZED FREE ENERGY PREDICTED BY IDOCK:   -4.11 KCAL/MOL
REMARK 922        TOTAL FREE ENERGY PREDICTED BY IDOCK:   -7.12 KCAL/MOL
REMARK 923 INTER-LIGAND FREE ENERGY PREDICTED BY IDOCK:   -6.48 KCAL/MOL
REMARK 924 INTRA-LIGAND FREE ENERGY PREDICTED BY IDOCK:   -0.64 KCAL/MOL
REMARK 927      BINDING AFFINITY PREDICTED BY RF-SCORE:    0.00 PKD
ROOT
HETATM    1  O   UNL     1      -9.729   5.289  68.055  1.00  0.00    -0.129 OA 
HETATM    2  C   UNL     1     -10.438   5.738  66.992  1.00  0.00    -0.280 C  
HETATM    3  C   UNL     1     -10.657   7.247  66.979  1.00  0.00    -0.344 C  
HETATM    4  O   UNL     1     -10.883   4.987  66.140  1.00  0.00    -0.294 OA 
ENDROOT
BRANCH   3   5
HETATM    5  N   UNL     1     -10.051   7.916  68.126  1.00  0.00    -0.184 N  
HETATM    6  C   UNL     1     -10.320   9.234  68.429  1.00  0.00    -0.209 C  
HETATM    7  H   UNL     1      -9.409   7.392  68.721  1.00  0.00     0.000 HD 
HETATM    8  O   UNL     1     -11.049   9.936  67.735  1.00  0.00    -0.269 OA 
BRANCH   6   9
HETATM    9  C   UNL     1      -9.612   9.783  69.674  1.00  0.00    -0.221 C  
BRANCH   9  10
HETATM   10  N   UNL     1      -8.427  10.566  69.371  1.00  0.00    -0.311 N  
HETATM   11  H   UNL     1      -8.447  11.197  68.571  1.00  0.00     0.000 HD 
HETATM   12  C   UNL     1      -7.277  10.487  70.124  1.00  0.00    -0.012 C  
HETATM   13  O   UNL     1      -7.193   9.771  71.119  1.00  0.00    -0.327 OA 
BRANCH  12  14
HETATM   14  C   UNL     1      -6.114  11.355  69.625  1.00  0.00    -0.110 C  
BRANCH  14  15
HETATM   15  N   UNL     1      -6.552  12.479  68.802  1.00  0.00    -0.083 N  
HETATM   16  C   UNL     1      -6.544  13.767  69.298  1.00  0.00    -0.113 C  
HETATM   17  H   UNL     1      -6.868  12.309  67.847  1.00  0.00     0.000 HD 
HETATM   18  O   UNL     1      -6.311  14.012  70.479  1.00  0.00    -0.142 OA 
BRANCH  16  19
HETATM   19  C   UNL     1      -6.928  14.839  68.291  1.00  0.00    -0.119 C  
BRANCH  19  20
HETATM   20  S   UNL     1      -7.186  16.444  69.078  1.00  0.00    -0.222 SA 
BRANCH  20  21
HETATM   21  C   UNL     1      -8.927  16.604  68.893  1.00  0.00    -0.239 C  
HETATM   22  O   UNL     1      -9.698  15.820  69.440  1.00  0.00    -0.254 OA 
BRANCH  21  23
HETATM   23  C   UNL     1      -9.424  17.714  68.034  1.00  0.00    -0.282 A  
HETATM   24  C   UNL     1      -9.351  19.027  68.517  1.00  0.00    -0.425 A  
HETATM   25  C   UNL     1      -9.859  20.083  67.754  1.00  0.00    -0.545 A  
HETATM   26  C   UNL     1     -10.447  19.833  66.515  1.00  0.00    -0.615 A  
HETATM   27  C   UNL     1     -10.520  18.530  66.029  1.00  0.00    -0.433 A  
HETATM   28  C   UNL     1     -10.012  17.472  66.784  1.00  0.00    -0.313 A  
ENDBRANCH  21  23
ENDBRANCH  20  21
ENDBRANCH  19  20
ENDBRANCH  16  19
ENDBRANCH  14  15
ENDBRANCH  12  14
ENDBRANCH   9  10
ENDBRANCH   6   9
ENDBRANCH   3   5
TORSDOF 9
ENDMDL
MODEL      287
REMARK 921   NORMALIZED FREE ENERGY PREDICTED BY IDOCK:   -4.11 KCAL/MOL
REMARK 922        TOTAL FREE ENERGY PREDICTED BY IDOCK:   -7.11 KCAL/MOL
REMARK 923 INTER-LIGAND FREE ENERGY PREDICTED BY IDOCK:   -6.36 KCAL/MOL
REMARK 924 INTRA-LIGAND FREE ENERGY PREDICTED BY IDOCK:   -0.76 KCAL/MOL
REMARK 927      BINDING AFFINITY PREDICTED BY RF-SCORE:    0.00 PKD
ROOT
HETATM    1  O   UNL     1      -7.810  19.764  66.953  1.00  0.00    -0.264 OA 
HETATM    2  C   UNL     1      -6.809  19.021  66.422  1.00  0.00    -0.209 C  
HETATM    3  C   UNL     1      -7.246  17.647  65.926  1.00  0.00    -0.200 C  
HETATM    4  O   UNL     1      -5.656  19.416  66.378  1.00  0.00    -0.158 OA 
ENDROOT
BRANCH   3   5
HETATM    5  N   UNL     1      -8.671  17.403  66.122  1.00  0.00    -0.196 N  
HETATM    6  C   UNL     1      -9.137  16.285  66.782  1.00  0.00    -0.232 C  
HETATM    7  H   UNL     1      -9.344  18.079  65.760  1.00  0.00     0.000 HD 
HETATM    8  O   UNL     1      -8.389  15.410  67.207  1.00  0.00    -0.168 OA 
BRANCH   6   9
HETATM    9  C   UNL     1     -10.662  16.183  66.914  1.00  0.00    -0.247 C  
BRANCH   9  10
HETATM   10  N   UNL     1     -11.254  15.172  66.055  1.00  0.00    -0.316 N  
HETATM   11  H   UNL     1     -11.443  14.248  66.442  1.00  0.00     0.000 HD 
HETATM   12  C   UNL     1     -11.568  15.416  64.737  1.00  0.00    -0.286 C  
HETATM   13  O   UNL     1     -11.397  16.514  64.214  1.00  0.00    -1.020 OA 
BRANCH  12  14
HETATM   14  C   UNL     1     -12.145  14.215  63.975  1.00  0.00    -0.348 C  
BRANCH  14  15
HETATM   15  N   UNL     1     -11.186  13.125  63.817  1.00  0.00    -0.568 N  
HETATM   16  C   UNL     1     -11.087  12.124  64.762  1.00  0.00    -0.316 C  
HETATM   17  H   UNL     1     -10.581  13.103  62.995  1.00  0.00     0.000 HD 
HETATM   18  O   UNL     1     -11.685  12.175  65.834  1.00  0.00    -0.411 OA 
BRANCH  16  19
HETATM   19  C   UNL     1     -10.120  11.007  64.408  1.00  0.00    -0.334 C  
BRANCH  19  20
HETATM   20  S   UNL     1     -10.016   9.763  65.714  1.00  0.00    -0.235 SA 
BRANCH  20  21
HETATM   21  C   UNL     1      -8.338   9.268  65.538  1.00  0.00    -0.133 C  
HETATM   22  O   UNL     1      -7.430  10.095  65.537  1.00  0.00    -0.133 OA 
BRANCH  21  23
HETATM   23  C   UNL     1      -8.068   7.813  65.374  1.00  0.00    -0.131 A  
HETATM   24  C   UNL     1      -8.514   6.927  66.363  1.00  0.00    -0.130 A  
HETATM   25  C   UNL     1      -8.229   5.562  66.261  1.00  0.00    -0.111 A  
HETATM   26  C   UNL     1      -7.492   5.079  65.181  1.00  0.00    -0.076 A  
HETATM   27  C   UNL     1      -7.048   5.956  64.194  1.00  0.00    -0.053 A  
HETATM   28  C   UNL     1      -7.332   7.318  64.288  1.00  0.00    -0.086 A  
ENDBRANCH  21  23
ENDBRANCH  20  21
ENDBRANCH  19  20
ENDBRANCH  16  19
ENDBRANCH  14  15
ENDBRANCH  12  14
ENDBRANCH   9  10
ENDBRANCH   6   9
ENDBRANCH   3   5
TORSDOF 9
ENDMDL
MODEL      288
REMARK 921   NORMALIZED FREE ENERGY PREDICTED BY IDOCK:   -4.11 KCAL/MOL
REMARK 922        TOTAL FREE ENERGY PREDICTED BY IDOCK:   -7.11 KCAL/MOL
REMARK 923 INTER-LIGAND FREE ENERGY PREDICTED BY IDOCK:   -6.15 KCAL/MOL
REMARK 924 INTRA-LIGAND FREE ENERGY PREDICTED BY IDOCK:   -0.97 KCAL/MOL
REMARK 927      BINDING AFFINITY PREDICTED BY RF-SCORE:    0.00 PKD
ROOT
HETATM    1  O   UNL     1     -10.584   8.491  66.491  1.00  0.00    -0.200 OA 
HETATM    2  C   UNL     1      -9.234   8.464  66.383  1.00  0.00    -0.201 C  
HETATM    3  C   UNL     1      -8.658   9.548  65.478  1.00  0.00    -0.146 C  
HETATM    4  O   UNL     1      -8.551   7.622  66.942  1.00  0.00    -0.118 OA 
ENDROOT
BRANCH   3   5
HETATM    5  N   UNL     1      -9.686  10.409  64.903  1.00  0.00    -0.284 N  
HETATM    6  C   UNL     1      -9.814  10.585  63.541  1.00  0.00    -0.278 C  
HETATM    7  H   UNL     1     -10.330  10.896  65.527  1.00  0.00     0.000 HD 
HETATM    8  O   UNL     1      -9.050  10.065  62.734  1.00  0.00    -0.246 OA 
BRANCH   6   9
HETATM    9  C   UNL     1     -10.952  11.513  63.099  1.00  0.00    -0.110 C  
BRANCH   9  10
HETATM   10  N   UNL     1     -11.188  12.619  64.011  1.00  0.00    -0.376 N  
HETATM   11  H   UNL     1     -10.402  13.211  64.279  1.00  0.00     0.000 HD 
HETATM   12  C   UNL     1     -12.433  12.898  64.527  1.00  0.00    -0.400 C  
HETATM   13  O   UNL     1     -13.429  12.246  64.223  1.00  0.00    -0.653 OA 
BRANCH  12  14
HETATM   14  C   UNL     1     -12.479  14.077  65.508  1.00  0.00    -0.509 C  
BRANCH  14  15
HETATM   15  N   UNL     1     -11.214  14.291  66.205  1.00  0.00    -0.325 N  
HETATM   16  C   UNL     1     -11.067  13.941  67.532  1.00  0.00    -0.286 C  
HETATM   17  H   UNL     1     -10.428  14.706  65.704  1.00  0.00     0.000 HD 
HETATM   18  O   UNL     1     -12.016  13.572  68.220  1.00  0.00    -0.356 OA 
BRANCH  16  19
HETATM   19  C   UNL     1      -9.666  14.128  68.089  1.00  0.00    -0.225 C  
BRANCH  19  20
HETATM   20  S   UNL     1      -8.478  13.002  67.325  1.00  0.00    -0.185 SA 
BRANCH  20  21
HETATM   21  C   UNL     1      -7.960  12.093  68.738  1.00  0.00     0.007 C  
HETATM   22  O   UNL     1      -6.902  12.352  69.305  1.00  0.00    -0.095 OA 
BRANCH  21  23
HETATM   23  C   UNL     1      -8.845  10.990  69.202  1.00  0.00    -0.003 A  
HETATM   24  C   UNL     1     -10.228  11.106  69.011  1.00  0.00    -0.194 A  
HETATM   25  C   UNL     1     -11.087  10.110  69.485  1.00  0.00    -0.295 A  
HETATM   26  C   UNL     1     -10.573   9.003  70.158  1.00  0.00    -0.250 A  
HETATM   27  C   UNL     1      -9.198   8.881  70.350  1.00  0.00    -0.222 A  
HETATM   28  C   UNL     1      -8.336   9.870  69.876  1.00  0.00    -0.200 A  
ENDBRANCH  21  23
ENDBRANCH  20  21
ENDBRANCH  19  20
ENDBRANCH  16  19
ENDBRANCH  14  15
ENDBRANCH  12  14
ENDBRANCH   9  10
ENDBRANCH   6   9
ENDBRANCH   3   5
TORSDOF 9
ENDMDL
MODEL      289
REMARK 921   NORMALIZED FREE ENERGY PREDICTED BY IDOCK:   -4.11 KCAL/MOL
REMARK 922        TOTAL FREE ENERGY PREDICTED BY IDOCK:   -7.11 KCAL/MOL
REMARK 923 INTER-LIGAND FREE ENERGY PREDICTED BY IDOCK:   -6.19 KCAL/MOL
REMARK 924 INTRA-LIGAND FREE ENERGY PREDICTED BY IDOCK:   -0.92 KCAL/MOL
REMARK 927      BINDING AFFINITY PREDICTED BY RF-SCORE:    0.00 PKD
ROOT
HETATM    1  O   UNL     1     -13.123  12.045  71.565  1.00  0.00    -0.390 OA 
HETATM    2  C   UNL     1     -13.500  13.276  71.986  1.00  0.00    -0.507 C  
HETATM    3  C   UNL     1     -12.748  14.422  71.319  1.00  0.00    -0.344 C  
HETATM    4  O   UNL     1     -14.348  13.439  72.848  1.00  0.00    -0.460 OA 
ENDROOT
BRANCH   3   5
HETATM    5  N   UNL     1     -11.762  13.962  70.347  1.00  0.00    -0.489 N  
HETATM    6  C   UNL     1     -11.371  14.740  69.278  1.00  0.00    -0.294 C  
HETATM    7  H   UNL     1     -11.350  13.036  70.462  1.00  0.00     0.000 HD 
HETATM    8  O   UNL     1     -11.855  15.846  69.054  1.00  0.00    -0.389 OA 
BRANCH   6   9
HETATM    9  C   UNL     1     -10.317  14.114  68.356  1.00  0.00    -0.249 C  
BRANCH   9  10
HETATM   10  N   UNL     1     -10.327  12.661  68.364  1.00  0.00    -0.233 N  
HETATM   11  H   UNL     1      -9.684  12.169  68.983  1.00  0.00     0.000 HD 
HETATM   12  C   UNL     1     -11.174  11.925  67.566  1.00  0.00    -0.296 C  
HETATM   13  O   UNL     1     -11.996  12.452  66.821  1.00  0.00    -0.559 OA 
BRANCH  12  14
HETATM   14  C   UNL     1     -11.011  10.403  67.679  1.00  0.00    -0.312 C  
BRANCH  14  15
HETATM   15  N   UNL     1      -9.629   9.962  67.509  1.00  0.00    -0.154 N  
HETATM   16  C   UNL     1      -8.936  10.232  66.347  1.00  0.00    -0.148 C  
HETATM   17  H   UNL     1      -9.170   9.447  68.261  1.00  0.00     0.000 HD 
HETATM   18  O   UNL     1      -9.479  10.720  65.359  1.00  0.00    -0.190 OA 
BRANCH  16  19
HETATM   19  C   UNL     1      -7.478   9.801  66.360  1.00  0.00    -0.099 C  
BRANCH  19  20
HETATM   20  S   UNL     1      -6.360  11.205  66.557  1.00  0.00    -0.115 SA 
BRANCH  20  21
HETATM   21  C   UNL     1      -6.659  11.606  68.242  1.00  0.00    -0.059 C  
HETATM   22  O   UNL     1      -6.914  10.732  69.066  1.00  0.00    -0.068 OA 
BRANCH  21  23
HETATM   23  C   UNL     1      -6.607  13.045  68.622  1.00  0.00    -0.092 A  
HETATM   24  C   UNL     1      -6.267  13.385  69.938  1.00  0.00    -0.102 A  
HETATM   25  C   UNL     1      -6.262  14.725  70.336  1.00  0.00    -0.152 A  
HETATM   26  C   UNL     1      -6.606  15.727  69.429  1.00  0.00    -0.174 A  
HETATM   27  C   UNL     1      -6.942  15.394  68.119  1.00  0.00    -0.131 A  
HETATM   28  C   UNL     1      -6.946  14.059  67.715  1.00  0.00    -0.188 A  
ENDBRANCH  21  23
ENDBRANCH  20  21
ENDBRANCH  19  20
ENDBRANCH  16  19
ENDBRANCH  14  15
ENDBRANCH  12  14
ENDBRANCH   9  10
ENDBRANCH   6   9
ENDBRANCH   3   5
TORSDOF 9
ENDMDL
MODEL      290
REMARK 921   NORMALIZED FREE ENERGY PREDICTED BY IDOCK:   -4.11 KCAL/MOL
REMARK 922        TOTAL FREE ENERGY PREDICTED BY IDOCK:   -7.11 KCAL/MOL
REMARK 923 INTER-LIGAND FREE ENERGY PREDICTED BY IDOCK:   -6.16 KCAL/MOL
REMARK 924 INTRA-LIGAND FREE ENERGY PREDICTED BY IDOCK:   -0.95 KCAL/MOL
REMARK 927      BINDING AFFINITY PREDICTED BY RF-SCORE:    0.00 PKD
ROOT
HETATM    1  O   UNL     1      -8.808   3.324  65.577  1.00  0.00    -0.124 OA 
HETATM    2  C   UNL     1      -7.610   3.923  65.774  1.00  0.00    -0.085 C  
HETATM    3  C   UNL     1      -7.637   5.057  66.794  1.00  0.00    -0.088 C  
HETATM    4  O   UNL     1      -6.608   3.596  65.160  1.00  0.00    -0.038 OA 
ENDROOT
BRANCH   3   5
HETATM    5  N   UNL     1      -8.963   5.272  67.363  1.00  0.00    -0.109 N  
HETATM    6  C   UNL     1      -9.174   5.325  68.725  1.00  0.00    -0.116 C  
HETATM    7  H   UNL     1      -9.759   5.387  66.735  1.00  0.00     0.000 HD 
HETATM    8  O   UNL     1      -8.272   5.154  69.539  1.00  0.00    -0.091 OA 
BRANCH   6   9
HETATM    9  C   UNL     1     -10.625   5.570  69.160  1.00  0.00    -0.230 C  
BRANCH   9  10
HETATM   10  N   UNL     1     -10.994   6.975  69.187  1.00  0.00    -0.408 N  
HETATM   11  H   UNL     1     -11.211   7.443  68.307  1.00  0.00     0.000 HD 
HETATM   12  C   UNL     1     -11.062   7.697  70.356  1.00  0.00    -0.258 C  
HETATM   13  O   UNL     1     -10.844   7.191  71.454  1.00  0.00    -0.229 OA 
BRANCH  12  14
HETATM   14  C   UNL     1     -11.426   9.178  70.183  1.00  0.00    -0.087 C  
BRANCH  14  15
HETATM   15  N   UNL     1     -11.207   9.666  68.824  1.00  0.00    -0.470 N  
HETATM   16  C   UNL     1     -10.058  10.357  68.495  1.00  0.00    -0.171 C  
HETATM   17  H   UNL     1     -11.913   9.493  68.108  1.00  0.00     0.000 HD 
HETATM   18  O   UNL     1      -9.246  10.716  69.344  1.00  0.00    -0.158 OA 
BRANCH  16  19
HETATM   19  C   UNL     1      -9.926  10.709  67.023  1.00  0.00    -0.202 C  
BRANCH  19  20
HETATM   20  S   UNL     1      -9.786  12.491  66.763  1.00  0.00    -0.239 SA 
BRANCH  20  21
HETATM   21  C   UNL     1     -11.447  12.980  67.066  1.00  0.00    -0.333 C  
HETATM   22  O   UNL     1     -12.353  12.654  66.305  1.00  0.00    -0.550 OA 
BRANCH  21  23
HETATM   23  C   UNL     1     -11.703  13.818  68.270  1.00  0.00    -0.394 A  
HETATM   24  C   UNL     1     -12.122  13.194  69.452  1.00  0.00    -0.285 A  
HETATM   25  C   UNL     1     -12.421  13.961  70.582  1.00  0.00    -0.436 A  
HETATM   26  C   UNL     1     -12.312  15.350  70.535  1.00  0.00    -0.452 A  
HETATM   27  C   UNL     1     -11.894  15.976  69.363  1.00  0.00    -0.247 A  
HETATM   28  C   UNL     1     -11.591  15.216  68.233  1.00  0.00    -0.357 A  
ENDBRANCH  21  23
ENDBRANCH  20  21
ENDBRANCH  19  20
ENDBRANCH  16  19
ENDBRANCH  14  15
ENDBRANCH  12  14
ENDBRANCH   9  10
ENDBRANCH   6   9
ENDBRANCH   3   5
TORSDOF 9
ENDMDL
MODEL      291
REMARK 921   NORMALIZED FREE ENERGY PREDICTED BY IDOCK:   -4.11 KCAL/MOL
REMARK 922        TOTAL FREE ENERGY PREDICTED BY IDOCK:   -7.11 KCAL/MOL
REMARK 923 INTER-LIGAND FREE ENERGY PREDICTED BY IDOCK:   -6.69 KCAL/MOL
REMARK 924 INTRA-LIGAND FREE ENERGY PREDICTED BY IDOCK:   -0.42 KCAL/MOL
REMARK 927      BINDING AFFINITY PREDICTED BY RF-SCORE:    0.00 PKD
ROOT
HETATM    1  O   UNL     1     -10.397   4.869  69.989  1.00  0.00    -0.268 OA 
HETATM    2  C   UNL     1      -9.668   4.345  71.003  1.00  0.00    -0.190 C  
HETATM    3  C   UNL     1      -8.630   5.298  71.584  1.00  0.00    -0.134 C  
HETATM    4  O   UNL     1      -9.818   3.198  71.390  1.00  0.00    -0.163 OA 
ENDROOT
BRANCH   3   5
HETATM    5  N   UNL     1      -8.628   6.600  70.926  1.00  0.00    -0.134 N  
HETATM    6  C   UNL     1      -8.273   7.755  71.591  1.00  0.00    -0.110 C  
HETATM    7  H   UNL     1      -8.898   6.659  69.943  1.00  0.00     0.000 HD 
HETATM    8  O   UNL     1      -7.979   7.767  72.782  1.00  0.00    -0.100 OA 
BRANCH   6   9
HETATM    9  C   UNL     1      -8.313   9.039  70.753  1.00  0.00    -0.192 C  
BRANCH   9  10
HETATM   10  N   UNL     1      -9.608   9.698  70.758  1.00  0.00    -0.316 N  
HETATM   11  H   UNL     1     -10.107   9.792  71.642  1.00  0.00     0.000 HD 
HETATM   12  C   UNL     1     -10.186  10.199  69.614  1.00  0.00    -0.242 C  
HETATM   13  O   UNL     1      -9.627  10.148  68.521  1.00  0.00    -0.147 OA 
BRANCH  12  14
HETATM   14  C   UNL     1     -11.575  10.820  69.809  1.00  0.00    -0.317 C  
BRANCH  14  15
HETATM   15  N   UNL     1     -11.938  11.754  68.746  1.00  0.00    -0.304 N  
HETATM   16  C   UNL     1     -11.884  13.118  68.951  1.00  0.00    -0.320 C  
HETATM   17  H   UNL     1     -12.236  11.393  67.840  1.00  0.00     0.000 HD 
HETATM   18  O   UNL     1     -11.672  13.605  70.059  1.00  0.00    -0.284 OA 
BRANCH  16  19
HETATM   19  C   UNL     1     -12.191  13.960  67.724  1.00  0.00    -0.182 C  
BRANCH  19  20
HETATM   20  S   UNL     1     -11.220  15.482  67.688  1.00  0.00    -0.248 SA 
BRANCH  20  21
HETATM   21  C   UNL     1     -10.332  15.248  66.189  1.00  0.00    -0.302 C  
HETATM   22  O   UNL     1      -9.330  15.912  65.935  1.00  0.00    -0.333 OA 
BRANCH  21  23
HETATM   23  C   UNL     1     -10.854  14.229  65.237  1.00  0.00    -0.363 A  
HETATM   24  C   UNL     1     -10.173  13.011  65.110  1.00  0.00    -0.289 A  
HETATM   25  C   UNL     1     -10.610  12.057  64.186  1.00  0.00    -0.398 A  
HETATM   26  C   UNL     1     -11.718  12.318  63.380  1.00  0.00    -0.542 A  
HETATM   27  C   UNL     1     -12.399  13.526  63.504  1.00  0.00    -0.343 A  
HETATM   28  C   UNL     1     -11.971  14.480  64.427  1.00  0.00    -0.467 A  
ENDBRANCH  21  23
ENDBRANCH  20  21
ENDBRANCH  19  20
ENDBRANCH  16  19
ENDBRANCH  14  15
ENDBRANCH  12  14
ENDBRANCH   9  10
ENDBRANCH   6   9
ENDBRANCH   3   5
TORSDOF 9
ENDMDL
MODEL      292
REMARK 921   NORMALIZED FREE ENERGY PREDICTED BY IDOCK:   -4.09 KCAL/MOL
REMARK 922        TOTAL FREE ENERGY PREDICTED BY IDOCK:   -7.09 KCAL/MOL
REMARK 923 INTER-LIGAND FREE ENERGY PREDICTED BY IDOCK:   -6.12 KCAL/MOL
REMARK 924 INTRA-LIGAND FREE ENERGY PREDICTED BY IDOCK:   -0.97 KCAL/MOL
REMARK 927      BINDING AFFINITY PREDICTED BY RF-SCORE:    0.00 PKD
ROOT
HETATM    1  O   UNL     1      -6.045  14.338  71.898  1.00  0.00    -0.122 OA 
HETATM    2  C   UNL     1      -5.743  13.332  71.043  1.00  0.00    -0.140 C  
HETATM    3  C   UNL     1      -6.258  13.543  69.623  1.00  0.00    -0.121 C  
HETATM    4  O   UNL     1      -5.138  12.334  71.397  1.00  0.00    -0.172 OA 
ENDROOT
BRANCH   3   5
HETATM    5  N   UNL     1      -6.979  14.802  69.465  1.00  0.00    -0.167 N  
HETATM    6  C   UNL     1      -7.203  15.365  68.226  1.00  0.00    -0.116 C  
HETATM    7  H   UNL     1      -7.329  15.280  70.296  1.00  0.00     0.000 HD 
HETATM    8  O   UNL     1      -6.776  14.869  67.189  1.00  0.00    -0.265 OA 
BRANCH   6   9
HETATM    9  C   UNL     1      -7.987  16.684  68.233  1.00  0.00    -0.192 C  
BRANCH   9  10
HETATM   10  N   UNL     1      -9.294  16.586  67.607  1.00  0.00    -0.212 N  
HETATM   11  H   UNL     1      -9.354  16.598  66.589  1.00  0.00     0.000 HD 
HETATM   12  C   UNL     1     -10.456  16.476  68.337  1.00  0.00    -0.307 C  
HETATM   13  O   UNL     1     -10.456  16.423  69.564  1.00  0.00    -0.281 OA 
BRANCH  12  14
HETATM   14  C   UNL     1     -11.744  16.428  67.503  1.00  0.00     0.532 C  
BRANCH  14  15
HETATM   15  N   UNL     1     -12.215  15.069  67.257  1.00  0.00    -0.283 N  
HETATM   16  C   UNL     1     -11.608  14.267  66.311  1.00  0.00    -0.372 C  
HETATM   17  H   UNL     1     -13.005  14.706  67.792  1.00  0.00     0.000 HD 
HETATM   18  O   UNL     1     -10.752  14.697  65.542  1.00  0.00    -0.309 OA 
BRANCH  16  19
HETATM   19  C   UNL     1     -12.143  12.847  66.241  1.00  0.00    -0.365 C  
BRANCH  19  20
HETATM   20  S   UNL     1     -11.001  11.657  66.977  1.00  0.00    -0.302 SA 
BRANCH  20  21
HETATM   21  C   UNL     1     -10.504  12.549  68.409  1.00  0.00    -0.240 C  
HETATM   22  O   UNL     1      -9.438  13.158  68.438  1.00  0.00    -0.213 OA 
BRANCH  21  23
HETATM   23  C   UNL     1     -11.418  12.520  69.583  1.00  0.00    -0.255 A  
HETATM   24  C   UNL     1     -11.831  13.733  70.150  1.00  0.00    -0.360 A  
HETATM   25  C   UNL     1     -12.645  13.736  71.286  1.00  0.00    -0.444 A  
HETATM   26  C   UNL     1     -13.043  12.531  71.865  1.00  0.00    -0.473 A  
HETATM   27  C   UNL     1     -12.638  11.322  71.305  1.00  0.00    -0.487 A  
HETATM   28  C   UNL     1     -11.827  11.313  70.170  1.00  0.00    -0.449 A  
ENDBRANCH  21  23
ENDBRANCH  20  21
ENDBRANCH  19  20
ENDBRANCH  16  19
ENDBRANCH  14  15
ENDBRANCH  12  14
ENDBRANCH   9  10
ENDBRANCH   6   9
ENDBRANCH   3   5
TORSDOF 9
ENDMDL
MODEL      293
REMARK 921   NORMALIZED FREE ENERGY PREDICTED BY IDOCK:   -4.09 KCAL/MOL
REMARK 922        TOTAL FREE ENERGY PREDICTED BY IDOCK:   -7.08 KCAL/MOL
REMARK 923 INTER-LIGAND FREE ENERGY PREDICTED BY IDOCK:   -6.50 KCAL/MOL
REMARK 924 INTRA-LIGAND FREE ENERGY PREDICTED BY IDOCK:   -0.59 KCAL/MOL
REMARK 927      BINDING AFFINITY PREDICTED BY RF-SCORE:    0.00 PKD
ROOT
HETATM    1  O   UNL     1     -10.468  17.755  68.984  1.00  0.00    -0.332 OA 
HETATM    2  C   UNL     1      -9.666  18.263  68.018  1.00  0.00    -0.312 C  
HETATM    3  C   UNL     1      -9.547  17.384  66.778  1.00  0.00    -0.277 C  
HETATM    4  O   UNL     1      -9.072  19.320  68.152  1.00  0.00    -0.308 OA 
ENDROOT
BRANCH   3   5
HETATM    5  N   UNL     1     -10.330  16.157  66.878  1.00  0.00    -0.293 N  
HETATM    6  C   UNL     1     -10.951  15.595  65.783  1.00  0.00    -0.248 C  
HETATM    7  H   UNL     1     -10.420  15.700  67.786  1.00  0.00     0.000 HD 
HETATM    8  O   UNL     1     -10.920  16.110  64.670  1.00  0.00    -0.642 OA 
BRANCH   6   9
HETATM    9  C   UNL     1     -11.725  14.299  66.056  1.00  0.00    -0.379 C  
BRANCH   9  10
HETATM   10  N   UNL     1     -11.275  13.173  65.255  1.00  0.00    -0.288 N  
HETATM   11  H   UNL     1     -11.706  13.014  64.345  1.00  0.00     0.000 HD 
HETATM   12  C   UNL     1     -10.287  12.313  65.680  1.00  0.00    -0.257 C  
HETATM   13  O   UNL     1      -9.703  12.463  66.750  1.00  0.00    -0.212 OA 
BRANCH  12  14
HETATM   14  C   UNL     1      -9.976  11.158  64.719  1.00  0.00    -0.287 C  
BRANCH  14  15
HETATM   15  N   UNL     1     -10.035   9.848  65.361  1.00  0.00    -0.316 N  
HETATM   16  C   UNL     1      -8.881   9.171  65.700  1.00  0.00    -0.185 C  
HETATM   17  H   UNL     1     -10.942   9.427  65.562  1.00  0.00     0.000 HD 
HETATM   18  O   UNL     1      -7.768   9.562  65.355  1.00  0.00    -0.104 OA 
BRANCH  16  19
HETATM   19  C   UNL     1      -9.102   7.870  66.453  1.00  0.00    -0.179 C  
BRANCH  19  20
HETATM   20  S   UNL     1     -10.778   7.749  67.115  1.00  0.00    -0.157 SA 
BRANCH  20  21
HETATM   21  C   UNL     1     -10.706   6.154  67.851  1.00  0.00    -0.296 C  
HETATM   22  O   UNL     1     -11.001   5.986  69.031  1.00  0.00    -0.321 OA 
BRANCH  21  23
HETATM   23  C   UNL     1     -10.256   5.024  66.992  1.00  0.00    -0.253 A  
HETATM   24  C   UNL     1      -9.373   4.077  67.526  1.00  0.00    -0.219 A  
HETATM   25  C   UNL     1      -8.892   3.036  66.726  1.00  0.00    -0.159 A  
HETATM   26  C   UNL     1      -9.283   2.942  65.391  1.00  0.00    -0.131 A  
HETATM   27  C   UNL     1     -10.163   3.879  64.855  1.00  0.00    -0.172 A  
HETATM   28  C   UNL     1     -10.648   4.918  65.649  1.00  0.00    -0.165 A  
ENDBRANCH  21  23
ENDBRANCH  20  21
ENDBRANCH  19  20
ENDBRANCH  16  19
ENDBRANCH  14  15
ENDBRANCH  12  14
ENDBRANCH   9  10
ENDBRANCH   6   9
ENDBRANCH   3   5
TORSDOF 9
ENDMDL
MODEL      294
REMARK 921   NORMALIZED FREE ENERGY PREDICTED BY IDOCK:   -4.09 KCAL/MOL
REMARK 922        TOTAL FREE ENERGY PREDICTED BY IDOCK:   -7.08 KCAL/MOL
REMARK 923 INTER-LIGAND FREE ENERGY PREDICTED BY IDOCK:   -5.76 KCAL/MOL
REMARK 924 INTRA-LIGAND FREE ENERGY PREDICTED BY IDOCK:   -1.32 KCAL/MOL
REMARK 927      BINDING AFFINITY PREDICTED BY RF-SCORE:    0.00 PKD
ROOT
HETATM    1  O   UNL     1     -13.105  12.031  71.542  1.00  0.00    -0.390 OA 
HETATM    2  C   UNL     1     -13.398  13.291  71.940  1.00  0.00    -0.451 C  
HETATM    3  C   UNL     1     -12.646  14.378  71.180  1.00  0.00    -0.352 C  
HETATM    4  O   UNL     1     -14.177  13.524  72.851  1.00  0.00    -0.535 OA 
ENDROOT
BRANCH   3   5
HETATM    5  N   UNL     1     -11.751  13.839  70.162  1.00  0.00    -0.448 N  
HETATM    6  C   UNL     1     -11.430  14.545  69.022  1.00  0.00    -0.290 C  
HETATM    7  H   UNL     1     -11.349  12.910  70.298  1.00  0.00     0.000 HD 
HETATM    8  O   UNL     1     -11.907  15.648  68.773  1.00  0.00    -0.370 OA 
BRANCH   6   9
HETATM    9  C   UNL     1     -10.466  13.841  68.058  1.00  0.00    -0.244 C  
BRANCH   9  10
HETATM   10  N   UNL     1     -11.120  13.284  66.887  1.00  0.00    -0.283 N  
HETATM   11  H   UNL     1     -11.564  12.369  66.960  1.00  0.00     0.000 HD 
HETATM   12  C   UNL     1     -11.162  13.946  65.680  1.00  0.00    -0.306 C  
HETATM   13  O   UNL     1     -10.676  15.064  65.529  1.00  0.00    -0.313 OA 
BRANCH  12  14
HETATM   14  C   UNL     1     -11.857  13.182  64.546  1.00  0.00    -0.377 C  
BRANCH  14  15
HETATM   15  N   UNL     1     -11.233  11.894  64.256  1.00  0.00    -0.342 N  
HETATM   16  C   UNL     1      -9.962  11.826  63.720  1.00  0.00    -0.355 C  
HETATM   17  H   UNL     1     -11.742  11.032  64.453  1.00  0.00     0.000 HD 
HETATM   18  O   UNL     1      -9.362  12.825  63.333  1.00  0.00     0.447 OA 
BRANCH  16  19
HETATM   19  C   UNL     1      -9.408  10.419  63.572  1.00  0.00    -0.297 C  
BRANCH  19  20
HETATM   20  S   UNL     1      -8.010  10.123  64.676  1.00  0.00    -0.133 SA 
BRANCH  20  21
HETATM   21  C   UNL     1      -8.726  10.584  66.214  1.00  0.00    -0.151 C  
HETATM   22  O   UNL     1      -9.919  10.400  66.438  1.00  0.00    -0.204 OA 
BRANCH  21  23
HETATM   23  C   UNL     1      -7.832  11.219  67.220  1.00  0.00    -0.141 A  
HETATM   24  C   UNL     1      -8.124  11.060  68.581  1.00  0.00    -0.149 A  
HETATM   25  C   UNL     1      -7.333  11.690  69.546  1.00  0.00     0.184 A  
HETATM   26  C   UNL     1      -6.256  12.486  69.159  1.00  0.00    -0.094 A  
HETATM   27  C   UNL     1      -5.960  12.647  67.807  1.00  0.00    -0.126 A  
HETATM   28  C   UNL     1      -6.743  12.018  66.840  1.00  0.00    -0.041 A  
ENDBRANCH  21  23
ENDBRANCH  20  21
ENDBRANCH  19  20
ENDBRANCH  16  19
ENDBRANCH  14  15
ENDBRANCH  12  14
ENDBRANCH   9  10
ENDBRANCH   6   9
ENDBRANCH   3   5
TORSDOF 9
ENDMDL
MODEL      295
REMARK 921   NORMALIZED FREE ENERGY PREDICTED BY IDOCK:   -4.09 KCAL/MOL
REMARK 922        TOTAL FREE ENERGY PREDICTED BY IDOCK:   -7.08 KCAL/MOL
REMARK 923 INTER-LIGAND FREE ENERGY PREDICTED BY IDOCK:   -6.28 KCAL/MOL
REMARK 924 INTRA-LIGAND FREE ENERGY PREDICTED BY IDOCK:   -0.80 KCAL/MOL
REMARK 927      BINDING AFFINITY PREDICTED BY RF-SCORE:    0.00 PKD
ROOT
HETATM    1  O   UNL     1     -11.178  16.504  68.527  1.00  0.00    -0.360 OA 
HETATM    2  C   UNL     1     -10.665  17.471  67.728  1.00  0.00    -0.332 C  
HETATM    3  C   UNL     1     -10.378  17.016  66.302  1.00  0.00    -0.306 C  
HETATM    4  O   UNL     1     -10.430  18.596  68.135  1.00  0.00    -0.367 OA 
ENDROOT
BRANCH   3   5
HETATM    5  N   UNL     1     -10.717  15.615  66.076  1.00  0.00    -0.324 N  
HETATM    6  C   UNL     1      -9.769  14.615  66.135  1.00  0.00    -0.319 C  
HETATM    7  H   UNL     1     -11.684  15.367  65.868  1.00  0.00     0.000 HD 
HETATM    8  O   UNL     1      -8.580  14.843  66.339  1.00  0.00    -0.183 OA 
BRANCH   6   9
HETATM    9  C   UNL     1     -10.291  13.194  65.886  1.00  0.00    -0.290 C  
BRANCH   9  10
HETATM   10  N   UNL     1      -9.517  12.455  64.904  1.00  0.00    -0.445 N  
HETATM   11  H   UNL     1      -8.507  12.587  64.873  1.00  0.00     0.000 HD 
HETATM   12  C   UNL     1     -10.098  11.581  64.012  1.00  0.00    -0.321 C  
HETATM   13  O   UNL     1     -11.304  11.350  64.013  1.00  0.00    -0.353 OA 
BRANCH  12  14
HETATM   14  C   UNL     1      -9.127  10.925  63.021  1.00  0.00    -0.299 C  
BRANCH  14  15
HETATM   15  N   UNL     1      -9.318   9.482  62.903  1.00  0.00    -0.547 N  
HETATM   16  C   UNL     1      -8.247   8.641  62.675  1.00  0.00    -0.194 C  
HETATM   17  H   UNL     1     -10.256   9.090  62.991  1.00  0.00     0.000 HD 
HETATM   18  O   UNL     1      -7.124   9.068  62.420  1.00  0.00    -0.100 OA 
BRANCH  16  19
HETATM   19  C   UNL     1      -8.588   7.161  62.680  1.00  0.00     0.288 C  
BRANCH  19  20
HETATM   20  S   UNL     1      -7.281   6.168  63.433  1.00  0.00    -0.062 SA 
BRANCH  20  21
HETATM   21  C   UNL     1      -7.366   6.750  65.090  1.00  0.00    -0.085 C  
HETATM   22  O   UNL     1      -6.369   7.185  65.661  1.00  0.00    -0.039 OA 
BRANCH  21  23
HETATM   23  C   UNL     1      -8.686   6.676  65.774  1.00  0.00    -0.126 A  
HETATM   24  C   UNL     1      -9.312   7.866  66.166  1.00  0.00    -0.188 A  
HETATM   25  C   UNL     1     -10.527   7.825  66.857  1.00  0.00    -0.388 A  
HETATM   26  C   UNL     1     -11.115   6.599  67.167  1.00  0.00    -0.427 A  
HETATM   27  C   UNL     1     -10.499   5.413  66.777  1.00  0.00    -0.347 A  
HETATM   28  C   UNL     1      -9.288   5.448  66.084  1.00  0.00    -0.167 A  
ENDBRANCH  21  23
ENDBRANCH  20  21
ENDBRANCH  19  20
ENDBRANCH  16  19
ENDBRANCH  14  15
ENDBRANCH  12  14
ENDBRANCH   9  10
ENDBRANCH   6   9
ENDBRANCH   3   5
TORSDOF 9
ENDMDL
MODEL      296
REMARK 921   NORMALIZED FREE ENERGY PREDICTED BY IDOCK:   -4.08 KCAL/MOL
REMARK 922        TOTAL FREE ENERGY PREDICTED BY IDOCK:   -7.07 KCAL/MOL
REMARK 923 INTER-LIGAND FREE ENERGY PREDICTED BY IDOCK:   -6.19 KCAL/MOL
REMARK 924 INTRA-LIGAND FREE ENERGY PREDICTED BY IDOCK:   -0.88 KCAL/MOL
REMARK 927      BINDING AFFINITY PREDICTED BY RF-SCORE:    0.00 PKD
ROOT
HETATM    1  O   UNL     1     -11.971  13.099  68.651  1.00  0.00    -0.328 OA 
HETATM    2  C   UNL     1     -11.419  14.323  68.472  1.00  0.00    -0.298 C  
HETATM    3  C   UNL     1     -10.605  14.460  67.190  1.00  0.00    -0.277 C  
HETATM    4  O   UNL     1     -11.544  15.221  69.288  1.00  0.00    -0.292 OA 
ENDROOT
BRANCH   3   5
HETATM    5  N   UNL     1     -10.583  13.233  66.401  1.00  0.00    -0.281 N  
HETATM    6  C   UNL     1     -11.328  13.091  65.249  1.00  0.00    -0.295 C  
HETATM    7  H   UNL     1      -9.999  12.455  66.711  1.00  0.00     0.000 HD 
HETATM    8  O   UNL     1     -12.083  13.967  64.840  1.00  0.00    -0.378 OA 
BRANCH   6   9
HETATM    9  C   UNL     1     -11.183  11.743  64.531  1.00  0.00    -0.305 C  
BRANCH   9  10
HETATM   10  N   UNL     1      -9.955  11.040  64.857  1.00  0.00    -0.265 N  
HETATM   11  H   UNL     1      -9.578  11.120  65.801  1.00  0.00     0.000 HD 
HETATM   12  C   UNL     1      -9.280  10.268  63.937  1.00  0.00    -0.274 C  
HETATM   13  O   UNL     1      -9.693  10.102  62.792  1.00  0.00    -0.260 OA 
BRANCH  12  14
HETATM   14  C   UNL     1      -7.979   9.638  64.451  1.00  0.00    -0.138 C  
BRANCH  14  15
HETATM   15  N   UNL     1      -7.663  10.017  65.825  1.00  0.00    -0.117 N  
HETATM   16  C   UNL     1      -7.121   9.104  66.707  1.00  0.00    -0.082 C  
HETATM   17  H   UNL     1      -7.845  10.971  66.138  1.00  0.00     0.000 HD 
HETATM   18  O   UNL     1      -7.014   7.912  66.430  1.00  0.00    -0.064 OA 
BRANCH  16  19
HETATM   19  C   UNL     1      -6.751   9.672  68.066  1.00  0.00    -0.062 C  
BRANCH  19  20
HETATM   20  S   UNL     1      -8.162  10.451  68.881  1.00  0.00    -0.141 SA 
BRANCH  20  21
HETATM   21  C   UNL     1      -7.963   9.825  70.512  1.00  0.00    -0.022 C  
HETATM   22  O   UNL     1      -6.877   9.876  71.082  1.00  0.00    -0.337 OA 
BRANCH  21  23
HETATM   23  C   UNL     1      -9.158   9.219  71.161  1.00  0.00    -0.197 A  
HETATM   24  C   UNL     1      -8.969   8.233  72.139  1.00  0.00    -0.274 A  
HETATM   25  C   UNL     1     -10.072   7.609  72.727  1.00  0.00    -0.311 A  
HETATM   26  C   UNL     1     -11.365   7.956  72.336  1.00  0.00    -0.427 A  
HETATM   27  C   UNL     1     -11.559   8.937  71.366  1.00  0.00    -0.382 A  
HETATM   28  C   UNL     1     -10.462   9.566  70.778  1.00  0.00    -0.384 A  
ENDBRANCH  21  23
ENDBRANCH  20  21
ENDBRANCH  19  20
ENDBRANCH  16  19
ENDBRANCH  14  15
ENDBRANCH  12  14
ENDBRANCH   9  10
ENDBRANCH   6   9
ENDBRANCH   3   5
TORSDOF 9
ENDMDL
MODEL      297
REMARK 921   NORMALIZED FREE ENERGY PREDICTED BY IDOCK:   -4.08 KCAL/MOL
REMARK 922        TOTAL FREE ENERGY PREDICTED BY IDOCK:   -7.07 KCAL/MOL
REMARK 923 INTER-LIGAND FREE ENERGY PREDICTED BY IDOCK:   -6.32 KCAL/MOL
REMARK 924 INTRA-LIGAND FREE ENERGY PREDICTED BY IDOCK:   -0.76 KCAL/MOL
REMARK 927      BINDING AFFINITY PREDICTED BY RF-SCORE:    0.00 PKD
ROOT
HETATM    1  O   UNL     1      -8.895  18.991  65.987  1.00  0.00    -0.460 OA 
HETATM    2  C   UNL     1      -7.715  18.425  66.337  1.00  0.00    -0.262 C  
HETATM    3  C   UNL     1      -7.834  16.991  66.841  1.00  0.00    -0.213 C  
HETATM    4  O   UNL     1      -6.658  19.031  66.279  1.00  0.00    -0.191 OA 
ENDROOT
BRANCH   3   5
HETATM    5  N   UNL     1      -9.210  16.506  66.844  1.00  0.00    -0.217 N  
HETATM    6  C   UNL     1      -9.878  16.211  68.014  1.00  0.00    -0.231 C  
HETATM    7  H   UNL     1      -9.694  16.382  65.954  1.00  0.00     0.000 HD 
HETATM    8  O   UNL     1      -9.347  16.296  69.117  1.00  0.00    -0.246 OA 
BRANCH   6   9
HETATM    9  C   UNL     1     -11.323  15.723  67.845  1.00  0.00    -0.277 C  
BRANCH   9  10
HETATM   10  N   UNL     1     -11.428  14.299  67.581  1.00  0.00    -0.327 N  
HETATM   11  H   UNL     1     -11.650  13.670  68.353  1.00  0.00     0.000 HD 
HETATM   12  C   UNL     1     -11.241  13.765  66.325  1.00  0.00    -0.306 C  
HETATM   13  O   UNL     1     -11.003  14.465  65.345  1.00  0.00    -0.309 OA 
BRANCH  12  14
HETATM   14  C   UNL     1     -11.349  12.236  66.249  1.00  0.00    -0.345 C  
BRANCH  14  15
HETATM   15  N   UNL     1     -10.583  11.555  67.289  1.00  0.00    -0.218 N  
HETATM   16  C   UNL     1     -11.209  11.027  68.400  1.00  0.00    -0.274 C  
HETATM   17  H   UNL     1      -9.571  11.469  67.193  1.00  0.00     0.000 HD 
HETATM   18  O   UNL     1     -12.398  11.224  68.636  1.00  0.00    -0.534 OA 
BRANCH  16  19
HETATM   19  C   UNL     1     -10.296  10.260  69.341  1.00  0.00    -0.235 C  
BRANCH  19  20
HETATM   20  S   UNL     1     -10.406   8.475  69.087  1.00  0.00    -0.208 SA 
BRANCH  20  21
HETATM   21  C   UNL     1      -9.650   7.903  70.567  1.00  0.00    -0.170 C  
HETATM   22  O   UNL     1      -9.395   8.675  71.488  1.00  0.00    -0.200 OA 
BRANCH  21  23
HETATM   23  C   UNL     1      -9.318   6.454  70.649  1.00  0.00    -0.169 A  
HETATM   24  C   UNL     1      -9.927   5.569  69.750  1.00  0.00    -0.279 A  
HETATM   25  C   UNL     1      -9.675   4.197  69.838  1.00  0.00    -0.280 A  
HETATM   26  C   UNL     1      -8.824   3.703  70.826  1.00  0.00    -0.136 A  
HETATM   27  C   UNL     1      -8.213   4.579  71.720  1.00  0.00    -0.103 A  
HETATM   28  C   UNL     1      -8.458   5.949  71.636  1.00  0.00    -0.128 A  
ENDBRANCH  21  23
ENDBRANCH  20  21
ENDBRANCH  19  20
ENDBRANCH  16  19
ENDBRANCH  14  15
ENDBRANCH  12  14
ENDBRANCH   9  10
ENDBRANCH   6   9
ENDBRANCH   3   5
TORSDOF 9
ENDMDL
MODEL      298
REMARK 921   NORMALIZED FREE ENERGY PREDICTED BY IDOCK:   -4.08 KCAL/MOL
REMARK 922        TOTAL FREE ENERGY PREDICTED BY IDOCK:   -7.07 KCAL/MOL
REMARK 923 INTER-LIGAND FREE ENERGY PREDICTED BY IDOCK:   -6.29 KCAL/MOL
REMARK 924 INTRA-LIGAND FREE ENERGY PREDICTED BY IDOCK:   -0.78 KCAL/MOL
REMARK 927      BINDING AFFINITY PREDICTED BY RF-SCORE:    0.00 PKD
ROOT
HETATM    1  O   UNL     1     -10.032  16.050  66.940  1.00  0.00    -0.240 OA 
HETATM    2  C   UNL     1     -10.410  16.715  65.822  1.00  0.00    -0.321 C  
HETATM    3  C   UNL     1     -11.012  15.825  64.739  1.00  0.00    -0.393 C  
HETATM    4  O   UNL     1     -10.251  17.917  65.692  1.00  0.00    -0.589 OA 
ENDROOT
BRANCH   3   5
HETATM    5  N   UNL     1     -11.064  14.420  65.127  1.00  0.00    -0.342 N  
HETATM    6  C   UNL     1     -12.258  13.749  65.289  1.00  0.00    -0.439 C  
HETATM    7  H   UNL     1     -10.189  13.917  65.283  1.00  0.00     0.000 HD 
HETATM    8  O   UNL     1     -13.347  14.300  65.159  1.00  0.00    -0.626 OA 
BRANCH   6   9
HETATM    9  C   UNL     1     -12.137  12.273  65.687  1.00  0.00    -0.234 C  
BRANCH   9  10
HETATM   10  N   UNL     1     -10.872  11.942  66.319  1.00  0.00    -0.271 N  
HETATM   11  H   UNL     1     -10.025  11.935  65.751  1.00  0.00     0.000 HD 
HETATM   12  C   UNL     1     -10.773  11.638  67.658  1.00  0.00    -0.207 C  
HETATM   13  O   UNL     1     -11.745  11.657  68.408  1.00  0.00    -0.293 OA 
BRANCH  12  14
HETATM   14  C   UNL     1      -9.362  11.272  68.137  1.00  0.00    -0.181 C  
BRANCH  14  15
HETATM   15  N   UNL     1      -9.227   9.863  68.496  1.00  0.00    -0.133 N  
HETATM   16  C   UNL     1      -8.850   8.925  67.556  1.00  0.00    -0.130 C  
HETATM   17  H   UNL     1      -9.413   9.569  69.455  1.00  0.00     0.000 HD 
HETATM   18  O   UNL     1      -8.753   9.197  66.363  1.00  0.00    -0.124 OA 
BRANCH  16  19
HETATM   19  C   UNL     1      -8.652   7.520  68.102  1.00  0.00    -0.123 C  
BRANCH  19  20
HETATM   20  S   UNL     1     -10.126   6.909  68.949  1.00  0.00    -0.177 SA 
BRANCH  20  21
HETATM   21  C   UNL     1      -9.379   5.919  70.195  1.00  0.00    -0.156 C  
HETATM   22  O   UNL     1      -9.029   4.765  69.963  1.00  0.00    -0.090 OA 
BRANCH  21  23
HETATM   23  C   UNL     1      -9.208   6.531  71.542  1.00  0.00    -0.144 A  
HETATM   24  C   UNL     1     -10.335   7.032  72.206  1.00  0.00    -0.216 A  
HETATM   25  C   UNL     1     -10.197   7.659  73.447  1.00  0.00    -0.375 A  
HETATM   26  C   UNL     1      -8.935   7.797  74.026  1.00  0.00    -0.273 A  
HETATM   27  C   UNL     1      -7.811   7.298  73.371  1.00  0.00    -0.117 A  
HETATM   28  C   UNL     1      -7.944   6.669  72.134  1.00  0.00    -0.097 A  
ENDBRANCH  21  23
ENDBRANCH  20  21
ENDBRANCH  19  20
ENDBRANCH  16  19
ENDBRANCH  14  15
ENDBRANCH  12  14
ENDBRANCH   9  10
ENDBRANCH   6   9
ENDBRANCH   3   5
TORSDOF 9
ENDMDL
MODEL      299
REMARK 921   NORMALIZED FREE ENERGY PREDICTED BY IDOCK:   -4.06 KCAL/MOL
REMARK 922        TOTAL FREE ENERGY PREDICTED BY IDOCK:   -7.04 KCAL/MOL
REMARK 923 INTER-LIGAND FREE ENERGY PREDICTED BY IDOCK:   -6.18 KCAL/MOL
REMARK 924 INTRA-LIGAND FREE ENERGY PREDICTED BY IDOCK:   -0.86 KCAL/MOL
REMARK 927      BINDING AFFINITY PREDICTED BY RF-SCORE:    0.00 PKD
ROOT
HETATM    1  O   UNL     1      -8.635   5.101  65.253  1.00  0.00    -0.138 OA 
HETATM    2  C   UNL     1      -8.040   4.150  66.011  1.00  0.00    -0.098 C  
HETATM    3  C   UNL     1      -8.442   4.181  67.482  1.00  0.00    -0.099 C  
HETATM    4  O   UNL     1      -7.229   3.362  65.553  1.00  0.00    -0.067 OA 
ENDROOT
BRANCH   3   5
HETATM    5  N   UNL     1      -9.400   5.239  67.783  1.00  0.00    -0.116 N  
HETATM    6  C   UNL     1     -10.089   5.282  68.977  1.00  0.00    -0.202 C  
HETATM    7  H   UNL     1      -9.567   5.968  67.090  1.00  0.00     0.000 HD 
HETATM    8  O   UNL     1      -9.971   4.417  69.839  1.00  0.00    -0.222 OA 
BRANCH   6   9
HETATM    9  C   UNL     1     -11.051   6.466  69.142  1.00  0.00    -0.365 C  
BRANCH   9  10
HETATM   10  N   UNL     1     -10.414   7.761  68.968  1.00  0.00    -0.236 N  
HETATM   11  H   UNL     1      -9.965   8.199  69.771  1.00  0.00     0.000 HD 
HETATM   12  C   UNL     1     -10.396   8.417  67.758  1.00  0.00    -0.235 C  
HETATM   13  O   UNL     1     -10.891   7.934  66.742  1.00  0.00    -0.234 OA 
BRANCH  12  14
HETATM   14  C   UNL     1      -9.717   9.793  67.777  1.00  0.00    -0.141 C  
BRANCH  14  15
HETATM   15  N   UNL     1     -10.379  10.771  66.918  1.00  0.00    -0.231 N  
HETATM   16  C   UNL     1      -9.829  11.139  65.707  1.00  0.00    -0.235 C  
HETATM   17  H   UNL     1     -11.261  11.187  67.218  1.00  0.00     0.000 HD 
HETATM   18  O   UNL     1      -8.705  10.780  65.363  1.00  0.00    -0.185 OA 
BRANCH  16  19
HETATM   19  C   UNL     1     -10.683  12.086  64.881  1.00  0.00    -0.301 C  
BRANCH  19  20
HETATM   20  S   UNL     1     -12.007  12.830  65.857  1.00  0.00    -0.431 SA 
BRANCH  20  21
HETATM   21  C   UNL     1     -11.329  14.429  66.131  1.00  0.00    -0.350 C  
HETATM   22  O   UNL     1     -10.923  15.114  65.197  1.00  0.00    -0.366 OA 
BRANCH  21  23
HETATM   23  C   UNL     1     -11.254  14.907  67.539  1.00  0.00    -0.334 A  
HETATM   24  C   UNL     1     -11.533  14.006  68.575  1.00  0.00    -0.336 A  
HETATM   25  C   UNL     1     -11.521  14.440  69.904  1.00  0.00    -0.314 A  
HETATM   26  C   UNL     1     -11.242  15.773  70.203  1.00  0.00    -0.357 A  
HETATM   27  C   UNL     1     -10.962  16.673  69.177  1.00  0.00    -0.276 A  
HETATM   28  C   UNL     1     -10.969  16.245  67.850  1.00  0.00    -0.310 A  
ENDBRANCH  21  23
ENDBRANCH  20  21
ENDBRANCH  19  20
ENDBRANCH  16  19
ENDBRANCH  14  15
ENDBRANCH  12  14
ENDBRANCH   9  10
ENDBRANCH   6   9
ENDBRANCH   3   5
TORSDOF 9
ENDMDL
MODEL      300
REMARK 921   NORMALIZED FREE ENERGY PREDICTED BY IDOCK:   -4.06 KCAL/MOL
REMARK 922        TOTAL FREE ENERGY PREDICTED BY IDOCK:   -7.03 KCAL/MOL
REMARK 923 INTER-LIGAND FREE ENERGY PREDICTED BY IDOCK:   -6.40 KCAL/MOL
REMARK 924 INTRA-LIGAND FREE ENERGY PREDICTED BY IDOCK:   -0.63 KCAL/MOL
REMARK 927      BINDING AFFINITY PREDICTED BY RF-SCORE:    0.00 PKD
ROOT
HETATM    1  O   UNL     1      -8.478   5.108  70.483  1.00  0.00    -0.106 OA 
HETATM    2  C   UNL     1      -7.965   3.965  69.969  1.00  0.00    -0.050 C  
HETATM    3  C   UNL     1      -8.444   3.644  68.558  1.00  0.00    -0.087 C  
HETATM    4  O   UNL     1      -7.209   3.246  70.602  1.00  0.00    -0.033 OA 
ENDROOT
BRANCH   3   5
HETATM    5  N   UNL     1      -9.369   4.644  68.035  1.00  0.00    -0.128 N  
HETATM    6  C   UNL     1      -9.877   4.571  66.754  1.00  0.00    -0.221 C  
HETATM    7  H   UNL     1      -9.649   5.421  68.634  1.00  0.00     0.000 HD 
HETATM    8  O   UNL     1      -9.553   3.689  65.965  1.00  0.00    -0.180 OA 
BRANCH   6   9
HETATM    9  C   UNL     1     -10.846   5.694  66.363  1.00  0.00    -0.100 C  
BRANCH   9  10
HETATM   10  N   UNL     1     -10.892   6.783  67.324  1.00  0.00    -0.382 N  
HETATM   11  H   UNL     1     -11.378   6.637  68.209  1.00  0.00     0.000 HD 
HETATM   12  C   UNL     1     -10.304   8.004  67.084  1.00  0.00    -0.325 C  
HETATM   13  O   UNL     1      -9.676   8.239  66.055  1.00  0.00    -0.168 OA 
BRANCH  12  14
HETATM   14  C   UNL     1     -10.495   9.045  68.196  1.00  0.00    -0.207 C  
BRANCH  14  15
HETATM   15  N   UNL     1     -10.438  10.420  67.709  1.00  0.00    -0.209 N  
HETATM   16  C   UNL     1      -9.435  11.276  68.118  1.00  0.00    -0.184 C  
HETATM   17  H   UNL     1     -11.149  10.752  67.057  1.00  0.00     0.000 HD 
HETATM   18  O   UNL     1      -8.641  10.976  69.005  1.00  0.00    -0.146 OA 
BRANCH  16  19
HETATM   19  C   UNL     1      -9.449  12.639  67.447  1.00  0.00    -0.189 C  
BRANCH  19  20
HETATM   20  S   UNL     1     -10.047  13.933  68.555  1.00  0.00    -0.213 SA 
BRANCH  20  21
HETATM   21  C   UNL     1     -11.683  13.361  68.848  1.00  0.00    -0.328 C  
HETATM   22  O   UNL     1     -12.248  12.621  68.047  1.00  0.00    -0.268 OA 
BRANCH  21  23
HETATM   23  C   UNL     1     -12.357  13.825  70.092  1.00  0.00    -0.390 A  
HETATM   24  C   UNL     1     -12.558  15.198  70.280  1.00  0.00    -0.370 A  
HETATM   25  C   UNL     1     -13.140  15.666  71.462  1.00  0.00    -0.561 A  
HETATM   26  C   UNL     1     -13.513  14.768  72.462  1.00  0.00    -0.546 A  
HETATM   27  C   UNL     1     -13.318  13.401  72.279  1.00  0.00    -0.641 A  
HETATM   28  C   UNL     1     -12.740  12.929  71.100  1.00  0.00    -0.366 A  
ENDBRANCH  21  23
ENDBRANCH  20  21
ENDBRANCH  19  20
ENDBRANCH  16  19
ENDBRANCH  14  15
ENDBRANCH  12  14
ENDBRANCH   9  10
ENDBRANCH   6   9
ENDBRANCH   3   5
TORSDOF 9
ENDMDL
MODEL      301
REMARK 921   NORMALIZED FREE ENERGY PREDICTED BY IDOCK:   -4.05 KCAL/MOL
REMARK 922        TOTAL FREE ENERGY PREDICTED BY IDOCK:   -7.03 KCAL/MOL
REMARK 923 INTER-LIGAND FREE ENERGY PREDICTED BY IDOCK:   -6.34 KCAL/MOL
REMARK 924 INTRA-LIGAND FREE ENERGY PREDICTED BY IDOCK:   -0.69 KCAL/MOL
REMARK 927      BINDING AFFINITY PREDICTED BY RF-SCORE:    0.00 PKD
ROOT
HETATM    1  O   UNL     1     -11.354  13.933  66.403  1.00  0.00    -0.313 OA 
HETATM    2  C   UNL     1     -12.328  13.632  65.511  1.00  0.00    -0.482 C  
HETATM    3  C   UNL     1     -12.163  12.273  64.841  1.00  0.00    -0.339 C  
HETATM    4  O   UNL     1     -13.237  14.403  65.253  1.00  0.00    -0.619 OA 
ENDROOT
BRANCH   3   5
HETATM    5  N   UNL     1     -10.977  11.557  65.299  1.00  0.00    -0.262 N  
HETATM    6  C   UNL     1     -10.105  10.950  64.420  1.00  0.00    -0.339 C  
HETATM    7  H   UNL     1     -10.787  11.504  66.300  1.00  0.00     0.000 HD 
HETATM    8  O   UNL     1     -10.292  10.937  63.207  1.00  0.00    -0.325 OA 
BRANCH   6   9
HETATM    9  C   UNL     1      -8.901  10.249  65.062  1.00  0.00    -0.187 C  
BRANCH   9  10
HETATM   10  N   UNL     1      -9.161   8.868  65.431  1.00  0.00    -0.393 N  
HETATM   11  H   UNL     1     -10.117   8.591  65.655  1.00  0.00     0.000 HD 
HETATM   12  C   UNL     1      -8.165   7.919  65.489  1.00  0.00    -0.140 C  
HETATM   13  O   UNL     1      -6.999   8.176  65.202  1.00  0.00    -0.061 OA 
BRANCH  12  14
HETATM   14  C   UNL     1      -8.623   6.526  65.940  1.00  0.00    -0.149 C  
BRANCH  14  15
HETATM   15  N   UNL     1      -8.731   6.401  67.391  1.00  0.00    -0.107 N  
HETATM   16  C   UNL     1      -9.951   6.521  68.025  1.00  0.00    -0.134 C  
HETATM   17  H   UNL     1      -7.892   6.222  67.944  1.00  0.00     0.000 HD 
HETATM   18  O   UNL     1     -10.965   6.876  67.429  1.00  0.00    -0.307 OA 
BRANCH  16  19
HETATM   19  C   UNL     1      -9.919   6.265  69.522  1.00  0.00    -0.164 C  
BRANCH  19  20
HETATM   20  S   UNL     1     -11.472   6.724  70.321  1.00  0.00    -0.351 SA 
BRANCH  20  21
HETATM   21  C   UNL     1     -10.997   8.238  71.077  1.00  0.00    -0.245 C  
HETATM   22  O   UNL     1     -11.809   8.921  71.695  1.00  0.00    -0.299 OA 
BRANCH  21  23
HETATM   23  C   UNL     1      -9.578   8.663  70.923  1.00  0.00    -0.252 A  
HETATM   24  C   UNL     1      -8.613   8.122  71.783  1.00  0.00    -0.191 A  
HETATM   25  C   UNL     1      -7.283   8.543  71.696  1.00  0.00    -0.110 A  
HETATM   26  C   UNL     1      -6.912   9.508  70.761  1.00  0.00    -0.108 A  
HETATM   27  C   UNL     1      -7.867  10.047  69.902  1.00  0.00    -0.185 A  
HETATM   28  C   UNL     1      -9.196   9.629  69.982  1.00  0.00    -0.275 A  
ENDBRANCH  21  23
ENDBRANCH  20  21
ENDBRANCH  19  20
ENDBRANCH  16  19
ENDBRANCH  14  15
ENDBRANCH  12  14
ENDBRANCH   9  10
ENDBRANCH   6   9
ENDBRANCH   3   5
TORSDOF 9
ENDMDL
MODEL      302
REMARK 921   NORMALIZED FREE ENERGY PREDICTED BY IDOCK:   -4.04 KCAL/MOL
REMARK 922        TOTAL FREE ENERGY PREDICTED BY IDOCK:   -7.01 KCAL/MOL
REMARK 923 INTER-LIGAND FREE ENERGY PREDICTED BY IDOCK:   -6.26 KCAL/MOL
REMARK 924 INTRA-LIGAND FREE ENERGY PREDICTED BY IDOCK:   -0.76 KCAL/MOL
REMARK 927      BINDING AFFINITY PREDICTED BY RF-SCORE:    0.00 PKD
ROOT
HETATM    1  O   UNL     1     -10.311  14.544  69.136  1.00  0.00    -0.235 OA 
HETATM    2  C   UNL     1     -11.558  14.653  68.621  1.00  0.00    -0.314 C  
HETATM    3  C   UNL     1     -12.139  13.340  68.108  1.00  0.00    -0.211 C  
HETATM    4  O   UNL     1     -12.145  15.720  68.551  1.00  0.00    -0.233 OA 
ENDROOT
BRANCH   3   5
HETATM    5  N   UNL     1     -11.227  12.214  68.277  1.00  0.00    -0.245 N  
HETATM    6  C   UNL     1     -11.332  11.341  69.339  1.00  0.00    -0.292 C  
HETATM    7  H   UNL     1     -10.487  12.069  67.589  1.00  0.00     0.000 HD 
HETATM    8  O   UNL     1     -12.169  11.478  70.226  1.00  0.00    -0.330 OA 
BRANCH   6   9
HETATM    9  C   UNL     1     -10.302  10.204  69.365  1.00  0.00    -0.232 C  
BRANCH   9  10
HETATM   10  N   UNL     1      -8.931  10.665  69.495  1.00  0.00    -0.405 N  
HETATM   11  H   UNL     1      -8.521  10.731  70.426  1.00  0.00     0.000 HD 
HETATM   12  C   UNL     1      -8.163  11.016  68.407  1.00  0.00    -0.137 C  
HETATM   13  O   UNL     1      -8.581  10.930  67.255  1.00  0.00    -0.127 OA 
BRANCH  12  14
HETATM   14  C   UNL     1      -6.754  11.521  68.744  1.00  0.00    -0.079 C  
BRANCH  14  15
HETATM   15  N   UNL     1      -6.656  12.977  68.758  1.00  0.00    -0.090 N  
HETATM   16  C   UNL     1      -6.119  13.642  69.842  1.00  0.00    -0.135 C  
HETATM   17  H   UNL     1      -6.990  13.511  67.955  1.00  0.00     0.000 HD 
HETATM   18  O   UNL     1      -5.835  13.064  70.888  1.00  0.00    -0.223 OA 
BRANCH  16  19
HETATM   19  C   UNL     1      -5.990  15.146  69.667  1.00  0.00    -0.117 C  
BRANCH  19  20
HETATM   20  S   UNL     1      -7.590  15.936  69.393  1.00  0.00    -0.155 SA 
BRANCH  20  21
HETATM   21  C   UNL     1      -7.094  17.313  68.419  1.00  0.00    -0.209 C  
HETATM   22  O   UNL     1      -5.913  17.500  68.141  1.00  0.00    -0.152 OA 
BRANCH  21  23
HETATM   23  C   UNL     1      -8.161  18.246  67.963  1.00  0.00    -0.279 A  
HETATM   24  C   UNL     1      -9.408  17.723  67.599  1.00  0.00    -0.250 A  
HETATM   25  C   UNL     1     -10.410  18.570  67.117  1.00  0.00    -0.433 A  
HETATM   26  C   UNL     1     -10.169  19.937  66.986  1.00  0.00    -0.588 A  
HETATM   27  C   UNL     1      -8.932  20.463  67.348  1.00  0.00    -0.449 A  
HETATM   28  C   UNL     1      -7.929  19.624  67.833  1.00  0.00    -0.335 A  
ENDBRANCH  21  23
ENDBRANCH  20  21
ENDBRANCH  19  20
ENDBRANCH  16  19
ENDBRANCH  14  15
ENDBRANCH  12  14
ENDBRANCH   9  10
ENDBRANCH   6   9
ENDBRANCH   3   5
TORSDOF 9
ENDMDL
MODEL      303
REMARK 921   NORMALIZED FREE ENERGY PREDICTED BY IDOCK:   -4.03 KCAL/MOL
REMARK 922        TOTAL FREE ENERGY PREDICTED BY IDOCK:   -6.99 KCAL/MOL
REMARK 923 INTER-LIGAND FREE ENERGY PREDICTED BY IDOCK:   -6.38 KCAL/MOL
REMARK 924 INTRA-LIGAND FREE ENERGY PREDICTED BY IDOCK:   -0.61 KCAL/MOL
REMARK 927      BINDING AFFINITY PREDICTED BY RF-SCORE:    0.00 PKD
ROOT
HETATM    1  O   UNL     1      -9.057   4.371  63.382  1.00  0.00    -0.136 OA 
HETATM    2  C   UNL     1      -7.712   4.520  63.415  1.00  0.00    -0.071 C  
HETATM    3  C   UNL     1      -7.240   5.776  64.141  1.00  0.00    -0.055 C  
HETATM    4  O   UNL     1      -6.953   3.728  62.881  1.00  0.00    -0.034 OA 
ENDROOT
BRANCH   3   5
HETATM    5  N   UNL     1      -8.344   6.575  64.663  1.00  0.00    -0.321 N  
HETATM    6  C   UNL     1      -8.132   7.699  65.432  1.00  0.00    -0.128 C  
HETATM    7  H   UNL     1      -9.302   6.293  64.453  1.00  0.00     0.000 HD 
HETATM    8  O   UNL     1      -7.010   8.074  65.760  1.00  0.00    -0.058 OA 
BRANCH   6   9
HETATM    9  C   UNL     1      -9.398   8.433  65.892  1.00  0.00    -0.136 C  
BRANCH   9  10
HETATM   10  N   UNL     1      -9.787   9.525  65.017  1.00  0.00    -0.420 N  
HETATM   11  H   UNL     1     -10.319   9.314  64.173  1.00  0.00     0.000 HD 
HETATM   12  C   UNL     1      -9.464  10.837  65.285  1.00  0.00    -0.218 C  
HETATM   13  O   UNL     1      -8.853  11.168  66.297  1.00  0.00    -0.175 OA 
BRANCH  12  14
HETATM   14  C   UNL     1      -9.922  11.847  64.224  1.00  0.00    -0.246 C  
BRANCH  14  15
HETATM   15  N   UNL     1      -9.971  13.218  64.722  1.00  0.00    -0.594 N  
HETATM   16  C   UNL     1     -11.076  13.686  65.405  1.00  0.00    -0.298 C  
HETATM   17  H   UNL     1      -9.177  13.839  64.565  1.00  0.00     0.000 HD 
HETATM   18  O   UNL     1     -12.111  13.032  65.499  1.00  0.00    -0.400 OA 
BRANCH  16  19
HETATM   19  C   UNL     1     -10.938  15.097  65.951  1.00  0.00    -0.339 C  
BRANCH  19  20
HETATM   20  S   UNL     1      -9.258  15.443  66.515  1.00  0.00    -0.314 SA 
BRANCH  20  21
HETATM   21  C   UNL     1      -9.275  17.200  66.484  1.00  0.00    -0.266 C  
HETATM   22  O   UNL     1     -10.020  17.814  65.725  1.00  0.00    -0.545 OA 
BRANCH  21  23
HETATM   23  C   UNL     1      -8.339  17.909  67.400  1.00  0.00    -0.227 A  
HETATM   24  C   UNL     1      -7.425  17.156  68.148  1.00  0.00    -0.205 A  
HETATM   25  C   UNL     1      -6.570  17.790  69.055  1.00  0.00    -0.244 A  
HETATM   26  C   UNL     1      -6.632  19.172  69.227  1.00  0.00    -0.341 A  
HETATM   27  C   UNL     1      -7.538  19.926  68.485  1.00  0.00    -0.286 A  
HETATM   28  C   UNL     1      -8.391  19.300  67.576  1.00  0.00    -0.322 A  
ENDBRANCH  21  23
ENDBRANCH  20  21
ENDBRANCH  19  20
ENDBRANCH  16  19
ENDBRANCH  14  15
ENDBRANCH  12  14
ENDBRANCH   9  10
ENDBRANCH   6   9
ENDBRANCH   3   5
TORSDOF 9
ENDMDL
MODEL      304
REMARK 921   NORMALIZED FREE ENERGY PREDICTED BY IDOCK:   -4.03 KCAL/MOL
REMARK 922        TOTAL FREE ENERGY PREDICTED BY IDOCK:   -6.99 KCAL/MOL
REMARK 923 INTER-LIGAND FREE ENERGY PREDICTED BY IDOCK:   -6.04 KCAL/MOL
REMARK 924 INTRA-LIGAND FREE ENERGY PREDICTED BY IDOCK:   -0.95 KCAL/MOL
REMARK 927      BINDING AFFINITY PREDICTED BY RF-SCORE:    0.00 PKD
ROOT
HETATM    1  O   UNL     1      -6.990   6.846  64.613  1.00  0.00    -0.054 OA 
HETATM    2  C   UNL     1      -7.657   7.977  64.281  1.00  0.00    -0.118 C  
HETATM    3  C   UNL     1      -8.623   8.470  65.354  1.00  0.00    -0.176 C  
HETATM    4  O   UNL     1      -7.512   8.529  63.203  1.00  0.00    -0.100 OA 
ENDROOT
BRANCH   3   5
HETATM    5  N   UNL     1      -8.636   7.617  66.537  1.00  0.00    -0.131 N  
HETATM    6  C   UNL     1      -8.399   8.117  67.801  1.00  0.00    -0.128 C  
HETATM    7  H   UNL     1      -8.826   6.621  66.427  1.00  0.00     0.000 HD 
HETATM    8  O   UNL     1      -8.122   9.295  68.003  1.00  0.00    -0.103 OA 
BRANCH   6   9
HETATM    9  C   UNL     1      -8.460   7.090  68.939  1.00  0.00    -0.125 C  
BRANCH   9  10
HETATM   10  N   UNL     1      -9.416   7.431  69.978  1.00  0.00    -0.161 N  
HETATM   11  H   UNL     1      -9.115   8.031  70.745  1.00  0.00     0.000 HD 
HETATM   12  C   UNL     1     -10.714   6.972  69.966  1.00  0.00    -0.242 C  
HETATM   13  O   UNL     1     -11.153   6.271  69.058  1.00  0.00    -0.339 OA 
BRANCH  12  14
HETATM   14  C   UNL     1     -11.564   7.401  71.170  1.00  0.00    -0.286 C  
BRANCH  14  15
HETATM   15  N   UNL     1     -12.392   8.572  70.898  1.00  0.00    -0.487 N  
HETATM   16  C   UNL     1     -11.819   9.790  70.592  1.00  0.00    -0.281 C  
HETATM   17  H   UNL     1     -13.408   8.489  70.934  1.00  0.00     0.000 HD 
HETATM   18  O   UNL     1     -10.609   9.982  70.674  1.00  0.00    -0.295 OA 
BRANCH  16  19
HETATM   19  C   UNL     1     -12.808  10.887  70.233  1.00  0.00    -0.142 C  
BRANCH  19  20
HETATM   20  S   UNL     1     -11.985  12.464  69.923  1.00  0.00    -0.238 SA 
BRANCH  20  21
HETATM   21  C   UNL     1     -11.669  12.316  68.200  1.00  0.00    -0.349 C  
HETATM   22  O   UNL     1     -12.160  11.404  67.541  1.00  0.00    -0.592 OA 
BRANCH  21  23
HETATM   23  C   UNL     1     -10.770  13.329  67.581  1.00  0.00    -0.250 A  
HETATM   24  C   UNL     1     -11.304  14.228  66.649  1.00  0.00    -0.356 A  
HETATM   25  C   UNL     1     -10.473  15.154  66.012  1.00  0.00    -0.330 A  
HETATM   26  C   UNL     1      -9.108  15.181  66.295  1.00  0.00    -0.313 A  
HETATM   27  C   UNL     1      -8.572  14.292  67.223  1.00  0.00    -0.229 A  
HETATM   28  C   UNL     1      -9.396  13.367  67.864  1.00  0.00    -0.216 A  
ENDBRANCH  21  23
ENDBRANCH  20  21
ENDBRANCH  19  20
ENDBRANCH  16  19
ENDBRANCH  14  15
ENDBRANCH  12  14
ENDBRANCH   9  10
ENDBRANCH   6   9
ENDBRANCH   3   5
TORSDOF 9
ENDMDL
MODEL      305
REMARK 921   NORMALIZED FREE ENERGY PREDICTED BY IDOCK:   -4.02 KCAL/MOL
REMARK 922        TOTAL FREE ENERGY PREDICTED BY IDOCK:   -6.98 KCAL/MOL
REMARK 923 INTER-LIGAND FREE ENERGY PREDICTED BY IDOCK:   -6.13 KCAL/MOL
REMARK 924 INTRA-LIGAND FREE ENERGY PREDICTED BY IDOCK:   -0.85 KCAL/MOL
REMARK 927      BINDING AFFINITY PREDICTED BY RF-SCORE:    0.00 PKD
ROOT
HETATM    1  O   UNL     1     -10.009  16.076  66.959  1.00  0.00    -0.246 OA 
HETATM    2  C   UNL     1     -10.397  16.778  65.867  1.00  0.00    -0.328 C  
HETATM    3  C   UNL     1     -10.940  15.917  64.731  1.00  0.00    -0.375 C  
HETATM    4  O   UNL     1     -10.288  17.991  65.797  1.00  0.00    -0.583 OA 
ENDROOT
BRANCH   3   5
HETATM    5  N   UNL     1     -10.936  14.493  65.050  1.00  0.00    -0.374 N  
HETATM    6  C   UNL     1     -12.102  13.764  65.153  1.00  0.00    -0.399 C  
HETATM    7  H   UNL     1     -10.043  14.023  65.202  1.00  0.00     0.000 HD 
HETATM    8  O   UNL     1     -13.211  14.271  65.025  1.00  0.00    -0.638 OA 
BRANCH   6   9
HETATM    9  C   UNL     1     -11.923  12.276  65.483  1.00  0.00    -0.321 C  
BRANCH   9  10
HETATM   10  N   UNL     1     -10.812  12.009  66.380  1.00  0.00    -0.266 N  
HETATM   11  H   UNL     1      -9.861  12.077  66.018  1.00  0.00     0.000 HD 
HETATM   12  C   UNL     1     -10.995  11.667  67.701  1.00  0.00    -0.239 C  
HETATM   13  O   UNL     1     -12.110  11.598  68.212  1.00  0.00    -0.552 OA 
BRANCH  12  14
HETATM   14  C   UNL     1      -9.705  11.380  68.481  1.00  0.00    -0.197 C  
BRANCH  14  15
HETATM   15  N   UNL     1      -8.774  10.525  67.751  1.00  0.00    -0.122 N  
HETATM   16  C   UNL     1      -7.753  11.070  66.998  1.00  0.00    -0.134 C  
HETATM   17  H   UNL     1      -8.879   9.511  67.797  1.00  0.00     0.000 HD 
HETATM   18  O   UNL     1      -7.665  12.278  66.792  1.00  0.00    -0.062 OA 
BRANCH  16  19
HETATM   19  C   UNL     1      -6.805  10.055  66.381  1.00  0.00    -0.093 C  
BRANCH  19  20
HETATM   20  S   UNL     1      -7.674   8.861  65.343  1.00  0.00    -0.095 SA 
BRANCH  20  21
HETATM   21  C   UNL     1      -7.342   7.379  66.229  1.00  0.00    -0.082 C  
HETATM   22  O   UNL     1      -6.426   7.320  67.045  1.00  0.00    -0.051 OA 
BRANCH  21  23
HETATM   23  C   UNL     1      -8.202   6.200  65.937  1.00  0.00    -0.131 A  
HETATM   24  C   UNL     1      -8.195   5.662  64.643  1.00  0.00    -0.129 A  
HETATM   25  C   UNL     1      -9.033   4.589  64.326  1.00  0.00    -0.150 A  
HETATM   26  C   UNL     1      -9.886   4.056  65.292  1.00  0.00    -0.199 A  
HETATM   27  C   UNL     1      -9.896   4.586  66.580  1.00  0.00    -0.244 A  
HETATM   28  C   UNL     1      -9.060   5.655  66.904  1.00  0.00    -0.116 A  
ENDBRANCH  21  23
ENDBRANCH  20  21
ENDBRANCH  19  20
ENDBRANCH  16  19
ENDBRANCH  14  15
ENDBRANCH  12  14
ENDBRANCH   9  10
ENDBRANCH   6   9
ENDBRANCH   3   5
TORSDOF 9
ENDMDL
MODEL      306
REMARK 921   NORMALIZED FREE ENERGY PREDICTED BY IDOCK:   -4.02 KCAL/MOL
REMARK 922        TOTAL FREE ENERGY PREDICTED BY IDOCK:   -6.97 KCAL/MOL
REMARK 923 INTER-LIGAND FREE ENERGY PREDICTED BY IDOCK:   -5.78 KCAL/MOL
REMARK 924 INTRA-LIGAND FREE ENERGY PREDICTED BY IDOCK:   -1.19 KCAL/MOL
REMARK 927      BINDING AFFINITY PREDICTED BY RF-SCORE:    0.00 PKD
ROOT
HETATM    1  O   UNL     1     -12.266   6.748  70.601  1.00  0.00    -0.386 OA 
HETATM    2  C   UNL     1     -11.803   6.664  71.871  1.00  0.00    -0.332 C  
HETATM    3  C   UNL     1     -11.402   8.004  72.480  1.00  0.00    -0.406 C  
HETATM    4  O   UNL     1     -11.694   5.600  72.457  1.00  0.00    -0.297 OA 
ENDROOT
BRANCH   3   5
HETATM    5  N   UNL     1     -11.599   9.122  71.564  1.00  0.00    -0.341 N  
HETATM    6  C   UNL     1     -12.723   9.919  71.615  1.00  0.00    -0.429 C  
HETATM    7  H   UNL     1     -10.884   9.321  70.864  1.00  0.00     0.000 HD 
HETATM    8  O   UNL     1     -13.643   9.714  72.402  1.00  0.00    -0.433 OA 
BRANCH   6   9
HETATM    9  C   UNL     1     -12.771  11.060  70.590  1.00  0.00    -0.288 C  
BRANCH   9  10
HETATM   10  N   UNL     1     -11.465  11.438  70.080  1.00  0.00    -0.446 N  
HETATM   11  H   UNL     1     -10.645  11.284  70.666  1.00  0.00     0.000 HD 
HETATM   12  C   UNL     1     -11.293  11.996  68.833  1.00  0.00    -0.278 C  
HETATM   13  O   UNL     1     -12.232  12.180  68.062  1.00  0.00    -0.419 OA 
BRANCH  12  14
HETATM   14  C   UNL     1      -9.846  12.370  68.484  1.00  0.00    -0.151 C  
BRANCH  14  15
HETATM   15  N   UNL     1      -9.150  11.327  67.736  1.00  0.00    -0.149 N  
HETATM   16  C   UNL     1      -9.142  11.329  66.355  1.00  0.00    -0.192 C  
HETATM   17  H   UNL     1      -8.663  10.586  68.241  1.00  0.00     0.000 HD 
HETATM   18  O   UNL     1      -9.827  12.109  65.699  1.00  0.00    -0.244 OA 
BRANCH  16  19
HETATM   19  C   UNL     1      -8.292  10.241  65.721  1.00  0.00    -0.152 C  
BRANCH  19  20
HETATM   20  S   UNL     1      -9.014   8.601  65.943  1.00  0.00    -0.198 SA 
BRANCH  20  21
HETATM   21  C   UNL     1      -7.625   7.733  66.580  1.00  0.00    -0.097 C  
HETATM   22  O   UNL     1      -6.807   7.207  65.830  1.00  0.00    -0.054 OA 
BRANCH  21  23
HETATM   23  C   UNL     1      -7.492   7.648  68.061  1.00  0.00    -0.104 A  
HETATM   24  C   UNL     1      -6.266   7.250  68.608  1.00  0.00    -0.031 A  
HETATM   25  C   UNL     1      -6.128   7.110  69.993  1.00  0.00    -0.024 A  
HETATM   26  C   UNL     1      -7.213   7.357  70.833  1.00  0.00    -0.068 A  
HETATM   27  C   UNL     1      -8.434   7.755  70.294  1.00  0.00    -0.133 A  
HETATM   28  C   UNL     1      -8.577   7.899  68.914  1.00  0.00    -0.132 A  
ENDBRANCH  21  23
ENDBRANCH  20  21
ENDBRANCH  19  20
ENDBRANCH  16  19
ENDBRANCH  14  15
ENDBRANCH  12  14
ENDBRANCH   9  10
ENDBRANCH   6   9
ENDBRANCH   3   5
TORSDOF 9
ENDMDL
MODEL      307
REMARK 921   NORMALIZED FREE ENERGY PREDICTED BY IDOCK:   -4.00 KCAL/MOL
REMARK 922        TOTAL FREE ENERGY PREDICTED BY IDOCK:   -6.94 KCAL/MOL
REMARK 923 INTER-LIGAND FREE ENERGY PREDICTED BY IDOCK:   -5.64 KCAL/MOL
REMARK 924 INTRA-LIGAND FREE ENERGY PREDICTED BY IDOCK:   -1.30 KCAL/MOL
REMARK 927      BINDING AFFINITY PREDICTED BY RF-SCORE:    0.00 PKD
ROOT
HETATM    1  O   UNL     1     -12.063  12.913  67.724  1.00  0.00    -0.312 OA 
HETATM    2  C   UNL     1     -11.538  13.514  66.630  1.00  0.00    -0.363 C  
HETATM    3  C   UNL     1     -10.708  12.589  65.746  1.00  0.00    -0.269 C  
HETATM    4  O   UNL     1     -11.696  14.701  66.397  1.00  0.00    -0.369 OA 
ENDROOT
BRANCH   3   5
HETATM    5  N   UNL     1     -10.645  11.224  66.259  1.00  0.00    -0.258 N  
HETATM    6  C   UNL     1     -10.104  10.191  65.523  1.00  0.00    -0.268 C  
HETATM    7  H   UNL     1     -11.013  11.028  67.191  1.00  0.00     0.000 HD 
HETATM    8  O   UNL     1      -9.682  10.344  64.382  1.00  0.00    -0.290 OA 
BRANCH   6   9
HETATM    9  C   UNL     1     -10.103   8.820  66.212  1.00  0.00    -0.184 C  
BRANCH   9  10
HETATM   10  N   UNL     1      -8.854   8.507  66.883  1.00  0.00    -0.134 N  
HETATM   11  H   UNL     1      -8.676   8.910  67.803  1.00  0.00     0.000 HD 
HETATM   12  C   UNL     1      -7.900   7.687  66.324  1.00  0.00    -0.091 C  
HETATM   13  O   UNL     1      -8.061   7.143  65.234  1.00  0.00    -0.125 OA 
BRANCH  12  14
HETATM   14  C   UNL     1      -6.627   7.508  67.162  1.00  0.00    -0.062 C  
BRANCH  14  15
HETATM   15  N   UNL     1      -6.853   7.693  68.592  1.00  0.00    -0.064 N  
HETATM   16  C   UNL     1      -7.260   6.641  69.388  1.00  0.00    -0.090 C  
HETATM   17  H   UNL     1      -6.708   8.612  69.010  1.00  0.00     0.000 HD 
HETATM   18  O   UNL     1      -7.585   5.553  68.918  1.00  0.00    -0.083 OA 
BRANCH  16  19
HETATM   19  C   UNL     1      -7.353   6.961  70.870  1.00  0.00    -0.077 C  
BRANCH  19  20
HETATM   20  S   UNL     1      -7.424   8.740  71.175  1.00  0.00    -0.102 SA 
BRANCH  20  21
HETATM   21  C   UNL     1      -8.928   9.135  70.356  1.00  0.00    -0.229 C  
HETATM   22  O   UNL     1      -8.970  10.006  69.491  1.00  0.00    -0.185 OA 
BRANCH  21  23
HETATM   23  C   UNL     1     -10.147   8.385  70.766  1.00  0.00    -0.226 A  
HETATM   24  C   UNL     1     -10.646   8.563  72.063  1.00  0.00    -0.408 A  
HETATM   25  C   UNL     1     -11.757   7.831  72.493  1.00  0.00    -0.393 A  
HETATM   26  C   UNL     1     -12.367   6.915  71.637  1.00  0.00    -0.413 A  
HETATM   27  C   UNL     1     -11.877   6.736  70.345  1.00  0.00    -0.395 A  
HETATM   28  C   UNL     1     -10.771   7.466  69.909  1.00  0.00    -0.254 A  
ENDBRANCH  21  23
ENDBRANCH  20  21
ENDBRANCH  19  20
ENDBRANCH  16  19
ENDBRANCH  14  15
ENDBRANCH  12  14
ENDBRANCH   9  10
ENDBRANCH   6   9
ENDBRANCH   3   5
TORSDOF 9
ENDMDL
MODEL      308
REMARK 921   NORMALIZED FREE ENERGY PREDICTED BY IDOCK:   -4.00 KCAL/MOL
REMARK 922        TOTAL FREE ENERGY PREDICTED BY IDOCK:   -6.94 KCAL/MOL
REMARK 923 INTER-LIGAND FREE ENERGY PREDICTED BY IDOCK:   -5.98 KCAL/MOL
REMARK 924 INTRA-LIGAND FREE ENERGY PREDICTED BY IDOCK:   -0.96 KCAL/MOL
REMARK 927      BINDING AFFINITY PREDICTED BY RF-SCORE:    0.00 PKD
ROOT
HETATM    1  O   UNL     1      -7.258  11.124  66.710  1.00  0.00    -0.131 OA 
HETATM    2  C   UNL     1      -7.508  10.450  65.562  1.00  0.00    -0.142 C  
HETATM    3  C   UNL     1      -8.989  10.324  65.222  1.00  0.00    -0.186 C  
HETATM    4  O   UNL     1      -6.619   9.965  64.883  1.00  0.00    -0.105 OA 
ENDROOT
BRANCH   3   5
HETATM    5  N   UNL     1      -9.852  10.962  66.210  1.00  0.00    -0.209 N  
HETATM    6  C   UNL     1     -10.585  10.231  67.121  1.00  0.00    -0.260 C  
HETATM    7  H   UNL     1      -9.916  11.980  66.228  1.00  0.00     0.000 HD 
HETATM    8  O   UNL     1     -10.590   9.004  67.132  1.00  0.00    -0.272 OA 
BRANCH   6   9
HETATM    9  C   UNL     1     -11.433  11.054  68.100  1.00  0.00    -0.302 C  
BRANCH   9  10
HETATM   10  N   UNL     1     -11.791  12.368  67.595  1.00  0.00    -0.347 N  
HETATM   11  H   UNL     1     -12.672  12.479  67.094  1.00  0.00     0.000 HD 
HETATM   12  C   UNL     1     -10.984  13.470  67.768  1.00  0.00    -0.266 C  
HETATM   13  O   UNL     1      -9.925  13.416  68.389  1.00  0.00    -0.235 OA 
BRANCH  12  14
HETATM   14  C   UNL     1     -11.506  14.763  67.128  1.00  0.00    -0.364 C  
BRANCH  14  15
HETATM   15  N   UNL     1     -11.238  15.950  67.934  1.00  0.00    -0.329 N  
HETATM   16  C   UNL     1     -10.351  16.916  67.502  1.00  0.00    -0.318 C  
HETATM   17  H   UNL     1     -11.712  16.068  68.830  1.00  0.00     0.000 HD 
HETATM   18  O   UNL     1      -9.649  16.760  66.507  1.00  0.00    -0.241 OA 
BRANCH  16  19
HETATM   19  C   UNL     1     -10.255  18.139  68.398  1.00  0.00    -0.387 C  
BRANCH  19  20
HETATM   20  S   UNL     1      -9.213  19.426  67.677  1.00  0.00    -0.317 SA 
BRANCH  20  21
HETATM   21  C   UNL     1      -7.769  19.245  68.662  1.00  0.00    -0.359 C  
HETATM   22  O   UNL     1      -7.510  20.042  69.561  1.00  0.00    -0.138 OA 
BRANCH  21  23
HETATM   23  C   UNL     1      -6.868  18.101  68.351  1.00  0.00    -0.231 A  
HETATM   24  C   UNL     1      -6.175  18.098  67.133  1.00  0.00    -0.182 A  
HETATM   25  C   UNL     1      -5.364  17.012  66.791  1.00  0.00    -0.185 A  
HETATM   26  C   UNL     1      -5.250  15.924  67.654  1.00  0.00    -0.125 A  
HETATM   27  C   UNL     1      -5.934  15.922  68.867  1.00  0.00    -0.113 A  
HETATM   28  C   UNL     1      -6.742  17.005  69.216  1.00  0.00    -0.234 A  
ENDBRANCH  21  23
ENDBRANCH  20  21
ENDBRANCH  19  20
ENDBRANCH  16  19
ENDBRANCH  14  15
ENDBRANCH  12  14
ENDBRANCH   9  10
ENDBRANCH   6   9
ENDBRANCH   3   5
TORSDOF 9
ENDMDL
MODEL      309
REMARK 921   NORMALIZED FREE ENERGY PREDICTED BY IDOCK:   -3.99 KCAL/MOL
REMARK 922        TOTAL FREE ENERGY PREDICTED BY IDOCK:   -6.94 KCAL/MOL
REMARK 923 INTER-LIGAND FREE ENERGY PREDICTED BY IDOCK:   -6.06 KCAL/MOL
REMARK 924 INTRA-LIGAND FREE ENERGY PREDICTED BY IDOCK:   -0.87 KCAL/MOL
REMARK 927      BINDING AFFINITY PREDICTED BY RF-SCORE:    0.00 PKD
ROOT
HETATM    1  O   UNL     1     -10.738   8.496  72.419  1.00  0.00    -0.341 OA 
HETATM    2  C   UNL     1     -11.514   9.219  71.576  1.00  0.00    -0.384 C  
HETATM    3  C   UNL     1     -11.227   8.975  70.099  1.00  0.00    -0.171 C  
HETATM    4  O   UNL     1     -12.346  10.016  71.977  1.00  0.00    -0.328 OA 
ENDROOT
BRANCH   3   5
HETATM    5  N   UNL     1     -10.164   7.999  69.883  1.00  0.00    -0.199 N  
HETATM    6  C   UNL     1     -10.429   6.658  69.704  1.00  0.00    -0.213 C  
HETATM    7  H   UNL     1      -9.195   8.319  69.865  1.00  0.00     0.000 HD 
HETATM    8  O   UNL     1     -11.564   6.196  69.755  1.00  0.00    -0.405 OA 
BRANCH   6   9
HETATM    9  C   UNL     1      -9.200   5.767  69.478  1.00  0.00    -0.130 C  
BRANCH   9  10
HETATM   10  N   UNL     1      -8.164   6.397  68.679  1.00  0.00    -0.120 N  
HETATM   11  H   UNL     1      -7.561   7.094  69.117  1.00  0.00     0.000 HD 
HETATM   12  C   UNL     1      -7.965   6.090  67.352  1.00  0.00    -0.102 C  
HETATM   13  O   UNL     1      -8.632   5.239  66.769  1.00  0.00    -0.108 OA 
BRANCH  12  14
HETATM   14  C   UNL     1      -6.852   6.890  66.661  1.00  0.00    -0.064 C  
BRANCH  14  15
HETATM   15  N   UNL     1      -7.362   7.954  65.801  1.00  0.00    -0.074 N  
HETATM   16  C   UNL     1      -7.558   7.742  64.451  1.00  0.00    -0.110 C  
HETATM   17  H   UNL     1      -7.577   8.866  66.203  1.00  0.00     0.000 HD 
HETATM   18  O   UNL     1      -7.186   6.715  63.889  1.00  0.00    -0.054 OA 
BRANCH  16  19
HETATM   19  C   UNL     1      -8.190   8.907  63.708  1.00  0.00    -0.172 C  
BRANCH  19  20
HETATM   20  S   UNL     1      -8.476  10.324  64.790  1.00  0.00    -0.176 SA 
BRANCH  20  21
HETATM   21  C   UNL     1      -9.801  11.104  63.937  1.00  0.00    -0.308 C  
HETATM   22  O   UNL     1     -10.009  10.879  62.748  1.00  0.00    -0.268 OA 
BRANCH  21  23
HETATM   23  C   UNL     1     -10.645  12.056  64.710  1.00  0.00    -0.340 A  
HETATM   24  C   UNL     1     -10.093  12.694  65.829  1.00  0.00    -0.284 A  
HETATM   25  C   UNL     1     -10.878  13.552  66.605  1.00  0.00    -0.283 A  
HETATM   26  C   UNL     1     -12.215  13.770  66.274  1.00  0.00    -0.489 A  
HETATM   27  C   UNL     1     -12.768  13.141  65.161  1.00  0.00    -0.468 A  
HETATM   28  C   UNL     1     -11.989  12.285  64.381  1.00  0.00    -0.473 A  
ENDBRANCH  21  23
ENDBRANCH  20  21
ENDBRANCH  19  20
ENDBRANCH  16  19
ENDBRANCH  14  15
ENDBRANCH  12  14
ENDBRANCH   9  10
ENDBRANCH   6   9
ENDBRANCH   3   5
TORSDOF 9
ENDMDL
MODEL      310
REMARK 921   NORMALIZED FREE ENERGY PREDICTED BY IDOCK:   -3.98 KCAL/MOL
REMARK 922        TOTAL FREE ENERGY PREDICTED BY IDOCK:   -6.92 KCAL/MOL
REMARK 923 INTER-LIGAND FREE ENERGY PREDICTED BY IDOCK:   -6.05 KCAL/MOL
REMARK 924 INTRA-LIGAND FREE ENERGY PREDICTED BY IDOCK:   -0.87 KCAL/MOL
REMARK 927      BINDING AFFINITY PREDICTED BY RF-SCORE:    0.00 PKD
ROOT
HETATM    1  O   UNL     1      -8.892   4.346  68.524  1.00  0.00    -0.097 OA 
HETATM    2  C   UNL     1      -9.262   3.074  68.243  1.00  0.00    -0.189 C  
HETATM    3  C   UNL     1      -9.090   2.682  66.779  1.00  0.00    -0.129 C  
HETATM    4  O   UNL     1      -9.719   2.325  69.090  1.00  0.00    -0.045 OA 
ENDROOT
BRANCH   3   5
HETATM    5  N   UNL     1      -8.555   3.766  65.963  1.00  0.00    -0.111 N  
HETATM    6  C   UNL     1      -9.325   4.426  65.028  1.00  0.00    -0.164 C  
HETATM    7  H   UNL     1      -7.581   4.045  66.087  1.00  0.00     0.000 HD 
HETATM    8  O   UNL     1     -10.489   4.118  64.796  1.00  0.00    -0.241 OA 
BRANCH   6   9
HETATM    9  C   UNL     1      -8.614   5.549  64.262  1.00  0.00    -0.007 C  
BRANCH   9  10
HETATM   10  N   UNL     1      -8.688   6.841  64.922  1.00  0.00    -0.347 N  
HETATM   11  H   UNL     1      -9.374   7.521  64.596  1.00  0.00     0.000 HD 
HETATM   12  C   UNL     1      -7.867   7.181  65.973  1.00  0.00    -0.107 C  
HETATM   13  O   UNL     1      -7.040   6.400  66.438  1.00  0.00    -0.065 OA 
BRANCH  12  14
HETATM   14  C   UNL     1      -8.061   8.604  66.514  1.00  0.00    -0.103 C  
BRANCH  14  15
HETATM   15  N   UNL     1      -9.321   8.776  67.231  1.00  0.00    -0.144 N  
HETATM   16  C   UNL     1      -9.365   8.728  68.610  1.00  0.00    -0.141 C  
HETATM   17  H   UNL     1     -10.181   8.935  66.706  1.00  0.00     0.000 HD 
HETATM   18  O   UNL     1      -8.392   8.400  69.284  1.00  0.00    -0.118 OA 
BRANCH  16  19
HETATM   19  C   UNL     1     -10.727   9.027  69.215  1.00  0.00    -0.174 C  
BRANCH  19  20
HETATM   20  S   UNL     1     -11.184  10.764  69.027  1.00  0.00    -0.285 SA 
BRANCH  20  21
HETATM   21  C   UNL     1     -12.056  11.020  70.531  1.00  0.00    -0.377 C  
HETATM   22  O   UNL     1     -12.332  10.080  71.273  1.00  0.00    -0.337 OA 
BRANCH  21  23
HETATM   23  C   UNL     1     -12.460  12.415  70.858  1.00  0.00    -0.367 A  
HETATM   24  C   UNL     1     -13.264  12.641  71.983  1.00  0.00    -0.531 A  
HETATM   25  C   UNL     1     -13.702  13.934  72.283  1.00  0.00    -0.660 A  
HETATM   26  C   UNL     1     -13.348  15.003  71.460  1.00  0.00    -0.500 A  
HETATM   27  C   UNL     1     -12.547  14.784  70.342  1.00  0.00    -0.399 A  
HETATM   28  C   UNL     1     -12.104  13.497  70.039  1.00  0.00    -0.411 A  
ENDBRANCH  21  23
ENDBRANCH  20  21
ENDBRANCH  19  20
ENDBRANCH  16  19
ENDBRANCH  14  15
ENDBRANCH  12  14
ENDBRANCH   9  10
ENDBRANCH   6   9
ENDBRANCH   3   5
TORSDOF 9
ENDMDL
MODEL      311
REMARK 921   NORMALIZED FREE ENERGY PREDICTED BY IDOCK:   -3.98 KCAL/MOL
REMARK 922        TOTAL FREE ENERGY PREDICTED BY IDOCK:   -6.92 KCAL/MOL
REMARK 923 INTER-LIGAND FREE ENERGY PREDICTED BY IDOCK:   -6.15 KCAL/MOL
REMARK 924 INTRA-LIGAND FREE ENERGY PREDICTED BY IDOCK:   -0.76 KCAL/MOL
REMARK 927      BINDING AFFINITY PREDICTED BY RF-SCORE:    0.00 PKD
ROOT
HETATM    1  O   UNL     1      -9.388   2.674  66.991  1.00  0.00    -0.141 OA 
HETATM    2  C   UNL     1      -8.130   3.009  66.618  1.00  0.00    -0.084 C  
HETATM    3  C   UNL     1      -7.445   4.002  67.551  1.00  0.00    -0.068 C  
HETATM    4  O   UNL     1      -7.611   2.571  65.604  1.00  0.00    -0.073 OA 
ENDROOT
BRANCH   3   5
HETATM    5  N   UNL     1      -8.288   4.397  68.673  1.00  0.00    -0.084 N  
HETATM    6  C   UNL     1      -8.922   5.621  68.716  1.00  0.00    -0.115 C  
HETATM    7  H   UNL     1      -8.414   3.748  69.451  1.00  0.00     0.000 HD 
HETATM    8  O   UNL     1      -8.783   6.467  67.839  1.00  0.00    -0.117 OA 
BRANCH   6   9
HETATM    9  C   UNL     1      -9.781   5.877  69.961  1.00  0.00    -0.167 C  
BRANCH   9  10
HETATM   10  N   UNL     1      -9.827   7.273  70.359  1.00  0.00    -0.183 N  
HETATM   11  H   UNL     1      -9.041   7.878  70.123  1.00  0.00     0.000 HD 
HETATM   12  C   UNL     1     -10.895   7.811  71.043  1.00  0.00    -0.239 C  
HETATM   13  O   UNL     1     -11.888   7.150  71.331  1.00  0.00    -0.275 OA 
BRANCH  12  14
HETATM   14  C   UNL     1     -10.745   9.292  71.416  1.00  0.00    -0.362 C  
BRANCH  14  15
HETATM   15  N   UNL     1     -10.873  10.187  70.269  1.00  0.00    -0.300 N  
HETATM   16  C   UNL     1     -12.066  10.826  69.997  1.00  0.00    -0.345 C  
HETATM   17  H   UNL     1     -10.069  10.342  69.660  1.00  0.00     0.000 HD 
HETATM   18  O   UNL     1     -13.100  10.567  70.608  1.00  0.00    -0.353 OA 
BRANCH  16  19
HETATM   19  C   UNL     1     -12.015  11.802  68.834  1.00  0.00    -0.271 C  
BRANCH  19  20
HETATM   20  S   UNL     1     -10.334  12.370  68.500  1.00  0.00    -0.192 SA 
BRANCH  20  21
HETATM   21  C   UNL     1     -10.052  11.605  66.942  1.00  0.00    -0.211 C  
HETATM   22  O   UNL     1      -9.308  10.634  66.838  1.00  0.00    -0.157 OA 
BRANCH  21  23
HETATM   23  C   UNL     1     -10.736  12.193  65.758  1.00  0.00    -0.303 A  
HETATM   24  C   UNL     1     -11.122  13.540  65.800  1.00  0.00    -0.295 A  
HETATM   25  C   UNL     1     -11.813  14.105  64.724  1.00  0.00    -0.425 A  
HETATM   26  C   UNL     1     -12.131  13.328  63.610  1.00  0.00    -0.551 A  
HETATM   27  C   UNL     1     -11.749  11.990  63.563  1.00  0.00    -0.566 A  
HETATM   28  C   UNL     1     -11.055  11.421  64.632  1.00  0.00    -0.277 A  
ENDBRANCH  21  23
ENDBRANCH  20  21
ENDBRANCH  19  20
ENDBRANCH  16  19
ENDBRANCH  14  15
ENDBRANCH  12  14
ENDBRANCH   9  10
ENDBRANCH   6   9
ENDBRANCH   3   5
TORSDOF 9
ENDMDL
MODEL      312
REMARK 921   NORMALIZED FREE ENERGY PREDICTED BY IDOCK:   -3.98 KCAL/MOL
REMARK 922        TOTAL FREE ENERGY PREDICTED BY IDOCK:   -6.91 KCAL/MOL
REMARK 923 INTER-LIGAND FREE ENERGY PREDICTED BY IDOCK:   -6.26 KCAL/MOL
REMARK 924 INTRA-LIGAND FREE ENERGY PREDICTED BY IDOCK:   -0.65 KCAL/MOL
REMARK 927      BINDING AFFINITY PREDICTED BY RF-SCORE:    0.00 PKD
ROOT
HETATM    1  O   UNL     1      -9.431   9.170  71.550  1.00  0.00    -0.267 OA 
HETATM    2  C   UNL     1      -9.112   8.381  72.603  1.00  0.00    -0.241 C  
HETATM    3  C   UNL     1      -7.625   8.063  72.718  1.00  0.00    -0.124 C  
HETATM    4  O   UNL     1      -9.954   7.943  73.369  1.00  0.00    -0.314 OA 
ENDROOT
BRANCH   3   5
HETATM    5  N   UNL     1      -6.832   8.680  71.661  1.00  0.00    -0.081 N  
HETATM    6  C   UNL     1      -6.347   7.954  70.593  1.00  0.00    -0.037 C  
HETATM    7  H   UNL     1      -6.629   9.679  71.713  1.00  0.00     0.000 HD 
HETATM    8  O   UNL     1      -6.515   6.744  70.487  1.00  0.00    -0.045 OA 
BRANCH   6   9
HETATM    9  C   UNL     1      -5.541   8.755  69.562  1.00  0.00    -0.034 C  
BRANCH   9  10
HETATM   10  N   UNL     1      -5.996  10.126  69.406  1.00  0.00    -0.037 N  
HETATM   11  H   UNL     1      -5.667  10.831  70.066  1.00  0.00     0.000 HD 
HETATM   12  C   UNL     1      -6.855  10.509  68.401  1.00  0.00    -0.064 C  
HETATM   13  O   UNL     1      -7.265   9.720  67.553  1.00  0.00    -0.088 OA 
BRANCH  12  14
HETATM   14  C   UNL     1      -7.259  11.989  68.422  1.00  0.00    -0.092 C  
BRANCH  14  15
HETATM   15  N   UNL     1      -8.647  12.198  68.825  1.00  0.00    -0.367 N  
HETATM   16  C   UNL     1      -9.417  13.180  68.235  1.00  0.00    -0.210 C  
HETATM   17  H   UNL     1      -9.053  11.609  69.553  1.00  0.00     0.000 HD 
HETATM   18  O   UNL     1      -8.941  14.006  67.461  1.00  0.00    -0.177 OA 
BRANCH  16  19
HETATM   19  C   UNL     1     -10.868  13.207  68.684  1.00  0.00    -0.259 C  
BRANCH  19  20
HETATM   20  S   UNL     1     -11.739  14.665  68.070  1.00  0.00    -0.321 SA 
BRANCH  20  21
HETATM   21  C   UNL     1     -11.421  15.793  69.380  1.00  0.00    -0.355 C  
HETATM   22  O   UNL     1     -10.793  16.830  69.185  1.00  0.00    -0.324 OA 
BRANCH  21  23
HETATM   23  C   UNL     1     -11.926  15.429  70.733  1.00  0.00    -0.402 A  
HETATM   24  C   UNL     1     -13.031  14.574  70.835  1.00  0.00    -0.424 A  
HETATM   25  C   UNL     1     -13.559  14.258  72.090  1.00  0.00    -0.546 A  
HETATM   26  C   UNL     1     -12.995  14.799  73.244  1.00  0.00    -0.608 A  
HETATM   27  C   UNL     1     -11.894  15.648  73.149  1.00  0.00    -0.540 A  
HETATM   28  C   UNL     1     -11.361  15.964  71.900  1.00  0.00    -0.306 A  
ENDBRANCH  21  23
ENDBRANCH  20  21
ENDBRANCH  19  20
ENDBRANCH  16  19
ENDBRANCH  14  15
ENDBRANCH  12  14
ENDBRANCH   9  10
ENDBRANCH   6   9
ENDBRANCH   3   5
TORSDOF 9
ENDMDL
MODEL      313
REMARK 921   NORMALIZED FREE ENERGY PREDICTED BY IDOCK:   -3.97 KCAL/MOL
REMARK 922        TOTAL FREE ENERGY PREDICTED BY IDOCK:   -6.91 KCAL/MOL
REMARK 923 INTER-LIGAND FREE ENERGY PREDICTED BY IDOCK:   -5.98 KCAL/MOL
REMARK 924 INTRA-LIGAND FREE ENERGY PREDICTED BY IDOCK:   -0.93 KCAL/MOL
REMARK 927      BINDING AFFINITY PREDICTED BY RF-SCORE:    0.00 PKD
ROOT
HETATM    1  O   UNL     1     -10.953  15.096  65.309  1.00  0.00    -0.350 OA 
HETATM    2  C   UNL     1     -11.297  16.253  64.693  1.00  0.00    -0.232 C  
HETATM    3  C   UNL     1     -10.732  17.505  65.356  1.00  0.00    -0.004 C  
HETATM    4  O   UNL     1     -12.021  16.280  63.712  1.00  0.00    -0.973 OA 
ENDROOT
BRANCH   3   5
HETATM    5  N   UNL     1      -9.924  17.206  66.532  1.00  0.00    -0.290 N  
HETATM    6  C   UNL     1      -8.576  17.496  66.586  1.00  0.00    -0.258 C  
HETATM    7  H   UNL     1     -10.368  16.769  67.340  1.00  0.00     0.000 HD 
HETATM    8  O   UNL     1      -7.967  17.982  65.639  1.00  0.00    -0.514 OA 
BRANCH   6   9
HETATM    9  C   UNL     1      -7.874  17.128  67.900  1.00  0.00    -0.193 C  
BRANCH   9  10
HETATM   10  N   UNL     1      -7.292  15.797  67.895  1.00  0.00    -0.128 N  
HETATM   11  H   UNL     1      -7.412  15.211  67.069  1.00  0.00     0.000 HD 
HETATM   12  C   UNL     1      -6.585  15.297  68.966  1.00  0.00    -0.118 C  
HETATM   13  O   UNL     1      -6.376  15.958  69.979  1.00  0.00    -0.169 OA 
BRANCH  12  14
HETATM   14  C   UNL     1      -6.085  13.856  68.795  1.00  0.00    -0.086 C  
BRANCH  14  15
HETATM   15  N   UNL     1      -6.582  13.218  67.580  1.00  0.00    -0.160 N  
HETATM   16  C   UNL     1      -6.628  11.843  67.469  1.00  0.00    -0.110 C  
HETATM   17  H   UNL     1      -6.899  13.796  66.802  1.00  0.00     0.000 HD 
HETATM   18  O   UNL     1      -6.130  11.102  68.312  1.00  0.00    -0.046 OA 
BRANCH  16  19
HETATM   19  C   UNL     1      -7.265  11.328  66.189  1.00  0.00     0.070 C  
BRANCH  19  20
HETATM   20  S   UNL     1      -7.785   9.605  66.338  1.00  0.00    -0.102 SA 
BRANCH  20  21
HETATM   21  C   UNL     1      -9.531   9.810  66.372  1.00  0.00    -0.184 C  
HETATM   22  O   UNL     1     -10.185   9.854  65.334  1.00  0.00    -0.273 OA 
BRANCH  21  23
HETATM   23  C   UNL     1     -10.177   9.945  67.707  1.00  0.00    -0.241 A  
HETATM   24  C   UNL     1     -11.185  10.903  67.877  1.00  0.00    -0.387 A  
HETATM   25  C   UNL     1     -11.772  11.088  69.132  1.00  0.00    -0.403 A  
HETATM   26  C   UNL     1     -11.350  10.328  70.222  1.00  0.00    -0.398 A  
HETATM   27  C   UNL     1     -10.349   9.372  70.058  1.00  0.00    -0.265 A  
HETATM   28  C   UNL     1      -9.762   9.181  68.807  1.00  0.00    -0.167 A  
ENDBRANCH  21  23
ENDBRANCH  20  21
ENDBRANCH  19  20
ENDBRANCH  16  19
ENDBRANCH  14  15
ENDBRANCH  12  14
ENDBRANCH   9  10
ENDBRANCH   6   9
ENDBRANCH   3   5
TORSDOF 9
ENDMDL
MODEL      314
REMARK 921   NORMALIZED FREE ENERGY PREDICTED BY IDOCK:   -3.96 KCAL/MOL
REMARK 922        TOTAL FREE ENERGY PREDICTED BY IDOCK:   -6.89 KCAL/MOL
REMARK 923 INTER-LIGAND FREE ENERGY PREDICTED BY IDOCK:   -6.10 KCAL/MOL
REMARK 924 INTRA-LIGAND FREE ENERGY PREDICTED BY IDOCK:   -0.79 KCAL/MOL
REMARK 927      BINDING AFFINITY PREDICTED BY RF-SCORE:    0.00 PKD
ROOT
HETATM    1  O   UNL     1     -10.736  19.008  65.895  1.00  0.00    -0.454 OA 
HETATM    2  C   UNL     1      -9.993  19.083  67.025  1.00  0.00    -0.342 C  
HETATM    3  C   UNL     1     -10.043  17.828  67.890  1.00  0.00    -0.342 C  
HETATM    4  O   UNL     1      -9.366  20.084  67.329  1.00  0.00    -0.334 OA 
ENDROOT
BRANCH   3   5
HETATM    5  N   UNL     1     -10.889  16.784  67.322  1.00  0.00    -0.205 N  
HETATM    6  C   UNL     1     -10.407  15.869  66.410  1.00  0.00    -0.306 C  
HETATM    7  H   UNL     1     -11.867  16.729  67.609  1.00  0.00     0.000 HD 
HETATM    8  O   UNL     1      -9.255  15.900  65.989  1.00  0.00    -0.322 OA 
BRANCH   6   9
HETATM    9  C   UNL     1     -11.423  14.829  65.919  1.00  0.00    -0.319 C  
BRANCH   9  10
HETATM   10  N   UNL     1     -10.815  13.586  65.478  1.00  0.00    -0.283 N  
HETATM   11  H   UNL     1     -10.157  13.113  66.098  1.00  0.00     0.000 HD 
HETATM   12  C   UNL     1     -11.093  13.022  64.253  1.00  0.00    -0.385 C  
HETATM   13  O   UNL     1     -11.897  13.520  63.470  1.00  0.00    -0.401 OA 
BRANCH  12  14
HETATM   14  C   UNL     1     -10.322  11.732  63.943  1.00  0.00    -0.385 C  
BRANCH  14  15
HETATM   15  N   UNL     1      -9.198  11.505  64.848  1.00  0.00    -0.412 N  
HETATM   16  C   UNL     1      -8.706  10.234  65.064  1.00  0.00    -0.182 C  
HETATM   17  H   UNL     1      -8.771  12.298  65.327  1.00  0.00     0.000 HD 
HETATM   18  O   UNL     1      -9.268   9.233  64.628  1.00  0.00    -0.190 OA 
BRANCH  16  19
HETATM   19  C   UNL     1      -7.473  10.170  65.949  1.00  0.00    -0.125 C  
BRANCH  19  20
HETATM   20  S   UNL     1      -7.554  11.353  67.310  1.00  0.00    -0.146 SA 
BRANCH  20  21
HETATM   21  C   UNL     1      -6.006  12.162  67.112  1.00  0.00    -0.143 C  
HETATM   22  O   UNL     1      -5.202  11.793  66.259  1.00  0.00    -0.325 OA 
BRANCH  21  23
HETATM   23  C   UNL     1      -5.705  13.296  68.028  1.00  0.00    -0.119 A  
HETATM   24  C   UNL     1      -5.474  13.027  69.384  1.00  0.00    -0.080 A  
HETATM   25  C   UNL     1      -5.242  14.077  70.277  1.00  0.00    -0.099 A  
HETATM   26  C   UNL     1      -5.248  15.396  69.825  1.00  0.00    -0.099 A  
HETATM   27  C   UNL     1      -5.474  15.669  68.478  1.00  0.00    -0.104 A  
HETATM   28  C   UNL     1      -5.703  14.625  67.581  1.00  0.00    -0.002 A  
ENDBRANCH  21  23
ENDBRANCH  20  21
ENDBRANCH  19  20
ENDBRANCH  16  19
ENDBRANCH  14  15
ENDBRANCH  12  14
ENDBRANCH   9  10
ENDBRANCH   6   9
ENDBRANCH   3   5
TORSDOF 9
ENDMDL
MODEL      315
REMARK 921   NORMALIZED FREE ENERGY PREDICTED BY IDOCK:   -3.96 KCAL/MOL
REMARK 922        TOTAL FREE ENERGY PREDICTED BY IDOCK:   -6.88 KCAL/MOL
REMARK 923 INTER-LIGAND FREE ENERGY PREDICTED BY IDOCK:   -5.87 KCAL/MOL
REMARK 924 INTRA-LIGAND FREE ENERGY PREDICTED BY IDOCK:   -1.02 KCAL/MOL
REMARK 927      BINDING AFFINITY PREDICTED BY RF-SCORE:    0.00 PKD
ROOT
HETATM    1  O   UNL     1      -8.322   9.091  71.572  1.00  0.00    -0.304 OA 
HETATM    2  C   UNL     1      -8.614   8.153  72.504  1.00  0.00    -0.194 C  
HETATM    3  C   UNL     1      -8.419   6.717  72.028  1.00  0.00    -0.112 C  
HETATM    4  O   UNL     1      -9.025   8.442  73.616  1.00  0.00    -0.195 OA 
ENDROOT
BRANCH   3   5
HETATM    5  N   UNL     1      -7.951   6.638  70.649  1.00  0.00    -0.109 N  
HETATM    6  C   UNL     1      -8.671   5.988  69.669  1.00  0.00    -0.133 C  
HETATM    7  H   UNL     1      -7.064   7.077  70.401  1.00  0.00     0.000 HD 
HETATM    8  O   UNL     1      -9.724   5.402  69.902  1.00  0.00    -0.158 OA 
BRANCH   6   9
HETATM    9  C   UNL     1      -8.046   6.006  68.268  1.00  0.00    -0.110 C  
BRANCH   9  10
HETATM   10  N   UNL     1      -7.337   7.237  67.963  1.00  0.00    -0.094 N  
HETATM   11  H   UNL     1      -6.488   7.457  68.482  1.00  0.00     0.000 HD 
HETATM   12  C   UNL     1      -7.772   8.119  66.999  1.00  0.00    -0.096 C  
HETATM   13  O   UNL     1      -8.768   7.904  66.315  1.00  0.00    -0.138 OA 
BRANCH  12  14
HETATM   14  C   UNL     1      -6.919   9.387  66.849  1.00  0.00    -0.081 C  
BRANCH  14  15
HETATM   15  N   UNL     1      -7.432  10.516  67.620  1.00  0.00    -0.091 N  
HETATM   16  C   UNL     1      -8.385  11.362  67.090  1.00  0.00    -0.155 C  
HETATM   17  H   UNL     1      -7.081  10.682  68.563  1.00  0.00     0.000 HD 
HETATM   18  O   UNL     1      -8.738  11.295  65.915  1.00  0.00    -0.193 OA 
BRANCH  16  19
HETATM   19  C   UNL     1      -8.895  12.426  68.046  1.00  0.00    -0.187 C  
BRANCH  19  20
HETATM   20  S   UNL     1     -10.630  12.829  67.748  1.00  0.00    -0.226 SA 
BRANCH  20  21
HETATM   21  C   UNL     1     -11.398  11.809  68.957  1.00  0.00    -0.278 C  
HETATM   22  O   UNL     1     -11.390  10.586  68.852  1.00  0.00    -0.251 OA 
BRANCH  21  23
HETATM   23  C   UNL     1     -12.071  12.490  70.097  1.00  0.00    -0.368 A  
HETATM   24  C   UNL     1     -12.656  11.707  71.102  1.00  0.00    -0.439 A  
HETATM   25  C   UNL     1     -13.340  12.318  72.157  1.00  0.00    -0.473 A  
HETATM   26  C   UNL     1     -13.451  13.707  72.209  1.00  0.00    -0.652 A  
HETATM   27  C   UNL     1     -12.869  14.490  71.214  1.00  0.00    -0.402 A  
HETATM   28  C   UNL     1     -12.183  13.886  70.161  1.00  0.00    -0.425 A  
ENDBRANCH  21  23
ENDBRANCH  20  21
ENDBRANCH  19  20
ENDBRANCH  16  19
ENDBRANCH  14  15
ENDBRANCH  12  14
ENDBRANCH   9  10
ENDBRANCH   6   9
ENDBRANCH   3   5
TORSDOF 9
ENDMDL
MODEL      316
REMARK 921   NORMALIZED FREE ENERGY PREDICTED BY IDOCK:   -3.95 KCAL/MOL
REMARK 922        TOTAL FREE ENERGY PREDICTED BY IDOCK:   -6.87 KCAL/MOL
REMARK 923 INTER-LIGAND FREE ENERGY PREDICTED BY IDOCK:   -6.33 KCAL/MOL
REMARK 924 INTRA-LIGAND FREE ENERGY PREDICTED BY IDOCK:   -0.54 KCAL/MOL
REMARK 927      BINDING AFFINITY PREDICTED BY RF-SCORE:    0.00 PKD
ROOT
HETATM    1  O   UNL     1     -11.380   6.804  70.295  1.00  0.00    -0.305 OA 
HETATM    2  C   UNL     1     -11.909   7.192  71.480  1.00  0.00    -0.313 C  
HETATM    3  C   UNL     1     -11.211   8.390  72.114  1.00  0.00    -0.361 C  
HETATM    4  O   UNL     1     -12.844   6.607  72.001  1.00  0.00    -0.287 OA 
ENDROOT
BRANCH   3   5
HETATM    5  N   UNL     1     -10.100   8.888  71.309  1.00  0.00    -0.267 N  
HETATM    6  C   UNL     1      -8.799   8.489  71.532  1.00  0.00    -0.199 C  
HETATM    7  H   UNL     1     -10.292   9.551  70.557  1.00  0.00     0.000 HD 
HETATM    8  O   UNL     1      -8.490   7.728  72.443  1.00  0.00    -0.110 OA 
BRANCH   6   9
HETATM    9  C   UNL     1      -7.751   9.096  70.590  1.00  0.00    -0.138 C  
BRANCH   9  10
HETATM   10  N   UNL     1      -8.168   9.126  69.199  1.00  0.00    -0.114 N  
HETATM   11  H   UNL     1      -9.153   9.278  68.984  1.00  0.00     0.000 HD 
HETATM   12  C   UNL     1      -7.281   8.955  68.159  1.00  0.00    -0.079 C  
HETATM   13  O   UNL     1      -6.077   8.799  68.344  1.00  0.00    -0.048 OA 
BRANCH  12  14
HETATM   14  C   UNL     1      -7.912   8.974  66.760  1.00  0.00    -0.107 C  
BRANCH  14  15
HETATM   15  N   UNL     1      -9.036   9.899  66.652  1.00  0.00    -0.145 N  
HETATM   16  C   UNL     1      -8.853  11.259  66.804  1.00  0.00    -0.170 C  
HETATM   17  H   UNL     1      -9.970   9.535  66.460  1.00  0.00     0.000 HD 
HETATM   18  O   UNL     1      -7.784  11.737  67.174  1.00  0.00    -0.148 OA 
BRANCH  16  19
HETATM   19  C   UNL     1     -10.095  12.100  66.561  1.00  0.00    -0.209 C  
BRANCH  19  20
HETATM   20  S   UNL     1      -9.879  13.803  67.120  1.00  0.00    -0.247 SA 
BRANCH  20  21
HETATM   21  C   UNL     1     -11.543  14.217  67.507  1.00  0.00    -0.367 C  
HETATM   22  O   UNL     1     -12.385  14.350  66.623  1.00  0.00    -0.409 OA 
BRANCH  21  23
HETATM   23  C   UNL     1     -11.882  14.415  68.943  1.00  0.00    -0.355 A  
HETATM   24  C   UNL     1     -11.742  15.692  69.501  1.00  0.00    -0.382 A  
HETATM   25  C   UNL     1     -12.001  15.896  70.860  1.00  0.00    -0.432 A  
HETATM   26  C   UNL     1     -12.391  14.828  71.667  1.00  0.00    -0.409 A  
HETATM   27  C   UNL     1     -12.534  13.556  71.117  1.00  0.00    -0.424 A  
HETATM   28  C   UNL     1     -12.279  13.347  69.761  1.00  0.00    -0.307 A  
ENDBRANCH  21  23
ENDBRANCH  20  21
ENDBRANCH  19  20
ENDBRANCH  16  19
ENDBRANCH  14  15
ENDBRANCH  12  14
ENDBRANCH   9  10
ENDBRANCH   6   9
ENDBRANCH   3   5
TORSDOF 9
ENDMDL
MODEL      317
REMARK 921   NORMALIZED FREE ENERGY PREDICTED BY IDOCK:   -3.95 KCAL/MOL
REMARK 922        TOTAL FREE ENERGY PREDICTED BY IDOCK:   -6.87 KCAL/MOL
REMARK 923 INTER-LIGAND FREE ENERGY PREDICTED BY IDOCK:   -6.24 KCAL/MOL
REMARK 924 INTRA-LIGAND FREE ENERGY PREDICTED BY IDOCK:   -0.63 KCAL/MOL
REMARK 927      BINDING AFFINITY PREDICTED BY RF-SCORE:    0.00 PKD
ROOT
HETATM    1  O   UNL     1      -9.830  15.218  65.330  1.00  0.00    -0.332 OA 
HETATM    2  C   UNL     1      -9.400  16.258  66.084  1.00  0.00    -0.339 C  
HETATM    3  C   UNL     1     -10.091  16.376  67.438  1.00  0.00    -0.262 C  
HETATM    4  O   UNL     1      -8.554  17.044  65.691  1.00  0.00    -0.456 OA 
ENDROOT
BRANCH   3   5
HETATM    5  N   UNL     1     -11.088  15.334  67.656  1.00  0.00    -0.316 N  
HETATM    6  C   UNL     1     -10.812  14.202  68.394  1.00  0.00    -0.254 C  
HETATM    7  H   UNL     1     -12.018  15.445  67.250  1.00  0.00     0.000 HD 
HETATM    8  O   UNL     1      -9.705  13.981  68.876  1.00  0.00    -0.163 OA 
BRANCH   6   9
HETATM    9  C   UNL     1     -11.972  13.208  68.539  1.00  0.00    -0.289 C  
BRANCH   9  10
HETATM   10  N   UNL     1     -11.548  11.869  68.908  1.00  0.00    -0.285 N  
HETATM   11  H   UNL     1     -10.993  11.329  68.245  1.00  0.00     0.000 HD 
HETATM   12  C   UNL     1     -11.869  11.301  70.120  1.00  0.00    -0.364 C  
HETATM   13  O   UNL     1     -12.508  11.904  70.978  1.00  0.00    -0.369 OA 
BRANCH  12  14
HETATM   14  C   UNL     1     -11.371   9.862  70.314  1.00  0.00    -0.291 C  
BRANCH  14  15
HETATM   15  N   UNL     1     -10.841   9.271  69.089  1.00  0.00    -0.375 N  
HETATM   16  C   UNL     1      -9.538   9.502  68.695  1.00  0.00    -0.146 C  
HETATM   17  H   UNL     1     -11.442   8.678  68.516  1.00  0.00     0.000 HD 
HETATM   18  O   UNL     1      -8.818  10.316  69.266  1.00  0.00    -0.164 OA 
BRANCH  16  19
HETATM   19  C   UNL     1      -9.101   8.737  67.458  1.00  0.00    -0.133 C  
BRANCH  19  20
HETATM   20  S   UNL     1     -10.293   7.462  66.993  1.00  0.00    -0.318 SA 
BRANCH  20  21
HETATM   21  C   UNL     1      -9.238   6.058  66.929  1.00  0.00    -0.126 C  
HETATM   22  O   UNL     1      -8.594   5.794  65.918  1.00  0.00    -0.135 OA 
BRANCH  21  23
HETATM   23  C   UNL     1      -9.172   5.197  68.142  1.00  0.00    -0.136 A  
HETATM   24  C   UNL     1      -9.296   3.809  67.994  1.00  0.00    -0.232 A  
HETATM   25  C   UNL     1      -9.291   2.980  69.120  1.00  0.00    -0.220 A  
HETATM   26  C   UNL     1      -9.174   3.532  70.395  1.00  0.00    -0.219 A  
HETATM   27  C   UNL     1      -9.049   4.911  70.548  1.00  0.00    -0.176 A  
HETATM   28  C   UNL     1      -9.049   5.742  69.429  1.00  0.00    -0.138 A  
ENDBRANCH  21  23
ENDBRANCH  20  21
ENDBRANCH  19  20
ENDBRANCH  16  19
ENDBRANCH  14  15
ENDBRANCH  12  14
ENDBRANCH   9  10
ENDBRANCH   6   9
ENDBRANCH   3   5
TORSDOF 9
ENDMDL
MODEL      318
REMARK 921   NORMALIZED FREE ENERGY PREDICTED BY IDOCK:   -3.95 KCAL/MOL
REMARK 922        TOTAL FREE ENERGY PREDICTED BY IDOCK:   -6.87 KCAL/MOL
REMARK 923 INTER-LIGAND FREE ENERGY PREDICTED BY IDOCK:   -6.11 KCAL/MOL
REMARK 924 INTRA-LIGAND FREE ENERGY PREDICTED BY IDOCK:   -0.76 KCAL/MOL
REMARK 927      BINDING AFFINITY PREDICTED BY RF-SCORE:    0.00 PKD
ROOT
HETATM    1  O   UNL     1      -8.335   3.880  65.605  1.00  0.00    -0.107 OA 
HETATM    2  C   UNL     1      -7.437   4.039  66.606  1.00  0.00    -0.084 C  
HETATM    3  C   UNL     1      -7.548   5.371  67.340  1.00  0.00    -0.088 C  
HETATM    4  O   UNL     1      -6.596   3.195  66.869  1.00  0.00    -0.036 OA 
ENDROOT
BRANCH   3   5
HETATM    5  N   UNL     1      -8.612   6.219  66.813  1.00  0.00    -0.114 N  
HETATM    6  C   UNL     1      -9.722   6.548  67.562  1.00  0.00    -0.122 C  
HETATM    7  H   UNL     1      -8.533   6.579  65.862  1.00  0.00     0.000 HD 
HETATM    8  O   UNL     1      -9.905   6.118  68.697  1.00  0.00    -0.131 OA 
BRANCH   6   9
HETATM    9  C   UNL     1     -10.743   7.457  66.866  1.00  0.00    -0.254 C  
BRANCH   9  10
HETATM   10  N   UNL     1     -10.210   8.760  66.506  1.00  0.00    -0.282 N  
HETATM   11  H   UNL     1      -9.642   8.844  65.664  1.00  0.00     0.000 HD 
HETATM   12  C   UNL     1     -10.445   9.887  67.262  1.00  0.00    -0.258 C  
HETATM   13  O   UNL     1     -11.146   9.866  68.270  1.00  0.00    -0.230 OA 
BRANCH  12  14
HETATM   14  C   UNL     1      -9.765  11.164  66.749  1.00  0.00    -0.193 C  
BRANCH  14  15
HETATM   15  N   UNL     1     -10.687  12.286  66.607  1.00  0.00    -0.239 N  
HETATM   16  C   UNL     1     -10.968  12.821  65.365  1.00  0.00    -0.283 C  
HETATM   17  H   UNL     1     -11.131  12.681  67.436  1.00  0.00     0.000 HD 
HETATM   18  O   UNL     1     -10.358  12.482  64.355  1.00  0.00    -0.326 OA 
BRANCH  16  19
HETATM   19  C   UNL     1     -12.023  13.914  65.366  1.00  0.00    -0.381 C  
BRANCH  19  20
HETATM   20  S   UNL     1     -11.349  15.505  64.841  1.00  0.00    -0.272 SA 
BRANCH  20  21
HETATM   21  C   UNL     1     -10.632  16.052  66.350  1.00  0.00    -0.284 C  
HETATM   22  O   UNL     1     -10.888  15.494  67.413  1.00  0.00    -0.304 OA 
BRANCH  21  23
HETATM   23  C   UNL     1      -9.718  17.226  66.286  1.00  0.00    -0.282 A  
HETATM   24  C   UNL     1      -8.334  17.007  66.292  1.00  0.00    -0.308 A  
HETATM   25  C   UNL     1      -7.453  18.092  66.287  1.00  0.00    -0.301 A  
HETATM   26  C   UNL     1      -7.947  19.396  66.285  1.00  0.00    -0.330 A  
HETATM   27  C   UNL     1      -9.322  19.619  66.276  1.00  0.00    -0.453 A  
HETATM   28  C   UNL     1     -10.206  18.541  66.278  1.00  0.00    -0.446 A  
ENDBRANCH  21  23
ENDBRANCH  20  21
ENDBRANCH  19  20
ENDBRANCH  16  19
ENDBRANCH  14  15
ENDBRANCH  12  14
ENDBRANCH   9  10
ENDBRANCH   6   9
ENDBRANCH   3   5
TORSDOF 9
ENDMDL
MODEL      319
REMARK 921   NORMALIZED FREE ENERGY PREDICTED BY IDOCK:   -3.93 KCAL/MOL
REMARK 922        TOTAL FREE ENERGY PREDICTED BY IDOCK:   -6.83 KCAL/MOL
REMARK 923 INTER-LIGAND FREE ENERGY PREDICTED BY IDOCK:   -5.97 KCAL/MOL
REMARK 924 INTRA-LIGAND FREE ENERGY PREDICTED BY IDOCK:   -0.87 KCAL/MOL
REMARK 927      BINDING AFFINITY PREDICTED BY RF-SCORE:    0.00 PKD
ROOT
HETATM    1  O   UNL     1      -8.900   5.765  69.188  1.00  0.00    -0.112 OA 
HETATM    2  C   UNL     1      -9.397   4.810  68.365  1.00  0.00    -0.132 C  
HETATM    3  C   UNL     1      -9.627   5.279  66.932  1.00  0.00    -0.145 C  
HETATM    4  O   UNL     1      -9.661   3.685  68.755  1.00  0.00    -0.133 OA 
ENDROOT
BRANCH   3   5
HETATM    5  N   UNL     1      -9.261   6.676  66.729  1.00  0.00    -0.144 N  
HETATM    6  C   UNL     1      -8.540   7.091  65.629  1.00  0.00    -0.111 C  
HETATM    7  H   UNL     1      -9.548   7.369  67.422  1.00  0.00     0.000 HD 
HETATM    8  O   UNL     1      -8.126   6.309  64.779  1.00  0.00    -0.130 OA 
BRANCH   6   9
HETATM    9  C   UNL     1      -8.248   8.595  65.559  1.00  0.00    -0.135 C  
BRANCH   9  10
HETATM   10  N   UNL     1      -9.108   9.394  66.415  1.00  0.00    -0.153 N  
HETATM   11  H   UNL     1      -9.001   9.321  67.426  1.00  0.00     0.000 HD 
HETATM   12  C   UNL     1     -10.064  10.247  65.910  1.00  0.00    -0.251 C  
HETATM   13  O   UNL     1     -10.227  10.409  64.703  1.00  0.00    -0.346 OA 
BRANCH  12  14
HETATM   14  C   UNL     1     -10.906  10.975  66.966  1.00  0.00    -0.279 C  
BRANCH  14  15
HETATM   15  N   UNL     1     -10.441  12.333  67.233  1.00  0.00    -0.216 N  
HETATM   16  C   UNL     1      -9.380  12.564  68.085  1.00  0.00    -0.210 C  
HETATM   17  H   UNL     1     -10.907  13.121  66.784  1.00  0.00     0.000 HD 
HETATM   18  O   UNL     1      -8.877  11.670  68.761  1.00  0.00    -0.122 OA 
BRANCH  16  19
HETATM   19  C   UNL     1      -8.946  14.017  68.183  1.00  0.00    -0.183 C  
BRANCH  19  20
HETATM   20  S   UNL     1      -9.404  14.960  66.712  1.00  0.00    -0.265 SA 
BRANCH  20  21
HETATM   21  C   UNL     1     -10.344  16.250  67.450  1.00  0.00    -0.285 C  
HETATM   22  O   UNL     1     -11.438  16.025  67.960  1.00  0.00    -0.309 OA 
BRANCH  21  23
HETATM   23  C   UNL     1      -9.767  17.622  67.414  1.00  0.00    -0.283 A  
HETATM   24  C   UNL     1     -10.635  18.718  67.325  1.00  0.00    -0.504 A  
HETATM   25  C   UNL     1     -10.120  20.015  67.236  1.00  0.00    -0.577 A  
HETATM   26  C   UNL     1      -8.741  20.222  67.225  1.00  0.00    -0.441 A  
HETATM   27  C   UNL     1      -7.874  19.136  67.315  1.00  0.00    -0.274 A  
HETATM   28  C   UNL     1      -8.382  17.840  67.408  1.00  0.00    -0.227 A  
ENDBRANCH  21  23
ENDBRANCH  20  21
ENDBRANCH  19  20
ENDBRANCH  16  19
ENDBRANCH  14  15
ENDBRANCH  12  14
ENDBRANCH   9  10
ENDBRANCH   6   9
ENDBRANCH   3   5
TORSDOF 9
ENDMDL
MODEL      320
REMARK 921   NORMALIZED FREE ENERGY PREDICTED BY IDOCK:   -3.92 KCAL/MOL
REMARK 922        TOTAL FREE ENERGY PREDICTED BY IDOCK:   -6.83 KCAL/MOL
REMARK 923 INTER-LIGAND FREE ENERGY PREDICTED BY IDOCK:   -6.07 KCAL/MOL
REMARK 924 INTRA-LIGAND FREE ENERGY PREDICTED BY IDOCK:   -0.76 KCAL/MOL
REMARK 927      BINDING AFFINITY PREDICTED BY RF-SCORE:    0.00 PKD
ROOT
HETATM    1  O   UNL     1     -10.346   8.276  69.336  1.00  0.00    -0.214 OA 
HETATM    2  C   UNL     1     -11.154   7.230  69.634  1.00  0.00    -0.141 C  
HETATM    3  C   UNL     1     -10.801   5.940  68.901  1.00  0.00    -0.303 C  
HETATM    4  O   UNL     1     -12.097   7.332  70.400  1.00  0.00    -0.162 OA 
ENDROOT
BRANCH   3   5
HETATM    5  N   UNL     1      -9.650   6.089  68.017  1.00  0.00    -0.116 N  
HETATM    6  C   UNL     1      -9.108   5.019  67.337  1.00  0.00    -0.115 C  
HETATM    7  H   UNL     1      -9.233   7.013  67.899  1.00  0.00     0.000 HD 
HETATM    8  O   UNL     1      -9.530   3.874  67.463  1.00  0.00    -0.177 OA 
BRANCH   6   9
HETATM    9  C   UNL     1      -7.908   5.347  66.439  1.00  0.00    -0.100 C  
BRANCH   9  10
HETATM   10  N   UNL     1      -8.206   6.319  65.402  1.00  0.00    -0.138 N  
HETATM   11  H   UNL     1      -8.562   5.988  64.505  1.00  0.00     0.000 HD 
HETATM   12  C   UNL     1      -8.026   7.672  65.584  1.00  0.00    -0.116 C  
HETATM   13  O   UNL     1      -7.631   8.143  66.648  1.00  0.00    -0.090 OA 
BRANCH  12  14
HETATM   14  C   UNL     1      -8.353   8.540  64.362  1.00  0.00    -0.116 C  
BRANCH  14  15
HETATM   15  N   UNL     1      -8.755   9.898  64.715  1.00  0.00    -0.173 N  
HETATM   16  C   UNL     1      -9.523  10.657  63.856  1.00  0.00    -0.282 C  
HETATM   17  H   UNL     1      -8.465  10.291  65.611  1.00  0.00     0.000 HD 
HETATM   18  O   UNL     1      -9.780  10.290  62.712  1.00  0.00    -0.294 OA 
BRANCH  16  19
HETATM   19  C   UNL     1      -9.948  12.009  64.405  1.00  0.00    -0.228 C  
BRANCH  19  20
HETATM   20  S   UNL     1     -11.634  11.977  65.050  1.00  0.00    -0.216 SA 
BRANCH  20  21
HETATM   21  C   UNL     1     -11.990  13.699  65.075  1.00  0.00    -0.378 C  
HETATM   22  O   UNL     1     -12.540  14.247  64.124  1.00  0.00    -0.689 OA 
BRANCH  21  23
HETATM   23  C   UNL     1     -11.581  14.463  66.286  1.00  0.00    -0.377 A  
HETATM   24  C   UNL     1     -10.704  15.546  66.138  1.00  0.00    -0.315 A  
HETATM   25  C   UNL     1     -10.262  16.248  67.263  1.00  0.00    -0.279 A  
HETATM   26  C   UNL     1     -10.683  15.868  68.536  1.00  0.00    -0.274 A  
HETATM   27  C   UNL     1     -11.556  14.793  68.689  1.00  0.00    -0.345 A  
HETATM   28  C   UNL     1     -12.003  14.091  67.571  1.00  0.00    -0.430 A  
ENDBRANCH  21  23
ENDBRANCH  20  21
ENDBRANCH  19  20
ENDBRANCH  16  19
ENDBRANCH  14  15
ENDBRANCH  12  14
ENDBRANCH   9  10
ENDBRANCH   6   9
ENDBRANCH   3   5
TORSDOF 9
ENDMDL
MODEL      321
REMARK 921   NORMALIZED FREE ENERGY PREDICTED BY IDOCK:   -3.92 KCAL/MOL
REMARK 922        TOTAL FREE ENERGY PREDICTED BY IDOCK:   -6.82 KCAL/MOL
REMARK 923 INTER-LIGAND FREE ENERGY PREDICTED BY IDOCK:   -5.76 KCAL/MOL
REMARK 924 INTRA-LIGAND FREE ENERGY PREDICTED BY IDOCK:   -1.06 KCAL/MOL
REMARK 927      BINDING AFFINITY PREDICTED BY RF-SCORE:    0.00 PKD
ROOT
HETATM    1  O   UNL     1      -9.222   2.580  66.739  1.00  0.00    -0.137 OA 
HETATM    2  C   UNL     1      -9.330   3.423  65.685  1.00  0.00    -0.147 C  
HETATM    3  C   UNL     1      -9.854   4.809  66.046  1.00  0.00    -0.216 C  
HETATM    4  O   UNL     1      -9.058   3.083  64.546  1.00  0.00    -0.117 OA 
ENDROOT
BRANCH   3   5
HETATM    5  N   UNL     1     -10.136   4.954  67.469  1.00  0.00    -0.157 N  
HETATM    6  C   UNL     1     -10.864   6.015  67.966  1.00  0.00    -0.287 C  
HETATM    7  H   UNL     1      -9.784   4.249  68.118  1.00  0.00     0.000 HD 
HETATM    8  O   UNL     1     -11.282   6.920  67.252  1.00  0.00    -0.317 OA 
BRANCH   6   9
HETATM    9  C   UNL     1     -11.081   6.013  69.485  1.00  0.00    -0.398 C  
BRANCH   9  10
HETATM   10  N   UNL     1     -10.746   7.275  70.122  1.00  0.00    -0.239 N  
HETATM   11  H   UNL     1      -9.827   7.683  69.949  1.00  0.00     0.000 HD 
HETATM   12  C   UNL     1     -11.622   7.940  70.950  1.00  0.00    -0.273 C  
HETATM   13  O   UNL     1     -12.754   7.522  71.176  1.00  0.00    -0.310 OA 
BRANCH  12  14
HETATM   14  C   UNL     1     -11.075   9.235  71.566  1.00  0.00    -0.373 C  
BRANCH  14  15
HETATM   15  N   UNL     1     -11.536  10.436  70.875  1.00  0.00    -0.350 N  
HETATM   16  C   UNL     1     -11.045  10.771  69.630  1.00  0.00    -0.279 C  
HETATM   17  H   UNL     1     -12.232  11.036  71.320  1.00  0.00     0.000 HD 
HETATM   18  O   UNL     1     -10.109  10.168  69.112  1.00  0.00    -0.189 OA 
BRANCH  16  19
HETATM   19  C   UNL     1     -11.695  11.989  68.995  1.00  0.00    -0.325 C  
BRANCH  19  20
HETATM   20  S   UNL     1     -11.639  11.924  67.192  1.00  0.00    -0.239 SA 
BRANCH  20  21
HETATM   21  C   UNL     1     -10.321  13.046  66.881  1.00  0.00    -0.245 C  
HETATM   22  O   UNL     1     -10.533  14.245  66.721  1.00  0.00    -0.270 OA 
BRANCH  21  23
HETATM   23  C   UNL     1      -8.946  12.479  66.803  1.00  0.00    -0.198 A  
HETATM   24  C   UNL     1      -8.721  11.358  65.994  1.00  0.00    -0.131 A  
HETATM   25  C   UNL     1      -7.452  10.773  65.944  1.00  0.00    -0.099 A  
HETATM   26  C   UNL     1      -6.408  11.297  66.705  1.00  0.00    -0.135 A  
HETATM   27  C   UNL     1      -6.626  12.414  67.509  1.00  0.00    -0.147 A  
HETATM   28  C   UNL     1      -7.889  13.004  67.561  1.00  0.00    -0.178 A  
ENDBRANCH  21  23
ENDBRANCH  20  21
ENDBRANCH  19  20
ENDBRANCH  16  19
ENDBRANCH  14  15
ENDBRANCH  12  14
ENDBRANCH   9  10
ENDBRANCH   6   9
ENDBRANCH   3   5
TORSDOF 9
ENDMDL
MODEL      322
REMARK 921   NORMALIZED FREE ENERGY PREDICTED BY IDOCK:   -3.92 KCAL/MOL
REMARK 922        TOTAL FREE ENERGY PREDICTED BY IDOCK:   -6.82 KCAL/MOL
REMARK 923 INTER-LIGAND FREE ENERGY PREDICTED BY IDOCK:   -5.90 KCAL/MOL
REMARK 924 INTRA-LIGAND FREE ENERGY PREDICTED BY IDOCK:   -0.92 KCAL/MOL
REMARK 927      BINDING AFFINITY PREDICTED BY RF-SCORE:    0.00 PKD
ROOT
HETATM    1  O   UNL     1      -9.974  15.873  67.281  1.00  0.00    -0.234 OA 
HETATM    2  C   UNL     1     -10.414  16.573  66.208  1.00  0.00    -0.281 C  
HETATM    3  C   UNL     1     -10.950  15.706  65.073  1.00  0.00    -0.431 C  
HETATM    4  O   UNL     1     -10.355  17.790  66.154  1.00  0.00    -0.372 OA 
ENDROOT
BRANCH   3   5
HETATM    5  N   UNL     1     -10.883  14.280  65.372  1.00  0.00    -0.323 N  
HETATM    6  C   UNL     1     -12.016  13.499  65.468  1.00  0.00    -0.390 C  
HETATM    7  H   UNL     1      -9.970  13.847  65.514  1.00  0.00     0.000 HD 
HETATM    8  O   UNL     1     -13.147  13.960  65.350  1.00  0.00    -0.752 OA 
BRANCH   6   9
HETATM    9  C   UNL     1     -11.772  12.016  65.776  1.00  0.00    -0.245 C  
BRANCH   9  10
HETATM   10  N   UNL     1     -10.874  11.796  66.896  1.00  0.00    -0.257 N  
HETATM   11  H   UNL     1      -9.878  11.975  66.770  1.00  0.00     0.000 HD 
HETATM   12  C   UNL     1     -11.318  11.353  68.122  1.00  0.00    -0.304 C  
HETATM   13  O   UNL     1     -12.506  11.146  68.353  1.00  0.00    -0.390 OA 
BRANCH  12  14
HETATM   14  C   UNL     1     -10.217  11.136  69.170  1.00  0.00    -0.141 C  
BRANCH  14  15
HETATM   15  N   UNL     1      -9.202  10.176  68.743  1.00  0.00    -0.156 N  
HETATM   16  C   UNL     1      -7.969  10.602  68.292  1.00  0.00    -0.116 C  
HETATM   17  H   UNL     1      -9.408   9.178  68.780  1.00  0.00     0.000 HD 
HETATM   18  O   UNL     1      -7.719  11.788  68.093  1.00  0.00    -0.109 OA 
BRANCH  16  19
HETATM   19  C   UNL     1      -6.984   9.487  67.983  1.00  0.00    -0.079 C  
BRANCH  19  20
HETATM   20  S   UNL     1      -7.647   8.313  66.781  1.00  0.00    -0.091 SA 
BRANCH  20  21
HETATM   21  C   UNL     1      -7.363   6.802  67.634  1.00  0.00    -0.096 C  
HETATM   22  O   UNL     1      -6.292   6.209  67.535  1.00  0.00    -0.034 OA 
BRANCH  21  23
HETATM   23  C   UNL     1      -8.478   6.266  68.463  1.00  0.00    -0.115 A  
HETATM   24  C   UNL     1      -9.733   6.079  67.869  1.00  0.00    -0.123 A  
HETATM   25  C   UNL     1     -10.811   5.627  68.636  1.00  0.00    -0.190 A  
HETATM   26  C   UNL     1     -10.644   5.371  69.997  1.00  0.00    -0.354 A  
HETATM   27  C   UNL     1      -9.398   5.553  70.592  1.00  0.00    -0.195 A  
HETATM   28  C   UNL     1      -8.318   6.000  69.831  1.00  0.00    -0.123 A  
ENDBRANCH  21  23
ENDBRANCH  20  21
ENDBRANCH  19  20
ENDBRANCH  16  19
ENDBRANCH  14  15
ENDBRANCH  12  14
ENDBRANCH   9  10
ENDBRANCH   6   9
ENDBRANCH   3   5
TORSDOF 9
ENDMDL
MODEL      323
REMARK 921   NORMALIZED FREE ENERGY PREDICTED BY IDOCK:   -3.91 KCAL/MOL
REMARK 922        TOTAL FREE ENERGY PREDICTED BY IDOCK:   -6.81 KCAL/MOL
REMARK 923 INTER-LIGAND FREE ENERGY PREDICTED BY IDOCK:   -5.84 KCAL/MOL
REMARK 924 INTRA-LIGAND FREE ENERGY PREDICTED BY IDOCK:   -0.98 KCAL/MOL
REMARK 927      BINDING AFFINITY PREDICTED BY RF-SCORE:    0.00 PKD
ROOT
HETATM    1  O   UNL     1      -9.929   5.109  65.928  1.00  0.00    -0.164 OA 
HETATM    2  C   UNL     1      -9.516   4.017  66.615  1.00  0.00    -0.197 C  
HETATM    3  C   UNL     1      -9.624   4.154  68.130  1.00  0.00    -0.134 C  
HETATM    4  O   UNL     1      -9.069   3.027  66.060  1.00  0.00    -0.143 OA 
ENDROOT
BRANCH   3   5
HETATM    5  N   UNL     1     -10.158   5.446  68.544  1.00  0.00    -0.175 N  
HETATM    6  C   UNL     1     -10.462   5.724  69.860  1.00  0.00    -0.290 C  
HETATM    7  H   UNL     1     -10.313   6.167  67.838  1.00  0.00     0.000 HD 
HETATM    8  O   UNL     1     -10.342   4.893  70.755  1.00  0.00    -0.222 OA 
BRANCH   6   9
HETATM    9  C   UNL     1     -11.004   7.134  70.129  1.00  0.00    -0.267 C  
BRANCH   9  10
HETATM   10  N   UNL     1      -9.982   8.082  70.538  1.00  0.00    -0.190 N  
HETATM   11  H   UNL     1      -9.895   8.315  71.527  1.00  0.00     0.000 HD 
HETATM   12  C   UNL     1      -9.126   8.678  69.639  1.00  0.00    -0.149 C  
HETATM   13  O   UNL     1      -9.154   8.420  68.438  1.00  0.00    -0.136 OA 
BRANCH  12  14
HETATM   14  C   UNL     1      -8.142   9.684  70.250  1.00  0.00    -0.183 C  
BRANCH  14  15
HETATM   15  N   UNL     1      -8.090  10.948  69.521  1.00  0.00    -0.382 N  
HETATM   16  C   UNL     1      -6.960  11.315  68.817  1.00  0.00    -0.091 C  
HETATM   17  H   UNL     1      -8.900  11.569  69.531  1.00  0.00     0.000 HD 
HETATM   18  O   UNL     1      -5.912  10.679  68.886  1.00  0.00    -0.041 OA 
BRANCH  16  19
HETATM   19  C   UNL     1      -7.094  12.606  68.026  1.00  0.00    -0.103 C  
BRANCH  19  20
HETATM   20  S   UNL     1      -8.730  13.346  68.209  1.00  0.00    -0.146 SA 
BRANCH  20  21
HETATM   21  C   UNL     1      -9.587  12.530  66.909  1.00  0.00    -0.229 C  
HETATM   22  O   UNL     1      -9.418  11.333  66.691  1.00  0.00    -0.179 OA 
BRANCH  21  23
HETATM   23  C   UNL     1     -10.508  13.352  66.076  1.00  0.00    -0.294 A  
HETATM   24  C   UNL     1     -11.784  12.852  65.785  1.00  0.00    -0.437 A  
HETATM   25  C   UNL     1     -12.650  13.578  64.961  1.00  0.00    -0.441 A  
HETATM   26  C   UNL     1     -12.244  14.797  64.419  1.00  0.00    -0.447 A  
HETATM   27  C   UNL     1     -10.977  15.299  64.707  1.00  0.00    -0.403 A  
HETATM   28  C   UNL     1     -10.110  14.581  65.530  1.00  0.00    -0.394 A  
ENDBRANCH  21  23
ENDBRANCH  20  21
ENDBRANCH  19  20
ENDBRANCH  16  19
ENDBRANCH  14  15
ENDBRANCH  12  14
ENDBRANCH   9  10
ENDBRANCH   6   9
ENDBRANCH   3   5
TORSDOF 9
ENDMDL
MODEL      324
REMARK 921   NORMALIZED FREE ENERGY PREDICTED BY IDOCK:   -3.90 KCAL/MOL
REMARK 922        TOTAL FREE ENERGY PREDICTED BY IDOCK:   -6.80 KCAL/MOL
REMARK 923 INTER-LIGAND FREE ENERGY PREDICTED BY IDOCK:   -5.85 KCAL/MOL
REMARK 924 INTRA-LIGAND FREE ENERGY PREDICTED BY IDOCK:   -0.95 KCAL/MOL
REMARK 927      BINDING AFFINITY PREDICTED BY RF-SCORE:    0.00 PKD
ROOT
HETATM    1  O   UNL     1      -9.771  13.882  66.084  1.00  0.00    -0.291 OA 
HETATM    2  C   UNL     1     -11.020  13.774  65.571  1.00  0.00    -0.299 C  
HETATM    3  C   UNL     1     -11.737  12.479  65.939  1.00  0.00    -0.426 C  
HETATM    4  O   UNL     1     -11.508  14.631  64.854  1.00  0.00    -0.366 OA 
ENDROOT
BRANCH   3   5
HETATM    5  N   UNL     1     -10.927  11.605  66.781  1.00  0.00    -0.278 N  
HETATM    6  C   UNL     1     -11.347  11.199  68.030  1.00  0.00    -0.312 C  
HETATM    7  H   UNL     1     -10.023  11.284  66.435  1.00  0.00     0.000 HD 
HETATM    8  O   UNL     1     -12.403  11.578  68.527  1.00  0.00    -0.459 OA 
BRANCH   6   9
HETATM    9  C   UNL     1     -10.384  10.271  68.782  1.00  0.00    -0.195 C  
BRANCH   9  10
HETATM   10  N   UNL     1     -10.974   8.997  69.152  1.00  0.00    -0.426 N  
HETATM   11  H   UNL     1     -11.273   8.360  68.413  1.00  0.00     0.000 HD 
HETATM   12  C   UNL     1     -11.145   8.616  70.464  1.00  0.00    -0.242 C  
HETATM   13  O   UNL     1     -10.780   9.318  71.403  1.00  0.00    -0.317 OA 
BRANCH  12  14
HETATM   14  C   UNL     1     -11.826   7.254  70.660  1.00  0.00    -0.252 C  
BRANCH  14  15
HETATM   15  N   UNL     1     -10.940   6.127  70.387  1.00  0.00    -0.312 N  
HETATM   16  C   UNL     1     -10.644   5.755  69.091  1.00  0.00    -0.294 C  
HETATM   17  H   UNL     1     -10.534   5.606  71.165  1.00  0.00     0.000 HD 
HETATM   18  O   UNL     1     -11.213   6.252  68.122  1.00  0.00    -0.327 OA 
BRANCH  16  19
HETATM   19  C   UNL     1      -9.628   4.632  68.966  1.00  0.00    -0.172 C  
BRANCH  19  20
HETATM   20  S   UNL     1      -9.341   4.167  67.245  1.00  0.00    -0.188 SA 
BRANCH  20  21
HETATM   21  C   UNL     1      -7.739   4.849  67.003  1.00  0.00    -0.092 C  
HETATM   22  O   UNL     1      -6.759   4.389  67.584  1.00  0.00    -0.045 OA 
BRANCH  21  23
HETATM   23  C   UNL     1      -7.624   6.013  66.082  1.00  0.00    -0.087 A  
HETATM   24  C   UNL     1      -6.550   6.061  65.183  1.00  0.00    -0.043 A  
HETATM   25  C   UNL     1      -6.387   7.167  64.344  1.00  0.00    -0.037 A  
HETATM   26  C   UNL     1      -7.287   8.231  64.404  1.00  0.00    -0.092 A  
HETATM   27  C   UNL     1      -8.358   8.187  65.293  1.00  0.00    -0.160 A  
HETATM   28  C   UNL     1      -8.527   7.085  66.131  1.00  0.00    -0.136 A  
ENDBRANCH  21  23
ENDBRANCH  20  21
ENDBRANCH  19  20
ENDBRANCH  16  19
ENDBRANCH  14  15
ENDBRANCH  12  14
ENDBRANCH   9  10
ENDBRANCH   6   9
ENDBRANCH   3   5
TORSDOF 9
ENDMDL
MODEL      325
REMARK 921   NORMALIZED FREE ENERGY PREDICTED BY IDOCK:   -3.90 KCAL/MOL
REMARK 922        TOTAL FREE ENERGY PREDICTED BY IDOCK:   -6.79 KCAL/MOL
REMARK 923 INTER-LIGAND FREE ENERGY PREDICTED BY IDOCK:   -6.14 KCAL/MOL
REMARK 924 INTRA-LIGAND FREE ENERGY PREDICTED BY IDOCK:   -0.66 KCAL/MOL
REMARK 927      BINDING AFFINITY PREDICTED BY RF-SCORE:    0.00 PKD
ROOT
HETATM    1  O   UNL     1     -11.908  14.496  69.699  1.00  0.00    -0.281 OA 
HETATM    2  C   UNL     1     -12.824  14.626  70.689  1.00  0.00    -0.342 C  
HETATM    3  C   UNL     1     -13.086  13.343  71.471  1.00  0.00    -0.342 C  
HETATM    4  O   UNL     1     -13.404  15.676  70.907  1.00  0.00    -0.556 OA 
ENDROOT
BRANCH   3   5
HETATM    5  N   UNL     1     -12.288  12.218  70.994  1.00  0.00    -0.351 N  
HETATM    6  C   UNL     1     -12.587  10.915  71.333  1.00  0.00    -0.403 C  
HETATM    7  H   UNL     1     -11.485  12.401  70.392  1.00  0.00     0.000 HD 
HETATM    8  O   UNL     1     -13.511  10.624  72.085  1.00  0.00    -0.373 OA 
BRANCH   6   9
HETATM    9  C   UNL     1     -11.657   9.849  70.739  1.00  0.00    -0.349 C  
BRANCH   9  10
HETATM   10  N   UNL     1     -10.539  10.402  69.995  1.00  0.00    -0.398 N  
HETATM   11  H   UNL     1      -9.619  10.422  70.434  1.00  0.00     0.000 HD 
HETATM   12  C   UNL     1     -10.676  10.900  68.719  1.00  0.00    -0.207 C  
HETATM   13  O   UNL     1     -11.747  10.878  68.118  1.00  0.00    -0.506 OA 
BRANCH  12  14
HETATM   14  C   UNL     1      -9.394  11.482  68.109  1.00  0.00    -0.185 C  
BRANCH  14  15
HETATM   15  N   UNL     1      -8.446  10.457  67.681  1.00  0.00    -0.115 N  
HETATM   16  C   UNL     1      -7.209  10.801  67.175  1.00  0.00    -0.100 C  
HETATM   17  H   UNL     1      -8.703   9.472  67.758  1.00  0.00     0.000 HD 
HETATM   18  O   UNL     1      -6.904  11.965  66.929  1.00  0.00    -0.138 OA 
BRANCH  16  19
HETATM   19  C   UNL     1      -6.296   9.625  66.870  1.00  0.00    -0.066 C  
BRANCH  19  20
HETATM   20  S   UNL     1      -6.932   8.606  65.521  1.00  0.00    -0.079 SA 
BRANCH  20  21
HETATM   21  C   UNL     1      -6.959   7.033  66.306  1.00  0.00    -0.069 C  
HETATM   22  O   UNL     1      -5.994   6.276  66.243  1.00  0.00    -0.026 OA 
BRANCH  21  23
HETATM   23  C   UNL     1      -8.203   6.653  67.031  1.00  0.00    -0.113 A  
HETATM   24  C   UNL     1      -9.432   6.761  66.368  1.00  0.00    -0.166 A  
HETATM   25  C   UNL     1     -10.620   6.462  67.041  1.00  0.00    -0.396 A  
HETATM   26  C   UNL     1     -10.587   6.064  68.377  1.00  0.00    -0.322 A  
HETATM   27  C   UNL     1      -9.368   5.953  69.041  1.00  0.00    -0.138 A  
HETATM   28  C   UNL     1      -8.179   6.248  68.374  1.00  0.00    -0.116 A  
ENDBRANCH  21  23
ENDBRANCH  20  21
ENDBRANCH  19  20
ENDBRANCH  16  19
ENDBRANCH  14  15
ENDBRANCH  12  14
ENDBRANCH   9  10
ENDBRANCH   6   9
ENDBRANCH   3   5
TORSDOF 9
ENDMDL
MODEL      326
REMARK 921   NORMALIZED FREE ENERGY PREDICTED BY IDOCK:   -3.89 KCAL/MOL
REMARK 922        TOTAL FREE ENERGY PREDICTED BY IDOCK:   -6.78 KCAL/MOL
REMARK 923 INTER-LIGAND FREE ENERGY PREDICTED BY IDOCK:   -5.83 KCAL/MOL
REMARK 924 INTRA-LIGAND FREE ENERGY PREDICTED BY IDOCK:   -0.95 KCAL/MOL
REMARK 927      BINDING AFFINITY PREDICTED BY RF-SCORE:    0.00 PKD
ROOT
HETATM    1  O   UNL     1     -11.279  15.797  68.335  1.00  0.00    -0.326 OA 
HETATM    2  C   UNL     1     -10.643  15.476  67.183  1.00  0.00    -0.300 C  
HETATM    3  C   UNL     1     -10.222  14.014  67.088  1.00  0.00    -0.258 C  
HETATM    4  O   UNL     1     -10.406  16.301  66.316  1.00  0.00    -0.304 OA 
ENDROOT
BRANCH   3   5
HETATM    5  N   UNL     1     -10.593  13.241  68.268  1.00  0.00    -0.244 N  
HETATM    6  C   UNL     1     -11.605  12.305  68.240  1.00  0.00    -0.331 C  
HETATM    7  H   UNL     1     -10.088  13.398  69.141  1.00  0.00     0.000 HD 
HETATM    8  O   UNL     1     -12.282  12.094  67.239  1.00  0.00    -0.496 OA 
BRANCH   6   9
HETATM    9  C   UNL     1     -11.863  11.571  69.562  1.00  0.00    -0.351 C  
BRANCH   9  10
HETATM   10  N   UNL     1     -11.656  10.135  69.480  1.00  0.00    -0.432 N  
HETATM   11  H   UNL     1     -12.465   9.528  69.356  1.00  0.00     0.000 HD 
HETATM   12  C   UNL     1     -10.406   9.564  69.564  1.00  0.00    -0.217 C  
HETATM   13  O   UNL     1      -9.384  10.236  69.683  1.00  0.00    -0.205 OA 
BRANCH  12  14
HETATM   14  C   UNL     1     -10.388   8.031  69.501  1.00  0.00    -0.221 C  
BRANCH  14  15
HETATM   15  N   UNL     1     -10.364   7.404  70.820  1.00  0.00    -0.202 N  
HETATM   16  C   UNL     1     -11.535   7.076  71.471  1.00  0.00    -0.271 C  
HETATM   17  H   UNL     1      -9.467   7.206  71.265  1.00  0.00     0.000 HD 
HETATM   18  O   UNL     1     -12.637   7.418  71.048  1.00  0.00    -0.304 OA 
BRANCH  16  19
HETATM   19  C   UNL     1     -11.348   6.338  72.786  1.00  0.00    -0.201 C  
BRANCH  19  20
HETATM   20  S   UNL     1      -9.679   5.670  72.956  1.00  0.00    -0.155 SA 
BRANCH  20  21
HETATM   21  C   UNL     1      -9.920   4.058  72.297  1.00  0.00    -0.169 C  
HETATM   22  O   UNL     1     -10.730   3.283  72.799  1.00  0.00    -0.127 OA 
BRANCH  21  23
HETATM   23  C   UNL     1      -9.092   3.669  71.122  1.00  0.00    -0.177 A  
HETATM   24  C   UNL     1      -7.726   3.425  71.309  1.00  0.00    -0.051 A  
HETATM   25  C   UNL     1      -6.914   3.110  70.216  1.00  0.00    -0.034 A  
HETATM   26  C   UNL     1      -7.459   3.047  68.934  1.00  0.00    -0.048 A  
HETATM   27  C   UNL     1      -8.818   3.286  68.742  1.00  0.00    -0.165 A  
HETATM   28  C   UNL     1      -9.633   3.598  69.830  1.00  0.00    -0.238 A  
ENDBRANCH  21  23
ENDBRANCH  20  21
ENDBRANCH  19  20
ENDBRANCH  16  19
ENDBRANCH  14  15
ENDBRANCH  12  14
ENDBRANCH   9  10
ENDBRANCH   6   9
ENDBRANCH   3   5
TORSDOF 9
ENDMDL
MODEL      327
REMARK 921   NORMALIZED FREE ENERGY PREDICTED BY IDOCK:   -3.88 KCAL/MOL
REMARK 922        TOTAL FREE ENERGY PREDICTED BY IDOCK:   -6.76 KCAL/MOL
REMARK 923 INTER-LIGAND FREE ENERGY PREDICTED BY IDOCK:   -6.14 KCAL/MOL
REMARK 924 INTRA-LIGAND FREE ENERGY PREDICTED BY IDOCK:   -0.61 KCAL/MOL
REMARK 927      BINDING AFFINITY PREDICTED BY RF-SCORE:    0.00 PKD
ROOT
HETATM    1  O   UNL     1      -8.699   9.003  71.692  1.00  0.00    -0.331 OA 
HETATM    2  C   UNL     1      -8.574   8.168  72.750  1.00  0.00    -0.206 C  
HETATM    3  C   UNL     1      -8.658   6.688  72.392  1.00  0.00    -0.124 C  
HETATM    4  O   UNL     1      -8.436   8.576  73.892  1.00  0.00    -0.320 OA 
ENDROOT
BRANCH   3   5
HETATM    5  N   UNL     1      -8.857   6.463  70.964  1.00  0.00    -0.139 N  
HETATM    6  C   UNL     1     -10.039   5.960  70.462  1.00  0.00    -0.197 C  
HETATM    7  H   UNL     1      -8.100   6.685  70.318  1.00  0.00     0.000 HD 
HETATM    8  O   UNL     1     -10.976   5.632  71.183  1.00  0.00    -0.246 OA 
BRANCH   6   9
HETATM    9  C   UNL     1     -10.091   5.794  68.938  1.00  0.00    -0.186 C  
BRANCH   9  10
HETATM   10  N   UNL     1      -9.228   6.718  68.222  1.00  0.00    -0.124 N  
HETATM   11  H   UNL     1      -8.232   6.729  68.440  1.00  0.00     0.000 HD 
HETATM   12  C   UNL     1      -9.706   7.581  67.262  1.00  0.00    -0.167 C  
HETATM   13  O   UNL     1     -10.888   7.601  66.928  1.00  0.00    -0.328 OA 
BRANCH  12  14
HETATM   14  C   UNL     1      -8.654   8.513  66.647  1.00  0.00    -0.115 C  
BRANCH  14  15
HETATM   15  N   UNL     1      -8.789   9.899  67.086  1.00  0.00    -0.138 N  
HETATM   16  C   UNL     1      -9.691  10.750  66.481  1.00  0.00    -0.196 C  
HETATM   17  H   UNL     1      -8.209  10.243  67.852  1.00  0.00     0.000 HD 
HETATM   18  O   UNL     1     -10.309  10.435  65.467  1.00  0.00    -0.264 OA 
BRANCH  16  19
HETATM   19  C   UNL     1      -9.792  12.128  67.114  1.00  0.00    -0.197 C  
BRANCH  19  20
HETATM   20  S   UNL     1     -10.764  13.267  66.106  1.00  0.00    -0.282 SA 
BRANCH  20  21
HETATM   21  C   UNL     1     -11.165  14.483  67.310  1.00  0.00    -0.332 C  
HETATM   22  O   UNL     1     -12.024  14.273  68.163  1.00  0.00    -0.339 OA 
BRANCH  21  23
HETATM   23  C   UNL     1     -10.435  15.779  67.242  1.00  0.00    -0.308 A  
HETATM   24  C   UNL     1     -10.813  16.815  68.107  1.00  0.00    -0.353 A  
HETATM   25  C   UNL     1     -10.181  18.059  68.029  1.00  0.00    -0.390 A  
HETATM   26  C   UNL     1      -9.180  18.279  67.083  1.00  0.00    -0.264 A  
HETATM   27  C   UNL     1      -8.800  17.252  66.221  1.00  0.00    -0.250 A  
HETATM   28  C   UNL     1      -9.424  16.007  66.297  1.00  0.00    -0.347 A  
ENDBRANCH  21  23
ENDBRANCH  20  21
ENDBRANCH  19  20
ENDBRANCH  16  19
ENDBRANCH  14  15
ENDBRANCH  12  14
ENDBRANCH   9  10
ENDBRANCH   6   9
ENDBRANCH   3   5
TORSDOF 9
ENDMDL
MODEL      328
REMARK 921   NORMALIZED FREE ENERGY PREDICTED BY IDOCK:   -3.85 KCAL/MOL
REMARK 922        TOTAL FREE ENERGY PREDICTED BY IDOCK:   -6.71 KCAL/MOL
REMARK 923 INTER-LIGAND FREE ENERGY PREDICTED BY IDOCK:   -6.14 KCAL/MOL
REMARK 924 INTRA-LIGAND FREE ENERGY PREDICTED BY IDOCK:   -0.57 KCAL/MOL
REMARK 927      BINDING AFFINITY PREDICTED BY RF-SCORE:    0.00 PKD
ROOT
HETATM    1  O   UNL     1      -9.793  17.694  68.464  1.00  0.00    -0.309 OA 
HETATM    2  C   UNL     1      -9.732  18.273  67.241  1.00  0.00    -0.297 C  
HETATM    3  C   UNL     1     -10.336  17.434  66.121  1.00  0.00    -0.327 C  
HETATM    4  O   UNL     1      -9.208  19.360  67.060  1.00  0.00    -0.300 OA 
ENDROOT
BRANCH   3   5
HETATM    5  N   UNL     1     -10.867  16.160  66.593  1.00  0.00    -0.217 N  
HETATM    6  C   UNL     1     -11.290  15.177  65.724  1.00  0.00    -0.238 C  
HETATM    7  H   UNL     1     -10.929  15.991  67.598  1.00  0.00     0.000 HD 
HETATM    8  O   UNL     1     -11.284  15.326  64.506  1.00  0.00    -0.356 OA 
BRANCH   6   9
HETATM    9  C   UNL     1     -11.812  13.893  66.382  1.00  0.00    -0.411 C  
BRANCH   9  10
HETATM   10  N   UNL     1     -11.419  12.681  65.683  1.00  0.00    -0.332 N  
HETATM   11  H   UNL     1     -12.004  12.343  64.919  1.00  0.00     0.000 HD 
HETATM   12  C   UNL     1     -10.287  11.972  66.015  1.00  0.00    -0.238 C  
HETATM   13  O   UNL     1      -9.521  12.338  66.902  1.00  0.00    -0.204 OA 
BRANCH  12  14
HETATM   14  C   UNL     1     -10.059  10.694  65.195  1.00  0.00    -0.307 C  
BRANCH  14  15
HETATM   15  N   UNL     1     -10.451   9.481  65.906  1.00  0.00    -0.079 N  
HETATM   16  C   UNL     1      -9.551   8.805  66.705  1.00  0.00    -0.220 C  
HETATM   17  H   UNL     1     -11.404   9.128  65.811  1.00  0.00     0.000 HD 
HETATM   18  O   UNL     1      -8.359   9.101  66.743  1.00  0.00    -0.120 OA 
BRANCH  16  19
HETATM   19  C   UNL     1     -10.133   7.621  67.460  1.00  0.00    -0.202 C  
BRANCH  19  20
HETATM   20  S   UNL     1      -9.718   7.669  69.216  1.00  0.00    -0.166 SA 
BRANCH  20  21
HETATM   21  C   UNL     1     -10.541   6.217  69.770  1.00  0.00    -0.264 C  
HETATM   22  O   UNL     1     -11.140   5.489  68.983  1.00  0.00    -0.115 OA 
BRANCH  21  23
HETATM   23  C   UNL     1     -10.496   5.920  71.228  1.00  0.00    -0.289 A  
HETATM   24  C   UNL     1      -9.982   4.688  71.652  1.00  0.00    -0.262 A  
HETATM   25  C   UNL     1      -9.976   4.361  73.011  1.00  0.00    -0.195 A  
HETATM   26  C   UNL     1     -10.492   5.254  73.949  1.00  0.00    -0.317 A  
HETATM   27  C   UNL     1     -11.003   6.482  73.533  1.00  0.00    -0.104 A  
HETATM   28  C   UNL     1     -11.008   6.815  72.179  1.00  0.00    -0.270 A  
ENDBRANCH  21  23
ENDBRANCH  20  21
ENDBRANCH  19  20
ENDBRANCH  16  19
ENDBRANCH  14  15
ENDBRANCH  12  14
ENDBRANCH   9  10
ENDBRANCH   6   9
ENDBRANCH   3   5
TORSDOF 9
ENDMDL
MODEL      329
REMARK 921   NORMALIZED FREE ENERGY PREDICTED BY IDOCK:   -3.84 KCAL/MOL
REMARK 922        TOTAL FREE ENERGY PREDICTED BY IDOCK:   -6.70 KCAL/MOL
REMARK 923 INTER-LIGAND FREE ENERGY PREDICTED BY IDOCK:   -5.91 KCAL/MOL
REMARK 924 INTRA-LIGAND FREE ENERGY PREDICTED BY IDOCK:   -0.79 KCAL/MOL
REMARK 927      BINDING AFFINITY PREDICTED BY RF-SCORE:    0.00 PKD
ROOT
HETATM    1  O   UNL     1     -12.900  12.545  71.346  1.00  0.00    -0.366 OA 
HETATM    2  C   UNL     1     -13.106  13.871  71.529  1.00  0.00    -0.365 C  
HETATM    3  C   UNL     1     -12.126  14.765  70.776  1.00  0.00    -0.309 C  
HETATM    4  O   UNL     1     -13.984  14.301  72.259  1.00  0.00    -0.461 OA 
ENDROOT
BRANCH   3   5
HETATM    5  N   UNL     1     -11.152  14.006  69.999  1.00  0.00    -0.473 N  
HETATM    6  C   UNL     1     -11.152  14.013  68.620  1.00  0.00    -0.264 C  
HETATM    7  H   UNL     1     -10.449  13.454  70.490  1.00  0.00     0.000 HD 
HETATM    8  O   UNL     1     -11.992  14.620  67.963  1.00  0.00    -0.326 OA 
BRANCH   6   9
HETATM    9  C   UNL     1     -10.055  13.172  67.955  1.00  0.00    -0.232 C  
BRANCH   9  10
HETATM   10  N   UNL     1      -9.453  12.194  68.844  1.00  0.00    -0.406 N  
HETATM   11  H   UNL     1      -9.411  12.397  69.842  1.00  0.00     0.000 HD 
HETATM   12  C   UNL     1      -8.937  11.001  68.388  1.00  0.00    -0.158 C  
HETATM   13  O   UNL     1      -8.982  10.678  67.204  1.00  0.00    -0.137 OA 
BRANCH  12  14
HETATM   14  C   UNL     1      -8.304  10.114  69.468  1.00  0.00    -0.168 C  
BRANCH  14  15
HETATM   15  N   UNL     1      -9.125   8.958  69.813  1.00  0.00    -0.145 N  
HETATM   16  C   UNL     1     -10.336   9.114  70.457  1.00  0.00    -0.235 C  
HETATM   17  H   UNL     1      -8.799   8.020  69.575  1.00  0.00     0.000 HD 
HETATM   18  O   UNL     1     -10.709  10.200  70.893  1.00  0.00    -0.249 OA 
BRANCH  16  19
HETATM   19  C   UNL     1     -11.122   7.829  70.656  1.00  0.00    -0.256 C  
BRANCH  19  20
HETATM   20  S   UNL     1     -10.353   6.428  69.817  1.00  0.00    -0.217 SA 
BRANCH  20  21
HETATM   21  C   UNL     1     -10.282   5.273  71.141  1.00  0.00    -0.224 C  
HETATM   22  O   UNL     1     -11.043   5.362  72.101  1.00  0.00    -0.231 OA 
BRANCH  21  23
HETATM   23  C   UNL     1      -9.254   4.200  71.057  1.00  0.00    -0.202 A  
HETATM   24  C   UNL     1      -9.479   3.113  70.202  1.00  0.00    -0.218 A  
HETATM   25  C   UNL     1      -8.556   2.065  70.143  1.00  0.00    -0.097 A  
HETATM   26  C   UNL     1      -7.413   2.092  70.942  1.00  0.00    -0.033 A  
HETATM   27  C   UNL     1      -7.184   3.171  71.792  1.00  0.00    -0.039 A  
HETATM   28  C   UNL     1      -8.099   4.221  71.853  1.00  0.00    -0.093 A  
ENDBRANCH  21  23
ENDBRANCH  20  21
ENDBRANCH  19  20
ENDBRANCH  16  19
ENDBRANCH  14  15
ENDBRANCH  12  14
ENDBRANCH   9  10
ENDBRANCH   6   9
ENDBRANCH   3   5
TORSDOF 9
ENDMDL
MODEL      330
REMARK 921   NORMALIZED FREE ENERGY PREDICTED BY IDOCK:   -3.84 KCAL/MOL
REMARK 922        TOTAL FREE ENERGY PREDICTED BY IDOCK:   -6.70 KCAL/MOL
REMARK 923 INTER-LIGAND FREE ENERGY PREDICTED BY IDOCK:   -6.01 KCAL/MOL
REMARK 924 INTRA-LIGAND FREE ENERGY PREDICTED BY IDOCK:   -0.69 KCAL/MOL
REMARK 927      BINDING AFFINITY PREDICTED BY RF-SCORE:    0.00 PKD
ROOT
HETATM    1  O   UNL     1     -11.003  15.613  65.012  1.00  0.00    -0.406 OA 
HETATM    2  C   UNL     1     -10.269  16.313  65.909  1.00  0.00    -0.364 C  
HETATM    3  C   UNL     1     -10.462  15.872  67.356  1.00  0.00    -0.306 C  
HETATM    4  O   UNL     1      -9.543  17.236  65.580  1.00  0.00    -0.464 OA 
ENDROOT
BRANCH   3   5
HETATM    5  N   UNL     1     -11.409  14.769  67.488  1.00  0.00    -0.332 N  
HETATM    6  C   UNL     1     -11.037  13.545  68.002  1.00  0.00    -0.258 C  
HETATM    7  H   UNL     1     -12.375  14.908  67.192  1.00  0.00     0.000 HD 
HETATM    8  O   UNL     1      -9.884  13.293  68.340  1.00  0.00    -0.234 OA 
BRANCH   6   9
HETATM    9  C   UNL     1     -12.154  12.496  68.085  1.00  0.00    -0.067 C  
BRANCH   9  10
HETATM   10  N   UNL     1     -11.890  11.440  69.047  1.00  0.00    -0.331 N  
HETATM   11  H   UNL     1     -11.428  10.589  68.728  1.00  0.00     0.000 HD 
HETATM   12  C   UNL     1     -12.240  11.546  70.374  1.00  0.00    -0.355 C  
HETATM   13  O   UNL     1     -12.769  12.555  70.834  1.00  0.00    -0.285 OA 
BRANCH  12  14
HETATM   14  C   UNL     1     -11.921  10.313  71.229  1.00  0.00    -0.363 C  
BRANCH  14  15
HETATM   15  N   UNL     1     -11.455   9.175  70.441  1.00  0.00    -0.385 N  
HETATM   16  C   UNL     1     -10.237   8.581  70.703  1.00  0.00    -0.197 C  
HETATM   17  H   UNL     1     -12.039   8.814  69.685  1.00  0.00     0.000 HD 
HETATM   18  O   UNL     1      -9.435   9.059  71.501  1.00  0.00    -0.272 OA 
BRANCH  16  19
HETATM   19  C   UNL     1      -9.937   7.347  69.869  1.00  0.00    -0.188 C  
BRANCH  19  20
HETATM   20  S   UNL     1      -8.169   6.985  69.807  1.00  0.00    -0.132 SA 
BRANCH  20  21
HETATM   21  C   UNL     1      -8.082   5.666  70.967  1.00  0.00    -0.119 C  
HETATM   22  O   UNL     1      -7.717   5.861  72.123  1.00  0.00    -0.099 OA 
BRANCH  21  23
HETATM   23  C   UNL     1      -8.450   4.306  70.484  1.00  0.00    -0.100 A  
HETATM   24  C   UNL     1      -8.509   4.072  69.104  1.00  0.00    -0.100 A  
HETATM   25  C   UNL     1      -8.903   2.820  68.622  1.00  0.00    -0.158 A  
HETATM   26  C   UNL     1      -9.248   1.804  69.512  1.00  0.00    -0.171 A  
HETATM   27  C   UNL     1      -9.189   2.030  70.885  1.00  0.00    -0.183 A  
HETATM   28  C   UNL     1      -8.793   3.276  71.372  1.00  0.00    -0.136 A  
ENDBRANCH  21  23
ENDBRANCH  20  21
ENDBRANCH  19  20
ENDBRANCH  16  19
ENDBRANCH  14  15
ENDBRANCH  12  14
ENDBRANCH   9  10
ENDBRANCH   6   9
ENDBRANCH   3   5
TORSDOF 9
ENDMDL
MODEL      331
REMARK 921   NORMALIZED FREE ENERGY PREDICTED BY IDOCK:   -3.83 KCAL/MOL
REMARK 922        TOTAL FREE ENERGY PREDICTED BY IDOCK:   -6.69 KCAL/MOL
REMARK 923 INTER-LIGAND FREE ENERGY PREDICTED BY IDOCK:   -6.13 KCAL/MOL
REMARK 924 INTRA-LIGAND FREE ENERGY PREDICTED BY IDOCK:   -0.56 KCAL/MOL
REMARK 927      BINDING AFFINITY PREDICTED BY RF-SCORE:    0.00 PKD
ROOT
HETATM    1  O   UNL     1     -11.000   5.531  70.955  1.00  0.00    -0.222 OA 
HETATM    2  C   UNL     1     -10.024   4.612  71.150  1.00  0.00    -0.195 C  
HETATM    3  C   UNL     1      -9.336   4.151  69.870  1.00  0.00    -0.165 C  
HETATM    4  O   UNL     1      -9.749   4.176  72.256  1.00  0.00    -0.140 OA 
ENDROOT
BRANCH   3   5
HETATM    5  N   UNL     1      -9.870   4.798  68.677  1.00  0.00    -0.157 N  
HETATM    6  C   UNL     1      -9.769   4.225  67.427  1.00  0.00    -0.163 C  
HETATM    7  H   UNL     1     -10.332   5.704  68.769  1.00  0.00     0.000 HD 
HETATM    8  O   UNL     1      -9.191   3.160  67.234  1.00  0.00    -0.168 OA 
BRANCH   6   9
HETATM    9  C   UNL     1     -10.391   5.030  66.278  1.00  0.00    -0.291 C  
BRANCH   9  10
HETATM   10  N   UNL     1      -9.833   6.363  66.133  1.00  0.00    -0.395 N  
HETATM   11  H   UNL     1     -10.300   7.144  66.593  1.00  0.00     0.000 HD 
HETATM   12  C   UNL     1      -8.696   6.611  65.398  1.00  0.00     0.007 C  
HETATM   13  O   UNL     1      -8.066   5.715  64.843  1.00  0.00    -0.114 OA 
BRANCH  12  14
HETATM   14  C   UNL     1      -8.282   8.087  65.322  1.00  0.00    -0.146 C  
BRANCH  14  15
HETATM   15  N   UNL     1      -9.417   8.992  65.162  1.00  0.00    -0.449 N  
HETATM   16  C   UNL     1      -9.353  10.063  64.294  1.00  0.00    -0.288 C  
HETATM   17  H   UNL     1     -10.269   8.830  65.699  1.00  0.00     0.000 HD 
HETATM   18  O   UNL     1      -8.310  10.388  63.732  1.00  0.00    -0.171 OA 
BRANCH  16  19
HETATM   19  C   UNL     1     -10.645  10.852  64.158  1.00  0.00    -0.257 C  
BRANCH  19  20
HETATM   20  S   UNL     1     -10.340  12.587  63.762  1.00  0.00    -0.302 SA 
BRANCH  20  21
HETATM   21  C   UNL     1     -11.052  13.357  65.173  1.00  0.00    -0.301 C  
HETATM   22  O   UNL     1     -12.116  12.962  65.642  1.00  0.00    -0.414 OA 
BRANCH  21  23
HETATM   23  C   UNL     1     -10.322  14.514  65.762  1.00  0.00    -0.347 A  
HETATM   24  C   UNL     1      -9.296  14.268  66.683  1.00  0.00    -0.302 A  
HETATM   25  C   UNL     1      -8.630  15.336  67.291  1.00  0.00    -0.210 A  
HETATM   26  C   UNL     1      -8.990  16.649  66.991  1.00  0.00    -0.227 A  
HETATM   27  C   UNL     1     -10.008  16.899  66.073  1.00  0.00    -0.313 A  
HETATM   28  C   UNL     1     -10.674  15.838  65.461  1.00  0.00    -0.397 A  
ENDBRANCH  21  23
ENDBRANCH  20  21
ENDBRANCH  19  20
ENDBRANCH  16  19
ENDBRANCH  14  15
ENDBRANCH  12  14
ENDBRANCH   9  10
ENDBRANCH   6   9
ENDBRANCH   3   5
TORSDOF 9
ENDMDL
MODEL      332
REMARK 921   NORMALIZED FREE ENERGY PREDICTED BY IDOCK:   -3.82 KCAL/MOL
REMARK 922        TOTAL FREE ENERGY PREDICTED BY IDOCK:   -6.67 KCAL/MOL
REMARK 923 INTER-LIGAND FREE ENERGY PREDICTED BY IDOCK:   -6.02 KCAL/MOL
REMARK 924 INTRA-LIGAND FREE ENERGY PREDICTED BY IDOCK:   -0.65 KCAL/MOL
REMARK 927      BINDING AFFINITY PREDICTED BY RF-SCORE:    0.00 PKD
ROOT
HETATM    1  O   UNL     1      -8.674   8.905  71.878  1.00  0.00    -0.343 OA 
HETATM    2  C   UNL     1      -8.591   8.171  73.013  1.00  0.00    -0.219 C  
HETATM    3  C   UNL     1      -8.789   6.674  72.805  1.00  0.00    -0.122 C  
HETATM    4  O   UNL     1      -8.404   8.679  74.107  1.00  0.00    -0.297 OA 
ENDROOT
BRANCH   3   5
HETATM    5  N   UNL     1      -9.029   6.324  71.409  1.00  0.00    -0.139 N  
HETATM    6  C   UNL     1     -10.280   5.972  70.948  1.00  0.00    -0.206 C  
HETATM    7  H   UNL     1      -8.247   6.340  70.753  1.00  0.00     0.000 HD 
HETATM    8  O   UNL     1     -11.256   5.891  71.687  1.00  0.00    -0.272 OA 
BRANCH   6   9
HETATM    9  C   UNL     1     -10.365   5.645  69.452  1.00  0.00    -0.273 C  
BRANCH   9  10
HETATM   10  N   UNL     1      -9.528   6.495  68.622  1.00  0.00    -0.124 N  
HETATM   11  H   UNL     1      -8.572   6.684  68.920  1.00  0.00     0.000 HD 
HETATM   12  C   UNL     1      -9.979   7.055  67.448  1.00  0.00    -0.167 C  
HETATM   13  O   UNL     1     -11.108   6.844  67.013  1.00  0.00    -0.389 OA 
BRANCH  12  14
HETATM   14  C   UNL     1      -8.968   7.959  66.731  1.00  0.00    -0.145 C  
BRANCH  14  15
HETATM   15  N   UNL     1      -9.372   9.361  66.704  1.00  0.00    -0.154 N  
HETATM   16  C   UNL     1      -9.579  10.017  65.507  1.00  0.00    -0.266 C  
HETATM   17  H   UNL     1      -9.504   9.863  67.583  1.00  0.00     0.000 HD 
HETATM   18  O   UNL     1      -9.299   9.508  64.425  1.00  0.00    -0.216 OA 
BRANCH  16  19
HETATM   19  C   UNL     1     -10.096  11.440  65.641  1.00  0.00    -0.248 C  
BRANCH  19  20
HETATM   20  S   UNL     1      -9.434  12.266  67.105  1.00  0.00    -0.201 SA 
BRANCH  20  21
HETATM   21  C   UNL     1     -10.158  13.856  66.918  1.00  0.00    -0.260 C  
HETATM   22  O   UNL     1     -10.294  14.365  65.809  1.00  0.00    -0.295 OA 
BRANCH  21  23
HETATM   23  C   UNL     1     -10.581  14.564  68.158  1.00  0.00    -0.238 A  
HETATM   24  C   UNL     1      -9.711  15.501  68.732  1.00  0.00    -0.213 A  
HETATM   25  C   UNL     1     -10.059  16.142  69.925  1.00  0.00    -0.074 A  
HETATM   26  C   UNL     1     -11.267  15.844  70.553  1.00  0.00    -0.395 A  
HETATM   27  C   UNL     1     -12.137  14.915  69.986  1.00  0.00    -0.387 A  
HETATM   28  C   UNL     1     -11.797  14.275  68.794  1.00  0.00    -0.377 A  
ENDBRANCH  21  23
ENDBRANCH  20  21
ENDBRANCH  19  20
ENDBRANCH  16  19
ENDBRANCH  14  15
ENDBRANCH  12  14
ENDBRANCH   9  10
ENDBRANCH   6   9
ENDBRANCH   3   5
TORSDOF 9
ENDMDL
MODEL      333
REMARK 921   NORMALIZED FREE ENERGY PREDICTED BY IDOCK:   -3.81 KCAL/MOL
REMARK 922        TOTAL FREE ENERGY PREDICTED BY IDOCK:   -6.66 KCAL/MOL
REMARK 923 INTER-LIGAND FREE ENERGY PREDICTED BY IDOCK:   -5.75 KCAL/MOL
REMARK 924 INTRA-LIGAND FREE ENERGY PREDICTED BY IDOCK:   -0.91 KCAL/MOL
REMARK 927      BINDING AFFINITY PREDICTED BY RF-SCORE:    0.00 PKD
ROOT
HETATM    1  O   UNL     1     -11.506  13.581  66.189  1.00  0.00    -0.311 OA 
HETATM    2  C   UNL     1     -12.453  13.250  65.278  1.00  0.00    -0.489 C  
HETATM    3  C   UNL     1     -12.156  11.969  64.506  1.00  0.00    -0.255 C  
HETATM    4  O   UNL     1     -13.439  13.941  65.081  1.00  0.00    -0.515 OA 
ENDROOT
BRANCH   3   5
HETATM    5  N   UNL     1     -10.899  11.347  64.906  1.00  0.00    -0.284 N  
HETATM    6  C   UNL     1      -9.994  10.868  63.981  1.00  0.00    -0.344 C  
HETATM    7  H   UNL     1     -10.682  11.263  65.899  1.00  0.00     0.000 HD 
HETATM    8  O   UNL     1     -10.206  10.897  62.773  1.00  0.00    -0.171 OA 
BRANCH   6   9
HETATM    9  C   UNL     1      -8.716  10.253  64.566  1.00  0.00    -0.192 C  
BRANCH   9  10
HETATM   10  N   UNL     1      -8.790   8.812  64.737  1.00  0.00    -0.396 N  
HETATM   11  H   UNL     1      -9.695   8.387  64.934  1.00  0.00     0.000 HD 
HETATM   12  C   UNL     1      -7.682   8.000  64.644  1.00  0.00    -0.126 C  
HETATM   13  O   UNL     1      -6.567   8.440  64.378  1.00  0.00    -0.066 OA 
BRANCH  12  14
HETATM   14  C   UNL     1      -7.948   6.510  64.898  1.00  0.00    -0.124 C  
BRANCH  14  15
HETATM   15  N   UNL     1      -8.039   6.179  66.317  1.00  0.00    -0.109 N  
HETATM   16  C   UNL     1      -9.265   6.067  66.942  1.00  0.00    -0.126 C  
HETATM   17  H   UNL     1      -7.185   6.028  66.854  1.00  0.00     0.000 HD 
HETATM   18  O   UNL     1     -10.314   6.375  66.383  1.00  0.00    -0.106 OA 
BRANCH  16  19
HETATM   19  C   UNL     1      -9.202   5.617  68.392  1.00  0.00    -0.118 C  
BRANCH  19  20
HETATM   20  S   UNL     1     -10.825   5.651  69.182  1.00  0.00    -0.102 SA 
BRANCH  20  21
HETATM   21  C   UNL     1     -10.797   7.265  69.878  1.00  0.00    -0.247 C  
HETATM   22  O   UNL     1     -11.118   8.248  69.214  1.00  0.00    -0.031 OA 
BRANCH  21  23
HETATM   23  C   UNL     1     -10.354   7.392  71.294  1.00  0.00    -0.203 A  
HETATM   24  C   UNL     1      -9.146   8.046  71.569  1.00  0.00    -0.182 A  
HETATM   25  C   UNL     1      -8.679   8.133  72.883  1.00  0.00    -0.290 A  
HETATM   26  C   UNL     1      -9.408   7.560  73.925  1.00  0.00    -0.301 A  
HETATM   27  C   UNL     1     -10.611   6.910  73.658  1.00  0.00    -0.371 A  
HETATM   28  C   UNL     1     -11.084   6.823  72.348  1.00  0.00    -0.292 A  
ENDBRANCH  21  23
ENDBRANCH  20  21
ENDBRANCH  19  20
ENDBRANCH  16  19
ENDBRANCH  14  15
ENDBRANCH  12  14
ENDBRANCH   9  10
ENDBRANCH   6   9
ENDBRANCH   3   5
TORSDOF 9
ENDMDL
MODEL      334
REMARK 921   NORMALIZED FREE ENERGY PREDICTED BY IDOCK:   -3.80 KCAL/MOL
REMARK 922        TOTAL FREE ENERGY PREDICTED BY IDOCK:   -6.64 KCAL/MOL
REMARK 923 INTER-LIGAND FREE ENERGY PREDICTED BY IDOCK:   -5.75 KCAL/MOL
REMARK 924 INTRA-LIGAND FREE ENERGY PREDICTED BY IDOCK:   -0.89 KCAL/MOL
REMARK 927      BINDING AFFINITY PREDICTED BY RF-SCORE:    0.00 PKD
ROOT
HETATM    1  O   UNL     1     -12.095  14.020  66.147  1.00  0.00    -0.402 OA 
HETATM    2  C   UNL     1     -10.973  14.678  66.527  1.00  0.00    -0.318 C  
HETATM    3  C   UNL     1      -9.676  13.995  66.107  1.00  0.00    -0.280 C  
HETATM    4  O   UNL     1     -11.010  15.711  67.175  1.00  0.00    -0.319 OA 
ENDROOT
BRANCH   3   5
HETATM    5  N   UNL     1      -9.902  12.757  65.371  1.00  0.00    -0.443 N  
HETATM    6  C   UNL     1      -9.760  11.519  65.962  1.00  0.00    -0.226 C  
HETATM    7  H   UNL     1     -10.173  12.807  64.388  1.00  0.00     0.000 HD 
HETATM    8  O   UNL     1      -9.396  11.381  67.125  1.00  0.00    -0.169 OA 
BRANCH   6   9
HETATM    9  C   UNL     1     -10.045  10.316  65.053  1.00  0.00    -0.283 C  
BRANCH   9  10
HETATM   10  N   UNL     1      -9.514   9.064  65.562  1.00  0.00    -0.424 N  
HETATM   11  H   UNL     1      -9.940   8.650  66.390  1.00  0.00     0.000 HD 
HETATM   12  C   UNL     1      -8.456   8.415  64.966  1.00  0.00    -0.141 C  
HETATM   13  O   UNL     1      -7.915   8.839  63.948  1.00  0.00    -0.141 OA 
BRANCH  12  14
HETATM   14  C   UNL     1      -8.005   7.128  65.671  1.00  0.00    -0.126 C  
BRANCH  14  15
HETATM   15  N   UNL     1      -8.349   7.102  67.090  1.00  0.00    -0.117 N  
HETATM   16  C   UNL     1      -7.498   7.636  68.036  1.00  0.00    -0.104 C  
HETATM   17  H   UNL     1      -9.231   6.683  67.386  1.00  0.00     0.000 HD 
HETATM   18  O   UNL     1      -6.367   8.023  67.754  1.00  0.00    -0.050 OA 
BRANCH  16  19
HETATM   19  C   UNL     1      -8.039   7.629  69.456  1.00  0.00    -0.127 C  
BRANCH  19  20
HETATM   20  S   UNL     1      -7.793   6.033  70.265  1.00  0.00    -0.103 SA 
BRANCH  20  21
HETATM   21  C   UNL     1      -9.412   5.363  70.128  1.00  0.00    -0.161 C  
HETATM   22  O   UNL     1     -10.011   5.365  69.056  1.00  0.00    -0.159 OA 
BRANCH  21  23
HETATM   23  C   UNL     1     -10.030   4.811  71.365  1.00  0.00    -0.267 A  
HETATM   24  C   UNL     1      -9.751   3.486  71.728  1.00  0.00    -0.235 A  
HETATM   25  C   UNL     1     -10.359   2.925  72.854  1.00  0.00    -0.240 A  
HETATM   26  C   UNL     1     -11.252   3.677  73.616  1.00  0.00    -0.278 A  
HETATM   27  C   UNL     1     -11.532   4.995  73.262  1.00  0.00    -0.339 A  
HETATM   28  C   UNL     1     -10.926   5.562  72.140  1.00  0.00    -0.291 A  
ENDBRANCH  21  23
ENDBRANCH  20  21
ENDBRANCH  19  20
ENDBRANCH  16  19
ENDBRANCH  14  15
ENDBRANCH  12  14
ENDBRANCH   9  10
ENDBRANCH   6   9
ENDBRANCH   3   5
TORSDOF 9
ENDMDL
MODEL      335
REMARK 921   NORMALIZED FREE ENERGY PREDICTED BY IDOCK:   -3.80 KCAL/MOL
REMARK 922        TOTAL FREE ENERGY PREDICTED BY IDOCK:   -6.64 KCAL/MOL
REMARK 923 INTER-LIGAND FREE ENERGY PREDICTED BY IDOCK:   -6.59 KCAL/MOL
REMARK 924 INTRA-LIGAND FREE ENERGY PREDICTED BY IDOCK:   -0.05 KCAL/MOL
REMARK 927      BINDING AFFINITY PREDICTED BY RF-SCORE:    0.00 PKD
ROOT
HETATM    1  O   UNL     1     -10.540  14.927  64.846  1.00  0.00    -0.414 OA 
HETATM    2  C   UNL     1     -11.292  16.021  64.578  1.00  0.00    -0.295 C  
HETATM    3  C   UNL     1     -10.901  17.260  65.377  1.00  0.00    -0.021 C  
HETATM    4  O   UNL     1     -12.218  15.998  63.784  1.00  0.00    -0.895 OA 
ENDROOT
BRANCH   3   5
HETATM    5  N   UNL     1      -9.782  17.019  66.281  1.00  0.00    -0.284 N  
HETATM    6  C   UNL     1      -9.067  18.051  66.850  1.00  0.00    -0.269 C  
HETATM    7  H   UNL     1      -9.520  16.057  66.499  1.00  0.00     0.000 HD 
HETATM    8  O   UNL     1      -9.298  19.230  66.601  1.00  0.00    -0.311 OA 
BRANCH   6   9
HETATM    9  C   UNL     1      -7.928  17.628  67.787  1.00  0.00    -0.218 C  
BRANCH   9  10
HETATM   10  N   UNL     1      -7.436  16.285  67.535  1.00  0.00    -0.136 N  
HETATM   11  H   UNL     1      -7.588  15.870  66.616  1.00  0.00     0.000 HD 
HETATM   12  C   UNL     1      -6.773  15.550  68.492  1.00  0.00    -0.113 C  
HETATM   13  O   UNL     1      -6.528  15.997  69.609  1.00  0.00    -0.184 OA 
BRANCH  12  14
HETATM   14  C   UNL     1      -6.368  14.135  68.056  1.00  0.00    -0.149 C  
BRANCH  14  15
HETATM   15  N   UNL     1      -7.404  13.455  67.284  1.00  0.00    -0.350 N  
HETATM   16  C   UNL     1      -8.702  13.382  67.748  1.00  0.00    -0.197 C  
HETATM   17  H   UNL     1      -7.166  13.028  66.388  1.00  0.00     0.000 HD 
HETATM   18  O   UNL     1      -9.014  13.751  68.878  1.00  0.00    -0.022 OA 
BRANCH  16  19
HETATM   19  C   UNL     1      -9.687  12.736  66.789  1.00  0.00    -0.243 C  
BRANCH  19  20
HETATM   20  S   UNL     1      -9.439  10.951  66.664  1.00  0.00    -0.183 SA 
BRANCH  20  21
HETATM   21  C   UNL     1      -8.944  10.591  68.312  1.00  0.00    -0.139 C  
HETATM   22  O   UNL     1      -7.759  10.456  68.604  1.00  0.00    -0.091 OA 
BRANCH  21  23
HETATM   23  C   UNL     1     -10.020  10.439  69.330  1.00  0.00    -0.240 A  
HETATM   24  C   UNL     1      -9.751   9.708  70.495  1.00  0.00    -0.280 A  
HETATM   25  C   UNL     1     -10.757   9.504  71.443  1.00  0.00    -0.348 A  
HETATM   26  C   UNL     1     -12.036  10.018  71.229  1.00  0.00    -0.483 A  
HETATM   27  C   UNL     1     -12.309  10.747  70.074  1.00  0.00    -0.371 A  
HETATM   28  C   UNL     1     -11.307  10.957  69.126  1.00  0.00    -0.350 A  
ENDBRANCH  21  23
ENDBRANCH  20  21
ENDBRANCH  19  20
ENDBRANCH  16  19
ENDBRANCH  14  15
ENDBRANCH  12  14
ENDBRANCH   9  10
ENDBRANCH   6   9
ENDBRANCH   3   5
TORSDOF 9
ENDMDL
MODEL      336
REMARK 921   NORMALIZED FREE ENERGY PREDICTED BY IDOCK:   -3.80 KCAL/MOL
REMARK 922        TOTAL FREE ENERGY PREDICTED BY IDOCK:   -6.63 KCAL/MOL
REMARK 923 INTER-LIGAND FREE ENERGY PREDICTED BY IDOCK:   -5.86 KCAL/MOL
REMARK 924 INTRA-LIGAND FREE ENERGY PREDICTED BY IDOCK:   -0.77 KCAL/MOL
REMARK 927      BINDING AFFINITY PREDICTED BY RF-SCORE:    0.00 PKD
ROOT
HETATM    1  O   UNL     1     -10.404   8.710  66.482  1.00  0.00    -0.282 OA 
HETATM    2  C   UNL     1      -9.443   9.449  65.877  1.00  0.00    -0.251 C  
HETATM    3  C   UNL     1      -8.471   8.637  65.029  1.00  0.00    -0.173 C  
HETATM    4  O   UNL     1      -9.356  10.656  66.030  1.00  0.00    -0.174 OA 
ENDROOT
BRANCH   3   5
HETATM    5  N   UNL     1      -8.772   7.209  65.035  1.00  0.00    -0.358 N  
HETATM    6  C   UNL     1      -8.205   6.346  65.949  1.00  0.00    -0.130 C  
HETATM    7  H   UNL     1      -9.422   6.837  64.342  1.00  0.00     0.000 HD 
HETATM    8  O   UNL     1      -7.384   6.715  66.783  1.00  0.00    -0.075 OA 
BRANCH   6   9
HETATM    9  C   UNL     1      -8.635   4.879  65.828  1.00  0.00    -0.128 C  
BRANCH   9  10
HETATM   10  N   UNL     1      -9.266   4.357  67.028  1.00  0.00    -0.131 N  
HETATM   11  H   UNL     1     -10.271   4.482  67.149  1.00  0.00     0.000 HD 
HETATM   12  C   UNL     1      -8.557   3.700  68.008  1.00  0.00    -0.098 C  
HETATM   13  O   UNL     1      -7.351   3.487  67.914  1.00  0.00    -0.057 OA 
BRANCH  12  14
HETATM   14  C   UNL     1      -9.386   3.259  69.222  1.00  0.00    -0.163 C  
BRANCH  14  15
HETATM   15  N   UNL     1      -9.321   4.205  70.333  1.00  0.00    -0.137 N  
HETATM   16  C   UNL     1     -10.228   5.239  70.438  1.00  0.00    -0.268 C  
HETATM   17  H   UNL     1      -8.594   4.099  71.041  1.00  0.00     0.000 HD 
HETATM   18  O   UNL     1     -11.030   5.499  69.544  1.00  0.00    -0.288 OA 
BRANCH  16  19
HETATM   19  C   UNL     1     -10.098   6.076  71.699  1.00  0.00    -0.190 C  
BRANCH  19  20
HETATM   20  S   UNL     1      -8.804   7.327  71.551  1.00  0.00    -0.121 SA 
BRANCH  20  21
HETATM   21  C   UNL     1      -9.487   8.331  70.280  1.00  0.00    -0.164 C  
HETATM   22  O   UNL     1      -9.025   8.315  69.142  1.00  0.00    -0.146 OA 
BRANCH  21  23
HETATM   23  C   UNL     1     -10.633   9.210  70.644  1.00  0.00    -0.305 A  
HETATM   24  C   UNL     1     -11.455   8.839  71.716  1.00  0.00    -0.413 A  
HETATM   25  C   UNL     1     -12.569   9.616  72.047  1.00  0.00    -0.443 A  
HETATM   26  C   UNL     1     -12.871  10.759  71.306  1.00  0.00    -0.540 A  
HETATM   27  C   UNL     1     -12.055  11.133  70.241  1.00  0.00    -0.462 A  
HETATM   28  C   UNL     1     -10.941  10.363  69.908  1.00  0.00    -0.364 A  
ENDBRANCH  21  23
ENDBRANCH  20  21
ENDBRANCH  19  20
ENDBRANCH  16  19
ENDBRANCH  14  15
ENDBRANCH  12  14
ENDBRANCH   9  10
ENDBRANCH   6   9
ENDBRANCH   3   5
TORSDOF 9
ENDMDL
MODEL      337
REMARK 921   NORMALIZED FREE ENERGY PREDICTED BY IDOCK:   -3.78 KCAL/MOL
REMARK 922        TOTAL FREE ENERGY PREDICTED BY IDOCK:   -6.61 KCAL/MOL
REMARK 923 INTER-LIGAND FREE ENERGY PREDICTED BY IDOCK:   -5.86 KCAL/MOL
REMARK 924 INTRA-LIGAND FREE ENERGY PREDICTED BY IDOCK:   -0.75 KCAL/MOL
REMARK 927      BINDING AFFINITY PREDICTED BY RF-SCORE:    0.00 PKD
ROOT
HETATM    1  O   UNL     1      -8.310   7.768  70.999  1.00  0.00    -0.110 OA 
HETATM    2  C   UNL     1      -7.700   6.577  70.790  1.00  0.00    -0.101 C  
HETATM    3  C   UNL     1      -7.831   6.049  69.365  1.00  0.00    -0.099 C  
HETATM    4  O   UNL     1      -7.124   5.974  71.680  1.00  0.00    -0.074 OA 
ENDROOT
BRANCH   3   5
HETATM    5  N   UNL     1      -8.595   6.941  68.500  1.00  0.00    -0.123 N  
HETATM    6  C   UNL     1      -8.721   6.715  67.146  1.00  0.00    -0.111 C  
HETATM    7  H   UNL     1      -9.049   7.759  68.909  1.00  0.00     0.000 HD 
HETATM    8  O   UNL     1      -8.169   5.777  66.579  1.00  0.00    -0.105 OA 
BRANCH   6   9
HETATM    9  C   UNL     1      -9.567   7.741  66.380  1.00  0.00    -0.165 C  
BRANCH   9  10
HETATM   10  N   UNL     1      -9.919   8.909  67.170  1.00  0.00    -0.204 N  
HETATM   11  H   UNL     1     -10.740   8.865  67.772  1.00  0.00     0.000 HD 
HETATM   12  C   UNL     1      -9.184  10.073  67.134  1.00  0.00    -0.141 C  
HETATM   13  O   UNL     1      -8.167  10.185  66.455  1.00  0.00    -0.121 OA 
BRANCH  12  14
HETATM   14  C   UNL     1      -9.734  11.213  68.001  1.00  0.00    -0.176 C  
BRANCH  14  15
HETATM   15  N   UNL     1      -9.852  12.476  67.278  1.00  0.00    -0.202 N  
HETATM   16  C   UNL     1      -9.027  13.542  67.574  1.00  0.00    -0.210 C  
HETATM   17  H   UNL     1     -10.554  12.572  66.544  1.00  0.00     0.000 HD 
HETATM   18  O   UNL     1      -8.265  13.532  68.538  1.00  0.00    -0.152 OA 
BRANCH  16  19
HETATM   19  C   UNL     1      -9.199  14.751  66.670  1.00  0.00    -0.275 C  
BRANCH  19  20
HETATM   20  S   UNL     1     -10.300  15.986  67.392  1.00  0.00    -0.299 SA 
BRANCH  20  21
HETATM   21  C   UNL     1     -11.617  14.952  67.928  1.00  0.00    -0.344 C  
HETATM   22  O   UNL     1     -12.274  14.295  67.126  1.00  0.00    -0.410 OA 
BRANCH  21  23
HETATM   23  C   UNL     1     -11.910  14.921  69.388  1.00  0.00    -0.356 A  
HETATM   24  C   UNL     1     -11.514  16.006  70.180  1.00  0.00    -0.350 A  
HETATM   25  C   UNL     1     -11.729  15.980  71.561  1.00  0.00    -0.554 A  
HETATM   26  C   UNL     1     -12.329  14.871  72.157  1.00  0.00    -0.430 A  
HETATM   27  C   UNL     1     -12.727  13.791  71.373  1.00  0.00    -0.450 A  
HETATM   28  C   UNL     1     -12.518  13.812  69.994  1.00  0.00    -0.301 A  
ENDBRANCH  21  23
ENDBRANCH  20  21
ENDBRANCH  19  20
ENDBRANCH  16  19
ENDBRANCH  14  15
ENDBRANCH  12  14
ENDBRANCH   9  10
ENDBRANCH   6   9
ENDBRANCH   3   5
TORSDOF 9
ENDMDL
MODEL      338
REMARK 921   NORMALIZED FREE ENERGY PREDICTED BY IDOCK:   -3.73 KCAL/MOL
REMARK 922        TOTAL FREE ENERGY PREDICTED BY IDOCK:   -6.54 KCAL/MOL
REMARK 923 INTER-LIGAND FREE ENERGY PREDICTED BY IDOCK:   -5.72 KCAL/MOL
REMARK 924 INTRA-LIGAND FREE ENERGY PREDICTED BY IDOCK:   -0.83 KCAL/MOL
REMARK 927      BINDING AFFINITY PREDICTED BY RF-SCORE:    0.00 PKD
ROOT
HETATM    1  O   UNL     1     -12.785  12.192  71.403  1.00  0.00    -0.358 OA 
HETATM    2  C   UNL     1     -13.191  13.422  71.796  1.00  0.00    -0.407 C  
HETATM    3  C   UNL     1     -12.543  14.570  71.029  1.00  0.00    -0.340 C  
HETATM    4  O   UNL     1     -13.984  13.587  72.708  1.00  0.00    -0.733 OA 
ENDROOT
BRANCH   3   5
HETATM    5  N   UNL     1     -11.605  14.110  70.010  1.00  0.00    -0.372 N  
HETATM    6  C   UNL     1     -11.371  14.826  68.856  1.00  0.00    -0.282 C  
HETATM    7  H   UNL     1     -11.108  13.231  70.156  1.00  0.00     0.000 HD 
HETATM    8  O   UNL     1     -11.963  15.869  68.594  1.00  0.00    -0.338 OA 
BRANCH   6   9
HETATM    9  C   UNL     1     -10.347  14.211  67.893  1.00  0.00    -0.234 C  
BRANCH   9  10
HETATM   10  N   UNL     1     -10.068  12.810  68.159  1.00  0.00    -0.234 N  
HETATM   11  H   UNL     1      -9.333  12.574  68.825  1.00  0.00     0.000 HD 
HETATM   12  C   UNL     1     -10.758  11.790  67.545  1.00  0.00    -0.221 C  
HETATM   13  O   UNL     1     -11.676  12.001  66.757  1.00  0.00    -0.523 OA 
BRANCH  12  14
HETATM   14  C   UNL     1     -10.293  10.376  67.919  1.00  0.00    -0.190 C  
BRANCH  14  15
HETATM   15  N   UNL     1      -8.948  10.071  67.440  1.00  0.00    -0.131 N  
HETATM   16  C   UNL     1      -7.999   9.533  68.286  1.00  0.00    -0.094 C  
HETATM   17  H   UNL     1      -8.706  10.259  66.467  1.00  0.00     0.000 HD 
HETATM   18  O   UNL     1      -8.189   9.419  69.494  1.00  0.00    -0.106 OA 
BRANCH  16  19
HETATM   19  C   UNL     1      -6.681   9.174  67.619  1.00  0.00    -0.069 C  
BRANCH  19  20
HETATM   20  S   UNL     1      -6.333   7.405  67.716  1.00  0.00    -0.050 SA 
BRANCH  20  21
HETATM   21  C   UNL     1      -7.617   6.779  66.692  1.00  0.00    -0.086 C  
HETATM   22  O   UNL     1      -8.049   7.432  65.745  1.00  0.00    -0.114 OA 
BRANCH  21  23
HETATM   23  C   UNL     1      -8.168   5.438  67.029  1.00  0.00    -0.104 A  
HETATM   24  C   UNL     1      -8.926   4.756  66.068  1.00  0.00    -0.126 A  
HETATM   25  C   UNL     1      -9.500   3.519  66.376  1.00  0.00    -0.164 A  
HETATM   26  C   UNL     1      -9.329   2.963  67.643  1.00  0.00    -0.234 A  
HETATM   27  C   UNL     1      -8.574   3.635  68.602  1.00  0.00    -0.120 A  
HETATM   28  C   UNL     1      -7.996   4.868  68.300  1.00  0.00    -0.086 A  
ENDBRANCH  21  23
ENDBRANCH  20  21
ENDBRANCH  19  20
ENDBRANCH  16  19
ENDBRANCH  14  15
ENDBRANCH  12  14
ENDBRANCH   9  10
ENDBRANCH   6   9
ENDBRANCH   3   5
TORSDOF 9
ENDMDL
MODEL      339
REMARK 921   NORMALIZED FREE ENERGY PREDICTED BY IDOCK:   -3.72 KCAL/MOL
REMARK 922        TOTAL FREE ENERGY PREDICTED BY IDOCK:   -6.52 KCAL/MOL
REMARK 923 INTER-LIGAND FREE ENERGY PREDICTED BY IDOCK:   -5.70 KCAL/MOL
REMARK 924 INTRA-LIGAND FREE ENERGY PREDICTED BY IDOCK:   -0.82 KCAL/MOL
REMARK 927      BINDING AFFINITY PREDICTED BY RF-SCORE:    0.00 PKD
ROOT
HETATM    1  O   UNL     1      -8.849   4.163  68.220  1.00  0.00    -0.096 OA 
HETATM    2  C   UNL     1      -9.079   2.952  67.658  1.00  0.00    -0.183 C  
HETATM    3  C   UNL     1      -8.590   2.828  66.219  1.00  0.00    -0.114 C  
HETATM    4  O   UNL     1      -9.655   2.055  68.251  1.00  0.00    -0.207 OA 
ENDROOT
BRANCH   3   5
HETATM    5  N   UNL     1      -7.964   4.051  65.728  1.00  0.00    -0.097 N  
HETATM    6  C   UNL     1      -8.466   4.747  64.649  1.00  0.00    -0.139 C  
HETATM    7  H   UNL     1      -7.128   4.402  66.197  1.00  0.00     0.000 HD 
HETATM    8  O   UNL     1      -9.441   4.362  64.011  1.00  0.00    -0.150 OA 
BRANCH   6   9
HETATM    9  C   UNL     1      -7.697   6.018  64.267  1.00  0.00    -0.105 C  
BRANCH   9  10
HETATM   10  N   UNL     1      -8.507   7.224  64.315  1.00  0.00    -0.355 N  
HETATM   11  H   UNL     1      -9.333   7.285  63.721  1.00  0.00     0.000 HD 
HETATM   12  C   UNL     1      -8.199   8.287  65.134  1.00  0.00    -0.154 C  
HETATM   13  O   UNL     1      -7.237   8.269  65.898  1.00  0.00    -0.070 OA 
BRANCH  12  14
HETATM   14  C   UNL     1      -9.144   9.490  65.016  1.00  0.00    -0.228 C  
BRANCH  14  15
HETATM   15  N   UNL     1      -9.608   9.982  66.310  1.00  0.00    -0.189 N  
HETATM   16  C   UNL     1      -8.989  11.050  66.927  1.00  0.00    -0.157 C  
HETATM   17  H   UNL     1     -10.402   9.529  66.765  1.00  0.00     0.000 HD 
HETATM   18  O   UNL     1      -7.947  11.539  66.497  1.00  0.00    -0.158 OA 
BRANCH  16  19
HETATM   19  C   UNL     1      -9.647  11.511  68.217  1.00  0.00    -0.189 C  
BRANCH  19  20
HETATM   20  S   UNL     1     -11.442  11.312  68.169  1.00  0.00    -0.299 SA 
BRANCH  20  21
HETATM   21  C   UNL     1     -11.862  12.560  67.004  1.00  0.00    -0.323 C  
HETATM   22  O   UNL     1     -12.513  12.295  65.997  1.00  0.00    -0.503 OA 
BRANCH  21  23
HETATM   23  C   UNL     1     -11.381  13.942  67.280  1.00  0.00    -0.344 A  
HETATM   24  C   UNL     1     -11.846  14.604  68.424  1.00  0.00    -0.330 A  
HETATM   25  C   UNL     1     -11.453  15.921  68.680  1.00  0.00    -0.391 A  
HETATM   26  C   UNL     1     -10.605  16.584  67.793  1.00  0.00    -0.332 A  
HETATM   27  C   UNL     1     -10.138  15.930  66.656  1.00  0.00    -0.287 A  
HETATM   28  C   UNL     1     -10.524  14.615  66.397  1.00  0.00    -0.296 A  
ENDBRANCH  21  23
ENDBRANCH  20  21
ENDBRANCH  19  20
ENDBRANCH  16  19
ENDBRANCH  14  15
ENDBRANCH  12  14
ENDBRANCH   9  10
ENDBRANCH   6   9
ENDBRANCH   3   5
TORSDOF 9
ENDMDL
MODEL      340
REMARK 921   NORMALIZED FREE ENERGY PREDICTED BY IDOCK:   -3.72 KCAL/MOL
REMARK 922        TOTAL FREE ENERGY PREDICTED BY IDOCK:   -6.52 KCAL/MOL
REMARK 923 INTER-LIGAND FREE ENERGY PREDICTED BY IDOCK:   -5.81 KCAL/MOL
REMARK 924 INTRA-LIGAND FREE ENERGY PREDICTED BY IDOCK:   -0.70 KCAL/MOL
REMARK 927      BINDING AFFINITY PREDICTED BY RF-SCORE:    0.00 PKD
ROOT
HETATM    1  O   UNL     1     -10.993   4.328  65.125  1.00  0.00    -0.231 OA 
HETATM    2  C   UNL     1      -9.748   4.388  64.595  1.00  0.00    -0.099 C  
HETATM    3  C   UNL     1      -8.681   4.887  65.563  1.00  0.00    -0.139 C  
HETATM    4  O   UNL     1      -9.518   4.095  63.434  1.00  0.00    -0.145 OA 
ENDROOT
BRANCH   3   5
HETATM    5  N   UNL     1      -9.217   5.203  66.882  1.00  0.00    -0.116 N  
HETATM    6  C   UNL     1      -9.255   4.270  67.898  1.00  0.00    -0.142 C  
HETATM    7  H   UNL     1      -9.576   6.141  67.059  1.00  0.00     0.000 HD 
HETATM    8  O   UNL     1      -8.880   3.112  67.745  1.00  0.00    -0.108 OA 
BRANCH   6   9
HETATM    9  C   UNL     1      -9.839   4.765  69.228  1.00  0.00    -0.199 C  
BRANCH   9  10
HETATM   10  N   UNL     1      -9.416   6.109  69.584  1.00  0.00    -0.144 N  
HETATM   11  H   UNL     1      -8.528   6.456  69.224  1.00  0.00     0.000 HD 
HETATM   12  C   UNL     1     -10.171   6.930  70.391  1.00  0.00    -0.192 C  
HETATM   13  O   UNL     1     -11.265   6.589  70.834  1.00  0.00    -0.275 OA 
BRANCH  12  14
HETATM   14  C   UNL     1      -9.542   8.297  70.694  1.00  0.00    -0.171 C  
BRANCH  14  15
HETATM   15  N   UNL     1      -9.948   9.335  69.751  1.00  0.00    -0.188 N  
HETATM   16  C   UNL     1      -9.205   9.594  68.617  1.00  0.00    -0.136 C  
HETATM   17  H   UNL     1     -10.794   9.877  69.933  1.00  0.00     0.000 HD 
HETATM   18  O   UNL     1      -8.109   9.075  68.421  1.00  0.00    -0.106 OA 
BRANCH  16  19
HETATM   19  C   UNL     1      -9.809  10.629  67.682  1.00  0.00    -0.167 C  
BRANCH  19  20
HETATM   20  S   UNL     1      -8.755  12.086  67.515  1.00  0.00    -0.176 SA 
BRANCH  20  21
HETATM   21  C   UNL     1      -9.928  13.251  66.919  1.00  0.00    -0.250 C  
HETATM   22  O   UNL     1     -10.103  14.324  67.491  1.00  0.00    -0.233 OA 
BRANCH  21  23
HETATM   23  C   UNL     1     -10.709  12.877  65.708  1.00  0.00    -0.293 A  
HETATM   24  C   UNL     1     -12.105  12.993  65.741  1.00  0.00    -0.510 A  
HETATM   25  C   UNL     1     -12.867  12.599  64.637  1.00  0.00    -0.361 A  
HETATM   26  C   UNL     1     -12.242  12.079  63.504  1.00  0.00    -0.653 A  
HETATM   27  C   UNL     1     -10.855  11.964  63.465  1.00  0.00    -0.502 A  
HETATM   28  C   UNL     1     -10.089  12.359  64.562  1.00  0.00    -0.276 A  
ENDBRANCH  21  23
ENDBRANCH  20  21
ENDBRANCH  19  20
ENDBRANCH  16  19
ENDBRANCH  14  15
ENDBRANCH  12  14
ENDBRANCH   9  10
ENDBRANCH   6   9
ENDBRANCH   3   5
TORSDOF 9
ENDMDL
MODEL      341
REMARK 921   NORMALIZED FREE ENERGY PREDICTED BY IDOCK:   -3.70 KCAL/MOL
REMARK 922        TOTAL FREE ENERGY PREDICTED BY IDOCK:   -6.49 KCAL/MOL
REMARK 923 INTER-LIGAND FREE ENERGY PREDICTED BY IDOCK:   -5.55 KCAL/MOL
REMARK 924 INTRA-LIGAND FREE ENERGY PREDICTED BY IDOCK:   -0.94 KCAL/MOL
REMARK 927      BINDING AFFINITY PREDICTED BY RF-SCORE:    0.00 PKD
ROOT
HETATM    1  O   UNL     1     -11.862  14.989  68.842  1.00  0.00    -0.320 OA 
HETATM    2  C   UNL     1     -10.827  14.677  68.027  1.00  0.00    -0.257 C  
HETATM    3  C   UNL     1     -10.250  13.283  68.254  1.00  0.00    -0.250 C  
HETATM    4  O   UNL     1     -10.382  15.462  67.206  1.00  0.00    -0.261 OA 
ENDROOT
BRANCH   3   5
HETATM    5  N   UNL     1     -10.937  12.554  69.315  1.00  0.00    -0.441 N  
HETATM    6  C   UNL     1     -11.905  11.609  69.044  1.00  0.00    -0.328 C  
HETATM    7  H   UNL     1     -10.695  12.749  70.286  1.00  0.00     0.000 HD 
HETATM    8  O   UNL     1     -12.277  11.354  67.903  1.00  0.00    -0.592 OA 
BRANCH   6   9
HETATM    9  C   UNL     1     -12.522  10.925  70.270  1.00  0.00    -0.303 C  
BRANCH   9  10
HETATM   10  N   UNL     1     -12.286   9.493  70.317  1.00  0.00    -0.456 N  
HETATM   11  H   UNL     1     -13.069   8.860  70.153  1.00  0.00     0.000 HD 
HETATM   12  C   UNL     1     -11.044   8.957  70.575  1.00  0.00    -0.251 C  
HETATM   13  O   UNL     1     -10.052   9.658  70.750  1.00  0.00    -0.278 OA 
BRANCH  12  14
HETATM   14  C   UNL     1     -10.998   7.424  70.627  1.00  0.00    -0.256 C  
BRANCH  14  15
HETATM   15  N   UNL     1      -9.658   6.900  70.873  1.00  0.00    -0.164 N  
HETATM   16  C   UNL     1      -9.430   5.972  71.869  1.00  0.00    -0.150 C  
HETATM   17  H   UNL     1      -8.878   7.224  70.300  1.00  0.00     0.000 HD 
HETATM   18  O   UNL     1     -10.299   5.655  72.678  1.00  0.00    -0.187 OA 
BRANCH  16  19
HETATM   19  C   UNL     1      -8.006   5.445  71.936  1.00  0.00    -0.113 C  
BRANCH  19  20
HETATM   20  S   UNL     1      -6.960   6.156  70.647  1.00  0.00    -0.065 SA 
BRANCH  20  21
HETATM   21  C   UNL     1      -6.947   4.830  69.493  1.00  0.00    -0.053 C  
HETATM   22  O   UNL     1      -6.212   3.859  69.651  1.00  0.00    -0.026 OA 
BRANCH  21  23
HETATM   23  C   UNL     1      -7.846   4.943  68.312  1.00  0.00    -0.082 A  
HETATM   24  C   UNL     1      -7.410   5.671  67.197  1.00  0.00    -0.080 A  
HETATM   25  C   UNL     1      -8.254   5.839  66.095  1.00  0.00    -0.111 A  
HETATM   26  C   UNL     1      -9.537   5.291  66.106  1.00  0.00    -0.176 A  
HETATM   27  C   UNL     1      -9.975   4.565  67.210  1.00  0.00    -0.187 A  
HETATM   28  C   UNL     1      -9.136   4.392  68.311  1.00  0.00    -0.165 A  
ENDBRANCH  21  23
ENDBRANCH  20  21
ENDBRANCH  19  20
ENDBRANCH  16  19
ENDBRANCH  14  15
ENDBRANCH  12  14
ENDBRANCH   9  10
ENDBRANCH   6   9
ENDBRANCH   3   5
TORSDOF 9
ENDMDL
MODEL      342
REMARK 921   NORMALIZED FREE ENERGY PREDICTED BY IDOCK:   -3.69 KCAL/MOL
REMARK 922        TOTAL FREE ENERGY PREDICTED BY IDOCK:   -6.47 KCAL/MOL
REMARK 923 INTER-LIGAND FREE ENERGY PREDICTED BY IDOCK:   -5.76 KCAL/MOL
REMARK 924 INTRA-LIGAND FREE ENERGY PREDICTED BY IDOCK:   -0.71 KCAL/MOL
REMARK 927      BINDING AFFINITY PREDICTED BY RF-SCORE:    0.00 PKD
ROOT
HETATM    1  O   UNL     1     -11.276  14.943  73.121  1.00  0.00     0.084 OA 
HETATM    2  C   UNL     1     -11.870  15.847  72.306  1.00  0.00    -0.516 C  
HETATM    3  C   UNL     1     -12.675  15.229  71.168  1.00  0.00    -0.410 C  
HETATM    4  O   UNL     1     -11.741  17.050  72.461  1.00  0.00    -0.151 OA 
ENDROOT
BRANCH   3   5
HETATM    5  N   UNL     1     -12.647  13.770  71.183  1.00  0.00    -0.360 N  
HETATM    6  C   UNL     1     -13.518  13.030  71.955  1.00  0.00    -0.492 C  
HETATM    7  H   UNL     1     -11.961  13.282  70.606  1.00  0.00     0.000 HD 
HETATM    8  O   UNL     1     -14.339  13.549  72.705  1.00  0.00    -0.716 OA 
BRANCH   6   9
HETATM    9  C   UNL     1     -13.364  11.508  71.849  1.00  0.00    -0.303 C  
BRANCH   9  10
HETATM   10  N   UNL     1     -12.175  11.092  71.126  1.00  0.00    -0.319 N  
HETATM   11  H   UNL     1     -11.740  11.748  70.478  1.00  0.00     0.000 HD 
HETATM   12  C   UNL     1     -11.614   9.845  71.283  1.00  0.00    -0.379 C  
HETATM   13  O   UNL     1     -12.067   9.017  72.069  1.00  0.00    -0.354 OA 
BRANCH  12  14
HETATM   14  C   UNL     1     -10.387   9.571  70.403  1.00  0.00    -0.276 C  
BRANCH  14  15
HETATM   15  N   UNL     1     -10.032   8.156  70.340  1.00  0.00    -0.187 N  
HETATM   16  C   UNL     1      -9.027   7.641  71.135  1.00  0.00    -0.138 C  
HETATM   17  H   UNL     1     -10.533   7.539  69.700  1.00  0.00     0.000 HD 
HETATM   18  O   UNL     1      -8.299   8.359  71.815  1.00  0.00    -0.134 OA 
BRANCH  16  19
HETATM   19  C   UNL     1      -8.843   6.136  71.034  1.00  0.00    -0.139 C  
BRANCH  19  20
HETATM   20  S   UNL     1      -7.173   5.692  70.512  1.00  0.00    -0.076 SA 
BRANCH  20  21
HETATM   21  C   UNL     1      -7.123   6.467  68.936  1.00  0.00    -0.082 C  
HETATM   22  O   UNL     1      -6.417   7.452  68.735  1.00  0.00    -0.041 OA 
BRANCH  21  23
HETATM   23  C   UNL     1      -7.983   5.893  67.864  1.00  0.00    -0.105 A  
HETATM   24  C   UNL     1      -9.027   6.670  67.346  1.00  0.00    -0.114 A  
HETATM   25  C   UNL     1      -9.883   6.137  66.377  1.00  0.00    -0.141 A  
HETATM   26  C   UNL     1      -9.707   4.828  65.931  1.00  0.00    -0.203 A  
HETATM   27  C   UNL     1      -8.669   4.052  66.441  1.00  0.00    -0.116 A  
HETATM   28  C   UNL     1      -7.810   4.579  67.405  1.00  0.00    -0.089 A  
ENDBRANCH  21  23
ENDBRANCH  20  21
ENDBRANCH  19  20
ENDBRANCH  16  19
ENDBRANCH  14  15
ENDBRANCH  12  14
ENDBRANCH   9  10
ENDBRANCH   6   9
ENDBRANCH   3   5
TORSDOF 9
ENDMDL
MODEL      343
REMARK 921   NORMALIZED FREE ENERGY PREDICTED BY IDOCK:   -3.67 KCAL/MOL
REMARK 922        TOTAL FREE ENERGY PREDICTED BY IDOCK:   -6.45 KCAL/MOL
REMARK 923 INTER-LIGAND FREE ENERGY PREDICTED BY IDOCK:   -5.72 KCAL/MOL
REMARK 924 INTRA-LIGAND FREE ENERGY PREDICTED BY IDOCK:   -0.73 KCAL/MOL
REMARK 927      BINDING AFFINITY PREDICTED BY RF-SCORE:    0.00 PKD
ROOT
HETATM    1  O   UNL     1      -9.957  15.846  67.125  1.00  0.00    -0.234 OA 
HETATM    2  C   UNL     1     -10.151  16.674  66.071  1.00  0.00    -0.340 C  
HETATM    3  C   UNL     1     -10.714  15.986  64.832  1.00  0.00    -0.316 C  
HETATM    4  O   UNL     1      -9.867  17.860  66.112  1.00  0.00    -0.440 OA 
ENDROOT
BRANCH   3   5
HETATM    5  N   UNL     1     -10.936  14.558  65.030  1.00  0.00    -0.374 N  
HETATM    6  C   UNL     1     -12.202  14.023  65.129  1.00  0.00    -0.436 C  
HETATM    7  H   UNL     1     -10.129  13.937  65.097  1.00  0.00     0.000 HD 
HETATM    8  O   UNL     1     -13.216  14.714  65.100  1.00  0.00    -0.378 OA 
BRANCH   6   9
HETATM    9  C   UNL     1     -12.263  12.502  65.324  1.00  0.00    -0.433 C  
BRANCH   9  10
HETATM   10  N   UNL     1     -11.049  11.940  65.889  1.00  0.00    -0.312 N  
HETATM   11  H   UNL     1     -10.217  11.876  65.303  1.00  0.00     0.000 HD 
HETATM   12  C   UNL     1     -10.979  11.488  67.188  1.00  0.00    -0.286 C  
HETATM   13  O   UNL     1     -11.932  11.563  67.960  1.00  0.00    -0.595 OA 
BRANCH  12  14
HETATM   14  C   UNL     1      -9.627  10.887  67.594  1.00  0.00    -0.163 C  
BRANCH  14  15
HETATM   15  N   UNL     1      -9.388   9.571  67.009  1.00  0.00    -0.144 N  
HETATM   16  C   UNL     1      -9.942   8.436  67.566  1.00  0.00    -0.200 C  
HETATM   17  H   UNL     1      -8.802   9.489  66.178  1.00  0.00     0.000 HD 
HETATM   18  O   UNL     1     -10.534   8.457  68.642  1.00  0.00    -0.208 OA 
BRANCH  16  19
HETATM   19  C   UNL     1      -9.689   7.155  66.787  1.00  0.00    -0.192 C  
BRANCH  19  20
HETATM   20  S   UNL     1      -7.933   6.903  66.452  1.00  0.00    -0.110 SA 
BRANCH  20  21
HETATM   21  C   UNL     1      -7.991   6.561  64.729  1.00  0.00    -0.120 C  
HETATM   22  O   UNL     1      -8.274   7.438  63.917  1.00  0.00    -0.066 OA 
BRANCH  21  23
HETATM   23  C   UNL     1      -7.702   5.165  64.300  1.00  0.00    -0.088 A  
HETATM   24  C   UNL     1      -6.857   4.375  65.090  1.00  0.00    -0.053 A  
HETATM   25  C   UNL     1      -6.525   3.079  64.684  1.00  0.00    -0.027 A  
HETATM   26  C   UNL     1      -7.027   2.571  63.487  1.00  0.00    -0.036 A  
HETATM   27  C   UNL     1      -7.870   3.350  62.698  1.00  0.00    -0.070 A  
HETATM   28  C   UNL     1      -8.207   4.643  63.100  1.00  0.00    -0.101 A  
ENDBRANCH  21  23
ENDBRANCH  20  21
ENDBRANCH  19  20
ENDBRANCH  16  19
ENDBRANCH  14  15
ENDBRANCH  12  14
ENDBRANCH   9  10
ENDBRANCH   6   9
ENDBRANCH   3   5
TORSDOF 9
ENDMDL
MODEL      344
REMARK 921   NORMALIZED FREE ENERGY PREDICTED BY IDOCK:   -3.65 KCAL/MOL
REMARK 922        TOTAL FREE ENERGY PREDICTED BY IDOCK:   -6.41 KCAL/MOL
REMARK 923 INTER-LIGAND FREE ENERGY PREDICTED BY IDOCK:   -5.78 KCAL/MOL
REMARK 924 INTRA-LIGAND FREE ENERGY PREDICTED BY IDOCK:   -0.63 KCAL/MOL
REMARK 927      BINDING AFFINITY PREDICTED BY RF-SCORE:    0.00 PKD
ROOT
HETATM    1  O   UNL     1     -10.618   6.455  73.673  1.00  0.00    -0.266 OA 
HETATM    2  C   UNL     1     -10.964   5.333  72.997  1.00  0.00    -0.298 C  
HETATM    3  C   UNL     1      -9.930   4.876  71.973  1.00  0.00    -0.187 C  
HETATM    4  O   UNL     1     -12.027   4.763  73.178  1.00  0.00    -0.204 OA 
ENDROOT
BRANCH   3   5
HETATM    5  N   UNL     1      -8.760   5.746  71.925  1.00  0.00    -0.135 N  
HETATM    6  C   UNL     1      -7.515   5.320  72.338  1.00  0.00    -0.096 C  
HETATM    7  H   UNL     1      -8.866   6.699  71.576  1.00  0.00     0.000 HD 
HETATM    8  O   UNL     1      -7.322   4.204  72.808  1.00  0.00    -0.068 OA 
BRANCH   6   9
HETATM    9  C   UNL     1      -6.388   6.354  72.212  1.00  0.00    -0.054 C  
BRANCH   9  10
HETATM   10  N   UNL     1      -6.655   7.388  71.227  1.00  0.00    -0.043 N  
HETATM   11  H   UNL     1      -6.298   7.268  70.280  1.00  0.00     0.000 HD 
HETATM   12  C   UNL     1      -7.372   8.524  71.526  1.00  0.00    -0.098 C  
HETATM   13  O   UNL     1      -7.858   8.720  72.637  1.00  0.00    -0.369 OA 
BRANCH  12  14
HETATM   14  C   UNL     1      -7.515   9.523  70.370  1.00  0.00    -0.151 C  
BRANCH  14  15
HETATM   15  N   UNL     1      -8.002   8.908  69.139  1.00  0.00    -0.103 N  
HETATM   16  C   UNL     1      -7.730   9.471  67.908  1.00  0.00    -0.087 C  
HETATM   17  H   UNL     1      -8.551   8.050  69.189  1.00  0.00     0.000 HD 
HETATM   18  O   UNL     1      -7.198  10.573  67.797  1.00  0.00    -0.083 OA 
BRANCH  16  19
HETATM   19  C   UNL     1      -8.214   8.663  66.717  1.00  0.00    -0.108 C  
BRANCH  19  20
HETATM   20  S   UNL     1      -9.936   9.022  66.310  1.00  0.00    -0.226 SA 
BRANCH  20  21
HETATM   21  C   UNL     1      -9.713  10.191  65.016  1.00  0.00    -0.318 C  
HETATM   22  O   UNL     1      -8.756  10.114  64.250  1.00  0.00    -0.174 OA 
BRANCH  21  23
HETATM   23  C   UNL     1     -10.718  11.283  64.901  1.00  0.00    -0.337 A  
HETATM   24  C   UNL     1     -11.238  11.593  63.637  1.00  0.00    -0.497 A  
HETATM   25  C   UNL     1     -12.143  12.649  63.492  1.00  0.00    -0.648 A  
HETATM   26  C   UNL     1     -12.525  13.403  64.601  1.00  0.00    -0.385 A  
HETATM   27  C   UNL     1     -12.013  13.097  65.860  1.00  0.00    -0.479 A  
HETATM   28  C   UNL     1     -11.112  12.043  66.012  1.00  0.00    -0.364 A  
ENDBRANCH  21  23
ENDBRANCH  20  21
ENDBRANCH  19  20
ENDBRANCH  16  19
ENDBRANCH  14  15
ENDBRANCH  12  14
ENDBRANCH   9  10
ENDBRANCH   6   9
ENDBRANCH   3   5
TORSDOF 9
ENDMDL
MODEL      345
REMARK 921   NORMALIZED FREE ENERGY PREDICTED BY IDOCK:   -3.64 KCAL/MOL
REMARK 922        TOTAL FREE ENERGY PREDICTED BY IDOCK:   -6.39 KCAL/MOL
REMARK 923 INTER-LIGAND FREE ENERGY PREDICTED BY IDOCK:   -5.63 KCAL/MOL
REMARK 924 INTRA-LIGAND FREE ENERGY PREDICTED BY IDOCK:   -0.76 KCAL/MOL
REMARK 927      BINDING AFFINITY PREDICTED BY RF-SCORE:    0.00 PKD
ROOT
HETATM    1  O   UNL     1      -7.373   6.376  67.251  1.00  0.00    -0.083 OA 
HETATM    2  C   UNL     1      -7.917   5.139  67.153  1.00  0.00    -0.100 C  
HETATM    3  C   UNL     1      -7.694   4.463  65.805  1.00  0.00    -0.090 C  
HETATM    4  O   UNL     1      -8.554   4.633  68.062  1.00  0.00    -0.101 OA 
ENDROOT
BRANCH   3   5
HETATM    5  N   UNL     1      -6.929   5.290  64.878  1.00  0.00    -0.052 N  
HETATM    6  C   UNL     1      -7.448   5.705  63.670  1.00  0.00    -0.063 C  
HETATM    7  H   UNL     1      -5.981   5.570  65.131  1.00  0.00     0.000 HD 
HETATM    8  O   UNL     1      -8.564   5.373  63.281  1.00  0.00    -0.104 OA 
BRANCH   6   9
HETATM    9  C   UNL     1      -6.519   6.579  62.817  1.00  0.00    -0.034 C  
BRANCH   9  10
HETATM   10  N   UNL     1      -6.703   8.004  63.031  1.00  0.00    -0.083 N  
HETATM   11  H   UNL     1      -7.147   8.558  62.299  1.00  0.00     0.000 HD 
HETATM   12  C   UNL     1      -6.299   8.635  64.186  1.00  0.00    -0.071 C  
HETATM   13  O   UNL     1      -5.785   8.025  65.121  1.00  0.00    -0.043 OA 
BRANCH  12  14
HETATM   14  C   UNL     1      -6.536  10.151  64.213  1.00  0.00    -0.120 C  
BRANCH  14  15
HETATM   15  N   UNL     1      -7.877  10.528  63.778  1.00  0.00    -0.339 N  
HETATM   16  C   UNL     1      -8.959  10.407  64.627  1.00  0.00    -0.209 C  
HETATM   17  H   UNL     1      -8.017  10.886  62.832  1.00  0.00     0.000 HD 
HETATM   18  O   UNL     1      -8.874   9.852  65.719  1.00  0.00    -0.138 OA 
BRANCH  16  19
HETATM   19  C   UNL     1     -10.270  10.935  64.068  1.00  0.00    -0.357 C  
BRANCH  19  20
HETATM   20  S   UNL     1     -10.417  12.724  64.265  1.00  0.00    -0.386 SA 
BRANCH  20  21
HETATM   21  C   UNL     1     -11.956  12.817  65.111  1.00  0.00    -0.424 C  
HETATM   22  O   UNL     1     -13.018  12.845  64.494  1.00  0.00    -0.725 OA 
BRANCH  21  23
HETATM   23  C   UNL     1     -11.915  12.880  66.598  1.00  0.00    -0.436 A  
HETATM   24  C   UNL     1     -11.832  11.684  67.322  1.00  0.00    -0.133 A  
HETATM   25  C   UNL     1     -11.846  11.709  68.720  1.00  0.00    -0.387 A  
HETATM   26  C   UNL     1     -11.953  12.922  69.398  1.00  0.00    -0.327 A  
HETATM   27  C   UNL     1     -12.034  14.115  68.682  1.00  0.00    -0.373 A  
HETATM   28  C   UNL     1     -12.017  14.096  67.288  1.00  0.00    -0.449 A  
ENDBRANCH  21  23
ENDBRANCH  20  21
ENDBRANCH  19  20
ENDBRANCH  16  19
ENDBRANCH  14  15
ENDBRANCH  12  14
ENDBRANCH   9  10
ENDBRANCH   6   9
ENDBRANCH   3   5
TORSDOF 9
ENDMDL
MODEL      346
REMARK 921   NORMALIZED FREE ENERGY PREDICTED BY IDOCK:   -3.63 KCAL/MOL
REMARK 922        TOTAL FREE ENERGY PREDICTED BY IDOCK:   -6.39 KCAL/MOL
REMARK 923 INTER-LIGAND FREE ENERGY PREDICTED BY IDOCK:   -5.95 KCAL/MOL
REMARK 924 INTRA-LIGAND FREE ENERGY PREDICTED BY IDOCK:   -0.44 KCAL/MOL
REMARK 927      BINDING AFFINITY PREDICTED BY RF-SCORE:    0.00 PKD
ROOT
HETATM    1  O   UNL     1     -11.418  13.731  63.971  1.00  0.00    -0.334 OA 
HETATM    2  C   UNL     1     -12.154  13.474  65.078  1.00  0.00    -0.397 C  
HETATM    3  C   UNL     1     -11.449  12.598  66.108  1.00  0.00    -0.365 C  
HETATM    4  O   UNL     1     -13.293  13.889  65.216  1.00  0.00    -0.732 OA 
ENDROOT
BRANCH   3   5
HETATM    5  N   UNL     1     -10.106  12.206  65.691  1.00  0.00    -0.244 N  
HETATM    6  C   UNL     1      -9.750  10.884  65.524  1.00  0.00    -0.233 C  
HETATM    7  H   UNL     1      -9.410  12.932  65.519  1.00  0.00     0.000 HD 
HETATM    8  O   UNL     1     -10.521   9.958  65.753  1.00  0.00    -0.156 OA 
BRANCH   6   9
HETATM    9  C   UNL     1      -8.304  10.643  65.071  1.00  0.00    -0.106 C  
BRANCH   9  10
HETATM   10  N   UNL     1      -7.504   9.917  66.043  1.00  0.00    -0.102 N  
HETATM   11  H   UNL     1      -7.910   9.104  66.505  1.00  0.00     0.000 HD 
HETATM   12  C   UNL     1      -6.217  10.287  66.364  1.00  0.00    -0.076 C  
HETATM   13  O   UNL     1      -5.654  11.236  65.825  1.00  0.00    -0.183 OA 
BRANCH  12  14
HETATM   14  C   UNL     1      -5.546   9.428  67.444  1.00  0.00    -0.041 C  
BRANCH  14  15
HETATM   15  N   UNL     1      -6.467   8.495  68.087  1.00  0.00    -0.056 N  
HETATM   16  C   UNL     1      -6.930   8.724  69.367  1.00  0.00    -0.053 C  
HETATM   17  H   UNL     1      -6.773   7.662  67.583  1.00  0.00     0.000 HD 
HETATM   18  O   UNL     1      -6.488   9.629  70.070  1.00  0.00    -0.052 OA 
BRANCH  16  19
HETATM   19  C   UNL     1      -7.960   7.722  69.861  1.00  0.00    -0.110 C  
BRANCH  19  20
HETATM   20  S   UNL     1      -7.518   7.036  71.472  1.00  0.00    -0.085 SA 
BRANCH  20  21
HETATM   21  C   UNL     1      -8.325   8.184  72.530  1.00  0.00    -0.172 C  
HETATM   22  O   UNL     1      -7.710   8.770  73.417  1.00  0.00    -0.394 OA 
BRANCH  21  23
HETATM   23  C   UNL     1      -9.783   8.402  72.318  1.00  0.00    -0.386 A  
HETATM   24  C   UNL     1     -10.695   7.704  73.121  1.00  0.00    -0.445 A  
HETATM   25  C   UNL     1     -12.069   7.848  72.909  1.00  0.00    -0.016 A  
HETATM   26  C   UNL     1     -12.537   8.678  71.891  1.00  0.00    -0.411 A  
HETATM   27  C   UNL     1     -11.636   9.375  71.091  1.00  0.00    -0.415 A  
HETATM   28  C   UNL     1     -10.263   9.239  71.300  1.00  0.00    -0.383 A  
ENDBRANCH  21  23
ENDBRANCH  20  21
ENDBRANCH  19  20
ENDBRANCH  16  19
ENDBRANCH  14  15
ENDBRANCH  12  14
ENDBRANCH   9  10
ENDBRANCH   6   9
ENDBRANCH   3   5
TORSDOF 9
ENDMDL
MODEL      347
REMARK 921   NORMALIZED FREE ENERGY PREDICTED BY IDOCK:   -3.62 KCAL/MOL
REMARK 922        TOTAL FREE ENERGY PREDICTED BY IDOCK:   -6.37 KCAL/MOL
REMARK 923 INTER-LIGAND FREE ENERGY PREDICTED BY IDOCK:   -5.68 KCAL/MOL
REMARK 924 INTRA-LIGAND FREE ENERGY PREDICTED BY IDOCK:   -0.69 KCAL/MOL
REMARK 927      BINDING AFFINITY PREDICTED BY RF-SCORE:    0.00 PKD
ROOT
HETATM    1  O   UNL     1     -10.883   7.958  67.169  1.00  0.00    -0.296 OA 
HETATM    2  C   UNL     1     -10.318   6.786  66.794  1.00  0.00    -0.215 C  
HETATM    3  C   UNL     1      -8.917   6.927  66.207  1.00  0.00    -0.151 C  
HETATM    4  O   UNL     1     -10.900   5.718  66.893  1.00  0.00    -0.295 OA 
ENDROOT
BRANCH   3   5
HETATM    5  N   UNL     1      -8.459   8.311  66.167  1.00  0.00    -0.126 N  
HETATM    6  C   UNL     1      -8.317   9.000  64.981  1.00  0.00    -0.166 C  
HETATM    7  H   UNL     1      -8.236   8.784  67.044  1.00  0.00     0.000 HD 
HETATM    8  O   UNL     1      -8.526   8.483  63.888  1.00  0.00    -0.134 OA 
BRANCH   6   9
HETATM    9  C   UNL     1      -7.835  10.451  65.114  1.00  0.00    -0.122 C  
BRANCH   9  10
HETATM   10  N   UNL     1      -8.210  11.075  66.371  1.00  0.00    -0.163 N  
HETATM   11  H   UNL     1      -9.139  10.897  66.751  1.00  0.00     0.000 HD 
HETATM   12  C   UNL     1      -7.356  11.899  67.069  1.00  0.00    -0.118 C  
HETATM   13  O   UNL     1      -6.212  12.132  66.687  1.00  0.00    -0.148 OA 
BRANCH  12  14
HETATM   14  C   UNL     1      -7.942  12.501  68.353  1.00  0.00    -0.139 C  
BRANCH  14  15
HETATM   15  N   UNL     1      -7.637  13.920  68.510  1.00  0.00    -0.129 N  
HETATM   16  C   UNL     1      -6.644  14.342  69.372  1.00  0.00    -0.132 C  
HETATM   17  H   UNL     1      -8.165  14.610  67.976  1.00  0.00     0.000 HD 
HETATM   18  O   UNL     1      -6.077  13.571  70.142  1.00  0.00    -0.145 OA 
BRANCH  16  19
HETATM   19  C   UNL     1      -6.374  15.837  69.350  1.00  0.00    -0.154 C  
BRANCH  19  20
HETATM   20  S   UNL     1      -6.363  16.498  67.670  1.00  0.00    -0.164 SA 
BRANCH  20  21
HETATM   21  C   UNL     1      -6.871  18.152  67.984  1.00  0.00    -0.208 C  
HETATM   22  O   UNL     1      -6.198  18.898  68.691  1.00  0.00    -0.215 OA 
BRANCH  21  23
HETATM   23  C   UNL     1      -8.153  18.600  67.375  1.00  0.00    -0.258 A  
HETATM   24  C   UNL     1      -8.576  19.920  67.584  1.00  0.00    -0.385 A  
HETATM   25  C   UNL     1      -9.801  20.353  67.068  1.00  0.00    -0.594 A  
HETATM   26  C   UNL     1     -10.612  19.471  66.354  1.00  0.00    -0.571 A  
HETATM   27  C   UNL     1     -10.196  18.159  66.142  1.00  0.00    -0.372 A  
HETATM   28  C   UNL     1      -8.973  17.722  66.651  1.00  0.00    -0.283 A  
ENDBRANCH  21  23
ENDBRANCH  20  21
ENDBRANCH  19  20
ENDBRANCH  16  19
ENDBRANCH  14  15
ENDBRANCH  12  14
ENDBRANCH   9  10
ENDBRANCH   6   9
ENDBRANCH   3   5
TORSDOF 9
ENDMDL
MODEL      348
REMARK 921   NORMALIZED FREE ENERGY PREDICTED BY IDOCK:   -3.57 KCAL/MOL
REMARK 922        TOTAL FREE ENERGY PREDICTED BY IDOCK:   -6.30 KCAL/MOL
REMARK 923 INTER-LIGAND FREE ENERGY PREDICTED BY IDOCK:   -5.56 KCAL/MOL
REMARK 924 INTRA-LIGAND FREE ENERGY PREDICTED BY IDOCK:   -0.74 KCAL/MOL
REMARK 927      BINDING AFFINITY PREDICTED BY RF-SCORE:    0.00 PKD
ROOT
HETATM    1  O   UNL     1      -8.258   6.288  69.924  1.00  0.00    -0.117 OA 
HETATM    2  C   UNL     1      -8.578   5.166  69.237  1.00  0.00    -0.096 C  
HETATM    3  C   UNL     1      -9.036   5.419  67.805  1.00  0.00    -0.108 C  
HETATM    4  O   UNL     1      -8.530   4.056  69.741  1.00  0.00    -0.060 OA 
ENDROOT
BRANCH   3   5
HETATM    5  N   UNL     1      -9.037   6.835  67.454  1.00  0.00    -0.118 N  
HETATM    6  C   UNL     1     -10.185   7.491  67.063  1.00  0.00    -0.298 C  
HETATM    7  H   UNL     1      -8.161   7.357  67.499  1.00  0.00     0.000 HD 
HETATM    8  O   UNL     1     -11.264   6.919  66.946  1.00  0.00    -0.353 OA 
BRANCH   6   9
HETATM    9  C   UNL     1     -10.018   8.981  66.740  1.00  0.00    -0.263 C  
BRANCH   9  10
HETATM   10  N   UNL     1      -8.925   9.612  67.459  1.00  0.00    -0.128 N  
HETATM   11  H   UNL     1      -7.975   9.502  67.104  1.00  0.00     0.000 HD 
HETATM   12  C   UNL     1      -9.124  10.354  68.601  1.00  0.00    -0.157 C  
HETATM   13  O   UNL     1     -10.243  10.554  69.066  1.00  0.00    -0.194 OA 
BRANCH  12  14
HETATM   14  C   UNL     1      -7.846  10.907  69.246  1.00  0.00    -0.092 C  
BRANCH  14  15
HETATM   15  N   UNL     1      -7.614  12.316  68.942  1.00  0.00    -0.298 N  
HETATM   16  C   UNL     1      -7.268  12.719  67.668  1.00  0.00    -0.141 C  
HETATM   17  H   UNL     1      -7.709  13.012  69.681  1.00  0.00     0.000 HD 
HETATM   18  O   UNL     1      -7.002  11.915  66.778  1.00  0.00    -0.107 OA 
BRANCH  16  19
HETATM   19  C   UNL     1      -7.162  14.223  67.482  1.00  0.00    -0.176 C  
BRANCH  19  20
HETATM   20  S   UNL     1      -8.781  15.023  67.499  1.00  0.00    -0.195 SA 
BRANCH  20  21
HETATM   21  C   UNL     1      -8.316  16.655  67.956  1.00  0.00    -0.187 C  
HETATM   22  O   UNL     1      -7.387  16.856  68.735  1.00  0.00    -0.204 OA 
BRANCH  21  23
HETATM   23  C   UNL     1      -9.103  17.778  67.377  1.00  0.00    -0.244 A  
HETATM   24  C   UNL     1      -9.128  19.006  68.051  1.00  0.00    -0.350 A  
HETATM   25  C   UNL     1      -9.901  20.061  67.558  1.00  0.00    -0.551 A  
HETATM   26  C   UNL     1     -10.659  19.893  66.400  1.00  0.00    -0.532 A  
HETATM   27  C   UNL     1     -10.637  18.675  65.724  1.00  0.00    -0.290 A  
HETATM   28  C   UNL     1      -9.865  17.619  66.209  1.00  0.00    -0.297 A  
ENDBRANCH  21  23
ENDBRANCH  20  21
ENDBRANCH  19  20
ENDBRANCH  16  19
ENDBRANCH  14  15
ENDBRANCH  12  14
ENDBRANCH   9  10
ENDBRANCH   6   9
ENDBRANCH   3   5
TORSDOF 9
ENDMDL
MODEL      349
REMARK 921   NORMALIZED FREE ENERGY PREDICTED BY IDOCK:   -3.57 KCAL/MOL
REMARK 922        TOTAL FREE ENERGY PREDICTED BY IDOCK:   -6.29 KCAL/MOL
REMARK 923 INTER-LIGAND FREE ENERGY PREDICTED BY IDOCK:   -5.73 KCAL/MOL
REMARK 924 INTRA-LIGAND FREE ENERGY PREDICTED BY IDOCK:   -0.56 KCAL/MOL
REMARK 927      BINDING AFFINITY PREDICTED BY RF-SCORE:    0.00 PKD
ROOT
HETATM    1  O   UNL     1     -11.431  14.822  73.438  1.00  0.00     0.009 OA 
HETATM    2  C   UNL     1     -11.977  15.754  72.621  1.00  0.00    -0.491 C  
HETATM    3  C   UNL     1     -12.638  15.179  71.373  1.00  0.00    -0.354 C  
HETATM    4  O   UNL     1     -11.913  16.948  72.858  1.00  0.00    -0.320 OA 
ENDROOT
BRANCH   3   5
HETATM    5  N   UNL     1     -12.552  13.725  71.306  1.00  0.00    -0.358 N  
HETATM    6  C   UNL     1     -13.454  12.908  71.956  1.00  0.00    -0.473 C  
HETATM    7  H   UNL     1     -11.801  13.298  70.762  1.00  0.00     0.000 HD 
HETATM    8  O   UNL     1     -14.355  13.351  72.661  1.00  0.00    -0.709 OA 
BRANCH   6   9
HETATM    9  C   UNL     1     -13.230  11.401  71.775  1.00  0.00    -0.367 C  
BRANCH   9  10
HETATM   10  N   UNL     1     -11.969  11.074  71.132  1.00  0.00    -0.230 N  
HETATM   11  H   UNL     1     -11.441  11.819  70.678  1.00  0.00     0.000 HD 
HETATM   12  C   UNL     1     -11.461   9.795  71.114  1.00  0.00    -0.398 C  
HETATM   13  O   UNL     1     -12.027   8.856  71.667  1.00  0.00    -0.301 OA 
BRANCH  12  14
HETATM   14  C   UNL     1     -10.139   9.634  70.349  1.00  0.00    -0.276 C  
BRANCH  14  15
HETATM   15  N   UNL     1      -9.994   8.320  69.729  1.00  0.00    -0.188 N  
HETATM   16  C   UNL     1      -9.159   7.366  70.274  1.00  0.00    -0.151 C  
HETATM   17  H   UNL     1     -10.518   8.104  68.880  1.00  0.00     0.000 HD 
HETATM   18  O   UNL     1      -8.400   7.618  71.207  1.00  0.00    -0.104 OA 
BRANCH  16  19
HETATM   19  C   UNL     1      -9.191   6.017  69.576  1.00  0.00    -0.136 C  
BRANCH  19  20
HETATM   20  S   UNL     1      -7.679   5.702  68.641  1.00  0.00    -0.093 SA 
BRANCH  20  21
HETATM   21  C   UNL     1      -8.167   6.285  67.056  1.00  0.00    -0.109 C  
HETATM   22  O   UNL     1      -8.953   5.647  66.360  1.00  0.00    -0.126 OA 
BRANCH  21  23
HETATM   23  C   UNL     1      -7.577   7.569  66.589  1.00  0.00    -0.097 A  
HETATM   24  C   UNL     1      -6.352   7.986  67.127  1.00  0.00    -0.056 A  
HETATM   25  C   UNL     1      -5.800   9.213  66.747  1.00  0.00    -0.051 A  
HETATM   26  C   UNL     1      -6.471  10.031  65.839  1.00  0.00    -0.096 A  
HETATM   27  C   UNL     1      -7.688   9.621  65.299  1.00  0.00    -0.115 A  
HETATM   28  C   UNL     1      -8.242   8.396  65.672  1.00  0.00    -0.132 A  
ENDBRANCH  21  23
ENDBRANCH  20  21
ENDBRANCH  19  20
ENDBRANCH  16  19
ENDBRANCH  14  15
ENDBRANCH  12  14
ENDBRANCH   9  10
ENDBRANCH   6   9
ENDBRANCH   3   5
TORSDOF 9
ENDMDL
MODEL      350
REMARK 921   NORMALIZED FREE ENERGY PREDICTED BY IDOCK:   -3.56 KCAL/MOL
REMARK 922        TOTAL FREE ENERGY PREDICTED BY IDOCK:   -6.27 KCAL/MOL
REMARK 923 INTER-LIGAND FREE ENERGY PREDICTED BY IDOCK:   -5.40 KCAL/MOL
REMARK 924 INTRA-LIGAND FREE ENERGY PREDICTED BY IDOCK:   -0.87 KCAL/MOL
REMARK 927      BINDING AFFINITY PREDICTED BY RF-SCORE:    0.00 PKD
ROOT
HETATM    1  O   UNL     1      -6.434   6.729  68.207  1.00  0.00    -0.048 OA 
HETATM    2  C   UNL     1      -5.990   6.029  67.136  1.00  0.00    -0.018 C  
HETATM    3  C   UNL     1      -6.592   6.473  65.807  1.00  0.00    -0.044 C  
HETATM    4  O   UNL     1      -5.200   5.106  67.241  1.00  0.00    -0.007 OA 
ENDROOT
BRANCH   3   5
HETATM    5  N   UNL     1      -7.536   7.575  65.954  1.00  0.00    -0.085 N  
HETATM    6  C   UNL     1      -8.866   7.364  66.252  1.00  0.00    -0.159 C  
HETATM    7  H   UNL     1      -7.203   8.532  65.833  1.00  0.00     0.000 HD 
HETATM    8  O   UNL     1      -9.346   6.241  66.371  1.00  0.00    -0.157 OA 
BRANCH   6   9
HETATM    9  C   UNL     1      -9.722   8.630  66.384  1.00  0.00    -0.263 C  
BRANCH   9  10
HETATM   10  N   UNL     1      -8.962   9.809  66.760  1.00  0.00    -0.137 N  
HETATM   11  H   UNL     1      -8.865  10.567  66.085  1.00  0.00     0.000 HD 
HETATM   12  C   UNL     1      -8.368   9.941  67.995  1.00  0.00    -0.113 C  
HETATM   13  O   UNL     1      -8.471   9.083  68.867  1.00  0.00    -0.126 OA 
BRANCH  12  14
HETATM   14  C   UNL     1      -7.570  11.237  68.195  1.00  0.00    -0.105 C  
BRANCH  14  15
HETATM   15  N   UNL     1      -8.377  12.329  68.733  1.00  0.00    -0.354 N  
HETATM   16  C   UNL     1      -9.142  13.122  67.902  1.00  0.00    -0.207 C  
HETATM   17  H   UNL     1      -8.375  12.507  69.738  1.00  0.00     0.000 HD 
HETATM   18  O   UNL     1      -9.072  13.044  66.678  1.00  0.00    -0.230 OA 
BRANCH  16  19
HETATM   19  C   UNL     1     -10.005  14.148  68.617  1.00  0.00    -0.222 C  
BRANCH  19  20
HETATM   20  S   UNL     1     -11.761  13.924  68.258  1.00  0.00    -0.378 SA 
BRANCH  20  21
HETATM   21  C   UNL     1     -11.877  12.172  68.360  1.00  0.00    -0.303 C  
HETATM   22  O   UNL     1     -11.705  11.467  67.370  1.00  0.00    -0.574 OA 
BRANCH  21  23
HETATM   23  C   UNL     1     -12.211  11.586  69.687  1.00  0.00    -0.296 A  
HETATM   24  C   UNL     1     -11.873  10.250  69.941  1.00  0.00    -0.267 A  
HETATM   25  C   UNL     1     -12.221   9.658  71.158  1.00  0.00    -0.437 A  
HETATM   26  C   UNL     1     -12.914  10.391  72.121  1.00  0.00    -0.393 A  
HETATM   27  C   UNL     1     -13.250  11.720  71.875  1.00  0.00    -0.468 A  
HETATM   28  C   UNL     1     -12.903  12.317  70.664  1.00  0.00    -0.014 A  
ENDBRANCH  21  23
ENDBRANCH  20  21
ENDBRANCH  19  20
ENDBRANCH  16  19
ENDBRANCH  14  15
ENDBRANCH  12  14
ENDBRANCH   9  10
ENDBRANCH   6   9
ENDBRANCH   3   5
TORSDOF 9
ENDMDL
MODEL      351
REMARK 921   NORMALIZED FREE ENERGY PREDICTED BY IDOCK:   -3.54 KCAL/MOL
REMARK 922        TOTAL FREE ENERGY PREDICTED BY IDOCK:   -6.25 KCAL/MOL
REMARK 923 INTER-LIGAND FREE ENERGY PREDICTED BY IDOCK:   -5.45 KCAL/MOL
REMARK 924 INTRA-LIGAND FREE ENERGY PREDICTED BY IDOCK:   -0.80 KCAL/MOL
REMARK 927      BINDING AFFINITY PREDICTED BY RF-SCORE:    0.00 PKD
ROOT
HETATM    1  O   UNL     1     -10.911  16.803  68.852  1.00  0.00    -0.314 OA 
HETATM    2  C   UNL     1     -10.561  17.587  67.805  1.00  0.00    -0.375 C  
HETATM    3  C   UNL     1     -10.491  16.852  66.470  1.00  0.00    -0.253 C  
HETATM    4  O   UNL     1     -10.297  18.770  67.935  1.00  0.00    -0.376 OA 
ENDROOT
BRANCH   3   5
HETATM    5  N   UNL     1     -10.820  15.436  66.587  1.00  0.00    -0.311 N  
HETATM    6  C   UNL     1     -11.400  14.733  65.551  1.00  0.00    -0.343 C  
HETATM    7  H   UNL     1     -10.617  14.951  67.461  1.00  0.00     0.000 HD 
HETATM    8  O   UNL     1     -11.711  15.260  64.488  1.00  0.00    -0.402 OA 
BRANCH   6   9
HETATM    9  C   UNL     1     -11.672  13.249  65.832  1.00  0.00    -0.365 C  
BRANCH   9  10
HETATM   10  N   UNL     1     -11.311  12.836  67.177  1.00  0.00    -0.296 N  
HETATM   11  H   UNL     1     -11.898  13.133  67.956  1.00  0.00     0.000 HD 
HETATM   12  C   UNL     1     -10.206  12.059  67.439  1.00  0.00    -0.200 C  
HETATM   13  O   UNL     1      -9.472  11.640  66.547  1.00  0.00    -0.194 OA 
BRANCH  12  14
HETATM   14  C   UNL     1      -9.961  11.760  68.924  1.00  0.00    -0.034 C  
BRANCH  14  15
HETATM   15  N   UNL     1      -9.931  10.331  69.224  1.00  0.00    -0.217 N  
HETATM   16  C   UNL     1     -10.692   9.805  70.248  1.00  0.00    -0.302 C  
HETATM   17  H   UNL     1      -9.340   9.713  68.667  1.00  0.00     0.000 HD 
HETATM   18  O   UNL     1     -11.308  10.517  71.037  1.00  0.00    -0.257 OA 
BRANCH  16  19
HETATM   19  C   UNL     1     -10.636   8.292  70.371  1.00  0.00    -0.224 C  
BRANCH  19  20
HETATM   20  S   UNL     1      -8.939   7.674  70.362  1.00  0.00    -0.152 SA 
BRANCH  20  21
HETATM   21  C   UNL     1      -9.044   6.498  69.060  1.00  0.00    -0.132 C  
HETATM   22  O   UNL     1      -9.610   5.420  69.223  1.00  0.00    -0.128 OA 
BRANCH  21  23
HETATM   23  C   UNL     1      -8.404   6.854  67.764  1.00  0.00    -0.120 A  
HETATM   24  C   UNL     1      -7.291   6.120  67.334  1.00  0.00    -0.077 A  
HETATM   25  C   UNL     1      -6.638   6.467  66.148  1.00  0.00    -0.048 A  
HETATM   26  C   UNL     1      -7.086   7.550  65.392  1.00  0.00    -0.063 A  
HETATM   27  C   UNL     1      -8.193   8.282  65.814  1.00  0.00    -0.123 A  
HETATM   28  C   UNL     1      -8.851   7.939  66.995  1.00  0.00    -0.140 A  
ENDBRANCH  21  23
ENDBRANCH  20  21
ENDBRANCH  19  20
ENDBRANCH  16  19
ENDBRANCH  14  15
ENDBRANCH  12  14
ENDBRANCH   9  10
ENDBRANCH   6   9
ENDBRANCH   3   5
TORSDOF 9
ENDMDL
MODEL      352
REMARK 921   NORMALIZED FREE ENERGY PREDICTED BY IDOCK:   -3.53 KCAL/MOL
REMARK 922        TOTAL FREE ENERGY PREDICTED BY IDOCK:   -6.23 KCAL/MOL
REMARK 923 INTER-LIGAND FREE ENERGY PREDICTED BY IDOCK:   -5.65 KCAL/MOL
REMARK 924 INTRA-LIGAND FREE ENERGY PREDICTED BY IDOCK:   -0.58 KCAL/MOL
REMARK 927      BINDING AFFINITY PREDICTED BY RF-SCORE:    0.00 PKD
ROOT
HETATM    1  O   UNL     1      -9.844  15.551  67.189  1.00  0.00    -0.231 OA 
HETATM    2  C   UNL     1      -9.877  16.014  65.916  1.00  0.00    -0.348 C  
HETATM    3  C   UNL     1     -10.086  14.931  64.863  1.00  0.00    -0.165 C  
HETATM    4  O   UNL     1      -9.723  17.193  65.646  1.00  0.00    -0.545 OA 
ENDROOT
BRANCH   3   5
HETATM    5  N   UNL     1     -10.210  13.597  65.441  1.00  0.00    -0.369 N  
HETATM    6  C   UNL     1     -11.434  12.982  65.603  1.00  0.00    -0.333 C  
HETATM    7  H   UNL     1      -9.366  13.104  65.734  1.00  0.00     0.000 HD 
HETATM    8  O   UNL     1     -12.492  13.531  65.313  1.00  0.00    -0.437 OA 
BRANCH   6   9
HETATM    9  C   UNL     1     -11.391  11.576  66.216  1.00  0.00    -0.153 C  
BRANCH   9  10
HETATM   10  N   UNL     1     -10.053  11.142  66.581  1.00  0.00    -0.210 N  
HETATM   11  H   UNL     1      -9.575  10.468  65.985  1.00  0.00     0.000 HD 
HETATM   12  C   UNL     1      -9.407  11.609  67.704  1.00  0.00    -0.178 C  
HETATM   13  O   UNL     1      -9.910  12.445  68.450  1.00  0.00    -0.217 OA 
BRANCH  12  14
HETATM   14  C   UNL     1      -8.019  11.004  67.951  1.00  0.00    -0.112 C  
BRANCH  14  15
HETATM   15  N   UNL     1      -8.055   9.562  68.177  1.00  0.00    -0.102 N  
HETATM   16  C   UNL     1      -6.956   8.895  68.679  1.00  0.00    -0.064 C  
HETATM   17  H   UNL     1      -8.905   9.040  67.960  1.00  0.00     0.000 HD 
HETATM   18  O   UNL     1      -5.867   9.444  68.823  1.00  0.00    -0.040 OA 
BRANCH  16  19
HETATM   19  C   UNL     1      -7.179   7.417  68.957  1.00  0.00    -0.085 C  
BRANCH  19  20
HETATM   20  S   UNL     1      -8.250   6.651  67.721  1.00  0.00    -0.119 SA 
BRANCH  20  21
HETATM   21  C   UNL     1      -9.828   7.047  68.389  1.00  0.00    -0.146 C  
HETATM   22  O   UNL     1     -10.620   7.750  67.769  1.00  0.00    -0.225 OA 
BRANCH  21  23
HETATM   23  C   UNL     1     -10.152   6.509  69.739  1.00  0.00    -0.207 A  
HETATM   24  C   UNL     1      -9.745   5.209  70.065  1.00  0.00    -0.275 A  
HETATM   25  C   UNL     1     -10.083   4.659  71.306  1.00  0.00    -0.245 A  
HETATM   26  C   UNL     1     -10.833   5.399  72.219  1.00  0.00    -0.286 A  
HETATM   27  C   UNL     1     -11.238   6.693  71.901  1.00  0.00    -0.302 A  
HETATM   28  C   UNL     1     -10.902   7.248  70.666  1.00  0.00    -0.261 A  
ENDBRANCH  21  23
ENDBRANCH  20  21
ENDBRANCH  19  20
ENDBRANCH  16  19
ENDBRANCH  14  15
ENDBRANCH  12  14
ENDBRANCH   9  10
ENDBRANCH   6   9
ENDBRANCH   3   5
TORSDOF 9
ENDMDL
MODEL      353
REMARK 921   NORMALIZED FREE ENERGY PREDICTED BY IDOCK:   -3.52 KCAL/MOL
REMARK 922        TOTAL FREE ENERGY PREDICTED BY IDOCK:   -6.22 KCAL/MOL
REMARK 923 INTER-LIGAND FREE ENERGY PREDICTED BY IDOCK:   -5.64 KCAL/MOL
REMARK 924 INTRA-LIGAND FREE ENERGY PREDICTED BY IDOCK:   -0.58 KCAL/MOL
REMARK 927      BINDING AFFINITY PREDICTED BY RF-SCORE:    0.00 PKD
ROOT
HETATM    1  O   UNL     1     -12.355  11.921  70.922  1.00  0.00    -0.373 OA 
HETATM    2  C   UNL     1     -12.834  13.090  71.411  1.00  0.00    -0.292 C  
HETATM    3  C   UNL     1     -12.065  14.323  70.950  1.00  0.00    -0.347 C  
HETATM    4  O   UNL     1     -13.782  13.137  72.178  1.00  0.00    -0.510 OA 
ENDROOT
BRANCH   3   5
HETATM    5  N   UNL     1     -10.954  13.996  70.062  1.00  0.00    -0.454 N  
HETATM    6  C   UNL     1     -11.122  13.862  68.700  1.00  0.00    -0.265 C  
HETATM    7  H   UNL     1     -10.024  13.863  70.461  1.00  0.00     0.000 HD 
HETATM    8  O   UNL     1     -12.217  13.967  68.156  1.00  0.00    -0.329 OA 
BRANCH   6   9
HETATM    9  C   UNL     1      -9.851  13.528  67.908  1.00  0.00    -0.235 C  
BRANCH   9  10
HETATM   10  N   UNL     1      -8.997  12.552  68.563  1.00  0.00    -0.363 N  
HETATM   11  H   UNL     1      -9.430  11.820  69.125  1.00  0.00     0.000 HD 
HETATM   12  C   UNL     1      -7.625  12.580  68.452  1.00  0.00    -0.129 C  
HETATM   13  O   UNL     1      -7.039  13.413  67.767  1.00  0.00    -0.122 OA 
BRANCH  12  14
HETATM   14  C   UNL     1      -6.889  11.494  69.250  1.00  0.00    -0.114 C  
BRANCH  14  15
HETATM   15  N   UNL     1      -6.982  10.172  68.637  1.00  0.00    -0.061 N  
HETATM   16  C   UNL     1      -8.141   9.429  68.725  1.00  0.00    -0.103 C  
HETATM   17  H   UNL     1      -6.178   9.792  68.137  1.00  0.00     0.000 HD 
HETATM   18  O   UNL     1      -9.086   9.772  69.432  1.00  0.00    -0.173 OA 
BRANCH  16  19
HETATM   19  C   UNL     1      -8.121   8.121  67.952  1.00  0.00    -0.128 C  
BRANCH  19  20
HETATM   20  S   UNL     1      -9.187   8.179  66.496  1.00  0.00    -0.200 SA 
BRANCH  20  21
HETATM   21  C   UNL     1     -10.155   6.737  66.762  1.00  0.00    -0.183 C  
HETATM   22  O   UNL     1     -11.255   6.803  67.305  1.00  0.00    -0.348 OA 
BRANCH  21  23
HETATM   23  C   UNL     1      -9.581   5.436  66.320  1.00  0.00    -0.175 A  
HETATM   24  C   UNL     1      -9.751   4.309  67.135  1.00  0.00    -0.232 A  
HETATM   25  C   UNL     1      -9.177   3.088  66.771  1.00  0.00    -0.164 A  
HETATM   26  C   UNL     1      -8.425   2.988  65.602  1.00  0.00    -0.105 A  
HETATM   27  C   UNL     1      -8.254   4.104  64.787  1.00  0.00    -0.102 A  
HETATM   28  C   UNL     1      -8.827   5.325  65.143  1.00  0.00    -0.130 A  
ENDBRANCH  21  23
ENDBRANCH  20  21
ENDBRANCH  19  20
ENDBRANCH  16  19
ENDBRANCH  14  15
ENDBRANCH  12  14
ENDBRANCH   9  10
ENDBRANCH   6   9
ENDBRANCH   3   5
TORSDOF 9
ENDMDL
MODEL      354
REMARK 921   NORMALIZED FREE ENERGY PREDICTED BY IDOCK:   -3.50 KCAL/MOL
REMARK 922        TOTAL FREE ENERGY PREDICTED BY IDOCK:   -6.18 KCAL/MOL
REMARK 923 INTER-LIGAND FREE ENERGY PREDICTED BY IDOCK:   -5.45 KCAL/MOL
REMARK 924 INTRA-LIGAND FREE ENERGY PREDICTED BY IDOCK:   -0.73 KCAL/MOL
REMARK 927      BINDING AFFINITY PREDICTED BY RF-SCORE:    0.00 PKD
ROOT
HETATM    1  O   UNL     1      -9.445   5.091  69.381  1.00  0.00    -0.121 OA 
HETATM    2  C   UNL     1      -9.629   4.248  68.337  1.00  0.00    -0.133 C  
HETATM    3  C   UNL     1      -9.663   4.935  66.976  1.00  0.00    -0.177 C  
HETATM    4  O   UNL     1      -9.784   3.047  68.488  1.00  0.00    -0.102 OA 
ENDROOT
BRANCH   3   5
HETATM    5  N   UNL     1      -9.487   6.380  67.069  1.00  0.00    -0.134 N  
HETATM    6  C   UNL     1      -8.272   6.985  66.828  1.00  0.00    -0.111 C  
HETATM    7  H   UNL     1     -10.288   6.961  67.319  1.00  0.00     0.000 HD 
HETATM    8  O   UNL     1      -7.258   6.348  66.564  1.00  0.00    -0.070 OA 
BRANCH   6   9
HETATM    9  C   UNL     1      -8.258   8.514  66.956  1.00  0.00    -0.107 C  
BRANCH   9  10
HETATM   10  N   UNL     1      -9.021   9.191  65.921  1.00  0.00    -0.175 N  
HETATM   11  H   UNL     1      -9.980   9.473  66.122  1.00  0.00     0.000 HD 
HETATM   12  C   UNL     1      -8.496   9.465  64.678  1.00  0.00    -0.167 C  
HETATM   13  O   UNL     1      -7.340   9.182  64.378  1.00  0.00    -0.097 OA 
BRANCH  12  14
HETATM   14  C   UNL     1      -9.465  10.146  63.702  1.00  0.00    -0.267 C  
BRANCH  14  15
HETATM   15  N   UNL     1      -9.509  11.597  63.858  1.00  0.00    -0.469 N  
HETATM   16  C   UNL     1     -10.681  12.238  64.207  1.00  0.00    -0.351 C  
HETATM   17  H   UNL     1      -8.662  12.145  63.706  1.00  0.00     0.000 HD 
HETATM   18  O   UNL     1     -11.757  11.648  64.263  1.00  0.00    -0.281 OA 
BRANCH  16  19
HETATM   19  C   UNL     1     -10.545  13.734  64.433  1.00  0.00    -0.295 C  
BRANCH  19  20
HETATM   20  S   UNL     1     -12.058  14.457  65.104  1.00  0.00    -0.380 SA 
BRANCH  20  21
HETATM   21  C   UNL     1     -11.499  14.914  66.707  1.00  0.00    -0.301 C  
HETATM   22  O   UNL     1     -11.986  14.412  67.716  1.00  0.00    -0.370 OA 
BRANCH  21  23
HETATM   23  C   UNL     1     -10.428  15.945  66.788  1.00  0.00    -0.309 A  
HETATM   24  C   UNL     1     -10.680  17.225  66.275  1.00  0.00    -0.077 A  
HETATM   25  C   UNL     1      -9.675  18.196  66.290  1.00  0.00    -0.280 A  
HETATM   26  C   UNL     1      -8.415  17.894  66.806  1.00  0.00    -0.268 A  
HETATM   27  C   UNL     1      -8.160  16.624  67.319  1.00  0.00    -0.193 A  
HETATM   28  C   UNL     1      -9.159  15.652  67.310  1.00  0.00    -0.217 A  
ENDBRANCH  21  23
ENDBRANCH  20  21
ENDBRANCH  19  20
ENDBRANCH  16  19
ENDBRANCH  14  15
ENDBRANCH  12  14
ENDBRANCH   9  10
ENDBRANCH   6   9
ENDBRANCH   3   5
TORSDOF 9
ENDMDL
MODEL      355
REMARK 921   NORMALIZED FREE ENERGY PREDICTED BY IDOCK:   -3.49 KCAL/MOL
REMARK 922        TOTAL FREE ENERGY PREDICTED BY IDOCK:   -6.17 KCAL/MOL
REMARK 923 INTER-LIGAND FREE ENERGY PREDICTED BY IDOCK:   -5.47 KCAL/MOL
REMARK 924 INTRA-LIGAND FREE ENERGY PREDICTED BY IDOCK:   -0.71 KCAL/MOL
REMARK 927      BINDING AFFINITY PREDICTED BY RF-SCORE:    0.00 PKD
ROOT
HETATM    1  O   UNL     1     -10.230   8.140  68.986  1.00  0.00    -0.210 OA 
HETATM    2  C   UNL     1     -10.937   7.050  69.367  1.00  0.00    -0.201 C  
HETATM    3  C   UNL     1     -10.802   5.858  68.426  1.00  0.00    -0.240 C  
HETATM    4  O   UNL     1     -11.641   7.043  70.364  1.00  0.00    -0.309 OA 
ENDROOT
BRANCH   3   5
HETATM    5  N   UNL     1      -9.929   6.131  67.290  1.00  0.00    -0.131 N  
HETATM    6  C   UNL     1      -9.373   5.119  66.535  1.00  0.00    -0.141 C  
HETATM    7  H   UNL     1      -9.722   7.100  67.046  1.00  0.00     0.000 HD 
HETATM    8  O   UNL     1      -9.544   3.932  66.795  1.00  0.00    -0.198 OA 
BRANCH   6   9
HETATM    9  C   UNL     1      -8.487   5.575  65.369  1.00  0.00    -0.146 C  
BRANCH   9  10
HETATM   10  N   UNL     1      -8.860   6.870  64.827  1.00  0.00    -0.225 N  
HETATM   11  H   UNL     1      -9.585   6.913  64.112  1.00  0.00     0.000 HD 
HETATM   12  C   UNL     1      -8.271   8.042  65.244  1.00  0.00    -0.146 C  
HETATM   13  O   UNL     1      -7.414   8.068  66.124  1.00  0.00    -0.073 OA 
BRANCH  12  14
HETATM   14  C   UNL     1      -8.764   9.306  64.527  1.00  0.00    -0.187 C  
BRANCH  14  15
HETATM   15  N   UNL     1      -8.554  10.524  65.305  1.00  0.00    -0.175 N  
HETATM   16  C   UNL     1      -9.566  11.448  65.463  1.00  0.00    -0.228 C  
HETATM   17  H   UNL     1      -7.645  10.694  65.737  1.00  0.00     0.000 HD 
HETATM   18  O   UNL     1     -10.628  11.366  64.850  1.00  0.00    -0.289 OA 
BRANCH  16  19
HETATM   19  C   UNL     1      -9.230  12.611  66.382  1.00  0.00    -0.160 C  
BRANCH  19  20
HETATM   20  S   UNL     1      -9.566  12.223  68.113  1.00  0.00    -0.212 SA 
BRANCH  20  21
HETATM   21  C   UNL     1     -10.771  13.450  68.478  1.00  0.00    -0.262 C  
HETATM   22  O   UNL     1     -11.923  13.139  68.769  1.00  0.00    -0.318 OA 
BRANCH  21  23
HETATM   23  C   UNL     1     -10.343  14.873  68.401  1.00  0.00    -0.233 A  
HETATM   24  C   UNL     1      -9.186  15.269  69.086  1.00  0.00    -0.234 A  
HETATM   25  C   UNL     1      -8.790  16.610  69.075  1.00  0.00    -0.201 A  
HETATM   26  C   UNL     1      -9.549  17.560  68.392  1.00  0.00    -0.303 A  
HETATM   27  C   UNL     1     -10.698  17.171  67.708  1.00  0.00    -0.329 A  
HETATM   28  C   UNL     1     -11.097  15.834  67.712  1.00  0.00    -0.313 A  
ENDBRANCH  21  23
ENDBRANCH  20  21
ENDBRANCH  19  20
ENDBRANCH  16  19
ENDBRANCH  14  15
ENDBRANCH  12  14
ENDBRANCH   9  10
ENDBRANCH   6   9
ENDBRANCH   3   5
TORSDOF 9
ENDMDL
MODEL      356
REMARK 921   NORMALIZED FREE ENERGY PREDICTED BY IDOCK:   -3.48 KCAL/MOL
REMARK 922        TOTAL FREE ENERGY PREDICTED BY IDOCK:   -6.16 KCAL/MOL
REMARK 923 INTER-LIGAND FREE ENERGY PREDICTED BY IDOCK:   -5.47 KCAL/MOL
REMARK 924 INTRA-LIGAND FREE ENERGY PREDICTED BY IDOCK:   -0.69 KCAL/MOL
REMARK 927      BINDING AFFINITY PREDICTED BY RF-SCORE:    0.00 PKD
ROOT
HETATM    1  O   UNL     1     -10.490  15.448  66.586  1.00  0.00    -0.281 OA 
HETATM    2  C   UNL     1     -10.391  16.614  65.904  1.00  0.00    -0.340 C  
HETATM    3  C   UNL     1      -9.415  17.614  66.514  1.00  0.00    -0.283 C  
HETATM    4  O   UNL     1     -11.053  16.845  64.906  1.00  0.00    -0.583 OA 
ENDROOT
BRANCH   3   5
HETATM    5  N   UNL     1      -8.773  17.111  67.724  1.00  0.00    -0.217 N  
HETATM    6  C   UNL     1      -7.424  16.824  67.770  1.00  0.00    -0.163 C  
HETATM    7  H   UNL     1      -9.338  16.966  68.561  1.00  0.00     0.000 HD 
HETATM    8  O   UNL     1      -6.692  16.934  66.792  1.00  0.00    -0.191 OA 
BRANCH   6   9
HETATM    9  C   UNL     1      -6.904  16.315  69.121  1.00  0.00    -0.202 C  
BRANCH   9  10
HETATM   10  N   UNL     1      -6.801  14.868  69.195  1.00  0.00    -0.122 N  
HETATM   11  H   UNL     1      -7.296  14.303  68.505  1.00  0.00     0.000 HD 
HETATM   12  C   UNL     1      -6.059  14.229  70.163  1.00  0.00    -0.160 C  
HETATM   13  O   UNL     1      -5.412  14.846  71.006  1.00  0.00    -0.133 OA 
BRANCH  12  14
HETATM   14  C   UNL     1      -6.104  12.696  70.109  1.00  0.00    -0.093 C  
BRANCH  14  15
HETATM   15  N   UNL     1      -7.175  12.186  69.259  1.00  0.00    -0.320 N  
HETATM   16  C   UNL     1      -7.661  10.904  69.422  1.00  0.00    -0.094 C  
HETATM   17  H   UNL     1      -7.571  12.785  68.533  1.00  0.00     0.000 HD 
HETATM   18  O   UNL     1      -7.129  10.095  70.178  1.00  0.00    -0.137 OA 
BRANCH  16  19
HETATM   19  C   UNL     1      -8.842  10.552  68.534  1.00  0.00    -0.144 C  
BRANCH  19  20
HETATM   20  S   UNL     1      -8.598  11.104  66.832  1.00  0.00    -0.153 SA 
BRANCH  20  21
HETATM   21  C   UNL     1      -9.729  10.048  65.997  1.00  0.00    -0.240 C  
HETATM   22  O   UNL     1     -10.654  10.508  65.333  1.00  0.00    -0.202 OA 
BRANCH  21  23
HETATM   23  C   UNL     1      -9.529   8.580  66.144  1.00  0.00    -0.286 A  
HETATM   24  C   UNL     1      -8.475   7.969  65.452  1.00  0.00    -0.155 A  
HETATM   25  C   UNL     1      -8.296   6.585  65.529  1.00  0.00    -0.146 A  
HETATM   26  C   UNL     1      -9.170   5.806  66.286  1.00  0.00    -0.168 A  
HETATM   27  C   UNL     1     -10.218   6.409  66.978  1.00  0.00    -0.264 A  
HETATM   28  C   UNL     1     -10.400   7.790  66.908  1.00  0.00    -0.396 A  
ENDBRANCH  21  23
ENDBRANCH  20  21
ENDBRANCH  19  20
ENDBRANCH  16  19
ENDBRANCH  14  15
ENDBRANCH  12  14
ENDBRANCH   9  10
ENDBRANCH   6   9
ENDBRANCH   3   5
TORSDOF 9
ENDMDL
MODEL      357
REMARK 921   NORMALIZED FREE ENERGY PREDICTED BY IDOCK:   -3.48 KCAL/MOL
REMARK 922        TOTAL FREE ENERGY PREDICTED BY IDOCK:   -6.15 KCAL/MOL
REMARK 923 INTER-LIGAND FREE ENERGY PREDICTED BY IDOCK:   -5.82 KCAL/MOL
REMARK 924 INTRA-LIGAND FREE ENERGY PREDICTED BY IDOCK:   -0.33 KCAL/MOL
REMARK 927      BINDING AFFINITY PREDICTED BY RF-SCORE:    0.00 PKD
ROOT
HETATM    1  O   UNL     1     -12.509  12.730  66.589  1.00  0.00    -0.373 OA 
HETATM    2  C   UNL     1     -11.819  13.874  66.815  1.00  0.00    -0.424 C  
HETATM    3  C   UNL     1     -10.848  14.248  65.701  1.00  0.00    -0.309 C  
HETATM    4  O   UNL     1     -11.950  14.523  67.839  1.00  0.00    -0.343 OA 
ENDROOT
BRANCH   3   5
HETATM    5  N   UNL     1     -10.855  13.291  64.600  1.00  0.00    -0.359 N  
HETATM    6  C   UNL     1     -10.148  12.108  64.655  1.00  0.00    -0.257 C  
HETATM    7  H   UNL     1     -11.400  13.503  63.763  1.00  0.00     0.000 HD 
HETATM    8  O   UNL     1      -9.439  11.807  65.609  1.00  0.00    -0.231 OA 
BRANCH   6   9
HETATM    9  C   UNL     1     -10.271  11.208  63.419  1.00  0.00    -0.380 C  
BRANCH   9  10
HETATM   10  N   UNL     1      -9.777   9.858  63.631  1.00  0.00    -0.492 N  
HETATM   11  H   UNL     1     -10.354   9.200  64.154  1.00  0.00     0.000 HD 
HETATM   12  C   UNL     1      -8.557   9.435  63.153  1.00  0.00    -0.219 C  
HETATM   13  O   UNL     1      -7.825  10.164  62.489  1.00  0.00    -0.126 OA 
BRANCH  12  14
HETATM   14  C   UNL     1      -8.185   7.990  63.514  1.00  0.00    -0.037 C  
BRANCH  14  15
HETATM   15  N   UNL     1      -8.737   7.561  64.796  1.00  0.00    -0.350 N  
HETATM   16  C   UNL     1      -8.092   6.613  65.564  1.00  0.00    -0.124 C  
HETATM   17  H   UNL     1      -9.612   7.968  65.129  1.00  0.00     0.000 HD 
HETATM   18  O   UNL     1      -7.118   5.989  65.151  1.00  0.00    -0.061 OA 
BRANCH  16  19
HETATM   19  C   UNL     1      -8.732   6.346  66.916  1.00  0.00    -0.115 C  
BRANCH  19  20
HETATM   20  S   UNL     1      -7.504   5.944  68.178  1.00  0.00    -0.082 SA 
BRANCH  20  21
HETATM   21  C   UNL     1      -8.220   4.489  68.856  1.00  0.00    -0.080 C  
HETATM   22  O   UNL     1      -8.040   3.391  68.336  1.00  0.00    -0.068 OA 
BRANCH  21  23
HETATM   23  C   UNL     1      -9.065   4.646  70.072  1.00  0.00    -0.161 A  
HETATM   24  C   UNL     1      -9.831   5.810  70.218  1.00  0.00    -0.244 A  
HETATM   25  C   UNL     1     -10.592   6.009  71.374  1.00  0.00    -0.300 A  
HETATM   26  C   UNL     1     -10.585   5.054  72.390  1.00  0.00    -0.275 A  
HETATM   27  C   UNL     1      -9.828   3.893  72.249  1.00  0.00    -0.228 A  
HETATM   28  C   UNL     1      -9.069   3.688  71.097  1.00  0.00    -0.177 A  
ENDBRANCH  21  23
ENDBRANCH  20  21
ENDBRANCH  19  20
ENDBRANCH  16  19
ENDBRANCH  14  15
ENDBRANCH  12  14
ENDBRANCH   9  10
ENDBRANCH   6   9
ENDBRANCH   3   5
TORSDOF 9
ENDMDL
MODEL      358
REMARK 921   NORMALIZED FREE ENERGY PREDICTED BY IDOCK:   -3.46 KCAL/MOL
REMARK 922        TOTAL FREE ENERGY PREDICTED BY IDOCK:   -6.12 KCAL/MOL
REMARK 923 INTER-LIGAND FREE ENERGY PREDICTED BY IDOCK:   -5.24 KCAL/MOL
REMARK 924 INTRA-LIGAND FREE ENERGY PREDICTED BY IDOCK:   -0.88 KCAL/MOL
REMARK 927      BINDING AFFINITY PREDICTED BY RF-SCORE:    0.00 PKD
ROOT
HETATM    1  O   UNL     1     -12.273  11.825  68.653  1.00  0.00    -0.405 OA 
HETATM    2  C   UNL     1     -11.652  12.051  67.470  1.00  0.00    -0.330 C  
HETATM    3  C   UNL     1     -10.153  11.772  67.488  1.00  0.00    -0.192 C  
HETATM    4  O   UNL     1     -12.246  12.472  66.491  1.00  0.00    -0.569 OA 
ENDROOT
BRANCH   3   5
HETATM    5  N   UNL     1      -9.680  11.310  68.788  1.00  0.00    -0.294 N  
HETATM    6  C   UNL     1      -9.546   9.969  69.082  1.00  0.00    -0.210 C  
HETATM    7  H   UNL     1      -9.440  11.999  69.501  1.00  0.00     0.000 HD 
HETATM    8  O   UNL     1      -9.854   9.085  68.290  1.00  0.00    -0.156 OA 
BRANCH   6   9
HETATM    9  C   UNL     1      -9.025   9.651  70.490  1.00  0.00    -0.128 C  
BRANCH   9  10
HETATM   10  N   UNL     1      -9.898   8.773  71.249  1.00  0.00    -0.239 N  
HETATM   11  H   UNL     1      -9.536   7.876  71.569  1.00  0.00     0.000 HD 
HETATM   12  C   UNL     1     -11.199   9.109  71.552  1.00  0.00    -0.360 C  
HETATM   13  O   UNL     1     -11.691  10.186  71.226  1.00  0.00    -0.366 OA 
BRANCH  12  14
HETATM   14  C   UNL     1     -11.982   8.037  72.323  1.00  0.00    -0.358 C  
BRANCH  14  15
HETATM   15  N   UNL     1     -11.348   6.723  72.279  1.00  0.00    -0.264 N  
HETATM   16  C   UNL     1     -11.238   6.028  71.091  1.00  0.00    -0.261 C  
HETATM   17  H   UNL     1     -10.980   6.312  73.138  1.00  0.00     0.000 HD 
HETATM   18  O   UNL     1     -11.785   6.407  70.059  1.00  0.00    -0.429 OA 
BRANCH  16  19
HETATM   19  C   UNL     1     -10.463   4.724  71.185  1.00  0.00    -0.051 C  
BRANCH  19  20
HETATM   20  S   UNL     1      -9.323   4.512  69.801  1.00  0.00    -0.172 SA 
BRANCH  20  21
HETATM   21  C   UNL     1      -7.826   5.055  70.546  1.00  0.00    -0.074 C  
HETATM   22  O   UNL     1      -7.371   4.492  71.538  1.00  0.00    -0.059 OA 
BRANCH  21  23
HETATM   23  C   UNL     1      -7.147   6.231  69.936  1.00  0.00    -0.072 A  
HETATM   24  C   UNL     1      -7.283   6.452  68.559  1.00  0.00    -0.085 A  
HETATM   25  C   UNL     1      -6.614   7.518  67.951  1.00  0.00    -0.058 A  
HETATM   26  C   UNL     1      -5.801   8.359  68.709  1.00  0.00    -0.043 A  
HETATM   27  C   UNL     1      -5.664   8.146  70.079  1.00  0.00    -0.022 A  
HETATM   28  C   UNL     1      -6.332   7.086  70.692  1.00  0.00    -0.043 A  
ENDBRANCH  21  23
ENDBRANCH  20  21
ENDBRANCH  19  20
ENDBRANCH  16  19
ENDBRANCH  14  15
ENDBRANCH  12  14
ENDBRANCH   9  10
ENDBRANCH   6   9
ENDBRANCH   3   5
TORSDOF 9
ENDMDL
MODEL      359
REMARK 921   NORMALIZED FREE ENERGY PREDICTED BY IDOCK:   -3.45 KCAL/MOL
REMARK 922        TOTAL FREE ENERGY PREDICTED BY IDOCK:   -6.11 KCAL/MOL
REMARK 923 INTER-LIGAND FREE ENERGY PREDICTED BY IDOCK:   -5.46 KCAL/MOL
REMARK 924 INTRA-LIGAND FREE ENERGY PREDICTED BY IDOCK:   -0.65 KCAL/MOL
REMARK 927      BINDING AFFINITY PREDICTED BY RF-SCORE:    0.00 PKD
ROOT
HETATM    1  O   UNL     1     -11.207  14.861  65.197  1.00  0.00    -0.352 OA 
HETATM    2  C   UNL     1     -11.404  16.076  64.631  1.00  0.00    -0.306 C  
HETATM    3  C   UNL     1     -10.467  17.164  65.144  1.00  0.00     0.139 C  
HETATM    4  O   UNL     1     -12.280  16.277  63.806  1.00  0.00    -0.923 OA 
ENDROOT
BRANCH   3   5
HETATM    5  N   UNL     1      -9.532  16.675  66.152  1.00  0.00    -0.294 N  
HETATM    6  C   UNL     1      -8.296  17.255  66.345  1.00  0.00    -0.280 C  
HETATM    7  H   UNL     1      -9.801  15.880  66.732  1.00  0.00     0.000 HD 
HETATM    8  O   UNL     1      -7.890  18.186  65.657  1.00  0.00    -0.520 OA 
BRANCH   6   9
HETATM    9  C   UNL     1      -7.438  16.629  67.452  1.00  0.00    -0.161 C  
BRANCH   9  10
HETATM   10  N   UNL     1      -7.112  15.233  67.216  1.00  0.00    -0.190 N  
HETATM   11  H   UNL     1      -7.363  14.815  66.321  1.00  0.00     0.000 HD 
HETATM   12  C   UNL     1      -6.477  14.455  68.157  1.00  0.00    -0.136 C  
HETATM   13  O   UNL     1      -6.118  14.901  69.243  1.00  0.00    -0.100 OA 
BRANCH  12  14
HETATM   14  C   UNL     1      -6.255  12.993  67.745  1.00  0.00    -0.149 C  
BRANCH  14  15
HETATM   15  N   UNL     1      -7.236  12.517  66.775  1.00  0.00    -0.351 N  
HETATM   16  C   UNL     1      -8.422  11.943  67.188  1.00  0.00    -0.173 C  
HETATM   17  H   UNL     1      -7.043  12.609  65.777  1.00  0.00     0.000 HD 
HETATM   18  O   UNL     1      -8.644  11.678  68.367  1.00  0.00    -0.153 OA 
BRANCH  16  19
HETATM   19  C   UNL     1      -9.385  11.592  66.066  1.00  0.00    -0.223 C  
BRANCH  19  20
HETATM   20  S   UNL     1      -8.576  10.662  64.747  1.00  0.00    -0.081 SA 
BRANCH  20  21
HETATM   21  C   UNL     1      -7.565   9.586  65.700  1.00  0.00    -0.101 C  
HETATM   22  O   UNL     1      -6.351   9.759  65.777  1.00  0.00    -0.071 OA 
BRANCH  21  23
HETATM   23  C   UNL     1      -8.236   8.451  66.391  1.00  0.00    -0.109 A  
HETATM   24  C   UNL     1      -7.452   7.531  67.099  1.00  0.00    -0.099 A  
HETATM   25  C   UNL     1      -8.049   6.426  67.713  1.00  0.00    -0.115 A  
HETATM   26  C   UNL     1      -9.427   6.231  67.616  1.00  0.00    -0.115 A  
HETATM   27  C   UNL     1     -10.212   7.144  66.915  1.00  0.00    -0.330 A  
HETATM   28  C   UNL     1      -9.621   8.249  66.303  1.00  0.00    -0.266 A  
ENDBRANCH  21  23
ENDBRANCH  20  21
ENDBRANCH  19  20
ENDBRANCH  16  19
ENDBRANCH  14  15
ENDBRANCH  12  14
ENDBRANCH   9  10
ENDBRANCH   6   9
ENDBRANCH   3   5
TORSDOF 9
ENDMDL
MODEL      360
REMARK 921   NORMALIZED FREE ENERGY PREDICTED BY IDOCK:   -3.42 KCAL/MOL
REMARK 922        TOTAL FREE ENERGY PREDICTED BY IDOCK:   -6.06 KCAL/MOL
REMARK 923 INTER-LIGAND FREE ENERGY PREDICTED BY IDOCK:   -4.87 KCAL/MOL
REMARK 924 INTRA-LIGAND FREE ENERGY PREDICTED BY IDOCK:   -1.19 KCAL/MOL
REMARK 927      BINDING AFFINITY PREDICTED BY RF-SCORE:    0.00 PKD
ROOT
HETATM    1  O   UNL     1      -6.848  14.472  71.683  1.00  0.00     0.826 OA 
HETATM    2  C   UNL     1      -6.121  13.684  70.856  1.00  0.00    -0.015 C  
HETATM    3  C   UNL     1      -6.650  13.621  69.427  1.00  0.00    -0.090 C  
HETATM    4  O   UNL     1      -5.146  13.059  71.240  1.00  0.00    -0.143 OA 
ENDROOT
BRANCH   3   5
HETATM    5  N   UNL     1      -7.847  14.432  69.232  1.00  0.00    -0.338 N  
HETATM    6  C   UNL     1      -8.149  15.008  68.016  1.00  0.00    -0.130 C  
HETATM    7  H   UNL     1      -8.480  14.578  70.019  1.00  0.00     0.000 HD 
HETATM    8  O   UNL     1      -7.414  14.910  67.038  1.00  0.00    -0.145 OA 
BRANCH   6   9
HETATM    9  C   UNL     1      -9.449  15.821  67.975  1.00  0.00    -0.202 C  
BRANCH   9  10
HETATM   10  N   UNL     1     -10.392  15.359  66.970  1.00  0.00    -0.274 N  
HETATM   11  H   UNL     1     -10.304  15.709  66.017  1.00  0.00     0.000 HD 
HETATM   12  C   UNL     1     -11.399  14.466  67.259  1.00  0.00    -0.342 C  
HETATM   13  O   UNL     1     -11.544  13.981  68.377  1.00  0.00    -0.290 OA 
BRANCH  12  14
HETATM   14  C   UNL     1     -12.323  14.129  66.080  1.00  0.00    -0.436 C  
BRANCH  14  15
HETATM   15  N   UNL     1     -12.063  12.812  65.508  1.00  0.00    -0.448 N  
HETATM   16  C   UNL     1     -11.101  12.640  64.532  1.00  0.00    -0.327 C  
HETATM   17  H   UNL     1     -12.599  12.007  65.833  1.00  0.00     0.000 HD 
HETATM   18  O   UNL     1     -10.529  13.590  64.004  1.00  0.00    -0.273 OA 
BRANCH  16  19
HETATM   19  C   UNL     1     -10.873  11.198  64.109  1.00  0.00    -0.285 C  
BRANCH  19  20
HETATM   20  S   UNL     1      -9.215  10.623  64.534  1.00  0.00    -0.246 SA 
BRANCH  20  21
HETATM   21  C   UNL     1      -9.222  10.909  66.268  1.00  0.00    -0.177 C  
HETATM   22  O   UNL     1      -8.873  11.990  66.734  1.00  0.00    -0.191 OA 
BRANCH  21  23
HETATM   23  C   UNL     1      -9.649   9.784  67.145  1.00  0.00    -0.211 A  
HETATM   24  C   UNL     1      -9.599   8.478  66.642  1.00  0.00    -0.292 A  
HETATM   25  C   UNL     1     -10.044   7.408  67.424  1.00  0.00    -0.274 A  
HETATM   26  C   UNL     1     -10.549   7.637  68.703  1.00  0.00    -0.161 A  
HETATM   27  C   UNL     1     -10.600   8.934  69.209  1.00  0.00    -0.219 A  
HETATM   28  C   UNL     1     -10.154  10.005  68.435  1.00  0.00    -0.186 A  
ENDBRANCH  21  23
ENDBRANCH  20  21
ENDBRANCH  19  20
ENDBRANCH  16  19
ENDBRANCH  14  15
ENDBRANCH  12  14
ENDBRANCH   9  10
ENDBRANCH   6   9
ENDBRANCH   3   5
TORSDOF 9
ENDMDL
MODEL      361
REMARK 921   NORMALIZED FREE ENERGY PREDICTED BY IDOCK:   -3.41 KCAL/MOL
REMARK 922        TOTAL FREE ENERGY PREDICTED BY IDOCK:   -6.05 KCAL/MOL
REMARK 923 INTER-LIGAND FREE ENERGY PREDICTED BY IDOCK:   -4.77 KCAL/MOL
REMARK 924 INTRA-LIGAND FREE ENERGY PREDICTED BY IDOCK:   -1.27 KCAL/MOL
REMARK 927      BINDING AFFINITY PREDICTED BY RF-SCORE:    0.00 PKD
ROOT
HETATM    1  O   UNL     1      -9.310   9.579  70.294  1.00  0.00    -0.229 OA 
HETATM    2  C   UNL     1     -10.633   9.868  70.319  1.00  0.00    -0.301 C  
HETATM    3  C   UNL     1     -11.510   8.737  70.846  1.00  0.00    -0.284 C  
HETATM    4  O   UNL     1     -11.076  10.934  69.925  1.00  0.00    -0.266 OA 
ENDROOT
BRANCH   3   5
HETATM    5  N   UNL     1     -10.742   7.556  71.223  1.00  0.00    -0.224 N  
HETATM    6  C   UNL     1     -10.821   6.376  70.514  1.00  0.00    -0.279 C  
HETATM    7  H   UNL     1     -10.128   7.604  72.037  1.00  0.00     0.000 HD 
HETATM    8  O   UNL     1     -11.569   6.233  69.551  1.00  0.00    -0.423 OA 
BRANCH   6   9
HETATM    9  C   UNL     1      -9.941   5.232  71.034  1.00  0.00    -0.201 C  
BRANCH   9  10
HETATM   10  N   UNL     1     -10.021   4.025  70.230  1.00  0.00    -0.131 N  
HETATM   11  H   UNL     1     -10.923   3.562  70.126  1.00  0.00     0.000 HD 
HETATM   12  C   UNL     1      -8.922   3.482  69.603  1.00  0.00    -0.110 C  
HETATM   13  O   UNL     1      -7.811   4.002  69.660  1.00  0.00    -0.052 OA 
BRANCH  12  14
HETATM   14  C   UNL     1      -9.191   2.181  68.835  1.00  0.00    -0.154 C  
BRANCH  14  15
HETATM   15  N   UNL     1      -9.522   2.404  67.431  1.00  0.00    -0.396 N  
HETATM   16  C   UNL     1      -8.544   2.367  66.457  1.00  0.00    -0.114 C  
HETATM   17  H   UNL     1     -10.490   2.590  67.165  1.00  0.00     0.000 HD 
HETATM   18  O   UNL     1      -7.350   2.290  66.732  1.00  0.00    -0.059 OA 
BRANCH  16  19
HETATM   19  C   UNL     1      -9.056   2.514  65.034  1.00  0.00    -0.137 C  
BRANCH  19  20
HETATM   20  S   UNL     1      -9.885   4.097  64.773  1.00  0.00    -0.172 SA 
BRANCH  20  21
HETATM   21  C   UNL     1      -8.513   5.190  64.890  1.00  0.00    -0.149 C  
HETATM   22  O   UNL     1      -7.390   4.837  64.540  1.00  0.00    -0.064 OA 
BRANCH  21  23
HETATM   23  C   UNL     1      -8.765   6.548  65.445  1.00  0.00    -0.020 A  
HETATM   24  C   UNL     1      -9.563   6.673  66.591  1.00  0.00    -0.207 A  
HETATM   25  C   UNL     1      -9.860   7.939  67.103  1.00  0.00    -0.273 A  
HETATM   26  C   UNL     1      -9.374   9.082  66.471  1.00  0.00    -0.246 A  
HETATM   27  C   UNL     1      -8.579   8.964  65.333  1.00  0.00    -0.200 A  
HETATM   28  C   UNL     1      -8.276   7.703  64.819  1.00  0.00    -0.081 A  
ENDBRANCH  21  23
ENDBRANCH  20  21
ENDBRANCH  19  20
ENDBRANCH  16  19
ENDBRANCH  14  15
ENDBRANCH  12  14
ENDBRANCH   9  10
ENDBRANCH   6   9
ENDBRANCH   3   5
TORSDOF 9
ENDMDL
MODEL      362
REMARK 921   NORMALIZED FREE ENERGY PREDICTED BY IDOCK:   -3.40 KCAL/MOL
REMARK 922        TOTAL FREE ENERGY PREDICTED BY IDOCK:   -6.03 KCAL/MOL
REMARK 923 INTER-LIGAND FREE ENERGY PREDICTED BY IDOCK:   -5.29 KCAL/MOL
REMARK 924 INTRA-LIGAND FREE ENERGY PREDICTED BY IDOCK:   -0.74 KCAL/MOL
REMARK 927      BINDING AFFINITY PREDICTED BY RF-SCORE:    0.00 PKD
ROOT
HETATM    1  O   UNL     1      -8.621   7.042  67.361  1.00  0.00    -0.121 OA 
HETATM    2  C   UNL     1      -8.237   5.992  66.597  1.00  0.00    -0.106 C  
HETATM    3  C   UNL     1      -7.686   6.382  65.230  1.00  0.00    -0.098 C  
HETATM    4  O   UNL     1      -8.354   4.836  66.970  1.00  0.00    -0.106 OA 
ENDROOT
BRANCH   3   5
HETATM    5  N   UNL     1      -7.681   7.825  65.014  1.00  0.00    -0.100 N  
HETATM    6  C   UNL     1      -6.930   8.412  64.017  1.00  0.00    -0.075 C  
HETATM    7  H   UNL     1      -8.250   8.418  65.618  1.00  0.00     0.000 HD 
HETATM    8  O   UNL     1      -6.191   7.766  63.280  1.00  0.00    -0.061 OA 
BRANCH   6   9
HETATM    9  C   UNL     1      -7.045   9.938  63.916  1.00  0.00    -0.127 C  
BRANCH   9  10
HETATM   10  N   UNL     1      -7.900  10.526  64.933  1.00  0.00    -0.306 N  
HETATM   11  H   UNL     1      -8.912  10.465  64.820  1.00  0.00     0.000 HD 
HETATM   12  C   UNL     1      -7.395  11.162  66.044  1.00  0.00     0.045 C  
HETATM   13  O   UNL     1      -6.188  11.244  66.260  1.00  0.00    -0.133 OA 
BRANCH  12  14
HETATM   14  C   UNL     1      -8.450  11.758  66.985  1.00  0.00    -0.175 C  
BRANCH  14  15
HETATM   15  N   UNL     1      -8.730  13.165  66.713  1.00  0.00    -0.402 N  
HETATM   16  C   UNL     1      -9.756  13.533  65.866  1.00  0.00    -0.181 C  
HETATM   17  H   UNL     1      -8.159  13.886  67.155  1.00  0.00     0.000 HD 
HETATM   18  O   UNL     1     -10.380  12.711  65.199  1.00  0.00    -0.283 OA 
BRANCH  16  19
HETATM   19  C   UNL     1      -9.991  15.030  65.762  1.00  0.00    -0.346 C  
BRANCH  19  20
HETATM   20  S   UNL     1      -8.633  15.980  66.479  1.00  0.00    -0.331 SA 
BRANCH  20  21
HETATM   21  C   UNL     1      -9.225  17.614  66.219  1.00  0.00    -0.190 C  
HETATM   22  O   UNL     1     -10.319  17.817  65.699  1.00  0.00    -0.612 OA 
BRANCH  21  23
HETATM   23  C   UNL     1      -8.340  18.736  66.637  1.00  0.00    -0.296 A  
HETATM   24  C   UNL     1      -8.654  19.447  67.803  1.00  0.00    -0.349 A  
HETATM   25  C   UNL     1      -7.871  20.539  68.190  1.00  0.00     0.024 A  
HETATM   26  C   UNL     1      -6.781  20.930  67.414  1.00  0.00    -0.427 A  
HETATM   27  C   UNL     1      -6.463  20.226  66.255  1.00  0.00    -0.246 A  
HETATM   28  C   UNL     1      -7.238  19.134  65.865  1.00  0.00    -0.293 A  
ENDBRANCH  21  23
ENDBRANCH  20  21
ENDBRANCH  19  20
ENDBRANCH  16  19
ENDBRANCH  14  15
ENDBRANCH  12  14
ENDBRANCH   9  10
ENDBRANCH   6   9
ENDBRANCH   3   5
TORSDOF 9
ENDMDL
MODEL      363
REMARK 921   NORMALIZED FREE ENERGY PREDICTED BY IDOCK:   -3.40 KCAL/MOL
REMARK 922        TOTAL FREE ENERGY PREDICTED BY IDOCK:   -6.03 KCAL/MOL
REMARK 923 INTER-LIGAND FREE ENERGY PREDICTED BY IDOCK:   -5.40 KCAL/MOL
REMARK 924 INTRA-LIGAND FREE ENERGY PREDICTED BY IDOCK:   -0.63 KCAL/MOL
REMARK 927      BINDING AFFINITY PREDICTED BY RF-SCORE:    0.00 PKD
ROOT
HETATM    1  O   UNL     1      -9.523  15.658  65.158  1.00  0.00    -0.193 OA 
HETATM    2  C   UNL     1     -10.690  16.208  65.571  1.00  0.00    -0.342 C  
HETATM    3  C   UNL     1     -11.935  15.506  65.040  1.00  0.00     0.161 C  
HETATM    4  O   UNL     1     -10.729  17.198  66.282  1.00  0.00    -0.221 OA 
ENDROOT
BRANCH   3   5
HETATM    5  N   UNL     1     -11.619  14.367  64.184  1.00  0.00    -0.646 N  
HETATM    6  C   UNL     1     -12.323  13.183  64.253  1.00  0.00    -0.351 C  
HETATM    7  H   UNL     1     -10.854  14.449  63.513  1.00  0.00     0.000 HD 
HETATM    8  O   UNL     1     -13.226  12.999  65.063  1.00  0.00    -0.739 OA 
BRANCH   6   9
HETATM    9  C   UNL     1     -11.873  12.089  63.277  1.00  0.00    -0.353 C  
BRANCH   9  10
HETATM   10  N   UNL     1     -11.119  11.020  63.909  1.00  0.00    -0.419 N  
HETATM   11  H   UNL     1     -11.536  10.523  64.696  1.00  0.00     0.000 HD 
HETATM   12  C   UNL     1      -9.862  10.653  63.485  1.00  0.00    -0.326 C  
HETATM   13  O   UNL     1      -9.312  11.186  62.524  1.00  0.00    -0.313 OA 
BRANCH  12  14
HETATM   14  C   UNL     1      -9.204   9.533  64.302  1.00  0.00    -0.107 C  
BRANCH  14  15
HETATM   15  N   UNL     1      -8.563  10.016  65.522  1.00  0.00    -0.144 N  
HETATM   16  C   UNL     1      -7.230   9.762  65.772  1.00  0.00    -0.104 C  
HETATM   17  H   UNL     1      -9.109  10.549  66.200  1.00  0.00     0.000 HD 
HETATM   18  O   UNL     1      -6.564   9.009  65.066  1.00  0.00    -0.068 OA 
BRANCH  16  19
HETATM   19  C   UNL     1      -6.681  10.415  67.029  1.00  0.00    -0.080 C  
BRANCH  19  20
HETATM   20  S   UNL     1      -6.367   9.210  68.337  1.00  0.00    -0.054 SA 
BRANCH  20  21
HETATM   21  C   UNL     1      -7.367   9.876  69.620  1.00  0.00    -0.115 C  
HETATM   22  O   UNL     1      -7.968  10.937  69.470  1.00  0.00    -0.076 OA 
BRANCH  21  23
HETATM   23  C   UNL     1      -7.439   9.113  70.896  1.00  0.00    -0.136 A  
HETATM   24  C   UNL     1      -8.672   8.582  71.298  1.00  0.00    -0.228 A  
HETATM   25  C   UNL     1      -8.781   7.906  72.517  1.00  0.00    -0.209 A  
HETATM   26  C   UNL     1      -7.666   7.766  73.342  1.00  0.00    -0.168 A  
HETATM   27  C   UNL     1      -6.437   8.290  72.947  1.00  0.00    -0.099 A  
HETATM   28  C   UNL     1      -6.322   8.962  71.730  1.00  0.00    -0.070 A  
ENDBRANCH  21  23
ENDBRANCH  20  21
ENDBRANCH  19  20
ENDBRANCH  16  19
ENDBRANCH  14  15
ENDBRANCH  12  14
ENDBRANCH   9  10
ENDBRANCH   6   9
ENDBRANCH   3   5
TORSDOF 9
ENDMDL
MODEL      364
REMARK 921   NORMALIZED FREE ENERGY PREDICTED BY IDOCK:   -3.39 KCAL/MOL
REMARK 922        TOTAL FREE ENERGY PREDICTED BY IDOCK:   -6.02 KCAL/MOL
REMARK 923 INTER-LIGAND FREE ENERGY PREDICTED BY IDOCK:   -5.25 KCAL/MOL
REMARK 924 INTRA-LIGAND FREE ENERGY PREDICTED BY IDOCK:   -0.77 KCAL/MOL
REMARK 927      BINDING AFFINITY PREDICTED BY RF-SCORE:    0.00 PKD
ROOT
HETATM    1  O   UNL     1     -10.287  14.848  67.407  1.00  0.00    -0.241 OA 
HETATM    2  C   UNL     1     -11.140  14.081  68.128  1.00  0.00    -0.260 C  
HETATM    3  C   UNL     1     -11.739  12.913  67.351  1.00  0.00    -0.372 C  
HETATM    4  O   UNL     1     -11.421  14.330  69.288  1.00  0.00    -0.256 OA 
ENDROOT
BRANCH   3   5
HETATM    5  N   UNL     1     -11.268  12.852  65.971  1.00  0.00    -0.285 N  
HETATM    6  C   UNL     1     -12.122  13.008  64.900  1.00  0.00    -0.413 C  
HETATM    7  H   UNL     1     -10.277  12.689  65.794  1.00  0.00     0.000 HD 
HETATM    8  O   UNL     1     -13.331  13.166  65.037  1.00  0.00    -0.634 OA 
BRANCH   6   9
HETATM    9  C   UNL     1     -11.467  12.928  63.515  1.00  0.00    -0.412 C  
BRANCH   9  10
HETATM   10  N   UNL     1     -11.048  11.587  63.147  1.00  0.00    -0.811 N  
HETATM   11  H   UNL     1     -11.761  10.894  62.922  1.00  0.00     0.000 HD 
HETATM   12  C   UNL     1      -9.723  11.216  63.092  1.00  0.00    -0.376 C  
HETATM   13  O   UNL     1      -8.811  12.006  63.320  1.00  0.00     0.188 OA 
BRANCH  12  14
HETATM   14  C   UNL     1      -9.477   9.746  62.727  1.00  0.00     0.028 C  
BRANCH  14  15
HETATM   15  N   UNL     1      -8.649   9.045  63.704  1.00  0.00    -0.351 N  
HETATM   16  C   UNL     1      -8.027   7.855  63.384  1.00  0.00    -0.125 C  
HETATM   17  H   UNL     1      -8.528   9.440  64.637  1.00  0.00     0.000 HD 
HETATM   18  O   UNL     1      -8.250   7.263  62.331  1.00  0.00    -0.134 OA 
BRANCH  16  19
HETATM   19  C   UNL     1      -7.118   7.299  64.467  1.00  0.00    -0.058 C  
BRANCH  19  20
HETATM   20  S   UNL     1      -7.696   7.730  66.123  1.00  0.00    -0.092 SA 
BRANCH  20  21
HETATM   21  C   UNL     1      -8.605   6.279  66.523  1.00  0.00    -0.128 C  
HETATM   22  O   UNL     1      -9.826   6.241  66.399  1.00  0.00    -0.151 OA 
BRANCH  21  23
HETATM   23  C   UNL     1      -7.836   5.111  67.032  1.00  0.00    -0.096 A  
HETATM   24  C   UNL     1      -6.642   5.338  67.729  1.00  0.00    -0.053 A  
HETATM   25  C   UNL     1      -5.872   4.259  68.172  1.00  0.00    -0.026 A  
HETATM   26  C   UNL     1      -6.284   2.952  67.914  1.00  0.00    -0.032 A  
HETATM   27  C   UNL     1      -7.471   2.720  67.223  1.00  0.00    -0.065 A  
HETATM   28  C   UNL     1      -8.245   3.793  66.781  1.00  0.00    -0.096 A  
ENDBRANCH  21  23
ENDBRANCH  20  21
ENDBRANCH  19  20
ENDBRANCH  16  19
ENDBRANCH  14  15
ENDBRANCH  12  14
ENDBRANCH   9  10
ENDBRANCH   6   9
ENDBRANCH   3   5
TORSDOF 9
ENDMDL
MODEL      365
REMARK 921   NORMALIZED FREE ENERGY PREDICTED BY IDOCK:   -3.38 KCAL/MOL
REMARK 922        TOTAL FREE ENERGY PREDICTED BY IDOCK:   -6.00 KCAL/MOL
REMARK 923 INTER-LIGAND FREE ENERGY PREDICTED BY IDOCK:   -5.17 KCAL/MOL
REMARK 924 INTRA-LIGAND FREE ENERGY PREDICTED BY IDOCK:   -0.84 KCAL/MOL
REMARK 927      BINDING AFFINITY PREDICTED BY RF-SCORE:    0.00 PKD
ROOT
HETATM    1  O   UNL     1      -7.078   7.438  66.711  1.00  0.00    -0.074 OA 
HETATM    2  C   UNL     1      -5.838   7.376  67.254  1.00  0.00    -0.031 C  
HETATM    3  C   UNL     1      -5.323   5.958  67.476  1.00  0.00    -0.005 C  
HETATM    4  O   UNL     1      -5.210   8.375  67.563  1.00  0.00    -0.032 OA 
ENDROOT
BRANCH   3   5
HETATM    5  N   UNL     1      -6.277   4.938  67.053  1.00  0.00    -0.031 N  
HETATM    6  C   UNL     1      -6.174   4.302  65.834  1.00  0.00    -0.032 C  
HETATM    7  H   UNL     1      -7.043   4.687  67.679  1.00  0.00     0.000 HD 
HETATM    8  O   UNL     1      -5.305   4.582  65.014  1.00  0.00    -0.012 OA 
BRANCH   6   9
HETATM    9  C   UNL     1      -7.250   3.247  65.547  1.00  0.00    -0.071 C  
BRANCH   9  10
HETATM   10  N   UNL     1      -8.590   3.666  65.920  1.00  0.00    -0.111 N  
HETATM   11  H   UNL     1      -8.991   3.313  66.788  1.00  0.00     0.000 HD 
HETATM   12  C   UNL     1      -9.338   4.522  65.144  1.00  0.00    -0.159 C  
HETATM   13  O   UNL     1      -8.906   5.010  64.103  1.00  0.00    -0.131 OA 
BRANCH  12  14
HETATM   14  C   UNL     1     -10.747   4.817  65.678  1.00  0.00    -0.141 C  
BRANCH  14  15
HETATM   15  N   UNL     1     -10.784   4.998  67.126  1.00  0.00    -0.164 N  
HETATM   16  C   UNL     1     -11.000   6.244  67.680  1.00  0.00    -0.342 C  
HETATM   17  H   UNL     1     -10.648   4.192  67.737  1.00  0.00     0.000 HD 
HETATM   18  O   UNL     1     -11.027   7.266  66.999  1.00  0.00    -0.358 OA 
BRANCH  16  19
HETATM   19  C   UNL     1     -11.115   6.256  69.195  1.00  0.00    -0.390 C  
BRANCH  19  20
HETATM   20  S   UNL     1      -9.769   7.179  69.968  1.00  0.00    -0.170 SA 
BRANCH  20  21
HETATM   21  C   UNL     1     -10.546   7.663  71.469  1.00  0.00    -0.212 C  
HETATM   22  O   UNL     1     -10.387   7.017  72.501  1.00  0.00    -0.193 OA 
BRANCH  21  23
HETATM   23  C   UNL     1     -11.414   8.872  71.431  1.00  0.00    -0.381 A  
HETATM   24  C   UNL     1     -11.098   9.903  70.536  1.00  0.00    -0.398 A  
HETATM   25  C   UNL     1     -11.864  11.072  70.516  1.00  0.00    -0.464 A  
HETATM   26  C   UNL     1     -12.938  11.221  71.392  1.00  0.00    -0.482 A  
HETATM   27  C   UNL     1     -13.258  10.199  72.282  1.00  0.00    -0.359 A  
HETATM   28  C   UNL     1     -12.499   9.028  72.305  1.00  0.00    -0.427 A  
ENDBRANCH  21  23
ENDBRANCH  20  21
ENDBRANCH  19  20
ENDBRANCH  16  19
ENDBRANCH  14  15
ENDBRANCH  12  14
ENDBRANCH   9  10
ENDBRANCH   6   9
ENDBRANCH   3   5
TORSDOF 9
ENDMDL
MODEL      366
REMARK 921   NORMALIZED FREE ENERGY PREDICTED BY IDOCK:   -3.37 KCAL/MOL
REMARK 922        TOTAL FREE ENERGY PREDICTED BY IDOCK:   -5.99 KCAL/MOL
REMARK 923 INTER-LIGAND FREE ENERGY PREDICTED BY IDOCK:   -6.32 KCAL/MOL
REMARK 924 INTRA-LIGAND FREE ENERGY PREDICTED BY IDOCK:    0.33 KCAL/MOL
REMARK 927      BINDING AFFINITY PREDICTED BY RF-SCORE:    0.00 PKD
ROOT
HETATM    1  O   UNL     1     -12.748  12.715  65.520  1.00  0.00    -0.597 OA 
HETATM    2  C   UNL     1     -12.250  12.824  64.265  1.00  0.00    -0.425 C  
HETATM    3  C   UNL     1     -10.813  12.336  64.119  1.00  0.00    -0.365 C  
HETATM    4  O   UNL     1     -12.894  13.302  63.346  1.00  0.00    -0.568 OA 
ENDROOT
BRANCH   3   5
HETATM    5  N   UNL     1     -10.254  11.841  65.372  1.00  0.00    -0.251 N  
HETATM    6  C   UNL     1      -9.581  12.666  66.248  1.00  0.00    -0.244 C  
HETATM    7  H   UNL     1     -10.364  10.854  65.607  1.00  0.00     0.000 HD 
HETATM    8  O   UNL     1      -9.375  13.852  66.012  1.00  0.00    -0.172 OA 
BRANCH   6   9
HETATM    9  C   UNL     1      -9.066  11.991  67.526  1.00  0.00    -0.177 C  
BRANCH   9  10
HETATM   10  N   UNL     1      -7.904  12.647  68.102  1.00  0.00    -0.135 N  
HETATM   11  H   UNL     1      -7.695  13.607  67.827  1.00  0.00     0.000 HD 
HETATM   12  C   UNL     1      -7.074  12.021  69.004  1.00  0.00    -0.077 C  
HETATM   13  O   UNL     1      -7.283  10.878  69.403  1.00  0.00    -0.114 OA 
BRANCH  12  14
HETATM   14  C   UNL     1      -5.874  12.856  69.469  1.00  0.00    -0.104 C  
BRANCH  14  15
HETATM   15  N   UNL     1      -5.753  14.127  68.760  1.00  0.00    -0.079 N  
HETATM   16  C   UNL     1      -5.476  15.295  69.441  1.00  0.00    -0.093 C  
HETATM   17  H   UNL     1      -5.874  14.152  67.747  1.00  0.00     0.000 HD 
HETATM   18  O   UNL     1      -5.461  15.349  70.668  1.00  0.00    -0.137 OA 
BRANCH  16  19
HETATM   19  C   UNL     1      -5.278  16.516  68.558  1.00  0.00    -0.109 C  
BRANCH  19  20
HETATM   20  S   UNL     1      -5.136  18.035  69.525  1.00  0.00    -0.189 SA 
BRANCH  20  21
HETATM   21  C   UNL     1      -6.289  19.053  68.675  1.00  0.00    -0.244 C  
HETATM   22  O   UNL     1      -5.974  20.169  68.272  1.00  0.00    -0.231 OA 
BRANCH  21  23
HETATM   23  C   UNL     1      -7.664  18.514  68.481  1.00  0.00    -0.330 A  
HETATM   24  C   UNL     1      -8.756  19.382  68.613  1.00  0.00    -0.403 A  
HETATM   25  C   UNL     1     -10.059  18.893  68.489  1.00  0.00    -0.460 A  
HETATM   26  C   UNL     1     -10.278  17.538  68.244  1.00  0.00    -0.365 A  
HETATM   27  C   UNL     1      -9.197  16.670  68.110  1.00  0.00    -0.220 A  
HETATM   28  C   UNL     1      -7.894  17.153  68.229  1.00  0.00    -0.227 A  
ENDBRANCH  21  23
ENDBRANCH  20  21
ENDBRANCH  19  20
ENDBRANCH  16  19
ENDBRANCH  14  15
ENDBRANCH  12  14
ENDBRANCH   9  10
ENDBRANCH   6   9
ENDBRANCH   3   5
TORSDOF 9
ENDMDL
MODEL      367
REMARK 921   NORMALIZED FREE ENERGY PREDICTED BY IDOCK:   -3.35 KCAL/MOL
REMARK 922        TOTAL FREE ENERGY PREDICTED BY IDOCK:   -5.95 KCAL/MOL
REMARK 923 INTER-LIGAND FREE ENERGY PREDICTED BY IDOCK:   -4.98 KCAL/MOL
REMARK 924 INTRA-LIGAND FREE ENERGY PREDICTED BY IDOCK:   -0.97 KCAL/MOL
REMARK 927      BINDING AFFINITY PREDICTED BY RF-SCORE:    0.00 PKD
ROOT
HETATM    1  O   UNL     1     -10.582   9.853  68.562  1.00  0.00    -0.199 OA 
HETATM    2  C   UNL     1     -10.225   8.547  68.540  1.00  0.00    -0.198 C  
HETATM    3  C   UNL     1      -8.770   8.303  68.157  1.00  0.00    -0.136 C  
HETATM    4  O   UNL     1     -11.017   7.650  68.778  1.00  0.00    -0.054 OA 
ENDROOT
BRANCH   3   5
HETATM    5  N   UNL     1      -8.042   9.539  67.888  1.00  0.00    -0.106 N  
HETATM    6  C   UNL     1      -7.940  10.066  66.618  1.00  0.00    -0.115 C  
HETATM    7  H   UNL     1      -7.593  10.028  68.664  1.00  0.00     0.000 HD 
HETATM    8  O   UNL     1      -8.417   9.512  65.633  1.00  0.00    -0.125 OA 
BRANCH   6   9
HETATM    9  C   UNL     1      -7.150  11.377  66.508  1.00  0.00    -0.058 C  
BRANCH   9  10
HETATM   10  N   UNL     1      -7.611  12.411  67.419  1.00  0.00    -0.153 N  
HETATM   11  H   UNL     1      -8.442  12.949  67.172  1.00  0.00     0.000 HD 
HETATM   12  C   UNL     1      -6.967  12.692  68.603  1.00  0.00    -0.091 C  
HETATM   13  O   UNL     1      -5.981  12.064  68.978  1.00  0.00    -0.060 OA 
BRANCH  12  14
HETATM   14  C   UNL     1      -7.574  13.847  69.411  1.00  0.00     0.245 C  
BRANCH  14  15
HETATM   15  N   UNL     1      -8.239  14.843  68.576  1.00  0.00    -0.146 N  
HETATM   16  C   UNL     1      -7.777  16.143  68.518  1.00  0.00    -0.170 C  
HETATM   17  H   UNL     1      -9.057  14.575  68.028  1.00  0.00     0.000 HD 
HETATM   18  O   UNL     1      -6.890  16.555  69.260  1.00  0.00    -0.207 OA 
BRANCH  16  19
HETATM   19  C   UNL     1      -8.508  17.035  67.528  1.00  0.00    -0.200 C  
BRANCH  19  20
HETATM   20  S   UNL     1      -8.959  16.147  66.021  1.00  0.00    -0.220 SA 
BRANCH  20  21
HETATM   21  C   UNL     1     -10.561  15.576  66.465  1.00  0.00    -0.307 C  
HETATM   22  O   UNL     1     -11.180  16.083  67.396  1.00  0.00    -0.226 OA 
BRANCH  21  23
HETATM   23  C   UNL     1     -11.124  14.444  65.678  1.00  0.00    -0.321 A  
HETATM   24  C   UNL     1     -10.324  13.831  64.706  1.00  0.00    -0.422 A  
HETATM   25  C   UNL     1     -10.844  12.802  63.916  1.00  0.00    -0.447 A  
HETATM   26  C   UNL     1     -12.165  12.388  64.086  1.00  0.00    -0.558 A  
HETATM   27  C   UNL     1     -12.965  12.992  65.053  1.00  0.00    -0.199 A  
HETATM   28  C   UNL     1     -12.450  14.018  65.846  1.00  0.00    -0.513 A  
ENDBRANCH  21  23
ENDBRANCH  20  21
ENDBRANCH  19  20
ENDBRANCH  16  19
ENDBRANCH  14  15
ENDBRANCH  12  14
ENDBRANCH   9  10
ENDBRANCH   6   9
ENDBRANCH   3   5
TORSDOF 9
ENDMDL
MODEL      368
REMARK 921   NORMALIZED FREE ENERGY PREDICTED BY IDOCK:   -3.30 KCAL/MOL
REMARK 922        TOTAL FREE ENERGY PREDICTED BY IDOCK:   -5.88 KCAL/MOL
REMARK 923 INTER-LIGAND FREE ENERGY PREDICTED BY IDOCK:   -5.08 KCAL/MOL
REMARK 924 INTRA-LIGAND FREE ENERGY PREDICTED BY IDOCK:   -0.80 KCAL/MOL
REMARK 927      BINDING AFFINITY PREDICTED BY RF-SCORE:    0.00 PKD
ROOT
HETATM    1  O   UNL     1      -9.977   8.220  69.512  1.00  0.00    -0.179 OA 
HETATM    2  C   UNL     1      -9.096   7.408  70.143  1.00  0.00    -0.148 C  
HETATM    3  C   UNL     1      -8.267   6.536  69.205  1.00  0.00    -0.123 C  
HETATM    4  O   UNL     1      -9.002   7.365  71.358  1.00  0.00    -0.136 OA 
ENDROOT
BRANCH   3   5
HETATM    5  N   UNL     1      -8.591   6.753  67.799  1.00  0.00    -0.122 N  
HETATM    6  C   UNL     1      -7.635   7.124  66.878  1.00  0.00    -0.101 C  
HETATM    7  H   UNL     1      -9.555   6.627  67.488  1.00  0.00     0.000 HD 
HETATM    8  O   UNL     1      -6.466   7.334  67.187  1.00  0.00    -0.054 OA 
BRANCH   6   9
HETATM    9  C   UNL     1      -8.137   7.300  65.439  1.00  0.00    -0.133 C  
BRANCH   9  10
HETATM   10  N   UNL     1      -9.039   8.426  65.272  1.00  0.00    -0.414 N  
HETATM   11  H   UNL     1     -10.031   8.294  65.466  1.00  0.00     0.000 HD 
HETATM   12  C   UNL     1      -8.604   9.666  64.860  1.00  0.00    -0.170 C  
HETATM   13  O   UNL     1      -7.419   9.904  64.639  1.00  0.00    -0.129 OA 
BRANCH  12  14
HETATM   14  C   UNL     1      -9.707  10.720  64.698  1.00  0.00    -0.289 C  
BRANCH  14  15
HETATM   15  N   UNL     1     -10.695  10.684  65.774  1.00  0.00    -0.094 N  
HETATM   16  C   UNL     1     -10.380  11.129  67.041  1.00  0.00    -0.224 C  
HETATM   17  H   UNL     1     -11.631  10.324  65.585  1.00  0.00     0.000 HD 
HETATM   18  O   UNL     1      -9.234  11.437  67.360  1.00  0.00    -0.161 OA 
BRANCH  16  19
HETATM   19  C   UNL     1     -11.538  11.126  68.024  1.00  0.00    -0.263 C  
BRANCH  19  20
HETATM   20  S   UNL     1     -11.139  12.016  69.544  1.00  0.00     0.006 SA 
BRANCH  20  21
HETATM   21  C   UNL     1     -11.739  13.616  69.134  1.00  0.00    -0.329 C  
HETATM   22  O   UNL     1     -12.627  14.149  69.793  1.00  0.00    -0.294 OA 
BRANCH  21  23
HETATM   23  C   UNL     1     -11.139  14.287  67.948  1.00  0.00    -0.293 A  
HETATM   24  C   UNL     1      -9.805  14.711  68.013  1.00  0.00    -0.216 A  
HETATM   25  C   UNL     1      -9.232  15.391  66.934  1.00  0.00    -0.254 A  
HETATM   26  C   UNL     1      -9.988  15.659  65.794  1.00  0.00    -0.390 A  
HETATM   27  C   UNL     1     -11.314  15.239  65.723  1.00  0.00    -0.180 A  
HETATM   28  C   UNL     1     -11.890  14.557  66.794  1.00  0.00    -0.390 A  
ENDBRANCH  21  23
ENDBRANCH  20  21
ENDBRANCH  19  20
ENDBRANCH  16  19
ENDBRANCH  14  15
ENDBRANCH  12  14
ENDBRANCH   9  10
ENDBRANCH   6   9
ENDBRANCH   3   5
TORSDOF 9
ENDMDL
MODEL      369
REMARK 921   NORMALIZED FREE ENERGY PREDICTED BY IDOCK:   -3.30 KCAL/MOL
REMARK 922        TOTAL FREE ENERGY PREDICTED BY IDOCK:   -5.88 KCAL/MOL
REMARK 923 INTER-LIGAND FREE ENERGY PREDICTED BY IDOCK:   -5.37 KCAL/MOL
REMARK 924 INTRA-LIGAND FREE ENERGY PREDICTED BY IDOCK:   -0.50 KCAL/MOL
REMARK 927      BINDING AFFINITY PREDICTED BY RF-SCORE:    0.00 PKD
ROOT
HETATM    1  O   UNL     1     -11.857  14.869  73.805  1.00  0.00    -0.331 OA 
HETATM    2  C   UNL     1     -12.397  15.838  73.029  1.00  0.00    -0.478 C  
HETATM    3  C   UNL     1     -12.793  15.372  71.632  1.00  0.00    -0.419 C  
HETATM    4  O   UNL     1     -12.523  16.989  73.415  1.00  0.00     0.087 OA 
ENDROOT
BRANCH   3   5
HETATM    5  N   UNL     1     -12.509  13.959  71.406  1.00  0.00    -0.355 N  
HETATM    6  C   UNL     1     -13.363  12.965  71.836  1.00  0.00    -0.435 C  
HETATM    7  H   UNL     1     -11.653  13.698  70.916  1.00  0.00     0.000 HD 
HETATM    8  O   UNL     1     -14.387  13.202  72.469  1.00  0.00    -0.613 OA 
BRANCH   6   9
HETATM    9  C   UNL     1     -12.924  11.531  71.510  1.00  0.00    -0.380 C  
BRANCH   9  10
HETATM   10  N   UNL     1     -12.184  11.419  70.265  1.00  0.00    -0.348 N  
HETATM   11  H   UNL     1     -12.521  11.924  69.446  1.00  0.00     0.000 HD 
HETATM   12  C   UNL     1     -11.044  10.656  70.150  1.00  0.00    -0.268 C  
HETATM   13  O   UNL     1     -10.564  10.047  71.103  1.00  0.00    -0.153 OA 
BRANCH  12  14
HETATM   14  C   UNL     1     -10.424  10.624  68.747  1.00  0.00    -0.194 C  
BRANCH  14  15
HETATM   15  N   UNL     1      -9.564   9.464  68.527  1.00  0.00    -0.145 N  
HETATM   16  C   UNL     1      -9.605   8.766  67.337  1.00  0.00    -0.161 C  
HETATM   17  H   UNL     1      -8.925   9.166  69.265  1.00  0.00     0.000 HD 
HETATM   18  O   UNL     1     -10.450   8.992  66.475  1.00  0.00    -0.234 OA 
BRANCH  16  19
HETATM   19  C   UNL     1      -8.581   7.649  67.219  1.00  0.00    -0.121 C  
BRANCH  19  20
HETATM   20  S   UNL     1      -9.359   6.020  67.174  1.00  0.00    -0.120 SA 
BRANCH  20  21
HETATM   21  C   UNL     1      -9.346   5.623  68.886  1.00  0.00    -0.120 C  
HETATM   22  O   UNL     1      -9.941   6.319  69.703  1.00  0.00    -0.159 OA 
BRANCH  21  23
HETATM   23  C   UNL     1      -8.571   4.422  69.303  1.00  0.00    -0.107 A  
HETATM   24  C   UNL     1      -7.659   4.538  70.361  1.00  0.00    -0.053 A  
HETATM   25  C   UNL     1      -6.880   3.441  70.738  1.00  0.00    -0.033 A  
HETATM   26  C   UNL     1      -6.999   2.229  70.058  1.00  0.00    -0.033 A  
HETATM   27  C   UNL     1      -7.905   2.107  69.007  1.00  0.00    -0.052 A  
HETATM   28  C   UNL     1      -8.688   3.198  68.627  1.00  0.00    -0.145 A  
ENDBRANCH  21  23
ENDBRANCH  20  21
ENDBRANCH  19  20
ENDBRANCH  16  19
ENDBRANCH  14  15
ENDBRANCH  12  14
ENDBRANCH   9  10
ENDBRANCH   6   9
ENDBRANCH   3   5
TORSDOF 9
ENDMDL
MODEL      370
REMARK 921   NORMALIZED FREE ENERGY PREDICTED BY IDOCK:   -3.28 KCAL/MOL
REMARK 922        TOTAL FREE ENERGY PREDICTED BY IDOCK:   -5.84 KCAL/MOL
REMARK 923 INTER-LIGAND FREE ENERGY PREDICTED BY IDOCK:   -5.18 KCAL/MOL
REMARK 924 INTRA-LIGAND FREE ENERGY PREDICTED BY IDOCK:   -0.66 KCAL/MOL
REMARK 927      BINDING AFFINITY PREDICTED BY RF-SCORE:    0.00 PKD
ROOT
HETATM    1  O   UNL     1      -8.171   4.928  66.845  1.00  0.00    -0.107 OA 
HETATM    2  C   UNL     1      -7.837   3.941  65.980  1.00  0.00    -0.090 C  
HETATM    3  C   UNL     1      -7.236   4.436  64.669  1.00  0.00    -0.066 C  
HETATM    4  O   UNL     1      -8.032   2.762  66.227  1.00  0.00    -0.080 OA 
ENDROOT
BRANCH   3   5
HETATM    5  N   UNL     1      -7.137   5.890  64.606  1.00  0.00    -0.058 N  
HETATM    6  C   UNL     1      -6.074   6.525  63.998  1.00  0.00    -0.034 C  
HETATM    7  H   UNL     1      -7.877   6.455  65.025  1.00  0.00     0.000 HD 
HETATM    8  O   UNL     1      -5.130   5.911  63.511  1.00  0.00    -0.015 OA 
BRANCH   6   9
HETATM    9  C   UNL     1      -6.127   8.058  64.008  1.00  0.00    -0.062 C  
BRANCH   9  10
HETATM   10  N   UNL     1      -7.437   8.596  63.684  1.00  0.00    -0.105 N  
HETATM   11  H   UNL     1      -7.881   8.316  62.809  1.00  0.00     0.000 HD 
HETATM   12  C   UNL     1      -8.102   9.471  64.514  1.00  0.00    -0.142 C  
HETATM   13  O   UNL     1      -7.641   9.826  65.596  1.00  0.00    -0.101 OA 
BRANCH  12  14
HETATM   14  C   UNL     1      -9.454   9.966  63.984  1.00  0.00    -0.167 C  
BRANCH  14  15
HETATM   15  N   UNL     1      -9.594  11.418  64.041  1.00  0.00    -0.349 N  
HETATM   16  C   UNL     1     -10.379  12.018  65.005  1.00  0.00    -0.281 C  
HETATM   17  H   UNL     1      -9.104  11.998  63.359  1.00  0.00     0.000 HD 
HETATM   18  O   UNL     1     -11.100  11.369  65.758  1.00  0.00    -0.252 OA 
BRANCH  16  19
HETATM   19  C   UNL     1     -10.343  13.537  65.002  1.00  0.00    -0.362 C  
BRANCH  19  20
HETATM   20  S   UNL     1     -11.614  14.247  66.071  1.00  0.00    -0.368 SA 
BRANCH  20  21
HETATM   21  C   UNL     1     -10.618  14.811  67.405  1.00  0.00    -0.268 C  
HETATM   22  O   UNL     1      -9.511  15.306  67.205  1.00  0.00    -0.207 OA 
BRANCH  21  23
HETATM   23  C   UNL     1     -11.162  14.649  68.781  1.00  0.00    -0.285 A  
HETATM   24  C   UNL     1     -10.752  15.541  69.780  1.00  0.00    -0.301 A  
HETATM   25  C   UNL     1     -11.206  15.381  71.093  1.00  0.00    -0.410 A  
HETATM   26  C   UNL     1     -12.060  14.327  71.415  1.00  0.00    -0.354 A  
HETATM   27  C   UNL     1     -12.473  13.439  70.425  1.00  0.00    -0.322 A  
HETATM   28  C   UNL     1     -12.027  13.596  69.113  1.00  0.00    -0.394 A  
ENDBRANCH  21  23
ENDBRANCH  20  21
ENDBRANCH  19  20
ENDBRANCH  16  19
ENDBRANCH  14  15
ENDBRANCH  12  14
ENDBRANCH   9  10
ENDBRANCH   6   9
ENDBRANCH   3   5
TORSDOF 9
ENDMDL
MODEL      371
REMARK 921   NORMALIZED FREE ENERGY PREDICTED BY IDOCK:   -3.27 KCAL/MOL
REMARK 922        TOTAL FREE ENERGY PREDICTED BY IDOCK:   -5.82 KCAL/MOL
REMARK 923 INTER-LIGAND FREE ENERGY PREDICTED BY IDOCK:   -5.52 KCAL/MOL
REMARK 924 INTRA-LIGAND FREE ENERGY PREDICTED BY IDOCK:   -0.30 KCAL/MOL
REMARK 927      BINDING AFFINITY PREDICTED BY RF-SCORE:    0.00 PKD
ROOT
HETATM    1  O   UNL     1      -8.476   7.068  70.041  1.00  0.00    -0.136 OA 
HETATM    2  C   UNL     1      -7.766   5.973  69.680  1.00  0.00    -0.097 C  
HETATM    3  C   UNL     1      -7.608   5.798  68.174  1.00  0.00    -0.085 C  
HETATM    4  O   UNL     1      -7.321   5.185  70.499  1.00  0.00    -0.062 OA 
ENDROOT
BRANCH   3   5
HETATM    5  N   UNL     1      -8.259   6.857  67.411  1.00  0.00    -0.118 N  
HETATM    6  C   UNL     1      -7.949   7.103  66.090  1.00  0.00    -0.112 C  
HETATM    7  H   UNL     1      -8.966   7.434  67.869  1.00  0.00     0.000 HD 
HETATM    8  O   UNL     1      -7.082   6.477  65.488  1.00  0.00    -0.061 OA 
BRANCH   6   9
HETATM    9  C   UNL     1      -8.733   8.244  65.429  1.00  0.00    -0.113 C  
BRANCH   9  10
HETATM   10  N   UNL     1      -9.893   8.671  66.191  1.00  0.00    -0.429 N  
HETATM   11  H   UNL     1     -10.811   8.311  65.932  1.00  0.00     0.000 HD 
HETATM   12  C   UNL     1      -9.800   9.543  67.252  1.00  0.00    -0.177 C  
HETATM   13  O   UNL     1      -8.724   9.991  67.640  1.00  0.00    -0.122 OA 
BRANCH  12  14
HETATM   14  C   UNL     1     -11.137   9.912  67.908  1.00  0.00    -0.152 C  
BRANCH  14  15
HETATM   15  N   UNL     1     -11.155  11.268  68.449  1.00  0.00    -0.219 N  
HETATM   16  C   UNL     1     -11.788  11.548  69.642  1.00  0.00    -0.354 C  
HETATM   17  H   UNL     1     -10.692  12.020  67.936  1.00  0.00     0.000 HD 
HETATM   18  O   UNL     1     -12.479  10.717  70.226  1.00  0.00    -0.321 OA 
BRANCH  16  19
HETATM   19  C   UNL     1     -11.633  12.980  70.126  1.00  0.00    -0.064 C  
BRANCH  19  20
HETATM   20  S   UNL     1     -12.118  14.177  68.864  1.00  0.00    -0.239 SA 
BRANCH  20  21
HETATM   21  C   UNL     1     -10.733  14.073  67.787  1.00  0.00    -0.243 C  
HETATM   22  O   UNL     1      -9.590  14.235  68.206  1.00  0.00    -0.208 OA 
BRANCH  21  23
HETATM   23  C   UNL     1     -11.005  13.798  66.349  1.00  0.00    -0.298 A  
HETATM   24  C   UNL     1     -12.229  14.206  65.803  1.00  0.00    -0.458 A  
HETATM   25  C   UNL     1     -12.534  13.914  64.470  1.00  0.00    -0.336 A  
HETATM   26  C   UNL     1     -11.625  13.208  63.682  1.00  0.00    -0.445 A  
HETATM   27  C   UNL     1     -10.405  12.803  64.219  1.00  0.00    -0.402 A  
HETATM   28  C   UNL     1     -10.095  13.094  65.548  1.00  0.00    -0.271 A  
ENDBRANCH  21  23
ENDBRANCH  20  21
ENDBRANCH  19  20
ENDBRANCH  16  19
ENDBRANCH  14  15
ENDBRANCH  12  14
ENDBRANCH   9  10
ENDBRANCH   6   9
ENDBRANCH   3   5
TORSDOF 9
ENDMDL
MODEL      372
REMARK 921   NORMALIZED FREE ENERGY PREDICTED BY IDOCK:   -3.22 KCAL/MOL
REMARK 922        TOTAL FREE ENERGY PREDICTED BY IDOCK:   -5.75 KCAL/MOL
REMARK 923 INTER-LIGAND FREE ENERGY PREDICTED BY IDOCK:   -5.09 KCAL/MOL
REMARK 924 INTRA-LIGAND FREE ENERGY PREDICTED BY IDOCK:   -0.66 KCAL/MOL
REMARK 927      BINDING AFFINITY PREDICTED BY RF-SCORE:    0.00 PKD
ROOT
HETATM    1  O   UNL     1     -10.129  10.046  65.321  1.00  0.00    -0.321 OA 
HETATM    2  C   UNL     1     -10.125  10.994  64.353  1.00  0.00    -0.334 C  
HETATM    3  C   UNL     1      -9.519  10.536  63.031  1.00  0.00    -0.335 C  
HETATM    4  O   UNL     1     -10.546  12.123  64.544  1.00  0.00    -0.278 OA 
ENDROOT
BRANCH   3   5
HETATM    5  N   UNL     1      -9.058   9.152  63.070  1.00  0.00    -0.458 N  
HETATM    6  C   UNL     1      -7.719   8.826  63.035  1.00  0.00    -0.118 C  
HETATM    7  H   UNL     1      -9.749   8.402  63.125  1.00  0.00     0.000 HD 
HETATM    8  O   UNL     1      -6.836   9.671  62.927  1.00  0.00    -0.099 OA 
BRANCH   6   9
HETATM    9  C   UNL     1      -7.403   7.326  63.096  1.00  0.00    -0.085 C  
BRANCH   9  10
HETATM   10  N   UNL     1      -8.494   6.522  63.618  1.00  0.00    -0.325 N  
HETATM   11  H   UNL     1      -9.447   6.877  63.539  1.00  0.00     0.000 HD 
HETATM   12  C   UNL     1      -8.290   5.299  64.216  1.00  0.00    -0.134 C  
HETATM   13  O   UNL     1      -7.173   4.797  64.316  1.00  0.00    -0.053 OA 
BRANCH  12  14
HETATM   14  C   UNL     1      -9.558   4.616  64.746  1.00  0.00    -0.039 C  
BRANCH  14  15
HETATM   15  N   UNL     1      -9.573   4.487  66.200  1.00  0.00    -0.170 N  
HETATM   16  C   UNL     1     -10.251   5.396  66.987  1.00  0.00    -0.233 C  
HETATM   17  H   UNL     1      -9.075   3.713  66.641  1.00  0.00     0.000 HD 
HETATM   18  O   UNL     1     -10.745   6.420  66.524  1.00  0.00    -0.197 OA 
BRANCH  16  19
HETATM   19  C   UNL     1     -10.262   5.071  68.471  1.00  0.00    -0.073 C  
BRANCH  19  20
HETATM   20  S   UNL     1      -8.592   4.937  69.146  1.00  0.00    -0.080 SA 
BRANCH  20  21
HETATM   21  C   UNL     1      -8.424   6.526  69.878  1.00  0.00    -0.135 C  
HETATM   22  O   UNL     1      -7.756   7.405  69.339  1.00  0.00    -0.101 OA 
BRANCH  21  23
HETATM   23  C   UNL     1      -9.108   6.755  71.180  1.00  0.00    -0.151 A  
HETATM   24  C   UNL     1      -8.786   7.899  71.922  1.00  0.00    -0.168 A  
HETATM   25  C   UNL     1      -9.373   8.112  73.173  1.00  0.00    -0.328 A  
HETATM   26  C   UNL     1     -10.274   7.183  73.691  1.00  0.00    -0.402 A  
HETATM   27  C   UNL     1     -10.600   6.045  72.957  1.00  0.00    -0.265 A  
HETATM   28  C   UNL     1     -10.020   5.828  71.707  1.00  0.00    -0.209 A  
ENDBRANCH  21  23
ENDBRANCH  20  21
ENDBRANCH  19  20
ENDBRANCH  16  19
ENDBRANCH  14  15
ENDBRANCH  12  14
ENDBRANCH   9  10
ENDBRANCH   6   9
ENDBRANCH   3   5
TORSDOF 9
ENDMDL
MODEL      373
REMARK 921   NORMALIZED FREE ENERGY PREDICTED BY IDOCK:   -3.18 KCAL/MOL
REMARK 922        TOTAL FREE ENERGY PREDICTED BY IDOCK:   -5.69 KCAL/MOL
REMARK 923 INTER-LIGAND FREE ENERGY PREDICTED BY IDOCK:   -5.06 KCAL/MOL
REMARK 924 INTRA-LIGAND FREE ENERGY PREDICTED BY IDOCK:   -0.62 KCAL/MOL
REMARK 927      BINDING AFFINITY PREDICTED BY RF-SCORE:    0.00 PKD
ROOT
HETATM    1  O   UNL     1     -10.003  15.910  67.085  1.00  0.00    -0.234 OA 
HETATM    2  C   UNL     1     -10.433  16.453  65.920  1.00  0.00    -0.337 C  
HETATM    3  C   UNL     1     -10.844  15.429  64.868  1.00  0.00    -0.425 C  
HETATM    4  O   UNL     1     -10.456  17.657  65.731  1.00  0.00    -0.550 OA 
ENDROOT
BRANCH   3   5
HETATM    5  N   UNL     1     -10.693  14.053  65.328  1.00  0.00    -0.336 N  
HETATM    6  C   UNL     1     -11.780  13.233  65.551  1.00  0.00    -0.346 C  
HETATM    7  H   UNL     1      -9.755  13.686  65.491  1.00  0.00     0.000 HD 
HETATM    8  O   UNL     1     -12.937  13.620  65.417  1.00  0.00    -0.683 OA 
BRANCH   6   9
HETATM    9  C   UNL     1     -11.449  11.811  66.022  1.00  0.00    -0.215 C  
BRANCH   9  10
HETATM   10  N   UNL     1     -10.155  11.701  66.674  1.00  0.00    -0.205 N  
HETATM   11  H   UNL     1      -9.313  11.708  66.099  1.00  0.00     0.000 HD 
HETATM   12  C   UNL     1     -10.024  11.589  68.040  1.00  0.00    -0.189 C  
HETATM   13  O   UNL     1     -10.993  11.606  68.795  1.00  0.00    -0.202 OA 
BRANCH  12  14
HETATM   14  C   UNL     1      -8.582  11.439  68.542  1.00  0.00    -0.150 C  
BRANCH  14  15
HETATM   15  N   UNL     1      -8.357  10.194  69.272  1.00  0.00    -0.146 N  
HETATM   16  C   UNL     1      -7.090   9.833  69.685  1.00  0.00    -0.083 C  
HETATM   17  H   UNL     1      -9.147   9.582  69.478  1.00  0.00     0.000 HD 
HETATM   18  O   UNL     1      -6.088  10.456  69.342  1.00  0.00    -0.041 OA 
BRANCH  16  19
HETATM   19  C   UNL     1      -7.030   8.565  70.521  1.00  0.00    -0.040 C  
BRANCH  19  20
HETATM   20  S   UNL     1      -7.825   7.171  69.693  1.00  0.00    -0.120 SA 
BRANCH  20  21
HETATM   21  C   UNL     1      -8.775   6.522  71.023  1.00  0.00    -0.138 C  
HETATM   22  O   UNL     1      -9.805   7.077  71.396  1.00  0.00    -0.177 OA 
BRANCH  21  23
HETATM   23  C   UNL     1      -8.270   5.287  71.684  1.00  0.00    -0.118 A  
HETATM   24  C   UNL     1      -7.495   4.389  70.938  1.00  0.00    -0.052 A  
HETATM   25  C   UNL     1      -7.053   3.196  71.517  1.00  0.00    -0.032 A  
HETATM   26  C   UNL     1      -7.389   2.891  72.836  1.00  0.00    -0.045 A  
HETATM   27  C   UNL     1      -8.157   3.781  73.582  1.00  0.00    -0.087 A  
HETATM   28  C   UNL     1      -8.599   4.974  73.011  1.00  0.00    -0.114 A  
ENDBRANCH  21  23
ENDBRANCH  20  21
ENDBRANCH  19  20
ENDBRANCH  16  19
ENDBRANCH  14  15
ENDBRANCH  12  14
ENDBRANCH   9  10
ENDBRANCH   6   9
ENDBRANCH   3   5
TORSDOF 9
ENDMDL
MODEL      374
REMARK 921   NORMALIZED FREE ENERGY PREDICTED BY IDOCK:   -3.16 KCAL/MOL
REMARK 922        TOTAL FREE ENERGY PREDICTED BY IDOCK:   -5.66 KCAL/MOL
REMARK 923 INTER-LIGAND FREE ENERGY PREDICTED BY IDOCK:   -5.18 KCAL/MOL
REMARK 924 INTRA-LIGAND FREE ENERGY PREDICTED BY IDOCK:   -0.48 KCAL/MOL
REMARK 927      BINDING AFFINITY PREDICTED BY RF-SCORE:    0.00 PKD
ROOT
HETATM    1  O   UNL     1      -9.329   7.600  68.682  1.00  0.00    -0.147 OA 
HETATM    2  C   UNL     1      -9.700   8.286  69.790  1.00  0.00    -0.180 C  
HETATM    3  C   UNL     1      -9.907   9.779  69.560  1.00  0.00    -0.214 C  
HETATM    4  O   UNL     1      -9.824   7.750  70.878  1.00  0.00    -0.176 OA 
ENDROOT
BRANCH   3   5
HETATM    5  N   UNL     1      -9.665  10.176  68.177  1.00  0.00    -0.139 N  
HETATM    6  C   UNL     1      -8.440  10.650  67.757  1.00  0.00    -0.116 C  
HETATM    7  H   UNL     1     -10.425  10.102  67.500  1.00  0.00     0.000 HD 
HETATM    8  O   UNL     1      -7.494  10.806  68.524  1.00  0.00    -0.088 OA 
BRANCH   6   9
HETATM    9  C   UNL     1      -8.347  11.014  66.270  1.00  0.00    -0.166 C  
BRANCH   9  10
HETATM   10  N   UNL     1      -9.263  12.068  65.871  1.00  0.00    -0.392 N  
HETATM   11  H   UNL     1      -8.994  13.039  66.028  1.00  0.00     0.000 HD 
HETATM   12  C   UNL     1     -10.483  11.805  65.289  1.00  0.00    -0.274 C  
HETATM   13  O   UNL     1     -10.858  10.662  65.043  1.00  0.00    -0.119 OA 
BRANCH  12  14
HETATM   14  C   UNL     1     -11.333  13.044  64.977  1.00  0.00    -0.296 C  
BRANCH  14  15
HETATM   15  N   UNL     1     -11.027  14.180  65.841  1.00  0.00    -0.293 N  
HETATM   16  C   UNL     1     -11.310  14.140  67.192  1.00  0.00    -0.332 C  
HETATM   17  H   UNL     1     -10.599  15.015  65.441  1.00  0.00     0.000 HD 
HETATM   18  O   UNL     1     -11.951  13.224  67.699  1.00  0.00    -0.355 OA 
BRANCH  16  19
HETATM   19  C   UNL     1     -10.841  15.354  67.977  1.00  0.00    -0.292 C  
BRANCH  19  20
HETATM   20  S   UNL     1      -9.520  16.242  67.125  1.00  0.00    -0.228 SA 
BRANCH  20  21
HETATM   21  C   UNL     1      -8.956  17.283  68.425  1.00  0.00    -0.269 C  
HETATM   22  O   UNL     1      -8.840  16.858  69.572  1.00  0.00     0.100 OA 
BRANCH  21  23
HETATM   23  C   UNL     1      -8.645  18.698  68.082  1.00  0.00    -0.332 A  
HETATM   24  C   UNL     1      -7.331  19.159  68.239  1.00  0.00    -0.322 A  
HETATM   25  C   UNL     1      -7.021  20.496  67.975  1.00  0.00    -0.303 A  
HETATM   26  C   UNL     1      -8.019  21.378  67.564  1.00  0.00     0.512 A  
HETATM   27  C   UNL     1      -9.327  20.925  67.403  1.00  0.00    -0.327 A  
HETATM   28  C   UNL     1      -9.641  19.591  67.662  1.00  0.00    -0.436 A  
ENDBRANCH  21  23
ENDBRANCH  20  21
ENDBRANCH  19  20
ENDBRANCH  16  19
ENDBRANCH  14  15
ENDBRANCH  12  14
ENDBRANCH   9  10
ENDBRANCH   6   9
ENDBRANCH   3   5
TORSDOF 9
ENDMDL
MODEL      375
REMARK 921   NORMALIZED FREE ENERGY PREDICTED BY IDOCK:   -3.11 KCAL/MOL
REMARK 922        TOTAL FREE ENERGY PREDICTED BY IDOCK:   -5.58 KCAL/MOL
REMARK 923 INTER-LIGAND FREE ENERGY PREDICTED BY IDOCK:   -4.94 KCAL/MOL
REMARK 924 INTRA-LIGAND FREE ENERGY PREDICTED BY IDOCK:   -0.64 KCAL/MOL
REMARK 927      BINDING AFFINITY PREDICTED BY RF-SCORE:    0.00 PKD
ROOT
HETATM    1  O   UNL     1     -10.477  15.674  66.302  1.00  0.00    -0.288 OA 
HETATM    2  C   UNL     1     -10.603  16.818  65.588  1.00  0.00    -0.246 C  
HETATM    3  C   UNL     1      -9.863  18.011  66.184  1.00  0.00    -0.249 C  
HETATM    4  O   UNL     1     -11.277  16.883  64.574  1.00  0.00    -1.057 OA 
ENDROOT
BRANCH   3   5
HETATM    5  N   UNL     1      -9.158  17.680  67.418  1.00  0.00    -0.237 N  
HETATM    6  C   UNL     1      -7.796  17.848  67.548  1.00  0.00    -0.212 C  
HETATM    7  H   UNL     1      -9.689  17.312  68.208  1.00  0.00     0.000 HD 
HETATM    8  O   UNL     1      -7.088  18.245  66.628  1.00  0.00    -0.193 OA 
BRANCH   6   9
HETATM    9  C   UNL     1      -7.210  17.464  68.913  1.00  0.00    -0.250 C  
BRANCH   9  10
HETATM   10  N   UNL     1      -6.583  16.154  68.928  1.00  0.00    -0.130 N  
HETATM   11  H   UNL     1      -6.778  15.506  68.166  1.00  0.00     0.000 HD 
HETATM   12  C   UNL     1      -5.733  15.754  69.935  1.00  0.00    -0.145 C  
HETATM   13  O   UNL     1      -5.428  16.493  70.868  1.00  0.00    -0.131 OA 
BRANCH  12  14
HETATM   14  C   UNL     1      -5.201  14.321  69.804  1.00  0.00    -0.092 C  
BRANCH  14  15
HETATM   15  N   UNL     1      -5.333  13.783  68.453  1.00  0.00    -0.092 N  
HETATM   16  C   UNL     1      -5.474  12.427  68.239  1.00  0.00    -0.058 C  
HETATM   17  H   UNL     1      -5.322  14.419  67.655  1.00  0.00     0.000 HD 
HETATM   18  O   UNL     1      -5.352  11.606  69.145  1.00  0.00    -0.047 OA 
BRANCH  16  19
HETATM   19  C   UNL     1      -5.705  12.030  66.791  1.00  0.00     0.019 C  
BRANCH  19  20
HETATM   20  S   UNL     1      -5.579  10.245  66.550  1.00  0.00    -0.058 SA 
BRANCH  20  21
HETATM   21  C   UNL     1      -6.920   9.985  65.443  1.00  0.00    -0.127 C  
HETATM   22  O   UNL     1      -6.894  10.431  64.299  1.00  0.00    -0.093 OA 
BRANCH  21  23
HETATM   23  C   UNL     1      -8.091   9.221  65.956  1.00  0.00    -0.110 A  
HETATM   24  C   UNL     1      -7.987   7.830  66.082  1.00  0.00    -0.105 A  
HETATM   25  C   UNL     1      -9.088   7.081  66.510  1.00  0.00    -0.183 A  
HETATM   26  C   UNL     1     -10.295   7.714  66.804  1.00  0.00    -0.343 A  
HETATM   27  C   UNL     1     -10.402   9.098  66.682  1.00  0.00    -0.289 A  
HETATM   28  C   UNL     1      -9.307   9.851  66.259  1.00  0.00    -0.224 A  
ENDBRANCH  21  23
ENDBRANCH  20  21
ENDBRANCH  19  20
ENDBRANCH  16  19
ENDBRANCH  14  15
ENDBRANCH  12  14
ENDBRANCH   9  10
ENDBRANCH   6   9
ENDBRANCH   3   5
TORSDOF 9
ENDMDL
MODEL      376
REMARK 921   NORMALIZED FREE ENERGY PREDICTED BY IDOCK:   -3.10 KCAL/MOL
REMARK 922        TOTAL FREE ENERGY PREDICTED BY IDOCK:   -5.57 KCAL/MOL
REMARK 923 INTER-LIGAND FREE ENERGY PREDICTED BY IDOCK:   -4.59 KCAL/MOL
REMARK 924 INTRA-LIGAND FREE ENERGY PREDICTED BY IDOCK:   -0.97 KCAL/MOL
REMARK 927      BINDING AFFINITY PREDICTED BY RF-SCORE:    0.00 PKD
ROOT
HETATM    1  O   UNL     1      -7.632   7.253  67.128  1.00  0.00    -0.099 OA 
HETATM    2  C   UNL     1      -6.958   6.767  66.058  1.00  0.00    -0.065 C  
HETATM    3  C   UNL     1      -7.221   7.521  64.759  1.00  0.00    -0.068 C  
HETATM    4  O   UNL     1      -6.231   5.791  66.133  1.00  0.00    -0.032 OA 
ENDROOT
BRANCH   3   5
HETATM    5  N   UNL     1      -8.154   8.629  64.927  1.00  0.00    -0.138 N  
HETATM    6  C   UNL     1      -7.723   9.926  65.115  1.00  0.00    -0.131 C  
HETATM    7  H   UNL     1      -9.157   8.440  64.906  1.00  0.00     0.000 HD 
HETATM    8  O   UNL     1      -6.535  10.222  65.193  1.00  0.00    -0.116 OA 
BRANCH   6   9
HETATM    9  C   UNL     1      -8.832  10.975  65.264  1.00  0.00    -0.129 C  
BRANCH   9  10
HETATM   10  N   UNL     1      -9.312  11.124  66.627  1.00  0.00    -0.173 N  
HETATM   11  H   UNL     1      -8.928  11.872  67.205  1.00  0.00     0.000 HD 
HETATM   12  C   UNL     1     -10.266  10.292  67.169  1.00  0.00    -0.225 C  
HETATM   13  O   UNL     1     -10.794   9.392  66.522  1.00  0.00    -0.030 OA 
BRANCH  12  14
HETATM   14  C   UNL     1     -10.615  10.576  68.636  1.00  0.00    -0.200 C  
BRANCH  14  15
HETATM   15  N   UNL     1     -11.247  11.877  68.833  1.00  0.00    -0.235 N  
HETATM   16  C   UNL     1     -11.993  12.139  69.965  1.00  0.00    -0.315 C  
HETATM   17  H   UNL     1     -11.137  12.602  68.124  1.00  0.00     0.000 HD 
HETATM   18  O   UNL     1     -12.276  11.264  70.779  1.00  0.00    -0.356 OA 
BRANCH  16  19
HETATM   19  C   UNL     1     -12.501  13.567  70.076  1.00  0.00    -0.167 C  
BRANCH  19  20
HETATM   20  S   UNL     1     -11.156  14.770  70.017  1.00  0.00    -0.161 SA 
BRANCH  20  21
HETATM   21  C   UNL     1     -11.124  15.115  68.293  1.00  0.00    -0.291 C  
HETATM   22  O   UNL     1     -12.073  14.823  67.570  1.00  0.00    -0.301 OA 
BRANCH  21  23
HETATM   23  C   UNL     1      -9.897  15.758  67.747  1.00  0.00    -0.224 A  
HETATM   24  C   UNL     1      -8.786  15.916  68.586  1.00  0.00    -0.199 A  
HETATM   25  C   UNL     1      -7.639  16.563  68.117  1.00  0.00    -0.162 A  
HETATM   26  C   UNL     1      -7.600  17.063  66.816  1.00  0.00    -0.273 A  
HETATM   27  C   UNL     1      -8.701  16.908  65.977  1.00  0.00    -0.193 A  
HETATM   28  C   UNL     1      -9.847  16.259  66.438  1.00  0.00    -0.310 A  
ENDBRANCH  21  23
ENDBRANCH  20  21
ENDBRANCH  19  20
ENDBRANCH  16  19
ENDBRANCH  14  15
ENDBRANCH  12  14
ENDBRANCH   9  10
ENDBRANCH   6   9
ENDBRANCH   3   5
TORSDOF 9
ENDMDL
MODEL      377
REMARK 921   NORMALIZED FREE ENERGY PREDICTED BY IDOCK:   -3.06 KCAL/MOL
REMARK 922        TOTAL FREE ENERGY PREDICTED BY IDOCK:   -5.51 KCAL/MOL
REMARK 923 INTER-LIGAND FREE ENERGY PREDICTED BY IDOCK:   -5.01 KCAL/MOL
REMARK 924 INTRA-LIGAND FREE ENERGY PREDICTED BY IDOCK:   -0.50 KCAL/MOL
REMARK 927      BINDING AFFINITY PREDICTED BY RF-SCORE:    0.00 PKD
ROOT
HETATM    1  O   UNL     1      -7.923   2.421  72.317  1.00  0.00    -0.052 OA 
HETATM    2  C   UNL     1      -7.852   3.519  73.106  1.00  0.00    -0.070 C  
HETATM    3  C   UNL     1      -7.287   4.753  72.411  1.00  0.00    -0.083 C  
HETATM    4  O   UNL     1      -8.186   3.503  74.280  1.00  0.00    -0.076 OA 
ENDROOT
BRANCH   3   5
HETATM    5  N   UNL     1      -6.933   4.503  71.018  1.00  0.00    -0.036 N  
HETATM    6  C   UNL     1      -7.791   4.801  69.980  1.00  0.00    -0.065 C  
HETATM    7  H   UNL     1      -6.022   4.096  70.804  1.00  0.00     0.000 HD 
HETATM    8  O   UNL     1      -8.917   5.254  70.164  1.00  0.00    -0.124 OA 
BRANCH   6   9
HETATM    9  C   UNL     1      -7.262   4.488  68.575  1.00  0.00    -0.060 C  
BRANCH   9  10
HETATM   10  N   UNL     1      -8.113   4.988  67.509  1.00  0.00    -0.099 N  
HETATM   11  H   UNL     1      -8.888   4.410  67.186  1.00  0.00     0.000 HD 
HETATM   12  C   UNL     1      -7.910   6.215  66.917  1.00  0.00    -0.104 C  
HETATM   13  O   UNL     1      -7.016   6.976  67.276  1.00  0.00    -0.073 OA 
BRANCH  12  14
HETATM   14  C   UNL     1      -8.883   6.554  65.779  1.00  0.00    -0.084 C  
BRANCH  14  15
HETATM   15  N   UNL     1      -9.493   7.873  65.921  1.00  0.00    -0.423 N  
HETATM   16  C   UNL     1     -10.478   8.101  66.860  1.00  0.00    -0.309 C  
HETATM   17  H   UNL     1      -9.186   8.636  65.318  1.00  0.00     0.000 HD 
HETATM   18  O   UNL     1     -10.984   7.191  67.512  1.00  0.00    -0.244 OA 
BRANCH  16  19
HETATM   19  C   UNL     1     -10.942   9.545  66.960  1.00  0.00     0.084 C  
BRANCH  19  20
HETATM   20  S   UNL     1      -9.864  10.530  68.021  1.00  0.00    -0.150 SA 
BRANCH  20  21
HETATM   21  C   UNL     1      -9.488  11.860  66.935  1.00  0.00    -0.199 C  
HETATM   22  O   UNL     1      -8.489  12.554  67.103  1.00  0.00    -0.179 OA 
BRANCH  21  23
HETATM   23  C   UNL     1     -10.438  12.119  65.818  1.00  0.00    -0.287 A  
HETATM   24  C   UNL     1     -10.119  11.650  64.536  1.00  0.00    -0.321 A  
HETATM   25  C   UNL     1     -10.966  11.924  63.459  1.00  0.00    -0.505 A  
HETATM   26  C   UNL     1     -12.126  12.673  63.652  1.00  0.00    -0.632 A  
HETATM   27  C   UNL     1     -12.450  13.139  64.924  1.00  0.00    -0.490 A  
HETATM   28  C   UNL     1     -11.610  12.866  66.004  1.00  0.00    -0.424 A  
ENDBRANCH  21  23
ENDBRANCH  20  21
ENDBRANCH  19  20
ENDBRANCH  16  19
ENDBRANCH  14  15
ENDBRANCH  12  14
ENDBRANCH   9  10
ENDBRANCH   6   9
ENDBRANCH   3   5
TORSDOF 9
ENDMDL
MODEL      378
REMARK 921   NORMALIZED FREE ENERGY PREDICTED BY IDOCK:   -3.04 KCAL/MOL
REMARK 922        TOTAL FREE ENERGY PREDICTED BY IDOCK:   -5.48 KCAL/MOL
REMARK 923 INTER-LIGAND FREE ENERGY PREDICTED BY IDOCK:   -4.44 KCAL/MOL
REMARK 924 INTRA-LIGAND FREE ENERGY PREDICTED BY IDOCK:   -1.04 KCAL/MOL
REMARK 927      BINDING AFFINITY PREDICTED BY RF-SCORE:    0.00 PKD
ROOT
HETATM    1  O   UNL     1      -6.411  14.443  72.280  1.00  0.00     0.201 OA 
HETATM    2  C   UNL     1      -5.832  13.295  71.855  1.00  0.00     0.555 C  
HETATM    3  C   UNL     1      -6.083  12.975  70.385  1.00  0.00    -0.041 C  
HETATM    4  O   UNL     1      -5.191  12.572  72.600  1.00  0.00    -0.363 OA 
ENDROOT
BRANCH   3   5
HETATM    5  N   UNL     1      -6.906  13.980  69.721  1.00  0.00    -0.333 N  
HETATM    6  C   UNL     1      -6.708  14.331  68.402  1.00  0.00    -0.104 C  
HETATM    7  H   UNL     1      -7.650  14.438  70.248  1.00  0.00     0.000 HD 
HETATM    8  O   UNL     1      -5.807  13.854  67.720  1.00  0.00    -0.199 OA 
BRANCH   6   9
HETATM    9  C   UNL     1      -7.665  15.396  67.851  1.00  0.00    -0.133 C  
BRANCH   9  10
HETATM   10  N   UNL     1      -8.766  14.844  67.080  1.00  0.00    -0.206 N  
HETATM   11  H   UNL     1      -8.563  14.376  66.198  1.00  0.00     0.000 HD 
HETATM   12  C   UNL     1     -10.076  14.931  67.498  1.00  0.00    -0.228 C  
HETATM   13  O   UNL     1     -10.391  15.453  68.564  1.00  0.00    -0.219 OA 
BRANCH  12  14
HETATM   14  C   UNL     1     -11.105  14.330  66.531  1.00  0.00    -0.323 C  
BRANCH  14  15
HETATM   15  N   UNL     1     -11.052  12.872  66.473  1.00  0.00    -0.279 N  
HETATM   16  C   UNL     1     -10.143  12.227  65.660  1.00  0.00    -0.252 C  
HETATM   17  H   UNL     1     -11.697  12.323  67.042  1.00  0.00     0.000 HD 
HETATM   18  O   UNL     1      -9.444  12.832  64.851  1.00  0.00     0.142 OA 
BRANCH  16  19
HETATM   19  C   UNL     1     -10.139  10.712  65.785  1.00  0.00    -0.266 C  
BRANCH  19  20
HETATM   20  S   UNL     1      -9.305  10.159  67.288  1.00  0.00    -0.154 SA 
BRANCH  20  21
HETATM   21  C   UNL     1     -10.443   8.940  67.844  1.00  0.00    -0.223 C  
HETATM   22  O   UNL     1     -10.672   7.935  67.176  1.00  0.00    -0.326 OA 
BRANCH  21  23
HETATM   23  C   UNL     1     -11.126   9.185  69.143  1.00  0.00     0.036 A  
HETATM   24  C   UNL     1     -11.716  10.435  69.372  1.00  0.00    -0.231 A  
HETATM   25  C   UNL     1     -12.318  10.711  70.604  1.00  0.00    -0.462 A  
HETATM   26  C   UNL     1     -12.325   9.748  71.612  1.00  0.00    -0.495 A  
HETATM   27  C   UNL     1     -11.742   8.503  71.389  1.00  0.00    -0.346 A  
HETATM   28  C   UNL     1     -11.143   8.220  70.161  1.00  0.00    -0.189 A  
ENDBRANCH  21  23
ENDBRANCH  20  21
ENDBRANCH  19  20
ENDBRANCH  16  19
ENDBRANCH  14  15
ENDBRANCH  12  14
ENDBRANCH   9  10
ENDBRANCH   6   9
ENDBRANCH   3   5
TORSDOF 9
ENDMDL
MODEL      379
REMARK 921   NORMALIZED FREE ENERGY PREDICTED BY IDOCK:   -3.03 KCAL/MOL
REMARK 922        TOTAL FREE ENERGY PREDICTED BY IDOCK:   -5.47 KCAL/MOL
REMARK 923 INTER-LIGAND FREE ENERGY PREDICTED BY IDOCK:   -5.30 KCAL/MOL
REMARK 924 INTRA-LIGAND FREE ENERGY PREDICTED BY IDOCK:   -0.17 KCAL/MOL
REMARK 927      BINDING AFFINITY PREDICTED BY RF-SCORE:    0.00 PKD
ROOT
HETATM    1  O   UNL     1      -8.034   2.621  72.233  1.00  0.00    -0.053 OA 
HETATM    2  C   UNL     1      -8.167   3.708  73.030  1.00  0.00    -0.083 C  
HETATM    3  C   UNL     1      -7.733   5.017  72.379  1.00  0.00    -0.096 C  
HETATM    4  O   UNL     1      -8.573   3.630  74.178  1.00  0.00    -0.088 OA 
ENDROOT
BRANCH   3   5
HETATM    5  N   UNL     1      -7.256   4.838  71.012  1.00  0.00    -0.057 N  
HETATM    6  C   UNL     1      -8.012   5.210  69.920  1.00  0.00    -0.078 C  
HETATM    7  H   UNL     1      -6.336   4.425  70.859  1.00  0.00     0.000 HD 
HETATM    8  O   UNL     1      -9.143   5.673  70.027  1.00  0.00    -0.133 OA 
BRANCH   6   9
HETATM    9  C   UNL     1      -7.361   4.965  68.553  1.00  0.00    -0.066 C  
BRANCH   9  10
HETATM   10  N   UNL     1      -8.110   5.528  67.443  1.00  0.00    -0.101 N  
HETATM   11  H   UNL     1      -8.794   4.943  66.964  1.00  0.00     0.000 HD 
HETATM   12  C   UNL     1      -7.930   6.824  67.014  1.00  0.00    -0.109 C  
HETATM   13  O   UNL     1      -7.147   7.594  67.563  1.00  0.00    -0.081 OA 
BRANCH  12  14
HETATM   14  C   UNL     1      -8.779   7.228  65.800  1.00  0.00    -0.109 C  
BRANCH  14  15
HETATM   15  N   UNL     1      -9.415   8.533  65.956  1.00  0.00    -0.367 N  
HETATM   16  C   UNL     1      -8.844   9.670  65.419  1.00  0.00    -0.171 C  
HETATM   17  H   UNL     1     -10.294   8.606  66.469  1.00  0.00     0.000 HD 
HETATM   18  O   UNL     1      -7.722   9.664  64.918  1.00  0.00    -0.110 OA 
BRANCH  16  19
HETATM   19  C   UNL     1      -9.673  10.933  65.574  1.00  0.00    -0.233 C  
BRANCH  19  20
HETATM   20  S   UNL     1     -10.570  11.344  64.062  1.00  0.00    -0.409 SA 
BRANCH  20  21
HETATM   21  C   UNL     1     -12.003  12.098  64.746  1.00  0.00    -0.307 C  
HETATM   22  O   UNL     1     -13.055  12.152  64.113  1.00  0.00    -0.694 OA 
BRANCH  21  23
HETATM   23  C   UNL     1     -11.883  12.682  66.110  1.00  0.00    -0.477 A  
HETATM   24  C   UNL     1     -12.018  11.838  67.221  1.00  0.00    -0.013 A  
HETATM   25  C   UNL     1     -11.963  12.367  68.514  1.00  0.00    -0.273 A  
HETATM   26  C   UNL     1     -11.783  13.737  68.703  1.00  0.00    -0.391 A  
HETATM   27  C   UNL     1     -11.646  14.580  67.603  1.00  0.00    -0.402 A  
HETATM   28  C   UNL     1     -11.697  14.058  66.310  1.00  0.00    -0.401 A  
ENDBRANCH  21  23
ENDBRANCH  20  21
ENDBRANCH  19  20
ENDBRANCH  16  19
ENDBRANCH  14  15
ENDBRANCH  12  14
ENDBRANCH   9  10
ENDBRANCH   6   9
ENDBRANCH   3   5
TORSDOF 9
ENDMDL
MODEL      380
REMARK 921   NORMALIZED FREE ENERGY PREDICTED BY IDOCK:   -3.03 KCAL/MOL
REMARK 922        TOTAL FREE ENERGY PREDICTED BY IDOCK:   -5.47 KCAL/MOL
REMARK 923 INTER-LIGAND FREE ENERGY PREDICTED BY IDOCK:   -4.80 KCAL/MOL
REMARK 924 INTRA-LIGAND FREE ENERGY PREDICTED BY IDOCK:   -0.66 KCAL/MOL
REMARK 927      BINDING AFFINITY PREDICTED BY RF-SCORE:    0.00 PKD
ROOT
HETATM    1  O   UNL     1     -10.980  15.176  65.874  1.00  0.00    -0.333 OA 
HETATM    2  C   UNL     1     -10.917  16.453  65.427  1.00  0.00    -0.160 C  
HETATM    3  C   UNL     1     -10.221  17.416  66.383  1.00  0.00    -0.338 C  
HETATM    4  O   UNL     1     -11.407  16.798  64.364  1.00  0.00    -1.089 OA 
ENDROOT
BRANCH   3   5
HETATM    5  N   UNL     1      -9.753  16.764  67.601  1.00  0.00    -0.248 N  
HETATM    6  C   UNL     1      -8.418  16.733  67.947  1.00  0.00    -0.200 C  
HETATM    7  H   UNL     1     -10.433  16.316  68.215  1.00  0.00     0.000 HD 
HETATM    8  O   UNL     1      -7.541  17.212  67.236  1.00  0.00    -0.157 OA 
BRANCH   6   9
HETATM    9  C   UNL     1      -8.094  16.017  69.265  1.00  0.00    -0.212 C  
BRANCH   9  10
HETATM   10  N   UNL     1      -7.635  14.650  69.086  1.00  0.00    -0.170 N  
HETATM   11  H   UNL     1      -8.176  14.024  68.491  1.00  0.00     0.000 HD 
HETATM   12  C   UNL     1      -6.496  14.169  69.692  1.00  0.00    -0.134 C  
HETATM   13  O   UNL     1      -5.780  14.876  70.396  1.00  0.00    -0.131 OA 
BRANCH  12  14
HETATM   14  C   UNL     1      -6.195  12.689  69.422  1.00  0.00    -0.113 C  
BRANCH  14  15
HETATM   15  N   UNL     1      -7.167  12.060  68.533  1.00  0.00    -0.096 N  
HETATM   16  C   UNL     1      -7.089  10.714  68.234  1.00  0.00    -0.081 C  
HETATM   17  H   UNL     1      -7.916  12.622  68.128  1.00  0.00     0.000 HD 
HETATM   18  O   UNL     1      -6.133  10.023  68.576  1.00  0.00    -0.045 OA 
BRANCH  16  19
HETATM   19  C   UNL     1      -8.229  10.184  67.381  1.00  0.00    -0.114 C  
BRANCH  19  20
HETATM   20  S   UNL     1      -8.018   8.436  66.981  1.00  0.00    -0.100 SA 
BRANCH  20  21
HETATM   21  C   UNL     1      -9.267   7.731  67.998  1.00  0.00    -0.138 C  
HETATM   22  O   UNL     1     -10.456   7.853  67.717  1.00  0.00    -0.220 OA 
BRANCH  21  23
HETATM   23  C   UNL     1      -8.824   7.001  69.217  1.00  0.00    -0.139 A  
HETATM   24  C   UNL     1      -7.939   5.924  69.076  1.00  0.00    -0.099 A  
HETATM   25  C   UNL     1      -7.548   5.186  70.197  1.00  0.00    -0.070 A  
HETATM   26  C   UNL     1      -8.044   5.513  71.459  1.00  0.00    -0.118 A  
HETATM   27  C   UNL     1      -8.923   6.584  71.605  1.00  0.00    -0.143 A  
HETATM   28  C   UNL     1      -9.314   7.325  70.490  1.00  0.00    -0.158 A  
ENDBRANCH  21  23
ENDBRANCH  20  21
ENDBRANCH  19  20
ENDBRANCH  16  19
ENDBRANCH  14  15
ENDBRANCH  12  14
ENDBRANCH   9  10
ENDBRANCH   6   9
ENDBRANCH   3   5
TORSDOF 9
ENDMDL
MODEL      381
REMARK 921   NORMALIZED FREE ENERGY PREDICTED BY IDOCK:   -2.98 KCAL/MOL
REMARK 922        TOTAL FREE ENERGY PREDICTED BY IDOCK:   -5.39 KCAL/MOL
REMARK 923 INTER-LIGAND FREE ENERGY PREDICTED BY IDOCK:   -4.22 KCAL/MOL
REMARK 924 INTRA-LIGAND FREE ENERGY PREDICTED BY IDOCK:   -1.16 KCAL/MOL
REMARK 927      BINDING AFFINITY PREDICTED BY RF-SCORE:    0.00 PKD
ROOT
HETATM    1  O   UNL     1      -8.649   8.477  66.387  1.00  0.00    -0.115 OA 
HETATM    2  C   UNL     1      -7.646   9.286  65.972  1.00  0.00    -0.096 C  
HETATM    3  C   UNL     1      -6.249   8.718  66.203  1.00  0.00    -0.059 C  
HETATM    4  O   UNL     1      -7.852  10.385  65.484  1.00  0.00    -0.148 OA 
ENDROOT
BRANCH   3   5
HETATM    5  N   UNL     1      -6.271   7.402  66.831  1.00  0.00    -0.045 N  
HETATM    6  C   UNL     1      -6.039   6.246  66.115  1.00  0.00    -0.033 C  
HETATM    7  H   UNL     1      -6.465   7.334  67.830  1.00  0.00     0.000 HD 
HETATM    8  O   UNL     1      -5.841   6.249  64.904  1.00  0.00    -0.021 OA 
BRANCH   6   9
HETATM    9  C   UNL     1      -6.087   4.945  66.927  1.00  0.00    -0.031 C  
BRANCH   9  10
HETATM   10  N   UNL     1      -7.081   4.957  67.986  1.00  0.00    -0.061 N  
HETATM   11  H   UNL     1      -6.792   5.220  68.928  1.00  0.00     0.000 HD 
HETATM   12  C   UNL     1      -8.399   4.626  67.765  1.00  0.00    -0.103 C  
HETATM   13  O   UNL     1      -8.822   4.331  66.651  1.00  0.00    -0.112 OA 
BRANCH  12  14
HETATM   14  C   UNL     1      -9.292   4.654  69.013  1.00  0.00    -0.142 C  
BRANCH  14  15
HETATM   15  N   UNL     1      -9.179   5.897  69.769  1.00  0.00    -0.143 N  
HETATM   16  C   UNL     1     -10.192   6.835  69.748  1.00  0.00    -0.187 C  
HETATM   17  H   UNL     1      -8.341   6.076  70.322  1.00  0.00     0.000 HD 
HETATM   18  O   UNL     1     -11.156   6.739  68.992  1.00  0.00    -0.240 OA 
BRANCH  16  19
HETATM   19  C   UNL     1      -9.977   8.027  70.664  1.00  0.00    -0.189 C  
BRANCH  19  20
HETATM   20  S   UNL     1      -9.543   9.519  69.743  1.00  0.00    -0.230 SA 
BRANCH  20  21
HETATM   21  C   UNL     1     -11.148  10.151  69.403  1.00  0.00    -0.243 C  
HETATM   22  O   UNL     1     -12.134   9.737  70.006  1.00  0.00    -0.055 OA 
BRANCH  21  23
HETATM   23  C   UNL     1     -11.262  11.192  68.345  1.00  0.00    -0.325 A  
HETATM   24  C   UNL     1     -11.145  10.808  67.002  1.00  0.00    -0.245 A  
HETATM   25  C   UNL     1     -11.194  11.771  65.991  1.00  0.00    -0.352 A  
HETATM   26  C   UNL     1     -11.351  13.119  66.313  1.00  0.00    -0.348 A  
HETATM   27  C   UNL     1     -11.470  13.506  67.646  1.00  0.00    -0.351 A  
HETATM   28  C   UNL     1     -11.424  12.549  68.660  1.00  0.00    -0.348 A  
ENDBRANCH  21  23
ENDBRANCH  20  21
ENDBRANCH  19  20
ENDBRANCH  16  19
ENDBRANCH  14  15
ENDBRANCH  12  14
ENDBRANCH   9  10
ENDBRANCH   6   9
ENDBRANCH   3   5
TORSDOF 9
ENDMDL
MODEL      382
REMARK 921   NORMALIZED FREE ENERGY PREDICTED BY IDOCK:   -2.85 KCAL/MOL
REMARK 922        TOTAL FREE ENERGY PREDICTED BY IDOCK:   -5.20 KCAL/MOL
REMARK 923 INTER-LIGAND FREE ENERGY PREDICTED BY IDOCK:   -4.98 KCAL/MOL
REMARK 924 INTRA-LIGAND FREE ENERGY PREDICTED BY IDOCK:   -0.21 KCAL/MOL
REMARK 927      BINDING AFFINITY PREDICTED BY RF-SCORE:    0.00 PKD
ROOT
HETATM    1  O   UNL     1     -13.907  11.994  72.330  1.00  0.00    -0.138 OA 
HETATM    2  C   UNL     1     -13.136  11.048  71.742  1.00  0.00    -0.449 C  
HETATM    3  C   UNL     1     -12.460  11.505  70.454  1.00  0.00    -0.240 C  
HETATM    4  O   UNL     1     -13.024   9.922  72.198  1.00  0.00    -0.411 OA 
ENDROOT
BRANCH   3   5
HETATM    5  N   UNL     1     -12.780  12.885  70.107  1.00  0.00     0.094 N  
HETATM    6  C   UNL     1     -12.252  13.954  70.800  1.00  0.00    -0.369 C  
HETATM    7  H   UNL     1     -13.414  13.066  69.327  1.00  0.00     0.000 HD 
HETATM    8  O   UNL     1     -11.518  13.812  71.773  1.00  0.00     1.059 OA 
BRANCH   6   9
HETATM    9  C   UNL     1     -12.679  15.341  70.301  1.00  0.00    -0.314 C  
BRANCH   9  10
HETATM   10  N   UNL     1     -12.403  15.562  68.892  1.00  0.00    -0.590 N  
HETATM   11  H   UNL     1     -13.183  15.745  68.261  1.00  0.00     0.000 HD 
HETATM   12  C   UNL     1     -11.126  15.534  68.378  1.00  0.00    -0.315 C  
HETATM   13  O   UNL     1     -10.138  15.351  69.084  1.00  0.00    -0.209 OA 
BRANCH  12  14
HETATM   14  C   UNL     1     -11.035  15.746  66.860  1.00  0.00    -0.207 C  
BRANCH  14  15
HETATM   15  N   UNL     1      -9.906  16.584  66.467  1.00  0.00    -0.263 N  
HETATM   16  C   UNL     1      -9.827  17.903  66.867  1.00  0.00    -0.321 C  
HETATM   17  H   UNL     1      -9.164  16.189  65.887  1.00  0.00     0.000 HD 
HETATM   18  O   UNL     1     -10.754  18.468  67.442  1.00  0.00    -0.425 OA 
BRANCH  16  19
HETATM   19  C   UNL     1      -8.546  18.615  66.467  1.00  0.00    -0.297 C  
BRANCH  19  20
HETATM   20  S   UNL     1      -7.119  17.509  66.496  1.00  0.00    -0.283 SA 
BRANCH  20  21
HETATM   21  C   UNL     1      -6.997  17.206  68.224  1.00  0.00    -0.187 C  
HETATM   22  O   UNL     1      -7.080  18.124  69.036  1.00  0.00    -0.271 OA 
BRANCH  21  23
HETATM   23  C   UNL     1      -6.771  15.800  68.656  1.00  0.00    -0.117 A  
HETATM   24  C   UNL     1      -6.400  15.552  69.985  1.00  0.00    -0.124 A  
HETATM   25  C   UNL     1      -6.131  14.246  70.405  1.00  0.00    -0.176 A  
HETATM   26  C   UNL     1      -6.220  13.187  69.503  1.00  0.00    -0.116 A  
HETATM   27  C   UNL     1      -6.590  13.427  68.182  1.00  0.00    -0.118 A  
HETATM   28  C   UNL     1      -6.864  14.728  67.757  1.00  0.00    -0.195 A  
ENDBRANCH  21  23
ENDBRANCH  20  21
ENDBRANCH  19  20
ENDBRANCH  16  19
ENDBRANCH  14  15
ENDBRANCH  12  14
ENDBRANCH   9  10
ENDBRANCH   6   9
ENDBRANCH   3   5
TORSDOF 9
ENDMDL
MODEL      383
REMARK 921   NORMALIZED FREE ENERGY PREDICTED BY IDOCK:   -2.77 KCAL/MOL
REMARK 922        TOTAL FREE ENERGY PREDICTED BY IDOCK:   -5.07 KCAL/MOL
REMARK 923 INTER-LIGAND FREE ENERGY PREDICTED BY IDOCK:   -4.56 KCAL/MOL
REMARK 924 INTRA-LIGAND FREE ENERGY PREDICTED BY IDOCK:   -0.51 KCAL/MOL
REMARK 927      BINDING AFFINITY PREDICTED BY RF-SCORE:    0.00 PKD
ROOT
HETATM    1  O   UNL     1      -8.897   3.167  71.554  1.00  0.00    -0.075 OA 
HETATM    2  C   UNL     1      -9.790   3.969  72.183  1.00  0.00    -0.168 C  
HETATM    3  C   UNL     1      -9.472   5.457  72.084  1.00  0.00    -0.143 C  
HETATM    4  O   UNL     1     -10.745   3.525  72.798  1.00  0.00    -0.137 OA 
ENDROOT
BRANCH   3   5
HETATM    5  N   UNL     1      -8.257   5.725  71.322  1.00  0.00    -0.121 N  
HETATM    6  C   UNL     1      -8.279   6.425  70.134  1.00  0.00    -0.129 C  
HETATM    7  H   UNL     1      -7.363   5.384  71.678  1.00  0.00     0.000 HD 
HETATM    8  O   UNL     1      -9.320   6.828  69.625  1.00  0.00    -0.145 OA 
BRANCH   6   9
HETATM    9  C   UNL     1      -6.915   6.631  69.463  1.00  0.00    -0.067 C  
BRANCH   9  10
HETATM   10  N   UNL     1      -6.896   7.726  68.509  1.00  0.00    -0.064 N  
HETATM   11  H   UNL     1      -7.104   7.529  67.531  1.00  0.00     0.000 HD 
HETATM   12  C   UNL     1      -6.606   9.021  68.877  1.00  0.00    -0.052 C  
HETATM   13  O   UNL     1      -6.376   9.336  70.041  1.00  0.00    -0.040 OA 
BRANCH  12  14
HETATM   14  C   UNL     1      -6.591  10.034  67.724  1.00  0.00    -0.067 C  
BRANCH  14  15
HETATM   15  N   UNL     1      -7.681  11.002  67.798  1.00  0.00    -0.106 N  
HETATM   16  C   UNL     1      -7.521  12.289  67.325  1.00  0.00    -0.147 C  
HETATM   17  H   UNL     1      -8.574  10.723  68.205  1.00  0.00     0.000 HD 
HETATM   18  O   UNL     1      -6.431  12.720  66.958  1.00  0.00    -0.180 OA 
BRANCH  16  19
HETATM   19  C   UNL     1      -8.774  13.147  67.377  1.00  0.00    -0.206 C  
BRANCH  19  20
HETATM   20  S   UNL     1      -8.538  14.629  68.382  1.00  0.00    -0.174 SA 
BRANCH  20  21
HETATM   21  C   UNL     1      -9.872  15.615  67.800  1.00  0.00    -0.220 C  
HETATM   22  O   UNL     1     -10.900  15.099  67.366  1.00  0.00    -0.288 OA 
BRANCH  21  23
HETATM   23  C   UNL     1      -9.697  17.093  67.838  1.00  0.00    -0.270 A  
HETATM   24  C   UNL     1      -8.889  17.703  66.871  1.00  0.00    -0.260 A  
HETATM   25  C   UNL     1      -8.664  19.082  66.914  1.00  0.00    -0.316 A  
HETATM   26  C   UNL     1      -9.235  19.854  67.926  1.00  0.00    -0.423 A  
HETATM   27  C   UNL     1     -10.041  19.252  68.889  1.00  0.00    -0.434 A  
HETATM   28  C   UNL     1     -10.272  17.877  68.849  1.00  0.00    -0.331 A  
ENDBRANCH  21  23
ENDBRANCH  20  21
ENDBRANCH  19  20
ENDBRANCH  16  19
ENDBRANCH  14  15
ENDBRANCH  12  14
ENDBRANCH   9  10
ENDBRANCH   6   9
ENDBRANCH   3   5
TORSDOF 9
ENDMDL
MODEL      384
REMARK 921   NORMALIZED FREE ENERGY PREDICTED BY IDOCK:   -2.66 KCAL/MOL
REMARK 922        TOTAL FREE ENERGY PREDICTED BY IDOCK:   -4.90 KCAL/MOL
REMARK 923 INTER-LIGAND FREE ENERGY PREDICTED BY IDOCK:   -3.96 KCAL/MOL
REMARK 924 INTRA-LIGAND FREE ENERGY PREDICTED BY IDOCK:   -0.95 KCAL/MOL
REMARK 927      BINDING AFFINITY PREDICTED BY RF-SCORE:    0.00 PKD
ROOT
HETATM    1  O   UNL     1      -6.380  14.445  72.262  1.00  0.00     0.201 OA 
HETATM    2  C   UNL     1      -5.836  13.302  71.782  1.00  0.00     0.454 C  
HETATM    3  C   UNL     1      -6.219  12.984  70.341  1.00  0.00     0.055 C  
HETATM    4  O   UNL     1      -5.125  12.581  72.463  1.00  0.00    -0.366 OA 
ENDROOT
BRANCH   3   5
HETATM    5  N   UNL     1      -7.105  13.985  69.758  1.00  0.00    -0.349 N  
HETATM    6  C   UNL     1      -7.168  14.202  68.397  1.00  0.00    -0.109 C  
HETATM    7  H   UNL     1      -7.696  14.543  70.375  1.00  0.00     0.000 HD 
HETATM    8  O   UNL     1      -6.457  13.600  67.599  1.00  0.00    -0.161 OA 
BRANCH   6   9
HETATM    9  C   UNL     1      -8.159  15.283  67.946  1.00  0.00    -0.138 C  
BRANCH   9  10
HETATM   10  N   UNL     1      -9.458  14.758  67.564  1.00  0.00    -0.196 N  
HETATM   11  H   UNL     1      -9.498  13.928  66.973  1.00  0.00     0.000 HD 
HETATM   12  C   UNL     1     -10.638  15.339  67.971  1.00  0.00    -0.261 C  
HETATM   13  O   UNL     1     -10.665  16.321  68.709  1.00  0.00    -0.270 OA 
BRANCH  12  14
HETATM   14  C   UNL     1     -11.910  14.670  67.432  1.00  0.00    -0.348 C  
BRANCH  14  15
HETATM   15  N   UNL     1     -12.185  13.379  68.056  1.00  0.00    -0.235 N  
HETATM   16  C   UNL     1     -11.595  12.224  67.586  1.00  0.00    -0.354 C  
HETATM   17  H   UNL     1     -12.824  13.331  68.851  1.00  0.00     0.000 HD 
HETATM   18  O   UNL     1     -10.934  12.202  66.551  1.00  0.00    -0.258 OA 
BRANCH  16  19
HETATM   19  C   UNL     1     -11.897  10.977  68.400  1.00  0.00    -0.184 C  
BRANCH  19  20
HETATM   20  S   UNL     1     -10.956  10.929  69.940  1.00  0.00    -0.132 SA 
BRANCH  20  21
HETATM   21  C   UNL     1     -11.080   9.219  70.328  1.00  0.00    -0.251 C  
HETATM   22  O   UNL     1     -12.133   8.737  70.739  1.00  0.00    -0.218 OA 
BRANCH  21  23
HETATM   23  C   UNL     1      -9.857   8.388  70.155  1.00  0.00    -0.183 A  
HETATM   24  C   UNL     1      -9.545   7.902  68.878  1.00  0.00    -0.155 A  
HETATM   25  C   UNL     1      -8.433   7.075  68.696  1.00  0.00    -0.121 A  
HETATM   26  C   UNL     1      -7.635   6.724  69.784  1.00  0.00    -0.104 A  
HETATM   27  C   UNL     1      -7.939   7.207  71.055  1.00  0.00    -0.103 A  
HETATM   28  C   UNL     1      -9.046   8.035  71.243  1.00  0.00    -0.168 A  
ENDBRANCH  21  23
ENDBRANCH  20  21
ENDBRANCH  19  20
ENDBRANCH  16  19
ENDBRANCH  14  15
ENDBRANCH  12  14
ENDBRANCH   9  10
ENDBRANCH   6   9
ENDBRANCH   3   5
TORSDOF 9
ENDMDL
MODEL      385
REMARK 921   NORMALIZED FREE ENERGY PREDICTED BY IDOCK:   -2.65 KCAL/MOL
REMARK 922        TOTAL FREE ENERGY PREDICTED BY IDOCK:   -4.88 KCAL/MOL
REMARK 923 INTER-LIGAND FREE ENERGY PREDICTED BY IDOCK:   -3.48 KCAL/MOL
REMARK 924 INTRA-LIGAND FREE ENERGY PREDICTED BY IDOCK:   -1.40 KCAL/MOL
REMARK 927      BINDING AFFINITY PREDICTED BY RF-SCORE:    0.00 PKD
ROOT
HETATM    1  O   UNL     1      -7.017   7.447  66.785  1.00  0.00    -0.073 OA 
HETATM    2  C   UNL     1      -5.780   7.523  67.330  1.00  0.00    -0.035 C  
HETATM    3  C   UNL     1      -5.277   6.211  67.924  1.00  0.00    -0.004 C  
HETATM    4  O   UNL     1      -5.144   8.563  67.365  1.00  0.00    -0.032 OA 
ENDROOT
BRANCH   3   5
HETATM    5  N   UNL     1      -6.238   5.123  67.784  1.00  0.00    -0.037 N  
HETATM    6  C   UNL     1      -6.096   4.141  66.825  1.00  0.00    -0.031 C  
HETATM    7  H   UNL     1      -7.040   5.086  68.414  1.00  0.00     0.000 HD 
HETATM    8  O   UNL     1      -5.182   4.145  66.007  1.00  0.00    -0.008 OA 
BRANCH   6   9
HETATM    9  C   UNL     1      -7.187   3.062  66.818  1.00  0.00    -0.058 C  
BRANCH   9  10
HETATM   10  N   UNL     1      -8.535   3.598  66.745  1.00  0.00    -0.104 N  
HETATM   11  H   UNL     1      -9.123   3.565  67.577  1.00  0.00     0.000 HD 
HETATM   12  C   UNL     1      -9.048   4.150  65.592  1.00  0.00    -0.137 C  
HETATM   13  O   UNL     1      -8.385   4.252  64.563  1.00  0.00    -0.101 OA 
BRANCH  12  14
HETATM   14  C   UNL     1     -10.504   4.624  65.693  1.00  0.00    -0.227 C  
BRANCH  14  15
HETATM   15  N   UNL     1     -10.774   5.389  66.907  1.00  0.00    -0.384 N  
HETATM   16  C   UNL     1     -10.472   6.734  66.979  1.00  0.00    -0.299 C  
HETATM   17  H   UNL     1     -11.192   4.923  67.713  1.00  0.00     0.000 HD 
HETATM   18  O   UNL     1      -9.841   7.311  66.097  1.00  0.00    -0.024 OA 
BRANCH  16  19
HETATM   19  C   UNL     1     -10.905   7.416  68.266  1.00  0.00    -0.023 C  
BRANCH  19  20
HETATM   20  S   UNL     1     -11.182   6.231  69.600  1.00  0.00    -0.417 SA 
BRANCH  20  21
HETATM   21  C   UNL     1      -9.530   5.991  70.151  1.00  0.00    -0.158 C  
HETATM   22  O   UNL     1      -8.759   5.256  69.541  1.00  0.00    -0.102 OA 
BRANCH  21  23
HETATM   23  C   UNL     1      -9.115   6.700  71.393  1.00  0.00    -0.143 A  
HETATM   24  C   UNL     1     -10.079   6.969  72.373  1.00  0.00    -0.193 A  
HETATM   25  C   UNL     1      -9.728   7.679  73.525  1.00  0.00    -0.358 A  
HETATM   26  C   UNL     1      -8.421   8.132  73.698  1.00  0.00    -0.308 A  
HETATM   27  C   UNL     1      -7.458   7.866  72.727  1.00  0.00    -0.131 A  
HETATM   28  C   UNL     1      -7.800   7.155  71.578  1.00  0.00    -0.093 A  
ENDBRANCH  21  23
ENDBRANCH  20  21
ENDBRANCH  19  20
ENDBRANCH  16  19
ENDBRANCH  14  15
ENDBRANCH  12  14
ENDBRANCH   9  10
ENDBRANCH   6   9
ENDBRANCH   3   5
TORSDOF 9
ENDMDL
MODEL      386
REMARK 921   NORMALIZED FREE ENERGY PREDICTED BY IDOCK:   -2.58 KCAL/MOL
REMARK 922        TOTAL FREE ENERGY PREDICTED BY IDOCK:   -4.78 KCAL/MOL
REMARK 923 INTER-LIGAND FREE ENERGY PREDICTED BY IDOCK:   -3.58 KCAL/MOL
REMARK 924 INTRA-LIGAND FREE ENERGY PREDICTED BY IDOCK:   -1.20 KCAL/MOL
REMARK 927      BINDING AFFINITY PREDICTED BY RF-SCORE:    0.00 PKD
ROOT
HETATM    1  O   UNL     1      -8.098  10.026  70.404  1.00  0.00    -0.187 OA 
HETATM    2  C   UNL     1      -8.248  10.509  69.148  1.00  0.00    -0.150 C  
HETATM    3  C   UNL     1      -9.282   9.764  68.311  1.00  0.00    -0.129 C  
HETATM    4  O   UNL     1      -7.585  11.442  68.724  1.00  0.00    -0.122 OA 
ENDROOT
BRANCH   3   5
HETATM    5  N   UNL     1      -9.912   8.667  69.037  1.00  0.00    -0.187 N  
HETATM    6  C   UNL     1     -10.618   7.674  68.392  1.00  0.00    -0.122 C  
HETATM    7  H   UNL     1      -9.829   8.635  70.054  1.00  0.00     0.000 HD 
HETATM    8  O   UNL     1     -10.795   7.672  67.178  1.00  0.00    -0.317 OA 
BRANCH   6   9
HETATM    9  C   UNL     1     -11.210   6.588  69.300  1.00  0.00    -0.328 C  
BRANCH   9  10
HETATM   10  N   UNL     1     -10.785   5.243  68.950  1.00  0.00    -0.070 N  
HETATM   11  H   UNL     1     -11.470   4.598  68.557  1.00  0.00     0.000 HD 
HETATM   12  C   UNL     1      -9.492   4.807  69.130  1.00  0.00    -0.149 C  
HETATM   13  O   UNL     1      -8.608   5.539  69.569  1.00  0.00    -0.103 OA 
BRANCH  12  14
HETATM   14  C   UNL     1      -9.242   3.343  68.744  1.00  0.00    -0.166 C  
BRANCH  14  15
HETATM   15  N   UNL     1      -9.468   3.079  67.326  1.00  0.00    -0.367 N  
HETATM   16  C   UNL     1      -8.412   3.017  66.439  1.00  0.00    -0.107 C  
HETATM   17  H   UNL     1     -10.420   2.938  66.987  1.00  0.00     0.000 HD 
HETATM   18  O   UNL     1      -7.267   3.318  66.764  1.00  0.00    -0.061 OA 
BRANCH  16  19
HETATM   19  C   UNL     1      -8.795   2.632  65.020  1.00  0.00    -0.123 C  
BRANCH  19  20
HETATM   20  S   UNL     1      -9.396   4.048  64.073  1.00  0.00    -0.159 SA 
BRANCH  20  21
HETATM   21  C   UNL     1      -7.874   4.853  63.719  1.00  0.00    -0.085 C  
HETATM   22  O   UNL     1      -6.947   4.251  63.185  1.00  0.00    -0.041 OA 
BRANCH  21  23
HETATM   23  C   UNL     1      -7.753   6.286  64.107  1.00  0.00    -0.104 A  
HETATM   24  C   UNL     1      -7.764   7.262  63.103  1.00  0.00    -0.120 A  
HETATM   25  C   UNL     1      -7.598   8.610  63.434  1.00  0.00    -0.117 A  
HETATM   26  C   UNL     1      -7.411   8.987  64.763  1.00  0.00    -0.100 A  
HETATM   27  C   UNL     1      -7.401   8.021  65.766  1.00  0.00    -0.079 A  
HETATM   28  C   UNL     1      -7.569   6.675  65.443  1.00  0.00    -0.086 A  
ENDBRANCH  21  23
ENDBRANCH  20  21
ENDBRANCH  19  20
ENDBRANCH  16  19
ENDBRANCH  14  15
ENDBRANCH  12  14
ENDBRANCH   9  10
ENDBRANCH   6   9
ENDBRANCH   3   5
TORSDOF 9
ENDMDL
MODEL      387
REMARK 921   NORMALIZED FREE ENERGY PREDICTED BY IDOCK:   -2.55 KCAL/MOL
REMARK 922        TOTAL FREE ENERGY PREDICTED BY IDOCK:   -4.73 KCAL/MOL
REMARK 923 INTER-LIGAND FREE ENERGY PREDICTED BY IDOCK:   -3.68 KCAL/MOL
REMARK 924 INTRA-LIGAND FREE ENERGY PREDICTED BY IDOCK:   -1.05 KCAL/MOL
REMARK 927      BINDING AFFINITY PREDICTED BY RF-SCORE:    0.00 PKD
ROOT
HETATM    1  O   UNL     1      -9.589   9.761  70.450  1.00  0.00    -0.252 OA 
HETATM    2  C   UNL     1     -10.871  10.135  70.672  1.00  0.00    -0.235 C  
HETATM    3  C   UNL     1     -11.600   9.285  71.707  1.00  0.00    -0.388 C  
HETATM    4  O   UNL     1     -11.397  11.055  70.067  1.00  0.00    -0.285 OA 
ENDROOT
BRANCH   3   5
HETATM    5  N   UNL     1     -10.762   8.227  72.261  1.00  0.00    -0.304 N  
HETATM    6  C   UNL     1     -10.865   6.918  71.840  1.00  0.00    -0.229 C  
HETATM    7  H   UNL     1     -10.080   8.463  72.982  1.00  0.00     0.000 HD 
HETATM    8  O   UNL     1     -11.691   6.555  71.009  1.00  0.00    -0.330 OA 
BRANCH   6   9
HETATM    9  C   UNL     1      -9.904   5.930  72.514  1.00  0.00    -0.161 C  
BRANCH   9  10
HETATM   10  N   UNL     1      -9.466   4.857  71.639  1.00  0.00    -0.148 N  
HETATM   11  H   UNL     1     -10.169   4.299  71.156  1.00  0.00     0.000 HD 
HETATM   12  C   UNL     1      -8.135   4.564  71.439  1.00  0.00    -0.095 C  
HETATM   13  O   UNL     1      -7.235   5.214  71.964  1.00  0.00    -0.079 OA 
BRANCH  12  14
HETATM   14  C   UNL     1      -7.867   3.368  70.515  1.00  0.00    -0.043 C  
BRANCH  14  15
HETATM   15  N   UNL     1      -7.721   3.749  69.114  1.00  0.00    -0.053 N  
HETATM   16  C   UNL     1      -6.484   4.063  68.588  1.00  0.00    -0.037 C  
HETATM   17  H   UNL     1      -8.546   3.784  68.514  1.00  0.00     0.000 HD 
HETATM   18  O   UNL     1      -5.484   4.175  69.293  1.00  0.00    -0.011 OA 
BRANCH  16  19
HETATM   19  C   UNL     1      -6.477   4.338  67.094  1.00  0.00    -0.042 C  
BRANCH  19  20
HETATM   20  S   UNL     1      -7.828   5.431  66.601  1.00  0.00    -0.101 SA 
BRANCH  20  21
HETATM   21  C   UNL     1      -6.912   6.802  65.991  1.00  0.00    -0.065 C  
HETATM   22  O   UNL     1      -5.856   6.640  65.386  1.00  0.00    -0.028 OA 
BRANCH  21  23
HETATM   23  C   UNL     1      -7.459   8.161  66.255  1.00  0.00    -0.082 A  
HETATM   24  C   UNL     1      -6.775   9.006  67.138  1.00  0.00    -0.066 A  
HETATM   25  C   UNL     1      -7.294  10.267  67.445  1.00  0.00    -0.093 A  
HETATM   26  C   UNL     1      -8.499  10.685  66.882  1.00  0.00    -0.127 A  
HETATM   27  C   UNL     1      -9.183   9.850  66.001  1.00  0.00    -0.215 A  
HETATM   28  C   UNL     1      -8.668   8.591  65.688  1.00  0.00    -0.213 A  
ENDBRANCH  21  23
ENDBRANCH  20  21
ENDBRANCH  19  20
ENDBRANCH  16  19
ENDBRANCH  14  15
ENDBRANCH  12  14
ENDBRANCH   9  10
ENDBRANCH   6   9
ENDBRANCH   3   5
TORSDOF 9
ENDMDL
MODEL      388
REMARK 921   NORMALIZED FREE ENERGY PREDICTED BY IDOCK:   -2.54 KCAL/MOL
REMARK 922        TOTAL FREE ENERGY PREDICTED BY IDOCK:   -4.71 KCAL/MOL
REMARK 923 INTER-LIGAND FREE ENERGY PREDICTED BY IDOCK:   -4.19 KCAL/MOL
REMARK 924 INTRA-LIGAND FREE ENERGY PREDICTED BY IDOCK:   -0.53 KCAL/MOL
REMARK 927      BINDING AFFINITY PREDICTED BY RF-SCORE:    0.00 PKD
ROOT
HETATM    1  O   UNL     1      -5.469  11.276  63.308  1.00  0.00     0.035 OA 
HETATM    2  C   UNL     1      -5.835   9.980  63.162  1.00  0.00    -0.124 C  
HETATM    3  C   UNL     1      -6.935   9.530  64.118  1.00  0.00    -0.109 C  
HETATM    4  O   UNL     1      -5.303   9.239  62.352  1.00  0.00    -0.084 OA 
ENDROOT
BRANCH   3   5
HETATM    5  N   UNL     1      -7.380  10.595  65.009  1.00  0.00    -0.350 N  
HETATM    6  C   UNL     1      -6.699  10.913  66.166  1.00  0.00    -0.103 C  
HETATM    7  H   UNL     1      -8.221  11.121  64.770  1.00  0.00     0.000 HD 
HETATM    8  O   UNL     1      -5.706  10.296  66.537  1.00  0.00    -0.052 OA 
BRANCH   6   9
HETATM    9  C   UNL     1      -7.292  12.066  66.986  1.00  0.00    -0.097 C  
BRANCH   9  10
HETATM   10  N   UNL     1      -8.638  11.806  67.466  1.00  0.00    -0.150 N  
HETATM   11  H   UNL     1      -9.429  12.063  66.875  1.00  0.00     0.000 HD 
HETATM   12  C   UNL     1      -8.886  11.225  68.689  1.00  0.00    -0.141 C  
HETATM   13  O   UNL     1      -7.983  10.861  69.437  1.00  0.00    -0.119 OA 
BRANCH  12  14
HETATM   14  C   UNL     1     -10.371  11.069  69.043  1.00  0.00    -0.209 C  
BRANCH  14  15
HETATM   15  N   UNL     1     -10.853   9.698  68.903  1.00  0.00    -0.338 N  
HETATM   16  C   UNL     1     -10.686   9.005  67.720  1.00  0.00    -0.151 C  
HETATM   17  H   UNL     1     -11.319   9.245  69.689  1.00  0.00     0.000 HD 
HETATM   18  O   UNL     1     -10.263   9.544  66.701  1.00  0.00    -0.242 OA 
BRANCH  16  19
HETATM   19  C   UNL     1     -11.145   7.557  67.760  1.00  0.00     0.158 C  
BRANCH  19  20
HETATM   20  S   UNL     1      -9.866   6.459  68.409  1.00  0.00    -0.142 SA 
BRANCH  20  21
HETATM   21  C   UNL     1     -10.669   5.869  69.857  1.00  0.00    -0.336 C  
HETATM   22  O   UNL     1     -11.720   6.369  70.248  1.00  0.00    -0.411 OA 
BRANCH  21  23
HETATM   23  C   UNL     1     -10.013   4.756  70.596  1.00  0.00    -0.300 A  
HETATM   24  C   UNL     1      -9.475   3.686  69.869  1.00  0.00    -0.262 A  
HETATM   25  C   UNL     1      -8.901   2.601  70.539  1.00  0.00    -0.144 A  
HETATM   26  C   UNL     1      -8.870   2.575  71.933  1.00  0.00    -0.115 A  
HETATM   27  C   UNL     1      -9.401   3.637  72.661  1.00  0.00    -0.152 A  
HETATM   28  C   UNL     1      -9.973   4.724  71.998  1.00  0.00    -0.247 A  
ENDBRANCH  21  23
ENDBRANCH  20  21
ENDBRANCH  19  20
ENDBRANCH  16  19
ENDBRANCH  14  15
ENDBRANCH  12  14
ENDBRANCH   9  10
ENDBRANCH   6   9
ENDBRANCH   3   5
TORSDOF 9
ENDMDL
MODEL      389
REMARK 921   NORMALIZED FREE ENERGY PREDICTED BY IDOCK:   -2.46 KCAL/MOL
REMARK 922        TOTAL FREE ENERGY PREDICTED BY IDOCK:   -4.60 KCAL/MOL
REMARK 923 INTER-LIGAND FREE ENERGY PREDICTED BY IDOCK:   -4.22 KCAL/MOL
REMARK 924 INTRA-LIGAND FREE ENERGY PREDICTED BY IDOCK:   -0.38 KCAL/MOL
REMARK 927      BINDING AFFINITY PREDICTED BY RF-SCORE:    0.00 PKD
ROOT
HETATM    1  O   UNL     1      -8.253   4.795  66.813  1.00  0.00    -0.107 OA 
HETATM    2  C   UNL     1      -7.943   3.913  65.834  1.00  0.00    -0.093 C  
HETATM    3  C   UNL     1      -7.365   4.553  64.576  1.00  0.00    -0.070 C  
HETATM    4  O   UNL     1      -8.141   2.714  65.948  1.00  0.00    -0.081 OA 
ENDROOT
BRANCH   3   5
HETATM    5  N   UNL     1      -7.258   6.004  64.679  1.00  0.00    -0.060 N  
HETATM    6  C   UNL     1      -6.243   6.707  64.065  1.00  0.00    -0.035 C  
HETATM    7  H   UNL     1      -7.956   6.514  65.221  1.00  0.00     0.000 HD 
HETATM    8  O   UNL     1      -5.348   6.157  63.432  1.00  0.00    -0.017 OA 
BRANCH   6   9
HETATM    9  C   UNL     1      -6.281   8.228  64.261  1.00  0.00    -0.066 C  
BRANCH   9  10
HETATM   10  N   UNL     1      -7.626   8.779  64.278  1.00  0.00    -0.112 N  
HETATM   11  H   UNL     1      -8.268   8.531  63.526  1.00  0.00     0.000 HD 
HETATM   12  C   UNL     1      -8.065   9.624  65.272  1.00  0.00    -0.125 C  
HETATM   13  O   UNL     1      -7.357   9.939  66.225  1.00  0.00    -0.097 OA 
BRANCH  12  14
HETATM   14  C   UNL     1      -9.500  10.139  65.098  1.00  0.00    -0.260 C  
BRANCH  14  15
HETATM   15  N   UNL     1      -9.574  11.591  64.960  1.00  0.00    -0.308 N  
HETATM   16  C   UNL     1     -10.188  12.365  65.923  1.00  0.00    -0.251 C  
HETATM   17  H   UNL     1      -9.165  12.039  64.139  1.00  0.00     0.000 HD 
HETATM   18  O   UNL     1     -10.818  11.870  66.855  1.00  0.00    -0.239 OA 
BRANCH  16  19
HETATM   19  C   UNL     1     -10.095  13.863  65.692  1.00  0.00    -0.313 C  
BRANCH  19  20
HETATM   20  S   UNL     1     -11.457  14.755  66.473  1.00  0.00    -0.287 SA 
BRANCH  20  21
HETATM   21  C   UNL     1     -10.632  15.413  67.879  1.00  0.00    -0.267 C  
HETATM   22  O   UNL     1     -11.263  15.844  68.841  1.00  0.00    -0.297 OA 
BRANCH  21  23
HETATM   23  C   UNL     1      -9.144  15.442  67.846  1.00  0.00    -0.178 A  
HETATM   24  C   UNL     1      -8.432  14.728  68.818  1.00  0.00    -0.170 A  
HETATM   25  C   UNL     1      -7.035  14.780  68.844  1.00  0.00    -0.110 A  
HETATM   26  C   UNL     1      -6.346  15.552  67.909  1.00  0.00    -0.169 A  
HETATM   27  C   UNL     1      -7.049  16.262  66.939  1.00  0.00    -0.246 A  
HETATM   28  C   UNL     1      -8.442  16.211  66.906  1.00  0.00    -0.264 A  
ENDBRANCH  21  23
ENDBRANCH  20  21
ENDBRANCH  19  20
ENDBRANCH  16  19
ENDBRANCH  14  15
ENDBRANCH  12  14
ENDBRANCH   9  10
ENDBRANCH   6   9
ENDBRANCH   3   5
TORSDOF 9
ENDMDL
MODEL      390
REMARK 921   NORMALIZED FREE ENERGY PREDICTED BY IDOCK:   -2.30 KCAL/MOL
REMARK 922        TOTAL FREE ENERGY PREDICTED BY IDOCK:   -4.35 KCAL/MOL
REMARK 923 INTER-LIGAND FREE ENERGY PREDICTED BY IDOCK:   -4.42 KCAL/MOL
REMARK 924 INTRA-LIGAND FREE ENERGY PREDICTED BY IDOCK:    0.07 KCAL/MOL
REMARK 927      BINDING AFFINITY PREDICTED BY RF-SCORE:    0.00 PKD
ROOT
HETATM    1  O   UNL     1     -13.835   9.450  71.309  1.00  0.00    -0.314 OA 
HETATM    2  C   UNL     1     -12.665   8.776  71.413  1.00  0.00    -0.283 C  
HETATM    3  C   UNL     1     -11.626   9.163  70.366  1.00  0.00    -0.146 C  
HETATM    4  O   UNL     1     -12.480   7.915  72.256  1.00  0.00    -0.292 OA 
ENDROOT
BRANCH   3   5
HETATM    5  N   UNL     1     -12.102  10.194  69.451  1.00  0.00    -0.493 N  
HETATM    6  C   UNL     1     -12.114  11.529  69.797  1.00  0.00    -0.306 C  
HETATM    7  H   UNL     1     -12.437   9.920  68.527  1.00  0.00     0.000 HD 
HETATM    8  O   UNL     1     -11.766  11.928  70.904  1.00  0.00     0.048 OA 
BRANCH   6   9
HETATM    9  C   UNL     1     -12.635  12.487  68.717  1.00  0.00     0.889 C  
BRANCH   9  10
HETATM   10  N   UNL     1     -11.760  12.593  67.563  1.00  0.00    -0.363 N  
HETATM   11  H   UNL     1     -12.159  12.875  66.668  1.00  0.00     0.000 HD 
HETATM   12  C   UNL     1     -10.411  12.325  67.632  1.00  0.00    -0.214 C  
HETATM   13  O   UNL     1      -9.858  12.011  68.683  1.00  0.00    -0.194 OA 
BRANCH  12  14
HETATM   14  C   UNL     1      -9.657  12.448  66.302  1.00  0.00    -0.241 C  
BRANCH  14  15
HETATM   15  N   UNL     1      -8.967  13.726  66.150  1.00  0.00    -0.443 N  
HETATM   16  C   UNL     1      -9.670  14.885  65.890  1.00  0.00    -0.333 C  
HETATM   17  H   UNL     1      -7.951  13.763  66.239  1.00  0.00     0.000 HD 
HETATM   18  O   UNL     1     -10.871  14.877  65.633  1.00  0.00    -0.310 OA 
BRANCH  16  19
HETATM   19  C   UNL     1      -8.827  16.149  65.862  1.00  0.00    -0.161 C  
BRANCH  19  20
HETATM   20  S   UNL     1      -7.343  15.996  66.880  1.00  0.00    -0.155 SA 
BRANCH  20  21
HETATM   21  C   UNL     1      -7.843  16.907  68.297  1.00  0.00    -0.208 C  
HETATM   22  O   UNL     1      -7.105  17.748  68.803  1.00  0.00    -0.246 OA 
BRANCH  21  23
HETATM   23  C   UNL     1      -9.186  16.606  68.865  1.00  0.00    -0.244 A  
HETATM   24  C   UNL     1      -9.332  15.492  69.702  1.00  0.00    -0.224 A  
HETATM   25  C   UNL     1     -10.591  15.154  70.206  1.00  0.00    -0.195 A  
HETATM   26  C   UNL     1     -11.709  15.918  69.870  1.00  0.00    -0.327 A  
HETATM   27  C   UNL     1     -11.569  17.027  69.040  1.00  0.00     0.714 A  
HETATM   28  C   UNL     1     -10.315  17.372  68.536  1.00  0.00    -0.378 A  
ENDBRANCH  21  23
ENDBRANCH  20  21
ENDBRANCH  19  20
ENDBRANCH  16  19
ENDBRANCH  14  15
ENDBRANCH  12  14
ENDBRANCH   9  10
ENDBRANCH   6   9
ENDBRANCH   3   5
TORSDOF 9
ENDMDL
MODEL      391
REMARK 921   NORMALIZED FREE ENERGY PREDICTED BY IDOCK:   -2.28 KCAL/MOL
REMARK 922        TOTAL FREE ENERGY PREDICTED BY IDOCK:   -4.32 KCAL/MOL
REMARK 923 INTER-LIGAND FREE ENERGY PREDICTED BY IDOCK:   -3.85 KCAL/MOL
REMARK 924 INTRA-LIGAND FREE ENERGY PREDICTED BY IDOCK:   -0.47 KCAL/MOL
REMARK 927      BINDING AFFINITY PREDICTED BY RF-SCORE:    0.00 PKD
ROOT
HETATM    1  O   UNL     1     -11.207  13.149  63.711  1.00  0.00    -0.379 OA 
HETATM    2  C   UNL     1     -11.986  12.948  64.801  1.00  0.00    -0.396 C  
HETATM    3  C   UNL     1     -11.306  12.165  65.919  1.00  0.00    -0.356 C  
HETATM    4  O   UNL     1     -13.140  13.339  64.859  1.00  0.00    -0.737 OA 
ENDROOT
BRANCH   3   5
HETATM    5  N   UNL     1      -9.937  11.785  65.591  1.00  0.00    -0.233 N  
HETATM    6  C   UNL     1      -9.532  10.467  65.560  1.00  0.00    -0.215 C  
HETATM    7  H   UNL     1      -9.257  12.516  65.378  1.00  0.00     0.000 HD 
HETATM    8  O   UNL     1     -10.282   9.539  65.845  1.00  0.00    -0.266 OA 
BRANCH   6   9
HETATM    9  C   UNL     1      -8.062  10.236  65.185  1.00  0.00    -0.151 C  
BRANCH   9  10
HETATM   10  N   UNL     1      -7.278   9.636  66.251  1.00  0.00    -0.092 N  
HETATM   11  H   UNL     1      -7.678   8.860  66.778  1.00  0.00     0.000 HD 
HETATM   12  C   UNL     1      -6.015  10.076  66.576  1.00  0.00    -0.060 C  
HETATM   13  O   UNL     1      -5.460  10.984  65.963  1.00  0.00    -0.128 OA 
BRANCH  12  14
HETATM   14  C   UNL     1      -5.359   9.349  67.758  1.00  0.00    -0.037 C  
BRANCH  14  15
HETATM   15  N   UNL     1      -6.282   8.471  68.472  1.00  0.00    -0.052 N  
HETATM   16  C   UNL     1      -6.786   8.825  69.707  1.00  0.00    -0.046 C  
HETATM   17  H   UNL     1      -6.557   7.582  68.052  1.00  0.00     0.000 HD 
HETATM   18  O   UNL     1      -6.382   9.810  70.320  1.00  0.00    -0.063 OA 
BRANCH  16  19
HETATM   19  C   UNL     1      -7.812   7.860  70.277  1.00  0.00    -0.089 C  
BRANCH  19  20
HETATM   20  S   UNL     1      -8.346   6.641  69.057  1.00  0.00    -0.120 SA 
BRANCH  20  21
HETATM   21  C   UNL     1      -7.206   5.345  69.393  1.00  0.00    -0.065 C  
HETATM   22  O   UNL     1      -6.494   4.882  68.506  1.00  0.00    -0.035 OA 
BRANCH  21  23
HETATM   23  C   UNL     1      -7.155   4.824  70.786  1.00  0.00    -0.044 A  
HETATM   24  C   UNL     1      -5.995   4.171  71.222  1.00  0.00    -0.014 A  
HETATM   25  C   UNL     1      -5.939   3.625  72.508  1.00  0.00    -0.009 A  
HETATM   26  C   UNL     1      -7.040   3.720  73.358  1.00  0.00    -0.054 A  
HETATM   27  C   UNL     1      -8.195   4.370  72.931  1.00  0.00    -0.095 A  
HETATM   28  C   UNL     1      -8.256   4.920  71.650  1.00  0.00    -0.114 A  
ENDBRANCH  21  23
ENDBRANCH  20  21
ENDBRANCH  19  20
ENDBRANCH  16  19
ENDBRANCH  14  15
ENDBRANCH  12  14
ENDBRANCH   9  10
ENDBRANCH   6   9
ENDBRANCH   3   5
TORSDOF 9
ENDMDL
MODEL      392
REMARK 921   NORMALIZED FREE ENERGY PREDICTED BY IDOCK:   -2.11 KCAL/MOL
REMARK 922        TOTAL FREE ENERGY PREDICTED BY IDOCK:   -4.07 KCAL/MOL
REMARK 923 INTER-LIGAND FREE ENERGY PREDICTED BY IDOCK:   -3.48 KCAL/MOL
REMARK 924 INTRA-LIGAND FREE ENERGY PREDICTED BY IDOCK:   -0.59 KCAL/MOL
REMARK 927      BINDING AFFINITY PREDICTED BY RF-SCORE:    0.00 PKD
ROOT
HETATM    1  O   UNL     1     -12.950  13.456  66.224  1.00  0.00    -0.108 OA 
HETATM    2  C   UNL     1     -12.564  13.035  64.996  1.00  0.00    -0.454 C  
HETATM    3  C   UNL     1     -11.400  12.049  65.010  1.00  0.00    -0.310 C  
HETATM    4  O   UNL     1     -13.090  13.439  63.972  1.00  0.00    -0.253 OA 
ENDROOT
BRANCH   3   5
HETATM    5  N   UNL     1     -10.929  11.751  66.358  1.00  0.00    -0.284 N  
HETATM    6  C   UNL     1      -9.760  11.057  66.587  1.00  0.00    -0.195 C  
HETATM    7  H   UNL     1     -11.482  12.066  67.157  1.00  0.00     0.000 HD 
HETATM    8  O   UNL     1      -9.068  10.612  65.677  1.00  0.00    -0.169 OA 
BRANCH   6   9
HETATM    9  C   UNL     1      -9.400  10.836  68.062  1.00  0.00    -0.150 C  
BRANCH   9  10
HETATM   10  N   UNL     1      -7.973  10.886  68.326  1.00  0.00    -0.115 N  
HETATM   11  H   UNL     1      -7.421  11.632  67.903  1.00  0.00     0.000 HD 
HETATM   12  C   UNL     1      -7.338   9.964  69.127  1.00  0.00    -0.083 C  
HETATM   13  O   UNL     1      -7.945   9.059  69.693  1.00  0.00    -0.085 OA 
BRANCH  12  14
HETATM   14  C   UNL     1      -5.820  10.153  69.254  1.00  0.00    -0.037 C  
BRANCH  14  15
HETATM   15  N   UNL     1      -5.414  11.555  69.231  1.00  0.00    -0.047 N  
HETATM   16  C   UNL     1      -5.753  12.409  70.261  1.00  0.00    -0.166 C  
HETATM   17  H   UNL     1      -4.871  11.908  68.443  1.00  0.00     0.000 HD 
HETATM   18  O   UNL     1      -6.522  12.076  71.160  1.00  0.00     0.590 OA 
BRANCH  16  19
HETATM   19  C   UNL     1      -5.173  13.808  70.147  1.00  0.00    -0.096 C  
BRANCH  19  20
HETATM   20  S   UNL     1      -6.317  15.067  70.752  1.00  0.00     0.259 SA 
BRANCH  20  21
HETATM   21  C   UNL     1      -6.230  16.226  69.433  1.00  0.00    -0.177 C  
HETATM   22  O   UNL     1      -5.156  16.706  69.080  1.00  0.00    -0.124 OA 
BRANCH  21  23
HETATM   23  C   UNL     1      -7.510  16.613  68.779  1.00  0.00    -0.224 A  
HETATM   24  C   UNL     1      -7.562  17.809  68.050  1.00  0.00    -0.236 A  
HETATM   25  C   UNL     1      -8.764  18.223  67.469  1.00  0.00    -0.256 A  
HETATM   26  C   UNL     1      -9.918  17.455  67.621  1.00  0.00    -0.300 A  
HETATM   27  C   UNL     1      -9.871  16.264  68.343  1.00  0.00    -0.229 A  
HETATM   28  C   UNL     1      -8.673  15.843  68.921  1.00  0.00    -0.225 A  
ENDBRANCH  21  23
ENDBRANCH  20  21
ENDBRANCH  19  20
ENDBRANCH  16  19
ENDBRANCH  14  15
ENDBRANCH  12  14
ENDBRANCH   9  10
ENDBRANCH   6   9
ENDBRANCH   3   5
TORSDOF 9
ENDMDL
MODEL      393
REMARK 921   NORMALIZED FREE ENERGY PREDICTED BY IDOCK:   -1.96 KCAL/MOL
REMARK 922        TOTAL FREE ENERGY PREDICTED BY IDOCK:   -3.83 KCAL/MOL
REMARK 923 INTER-LIGAND FREE ENERGY PREDICTED BY IDOCK:   -3.33 KCAL/MOL
REMARK 924 INTRA-LIGAND FREE ENERGY PREDICTED BY IDOCK:   -0.50 KCAL/MOL
REMARK 927      BINDING AFFINITY PREDICTED BY RF-SCORE:    0.00 PKD
ROOT
HETATM    1  O   UNL     1     -13.043  13.601  66.967  1.00  0.00     0.660 OA 
HETATM    2  C   UNL     1     -12.593  13.232  65.744  1.00  0.00    -0.347 C  
HETATM    3  C   UNL     1     -11.312  12.406  65.773  1.00  0.00    -0.352 C  
HETATM    4  O   UNL     1     -13.157  13.563  64.714  1.00  0.00    -0.680 OA 
ENDROOT
BRANCH   3   5
HETATM    5  N   UNL     1     -10.819  12.174  67.126  1.00  0.00    -0.235 N  
HETATM    6  C   UNL     1     -11.216  11.083  67.871  1.00  0.00    -0.310 C  
HETATM    7  H   UNL     1     -10.161  12.838  67.534  1.00  0.00     0.000 HD 
HETATM    8  O   UNL     1     -12.035  10.267  67.462  1.00  0.00     0.360 OA 
BRANCH   6   9
HETATM    9  C   UNL     1     -10.597  10.979  69.271  1.00  0.00    -0.201 C  
BRANCH   9  10
HETATM   10  N   UNL     1     -10.457   9.613  69.745  1.00  0.00    -0.221 N  
HETATM   11  H   UNL     1     -10.138   8.897  69.093  1.00  0.00     0.000 HD 
HETATM   12  C   UNL     1     -10.740   9.249  71.042  1.00  0.00    -0.316 C  
HETATM   13  O   UNL     1     -11.098  10.064  71.888  1.00  0.00     0.280 OA 
BRANCH  12  14
HETATM   14  C   UNL     1     -10.576   7.754  71.346  1.00  0.00    -0.213 C  
BRANCH  14  15
HETATM   15  N   UNL     1      -9.820   7.041  70.321  1.00  0.00    -0.176 N  
HETATM   16  C   UNL     1      -8.462   7.242  70.173  1.00  0.00    -0.138 C  
HETATM   17  H   UNL     1     -10.301   6.385  69.706  1.00  0.00     0.000 HD 
HETATM   18  O   UNL     1      -7.860   8.120  70.786  1.00  0.00    -0.082 OA 
BRANCH  16  19
HETATM   19  C   UNL     1      -7.796   6.355  69.135  1.00  0.00    -0.109 C  
BRANCH  19  20
HETATM   20  S   UNL     1      -6.605   7.267  68.129  1.00  0.00    -0.051 SA 
BRANCH  20  21
HETATM   21  C   UNL     1      -7.295   7.020  66.531  1.00  0.00    -0.083 C  
HETATM   22  O   UNL     1      -7.432   5.891  66.066  1.00  0.00    -0.082 OA 
BRANCH  21  23
HETATM   23  C   UNL     1      -7.688   8.233  65.761  1.00  0.00    -0.091 A  
HETATM   24  C   UNL     1      -9.027   8.645  65.785  1.00  0.00    -0.244 A  
HETATM   25  C   UNL     1      -9.434   9.748  65.029  1.00  0.00    -0.337 A  
HETATM   26  C   UNL     1      -8.512  10.437  64.243  1.00  0.00    -0.159 A  
HETATM   27  C   UNL     1      -7.179  10.034  64.218  1.00  0.00    -0.133 A  
HETATM   28  C   UNL     1      -6.766   8.935  64.971  1.00  0.00    -0.069 A  
ENDBRANCH  21  23
ENDBRANCH  20  21
ENDBRANCH  19  20
ENDBRANCH  16  19
ENDBRANCH  14  15
ENDBRANCH  12  14
ENDBRANCH   9  10
ENDBRANCH   6   9
ENDBRANCH   3   5
TORSDOF 9
ENDMDL
MODEL      394
REMARK 921   NORMALIZED FREE ENERGY PREDICTED BY IDOCK:   -1.93 KCAL/MOL
REMARK 922        TOTAL FREE ENERGY PREDICTED BY IDOCK:   -3.79 KCAL/MOL
REMARK 923 INTER-LIGAND FREE ENERGY PREDICTED BY IDOCK:   -3.46 KCAL/MOL
REMARK 924 INTRA-LIGAND FREE ENERGY PREDICTED BY IDOCK:   -0.33 KCAL/MOL
REMARK 927      BINDING AFFINITY PREDICTED BY RF-SCORE:    0.00 PKD
ROOT
HETATM    1  O   UNL     1     -10.616   8.046  66.416  1.00  0.00    -0.036 OA 
HETATM    2  C   UNL     1      -9.573   8.909  66.446  1.00  0.00    -0.238 C  
HETATM    3  C   UNL     1      -8.290   8.360  65.832  1.00  0.00    -0.134 C  
HETATM    4  O   UNL     1      -9.657  10.017  66.949  1.00  0.00    -0.164 OA 
ENDROOT
BRANCH   3   5
HETATM    5  N   UNL     1      -8.441   7.000  65.328  1.00  0.00    -0.291 N  
HETATM    6  C   UNL     1      -8.090   5.898  66.081  1.00  0.00    -0.109 C  
HETATM    7  H   UNL     1      -8.818   6.859  64.391  1.00  0.00     0.000 HD 
HETATM    8  O   UNL     1      -7.593   5.994  67.198  1.00  0.00    -0.090 OA 
BRANCH   6   9
HETATM    9  C   UNL     1      -8.323   4.539  65.409  1.00  0.00    -0.117 C  
BRANCH   9  10
HETATM   10  N   UNL     1      -8.380   3.430  66.346  1.00  0.00    -0.100 N  
HETATM   11  H   UNL     1      -9.285   3.012  66.558  1.00  0.00     0.000 HD 
HETATM   12  C   UNL     1      -7.256   2.923  66.958  1.00  0.00    -0.058 C  
HETATM   13  O   UNL     1      -6.130   3.357  66.725  1.00  0.00    -0.023 OA 
BRANCH  12  14
HETATM   14  C   UNL     1      -7.517   1.781  67.950  1.00  0.00    -0.054 C  
BRANCH  14  15
HETATM   15  N   UNL     1      -7.319   2.175  69.341  1.00  0.00    -0.043 N  
HETATM   16  C   UNL     1      -8.361   2.688  70.088  1.00  0.00    -0.041 C  
HETATM   17  H   UNL     1      -6.398   2.070  69.768  1.00  0.00     0.000 HD 
HETATM   18  O   UNL     1      -9.448   2.968  69.589  1.00  0.00    -0.154 OA 
BRANCH  16  19
HETATM   19  C   UNL     1      -8.028   2.955  71.547  1.00  0.00    -0.056 C  
BRANCH  19  20
HETATM   20  S   UNL     1      -6.810   4.275  71.732  1.00  0.00    -0.035 SA 
BRANCH  20  21
HETATM   21  C   UNL     1      -7.650   5.589  70.920  1.00  0.00    -0.090 C  
HETATM   22  O   UNL     1      -7.331   5.940  69.787  1.00  0.00    -0.071 OA 
BRANCH  21  23
HETATM   23  C   UNL     1      -8.746   6.265  71.667  1.00  0.00    -0.134 A  
HETATM   24  C   UNL     1     -10.074   5.985  71.319  1.00  0.00    -0.237 A  
HETATM   25  C   UNL     1     -11.122   6.645  71.967  1.00  0.00    -0.289 A  
HETATM   26  C   UNL     1     -10.850   7.591  72.955  1.00  0.00    -0.425 A  
HETATM   27  C   UNL     1      -9.532   7.871  73.306  1.00  0.00    -0.350 A  
HETATM   28  C   UNL     1      -8.482   7.214  72.665  1.00  0.00    -0.124 A  
ENDBRANCH  21  23
ENDBRANCH  20  21
ENDBRANCH  19  20
ENDBRANCH  16  19
ENDBRANCH  14  15
ENDBRANCH  12  14
ENDBRANCH   9  10
ENDBRANCH   6   9
ENDBRANCH   3   5
TORSDOF 9
ENDMDL
MODEL      395
REMARK 921   NORMALIZED FREE ENERGY PREDICTED BY IDOCK:   -1.72 KCAL/MOL
REMARK 922        TOTAL FREE ENERGY PREDICTED BY IDOCK:   -3.47 KCAL/MOL
REMARK 923 INTER-LIGAND FREE ENERGY PREDICTED BY IDOCK:   -3.70 KCAL/MOL
REMARK 924 INTRA-LIGAND FREE ENERGY PREDICTED BY IDOCK:    0.23 KCAL/MOL
REMARK 927      BINDING AFFINITY PREDICTED BY RF-SCORE:    0.00 PKD
ROOT
HETATM    1  O   UNL     1     -10.959  13.496  63.736  1.00  0.00    -0.131 OA 
HETATM    2  C   UNL     1     -11.624  13.324  64.904  1.00  0.00    -0.325 C  
HETATM    3  C   UNL     1     -10.840  12.553  65.960  1.00  0.00    -0.276 C  
HETATM    4  O   UNL     1     -12.762  13.729  65.073  1.00  0.00    -0.630 OA 
ENDROOT
BRANCH   3   5
HETATM    5  N   UNL     1      -9.516  12.150  65.500  1.00  0.00    -0.422 N  
HETATM    6  C   UNL     1      -9.320  11.018  64.737  1.00  0.00    -0.209 C  
HETATM    7  H   UNL     1      -8.709  12.724  65.750  1.00  0.00     0.000 HD 
HETATM    8  O   UNL     1     -10.236  10.260  64.434  1.00  0.00    -0.298 OA 
BRANCH   6   9
HETATM    9  C   UNL     1      -7.868  10.742  64.325  1.00  0.00     0.251 C  
BRANCH   9  10
HETATM   10  N   UNL     1      -7.383   9.439  64.744  1.00  0.00    -0.103 N  
HETATM   11  H   UNL     1      -8.046   8.668  64.819  1.00  0.00     0.000 HD 
HETATM   12  C   UNL     1      -6.060   9.205  65.044  1.00  0.00    -0.064 C  
HETATM   13  O   UNL     1      -5.201  10.078  64.946  1.00  0.00    -0.053 OA 
BRANCH  12  14
HETATM   14  C   UNL     1      -5.743   7.778  65.511  1.00  0.00    -0.037 C  
BRANCH  14  15
HETATM   15  N   UNL     1      -6.889   7.107  66.118  1.00  0.00    -0.056 N  
HETATM   16  C   UNL     1      -7.666   7.746  67.063  1.00  0.00    -0.104 C  
HETATM   17  H   UNL     1      -7.118   6.152  65.840  1.00  0.00     0.000 HD 
HETATM   18  O   UNL     1      -7.355   8.835  67.537  1.00  0.00    -0.080 OA 
BRANCH  16  19
HETATM   19  C   UNL     1      -8.881   6.960  67.526  1.00  0.00    -0.118 C  
BRANCH  19  20
HETATM   20  S   UNL     1      -8.602   6.158  69.120  1.00  0.00    -0.118 SA 
BRANCH  20  21
HETATM   21  C   UNL     1      -8.878   7.515  70.202  1.00  0.00    -0.147 C  
HETATM   22  O   UNL     1      -9.602   8.451  69.874  1.00  0.00    -0.169 OA 
BRANCH  21  23
HETATM   23  C   UNL     1      -8.186   7.489  71.520  1.00  0.00    -0.105 A  
HETATM   24  C   UNL     1      -7.129   8.381  71.747  1.00  0.00    -0.098 A  
HETATM   25  C   UNL     1      -6.427   8.343  72.955  1.00  0.00    -0.109 A  
HETATM   26  C   UNL     1      -6.768   7.412  73.935  1.00  0.00    -0.081 A  
HETATM   27  C   UNL     1      -7.819   6.524  73.716  1.00  0.00    -0.094 A  
HETATM   28  C   UNL     1      -8.526   6.559  72.514  1.00  0.00    -0.121 A  
ENDBRANCH  21  23
ENDBRANCH  20  21
ENDBRANCH  19  20
ENDBRANCH  16  19
ENDBRANCH  14  15
ENDBRANCH  12  14
ENDBRANCH   9  10
ENDBRANCH   6   9
ENDBRANCH   3   5
TORSDOF 9
ENDMDL
MODEL      396
REMARK 921   NORMALIZED FREE ENERGY PREDICTED BY IDOCK:   -1.68 KCAL/MOL
REMARK 922        TOTAL FREE ENERGY PREDICTED BY IDOCK:   -3.41 KCAL/MOL
REMARK 923 INTER-LIGAND FREE ENERGY PREDICTED BY IDOCK:   -2.58 KCAL/MOL
REMARK 924 INTRA-LIGAND FREE ENERGY PREDICTED BY IDOCK:   -0.84 KCAL/MOL
REMARK 927      BINDING AFFINITY PREDICTED BY RF-SCORE:    0.00 PKD
ROOT
HETATM    1  O   UNL     1     -12.527  11.539  70.812  1.00  0.00    -0.362 OA 
HETATM    2  C   UNL     1     -13.007  11.316  72.059  1.00  0.00    -0.274 C  
HETATM    3  C   UNL     1     -13.074   9.844  72.450  1.00  0.00    -0.207 C  
HETATM    4  O   UNL     1     -13.378  12.222  72.787  1.00  0.00    -0.060 OA 
ENDROOT
BRANCH   3   5
HETATM    5  N   UNL     1     -12.602   8.957  71.392  1.00  0.00    -0.339 N  
HETATM    6  C   UNL     1     -11.791   7.873  71.656  1.00  0.00    -0.288 C  
HETATM    7  H   UNL     1     -12.879   9.144  70.428  1.00  0.00     0.000 HD 
HETATM    8  O   UNL     1     -11.384   7.611  72.783  1.00  0.00    -0.356 OA 
BRANCH   6   9
HETATM    9  C   UNL     1     -11.393   7.034  70.434  1.00  0.00    -0.310 C  
BRANCH   9  10
HETATM   10  N   UNL     1     -10.874   7.824  69.331  1.00  0.00    -0.389 N  
HETATM   11  H   UNL     1     -10.274   8.622  69.537  1.00  0.00     0.000 HD 
HETATM   12  C   UNL     1     -11.163   7.534  68.016  1.00  0.00     0.399 C  
HETATM   13  O   UNL     1     -11.853   6.570  67.693  1.00  0.00     0.628 OA 
BRANCH  12  14
HETATM   14  C   UNL     1     -10.562   8.506  66.991  1.00  0.00    -0.235 C  
BRANCH  14  15
HETATM   15  N   UNL     1      -9.107   8.590  67.068  1.00  0.00    -0.139 N  
HETATM   16  C   UNL     1      -8.478   9.788  67.341  1.00  0.00    -0.121 C  
HETATM   17  H   UNL     1      -8.546   7.751  66.917  1.00  0.00     0.000 HD 
HETATM   18  O   UNL     1      -9.091  10.852  67.390  1.00  0.00    -0.140 OA 
BRANCH  16  19
HETATM   19  C   UNL     1      -6.969   9.697  67.490  1.00  0.00    -0.084 C  
BRANCH  19  20
HETATM   20  S   UNL     1      -6.256   8.440  66.407  1.00  0.00    -0.054 SA 
BRANCH  20  21
HETATM   21  C   UNL     1      -6.003   7.140  67.564  1.00  0.00    -0.033 C  
HETATM   22  O   UNL     1      -5.813   7.379  68.754  1.00  0.00    -0.022 OA 
BRANCH  21  23
HETATM   23  C   UNL     1      -6.011   5.747  67.040  1.00  0.00    -0.018 A  
HETATM   24  C   UNL     1      -6.966   5.392  66.078  1.00  0.00    -0.066 A  
HETATM   25  C   UNL     1      -7.031   4.078  65.606  1.00  0.00    -0.062 A  
HETATM   26  C   UNL     1      -6.153   3.113  66.099  1.00  0.00    -0.024 A  
HETATM   27  C   UNL     1      -5.201   3.460  67.054  1.00  0.00    -0.012 A  
HETATM   28  C   UNL     1      -5.129   4.771  67.525  1.00  0.00    -0.007 A  
ENDBRANCH  21  23
ENDBRANCH  20  21
ENDBRANCH  19  20
ENDBRANCH  16  19
ENDBRANCH  14  15
ENDBRANCH  12  14
ENDBRANCH   9  10
ENDBRANCH   6   9
ENDBRANCH   3   5
TORSDOF 9
ENDMDL
MODEL      397
REMARK 921   NORMALIZED FREE ENERGY PREDICTED BY IDOCK:   -1.37 KCAL/MOL
REMARK 922        TOTAL FREE ENERGY PREDICTED BY IDOCK:   -2.93 KCAL/MOL
REMARK 923 INTER-LIGAND FREE ENERGY PREDICTED BY IDOCK:   -2.80 KCAL/MOL
REMARK 924 INTRA-LIGAND FREE ENERGY PREDICTED BY IDOCK:   -0.13 KCAL/MOL
REMARK 927      BINDING AFFINITY PREDICTED BY RF-SCORE:    0.00 PKD
ROOT
HETATM    1  O   UNL     1      -7.349  10.211  70.883  1.00  0.00    -0.238 OA 
HETATM    2  C   UNL     1      -7.601  10.406  69.566  1.00  0.00    -0.156 C  
HETATM    3  C   UNL     1      -8.706   9.518  69.003  1.00  0.00    -0.142 C  
HETATM    4  O   UNL     1      -6.972  11.204  68.893  1.00  0.00    -0.079 OA 
ENDROOT
BRANCH   3   5
HETATM    5  N   UNL     1      -9.280   8.626  70.005  1.00  0.00    -0.153 N  
HETATM    6  C   UNL     1     -10.077   7.555  69.659  1.00  0.00    -0.189 C  
HETATM    7  H   UNL     1      -9.086   8.800  70.992  1.00  0.00     0.000 HD 
HETATM    8  O   UNL     1     -10.386   7.310  68.498  1.00  0.00    -0.180 OA 
BRANCH   6   9
HETATM    9  C   UNL     1     -10.591   6.709  70.831  1.00  0.00    -0.224 C  
BRANCH   9  10
HETATM   10  N   UNL     1      -9.970   5.398  70.919  1.00  0.00    -0.191 N  
HETATM   11  H   UNL     1     -10.561   4.570  70.861  1.00  0.00     0.000 HD 
HETATM   12  C   UNL     1      -8.612   5.234  71.077  1.00  0.00    -0.123 C  
HETATM   13  O   UNL     1      -7.838   6.187  71.123  1.00  0.00    -0.107 OA 
BRANCH  12  14
HETATM   14  C   UNL     1      -8.144   3.777  71.193  1.00  0.00    -0.064 C  
BRANCH  14  15
HETATM   15  N   UNL     1      -8.290   3.029  69.948  1.00  0.00    -0.047 N  
HETATM   16  C   UNL     1      -7.250   2.946  69.045  1.00  0.00    -0.048 C  
HETATM   17  H   UNL     1      -9.173   2.560  69.744  1.00  0.00     0.000 HD 
HETATM   18  O   UNL     1      -6.220   3.604  69.171  1.00  0.00    -0.027 OA 
BRANCH  16  19
HETATM   19  C   UNL     1      -7.516   2.048  67.848  1.00  0.00    -0.055 C  
BRANCH  19  20
HETATM   20  S   UNL     1      -8.467   2.893  66.566  1.00  0.00    -0.107 SA 
BRANCH  20  21
HETATM   21  C   UNL     1      -7.247   3.998  65.951  1.00  0.00    -0.068 C  
HETATM   22  O   UNL     1      -6.177   3.582  65.515  1.00  0.00    -0.029 OA 
BRANCH  21  23
HETATM   23  C   UNL     1      -7.557   5.454  65.997  1.00  0.00    -0.087 A  
HETATM   24  C   UNL     1      -7.972   6.094  64.822  1.00  0.00    -0.124 A  
HETATM   25  C   UNL     1      -8.219   7.470  64.823  1.00  0.00    -0.068 A  
HETATM   26  C   UNL     1      -8.043   8.212  65.991  1.00  0.00    -0.112 A  
HETATM   27  C   UNL     1      -7.633   7.580  67.162  1.00  0.00    -0.107 A  
HETATM   28  C   UNL     1      -7.389   6.207  67.168  1.00  0.00    -0.076 A  
ENDBRANCH  21  23
ENDBRANCH  20  21
ENDBRANCH  19  20
ENDBRANCH  16  19
ENDBRANCH  14  15
ENDBRANCH  12  14
ENDBRANCH   9  10
ENDBRANCH   6   9
ENDBRANCH   3   5
TORSDOF 9
ENDMDL
MODEL      398
REMARK 921   NORMALIZED FREE ENERGY PREDICTED BY IDOCK:   -1.36 KCAL/MOL
REMARK 922        TOTAL FREE ENERGY PREDICTED BY IDOCK:   -2.91 KCAL/MOL
REMARK 923 INTER-LIGAND FREE ENERGY PREDICTED BY IDOCK:   -3.64 KCAL/MOL
REMARK 924 INTRA-LIGAND FREE ENERGY PREDICTED BY IDOCK:    0.72 KCAL/MOL
REMARK 927      BINDING AFFINITY PREDICTED BY RF-SCORE:    0.00 PKD
ROOT
HETATM    1  O   UNL     1     -10.617  12.881  63.963  1.00  0.00    -0.405 OA 
HETATM    2  C   UNL     1     -11.298  12.644  65.110  1.00  0.00    -0.308 C  
HETATM    3  C   UNL     1     -10.569  11.735  66.093  1.00  0.00    -0.260 C  
HETATM    4  O   UNL     1     -12.411  13.101  65.314  1.00  0.00    -0.430 OA 
ENDROOT
BRANCH   3   5
HETATM    5  N   UNL     1      -9.268  11.296  65.599  1.00  0.00    -0.218 N  
HETATM    6  C   UNL     1      -9.143  10.299  64.655  1.00  0.00    -0.228 C  
HETATM    7  H   UNL     1      -8.425  11.740  65.964  1.00  0.00     0.000 HD 
HETATM    8  O   UNL     1     -10.110   9.692  64.204  1.00  0.00     0.448 OA 
BRANCH   6   9
HETATM    9  C   UNL     1      -7.707   9.964  64.234  1.00  0.00    -0.139 C  
BRANCH   9  10
HETATM   10  N   UNL     1      -7.380   8.553  64.352  1.00  0.00    -0.094 N  
HETATM   11  H   UNL     1      -8.113   7.864  64.185  1.00  0.00     0.000 HD 
HETATM   12  C   UNL     1      -6.118   8.113  64.679  1.00  0.00    -0.052 C  
HETATM   13  O   UNL     1      -5.181   8.885  64.862  1.00  0.00    -0.038 OA 
BRANCH  12  14
HETATM   14  C   UNL     1      -5.974   6.589  64.800  1.00  0.00    -0.034 C  
BRANCH  14  15
HETATM   15  N   UNL     1      -7.246   5.912  65.035  1.00  0.00    -0.064 N  
HETATM   16  C   UNL     1      -8.160   6.413  65.939  1.00  0.00    -0.124 C  
HETATM   17  H   UNL     1      -7.461   5.055  64.524  1.00  0.00     0.000 HD 
HETATM   18  O   UNL     1      -7.896   7.354  66.682  1.00  0.00    -0.104 OA 
BRANCH  16  19
HETATM   19  C   UNL     1      -9.477   5.657  65.998  1.00  0.00    -0.110 C  
BRANCH  19  20
HETATM   20  S   UNL     1      -9.547   4.529  67.407  1.00  0.00    -0.174 SA 
BRANCH  20  21
HETATM   21  C   UNL     1      -9.947   5.660  68.691  1.00  0.00    -0.162 C  
HETATM   22  O   UNL     1     -10.533   6.712  68.451  1.00  0.00    -0.177 OA 
BRANCH  21  23
HETATM   23  C   UNL     1      -9.531   5.298  70.074  1.00  0.00    -0.216 A  
HETATM   24  C   UNL     1      -8.486   6.011  70.675  1.00  0.00    -0.133 A  
HETATM   25  C   UNL     1      -8.039   5.658  71.952  1.00  0.00    -0.115 A  
HETATM   26  C   UNL     1      -8.625   4.589  72.628  1.00  0.00    -0.114 A  
HETATM   27  C   UNL     1      -9.666   3.877  72.037  1.00  0.00    -0.232 A  
HETATM   28  C   UNL     1     -10.119   4.227  70.764  1.00  0.00    -0.154 A  
ENDBRANCH  21  23
ENDBRANCH  20  21
ENDBRANCH  19  20
ENDBRANCH  16  19
ENDBRANCH  14  15
ENDBRANCH  12  14
ENDBRANCH   9  10
ENDBRANCH   6   9
ENDBRANCH   3   5
TORSDOF 9
ENDMDL
MODEL      399
REMARK 921   NORMALIZED FREE ENERGY PREDICTED BY IDOCK:   -1.00 KCAL/MOL
REMARK 922        TOTAL FREE ENERGY PREDICTED BY IDOCK:   -2.36 KCAL/MOL
REMARK 923 INTER-LIGAND FREE ENERGY PREDICTED BY IDOCK:   -2.55 KCAL/MOL
REMARK 924 INTRA-LIGAND FREE ENERGY PREDICTED BY IDOCK:    0.19 KCAL/MOL
REMARK 927      BINDING AFFINITY PREDICTED BY RF-SCORE:    0.00 PKD
ROOT
HETATM    1  O   UNL     1     -11.315  11.367  69.357  1.00  0.00    -0.253 OA 
HETATM    2  C   UNL     1     -11.106  11.754  68.076  1.00  0.00    -0.242 C  
HETATM    3  C   UNL     1     -10.146  10.858  67.301  1.00  0.00    -0.191 C  
HETATM    4  O   UNL     1     -11.622  12.753  67.604  1.00  0.00    -0.315 OA 
ENDROOT
BRANCH   3   5
HETATM    5  N   UNL     1      -9.639   9.748  68.100  1.00  0.00    -0.142 N  
HETATM    6  C   UNL     1     -10.440   8.689  68.471  1.00  0.00    -0.172 C  
HETATM    7  H   UNL     1      -8.662   9.756  68.395  1.00  0.00     0.000 HD 
HETATM    8  O   UNL     1     -11.633   8.633  68.189  1.00  0.00     0.963 OA 
BRANCH   6   9
HETATM    9  C   UNL     1      -9.751   7.598  69.301  1.00  0.00    -0.164 C  
BRANCH   9  10
HETATM   10  N   UNL     1      -9.753   7.865  70.728  1.00  0.00    -0.172 N  
HETATM   11  H   UNL     1      -8.861   7.969  71.210  1.00  0.00     0.000 HD 
HETATM   12  C   UNL     1     -10.917   7.983  71.455  1.00  0.00    -0.234 C  
HETATM   13  O   UNL     1     -12.026   7.901  70.935  1.00  0.00    -0.279 OA 
BRANCH  12  14
HETATM   14  C   UNL     1     -10.720   8.222  72.958  1.00  0.00     0.016 C  
BRANCH  14  15
HETATM   15  N   UNL     1      -9.347   7.996  73.399  1.00  0.00    -0.274 N  
HETATM   16  C   UNL     1      -8.922   6.740  73.781  1.00  0.00    -0.148 C  
HETATM   17  H   UNL     1      -8.692   8.778  73.424  1.00  0.00     0.000 HD 
HETATM   18  O   UNL     1      -9.699   5.797  73.906  1.00  0.00    -0.152 OA 
BRANCH  16  19
HETATM   19  C   UNL     1      -7.443   6.641  74.115  1.00  0.00    -0.097 C  
BRANCH  19  20
HETATM   20  S   UNL     1      -6.803   4.971  73.867  1.00  0.00    -0.081 SA 
BRANCH  20  21
HETATM   21  C   UNL     1      -6.764   4.911  72.110  1.00  0.00    -0.051 C  
HETATM   22  O   UNL     1      -6.103   5.718  71.463  1.00  0.00    -0.032 OA 
BRANCH  21  23
HETATM   23  C   UNL     1      -7.577   3.856  71.444  1.00  0.00    -0.056 A  
HETATM   24  C   UNL     1      -7.572   2.560  71.978  1.00  0.00    -0.045 A  
HETATM   25  C   UNL     1      -8.283   1.538  71.343  1.00  0.00    -0.050 A  
HETATM   26  C   UNL     1      -8.991   1.800  70.171  1.00  0.00    -0.138 A  
HETATM   27  C   UNL     1      -9.002   3.087  69.637  1.00  0.00    -0.166 A  
HETATM   28  C   UNL     1      -8.297   4.112  70.268  1.00  0.00    -0.079 A  
ENDBRANCH  21  23
ENDBRANCH  20  21
ENDBRANCH  19  20
ENDBRANCH  16  19
ENDBRANCH  14  15
ENDBRANCH  12  14
ENDBRANCH   9  10
ENDBRANCH   6   9
ENDBRANCH   3   5
TORSDOF 9
ENDMDL
MODEL      400
REMARK 921   NORMALIZED FREE ENERGY PREDICTED BY IDOCK:   -0.98 KCAL/MOL
REMARK 922        TOTAL FREE ENERGY PREDICTED BY IDOCK:   -2.33 KCAL/MOL
REMARK 923 INTER-LIGAND FREE ENERGY PREDICTED BY IDOCK:   -3.00 KCAL/MOL
REMARK 924 INTRA-LIGAND FREE ENERGY PREDICTED BY IDOCK:    0.66 KCAL/MOL
REMARK 927      BINDING AFFINITY PREDICTED BY RF-SCORE:    0.00 PKD
ROOT
HETATM    1  O   UNL     1     -11.278  11.356  69.356  1.00  0.00    -0.243 OA 
HETATM    2  C   UNL     1     -11.079  11.847  68.109  1.00  0.00    -0.242 C  
HETATM    3  C   UNL     1     -10.008  11.110  67.312  1.00  0.00    -0.184 C  
HETATM    4  O   UNL     1     -11.687  12.814  67.683  1.00  0.00    -0.339 OA 
ENDROOT
BRANCH   3   5
HETATM    5  N   UNL     1      -9.405  10.010  68.057  1.00  0.00    -0.131 N  
HETATM    6  C   UNL     1     -10.059   8.811  68.245  1.00  0.00    -0.188 C  
HETATM    7  H   UNL     1      -8.472  10.132  68.450  1.00  0.00     0.000 HD 
HETATM    8  O   UNL     1     -11.198   8.608  67.837  1.00  0.00     0.208 OA 
BRANCH   6   9
HETATM    9  C   UNL     1      -9.283   7.753  69.041  1.00  0.00    -0.143 C  
BRANCH   9  10
HETATM   10  N   UNL     1      -9.434   7.882  70.480  1.00  0.00    -0.162 N  
HETATM   11  H   UNL     1      -8.606   8.068  71.046  1.00  0.00     0.000 HD 
HETATM   12  C   UNL     1     -10.653   7.762  71.108  1.00  0.00    -0.217 C  
HETATM   13  O   UNL     1     -11.695   7.569  70.486  1.00  0.00    -0.254 OA 
BRANCH  12  14
HETATM   14  C   UNL     1     -10.609   7.885  72.637  1.00  0.00    -0.329 C  
BRANCH  14  15
HETATM   15  N   UNL     1      -9.283   7.634  73.193  1.00  0.00    -0.191 N  
HETATM   16  C   UNL     1      -8.570   6.504  72.847  1.00  0.00    -0.123 C  
HETATM   17  H   UNL     1      -8.877   8.304  73.848  1.00  0.00     0.000 HD 
HETATM   18  O   UNL     1      -9.064   5.599  72.179  1.00  0.00    -0.140 OA 
BRANCH  16  19
HETATM   19  C   UNL     1      -7.166   6.434  73.424  1.00  0.00    -0.082 C  
BRANCH  19  20
HETATM   20  S   UNL     1      -6.125   5.260  72.531  1.00  0.00    -0.028 SA 
BRANCH  20  21
HETATM   21  C   UNL     1      -5.658   6.245  71.153  1.00  0.00    -0.026 C  
HETATM   22  O   UNL     1      -5.217   7.381  71.306  1.00  0.00    -0.027 OA 
BRANCH  21  23
HETATM   23  C   UNL     1      -5.835   5.653  69.798  1.00  0.00    -0.020 A  
HETATM   24  C   UNL     1      -5.557   4.292  69.613  1.00  0.00    -0.016 A  
HETATM   25  C   UNL     1      -5.663   3.722  68.342  1.00  0.00    -0.022 A  
HETATM   26  C   UNL     1      -6.036   4.506  67.251  1.00  0.00    -0.023 A  
HETATM   27  C   UNL     1      -6.315   5.859  67.429  1.00  0.00    -0.042 A  
HETATM   28  C   UNL     1      -6.214   6.433  68.696  1.00  0.00    -0.033 A  
ENDBRANCH  21  23
ENDBRANCH  20  21
ENDBRANCH  19  20
ENDBRANCH  16  19
ENDBRANCH  14  15
ENDBRANCH  12  14
ENDBRANCH   9  10
ENDBRANCH   6   9
ENDBRANCH   3   5
TORSDOF 9
ENDMDL
MODEL      401
REMARK 921   NORMALIZED FREE ENERGY PREDICTED BY IDOCK:   -0.93 KCAL/MOL
REMARK 922        TOTAL FREE ENERGY PREDICTED BY IDOCK:   -2.27 KCAL/MOL
REMARK 923 INTER-LIGAND FREE ENERGY PREDICTED BY IDOCK:   -4.02 KCAL/MOL
REMARK 924 INTRA-LIGAND FREE ENERGY PREDICTED BY IDOCK:    1.75 KCAL/MOL
REMARK 927      BINDING AFFINITY PREDICTED BY RF-SCORE:    0.00 PKD
ROOT
HETATM    1  O   UNL     1     -12.564  11.858  65.087  1.00  0.00    -0.258 OA 
HETATM    2  C   UNL     1     -12.369  11.529  63.787  1.00  0.00     0.008 C  
HETATM    3  C   UNL     1     -10.998  10.928  63.494  1.00  0.00     0.269 C  
HETATM    4  O   UNL     1     -13.213  11.728  62.930  1.00  0.00    -0.357 OA 
ENDROOT
BRANCH   3   5
HETATM    5  N   UNL     1     -10.160  10.825  64.683  1.00  0.00    -0.322 N  
HETATM    6  C   UNL     1      -9.468  11.907  65.186  1.00  0.00    -0.042 C  
HETATM    7  H   UNL     1     -10.083   9.925  65.157  1.00  0.00     0.000 HD 
HETATM    8  O   UNL     1      -9.481  13.008  64.644  1.00  0.00     0.246 OA 
BRANCH   6   9
HETATM    9  C   UNL     1      -8.642  11.634  66.449  1.00  0.00    -0.143 C  
BRANCH   9  10
HETATM   10  N   UNL     1      -7.739  12.716  66.799  1.00  0.00    -0.387 N  
HETATM   11  H   UNL     1      -7.532  13.429  66.099  1.00  0.00     0.000 HD 
HETATM   12  C   UNL     1      -7.151  12.816  68.040  1.00  0.00    -0.111 C  
HETATM   13  O   UNL     1      -7.380  12.011  68.939  1.00  0.00    -0.110 OA 
BRANCH  12  14
HETATM   14  C   UNL     1      -6.193  14.002  68.210  1.00  0.00    -0.116 C  
BRANCH  14  15
HETATM   15  N   UNL     1      -6.659  15.214  67.543  1.00  0.00    -0.170 N  
HETATM   16  C   UNL     1      -8.005  15.508  67.463  1.00  0.00    -0.168 C  
HETATM   17  H   UNL     1      -5.979  15.854  67.129  1.00  0.00     0.000 HD 
HETATM   18  O   UNL     1      -8.870  14.709  67.815  1.00  0.00    -0.167 OA 
BRANCH  16  19
HETATM   19  C   UNL     1      -8.328  16.851  66.832  1.00  0.00    -0.213 C  
BRANCH  19  20
HETATM   20  S   UNL     1     -10.001  17.402  67.231  1.00  0.00    -0.313 SA 
BRANCH  20  21
HETATM   21  C   UNL     1      -9.972  17.240  68.982  1.00  0.00    -0.272 C  
HETATM   22  O   UNL     1      -9.171  17.874  69.663  1.00  0.00     0.486 OA 
BRANCH  21  23
HETATM   23  C   UNL     1     -10.943  16.294  69.597  1.00  0.00    -0.346 A  
HETATM   24  C   UNL     1     -11.479  15.267  68.808  1.00  0.00    -0.345 A  
HETATM   25  C   UNL     1     -12.432  14.397  69.345  1.00  0.00    -0.113 A  
HETATM   26  C   UNL     1     -12.860  14.552  70.662  1.00  0.00    -0.399 A  
HETATM   27  C   UNL     1     -12.329  15.570  71.452  1.00  0.00    -0.461 A  
HETATM   28  C   UNL     1     -11.375  16.439  70.923  1.00  0.00    -0.215 A  
ENDBRANCH  21  23
ENDBRANCH  20  21
ENDBRANCH  19  20
ENDBRANCH  16  19
ENDBRANCH  14  15
ENDBRANCH  12  14
ENDBRANCH   9  10
ENDBRANCH   6   9
ENDBRANCH   3   5
TORSDOF 9
ENDMDL
MODEL      402
REMARK 921   NORMALIZED FREE ENERGY PREDICTED BY IDOCK:   -0.70 KCAL/MOL
REMARK 922        TOTAL FREE ENERGY PREDICTED BY IDOCK:   -1.91 KCAL/MOL
REMARK 923 INTER-LIGAND FREE ENERGY PREDICTED BY IDOCK:   -2.47 KCAL/MOL
REMARK 924 INTRA-LIGAND FREE ENERGY PREDICTED BY IDOCK:    0.56 KCAL/MOL
REMARK 927      BINDING AFFINITY PREDICTED BY RF-SCORE:    0.00 PKD
ROOT
HETATM    1  O   UNL     1      -5.132  14.391  71.558  1.00  0.00    -0.123 OA 
HETATM    2  C   UNL     1      -5.415  13.390  72.425  1.00  0.00     0.107 C  
HETATM    3  C   UNL     1      -5.500  12.010  71.780  1.00  0.00     0.362 C  
HETATM    4  O   UNL     1      -5.614  13.591  73.612  1.00  0.00    -0.437 OA 
ENDROOT
BRANCH   3   5
HETATM    5  N   UNL     1      -5.255  12.042  70.343  1.00  0.00    -0.101 N  
HETATM    6  C   UNL     1      -6.284  12.025  69.425  1.00  0.00    -0.109 C  
HETATM    7  H   UNL     1      -4.292  12.079  70.006  1.00  0.00     0.000 HD 
HETATM    8  O   UNL     1      -7.462  11.940  69.756  1.00  0.00     0.386 OA 
BRANCH   6   9
HETATM    9  C   UNL     1      -5.856  12.075  67.952  1.00  0.00    -0.063 C  
BRANCH   9  10
HETATM   10  N   UNL     1      -6.387  13.220  67.232  1.00  0.00    -0.190 N  
HETATM   11  H   UNL     1      -5.739  13.834  66.740  1.00  0.00     0.000 HD 
HETATM   12  C   UNL     1      -7.733  13.506  67.189  1.00  0.00     0.028 C  
HETATM   13  O   UNL     1      -8.572  12.792  67.732  1.00  0.00    -0.161 OA 
BRANCH  12  14
HETATM   14  C   UNL     1      -8.100  14.780  66.416  1.00  0.00     0.658 C  
BRANCH  14  15
HETATM   15  N   UNL     1      -8.086  15.979  67.250  1.00  0.00    -0.163 N  
HETATM   16  C   UNL     1      -7.860  17.224  66.699  1.00  0.00    -0.260 C  
HETATM   17  H   UNL     1      -8.246  15.894  68.254  1.00  0.00     0.000 HD 
HETATM   18  O   UNL     1      -7.523  17.368  65.526  1.00  0.00    -0.287 OA 
BRANCH  16  19
HETATM   19  C   UNL     1      -7.979  18.383  67.673  1.00  0.00    -0.242 C  
BRANCH  19  20
HETATM   20  S   UNL     1      -8.699  17.873  69.248  1.00  0.00     0.436 SA 
BRANCH  20  21
HETATM   21  C   UNL     1     -10.368  17.618  68.758  1.00  0.00    -0.348 C  
HETATM   22  O   UNL     1     -11.034  18.530  68.276  1.00  0.00    -0.047 OA 
BRANCH  21  23
HETATM   23  C   UNL     1     -10.942  16.260  68.968  1.00  0.00    -0.325 A  
HETATM   24  C   UNL     1     -11.481  15.576  67.871  1.00  0.00    -0.276 A  
HETATM   25  C   UNL     1     -12.074  14.323  68.048  1.00  0.00    -0.289 A  
HETATM   26  C   UNL     1     -12.141  13.753  69.319  1.00  0.00    -0.374 A  
HETATM   27  C   UNL     1     -11.606  14.428  70.413  1.00  0.00    -0.288 A  
HETATM   28  C   UNL     1     -11.009  15.677  70.242  1.00  0.00    -0.363 A  
ENDBRANCH  21  23
ENDBRANCH  20  21
ENDBRANCH  19  20
ENDBRANCH  16  19
ENDBRANCH  14  15
ENDBRANCH  12  14
ENDBRANCH   9  10
ENDBRANCH   6   9
ENDBRANCH   3   5
TORSDOF 9
ENDMDL
MODEL      403
REMARK 921   NORMALIZED FREE ENERGY PREDICTED BY IDOCK:   -0.30 KCAL/MOL
REMARK 922        TOTAL FREE ENERGY PREDICTED BY IDOCK:   -1.30 KCAL/MOL
REMARK 923 INTER-LIGAND FREE ENERGY PREDICTED BY IDOCK:   -2.70 KCAL/MOL
REMARK 924 INTRA-LIGAND FREE ENERGY PREDICTED BY IDOCK:    1.40 KCAL/MOL
REMARK 927      BINDING AFFINITY PREDICTED BY RF-SCORE:    0.00 PKD
ROOT
HETATM    1  O   UNL     1      -5.313  13.611  70.782  1.00  0.00    -0.112 OA 
HETATM    2  C   UNL     1      -5.307  12.650  71.736  1.00  0.00     0.084 C  
HETATM    3  C   UNL     1      -5.267  11.227  71.191  1.00  0.00    -0.096 C  
HETATM    4  O   UNL     1      -5.360  12.912  72.927  1.00  0.00    -0.369 OA 
ENDROOT
BRANCH   3   5
HETATM    5  N   UNL     1      -5.241  11.181  69.733  1.00  0.00    -0.042 N  
HETATM    6  C   UNL     1      -6.360  10.865  68.992  1.00  0.00    -0.049 C  
HETATM    7  H   UNL     1      -4.368  11.390  69.247  1.00  0.00     0.000 HD 
HETATM    8  O   UNL     1      -7.430  10.563  69.509  1.00  0.00    -0.127 OA 
BRANCH   6   9
HETATM    9  C   UNL     1      -6.168  10.872  67.470  1.00  0.00    -0.053 C  
BRANCH   9  10
HETATM   10  N   UNL     1      -7.000  11.845  66.783  1.00  0.00    -0.354 N  
HETATM   11  H   UNL     1      -6.549  12.603  66.271  1.00  0.00     0.000 HD 
HETATM   12  C   UNL     1      -8.375  11.782  66.800  1.00  0.00    -0.165 C  
HETATM   13  O   UNL     1      -8.983  10.880  67.370  1.00  0.00    -0.136 OA 
BRANCH  12  14
HETATM   14  C   UNL     1      -9.085  12.921  66.056  1.00  0.00     0.167 C  
BRANCH  14  15
HETATM   15  N   UNL     1      -9.394  14.061  66.915  1.00  0.00    -0.248 N  
HETATM   16  C   UNL     1      -9.535  15.329  66.388  1.00  0.00    -0.298 C  
HETATM   17  H   UNL     1      -9.507  13.917  67.919  1.00  0.00     0.000 HD 
HETATM   18  O   UNL     1      -9.272  15.583  65.216  1.00  0.00    -0.025 OA 
BRANCH  16  19
HETATM   19  C   UNL     1      -9.958  16.391  67.389  1.00  0.00    -0.251 C  
BRANCH  19  20
HETATM   20  S   UNL     1     -10.459  15.672  68.968  1.00  0.00    -0.245 SA 
BRANCH  20  21
HETATM   21  C   UNL     1     -11.873  14.760  68.460  1.00  0.00    -0.306 C  
HETATM   22  O   UNL     1     -12.877  15.329  68.039  1.00  0.00     1.083 OA 
BRANCH  21  23
HETATM   23  C   UNL     1     -11.808  13.277  68.577  1.00  0.00    -0.384 A  
HETATM   24  C   UNL     1     -11.975  12.500  67.423  1.00  0.00    -0.283 A  
HETATM   25  C   UNL     1     -11.972  11.104  67.512  1.00  0.00     0.297 A  
HETATM   26  C   UNL     1     -11.812  10.481  68.749  1.00  0.00    -0.093 A  
HETATM   27  C   UNL     1     -11.643  11.249  69.898  1.00  0.00    -0.413 A  
HETATM   28  C   UNL     1     -11.642  12.642  69.816  1.00  0.00    -0.285 A  
ENDBRANCH  21  23
ENDBRANCH  20  21
ENDBRANCH  19  20
ENDBRANCH  16  19
ENDBRANCH  14  15
ENDBRANCH  12  14
ENDBRANCH   9  10
ENDBRANCH   6   9
ENDBRANCH   3   5
TORSDOF 9
ENDMDL
MODEL      404
REMARK 921   NORMALIZED FREE ENERGY PREDICTED BY IDOCK:    5.84 KCAL/MOL
REMARK 922        TOTAL FREE ENERGY PREDICTED BY IDOCK:    8.07 KCAL/MOL
REMARK 923 INTER-LIGAND FREE ENERGY PREDICTED BY IDOCK:   -4.45 KCAL/MOL
REMARK 924 INTRA-LIGAND FREE ENERGY PREDICTED BY IDOCK:   12.52 KCAL/MOL
REMARK 927      BINDING AFFINITY PREDICTED BY RF-SCORE:    0.00 PKD
ROOT
HETATM    1  O   UNL     1      -9.823  16.957  69.349  1.00  0.00    -0.185 OA 
HETATM    2  C   UNL     1     -10.588  17.896  68.742  1.00  0.00    -0.082 C  
HETATM    3  C   UNL     1     -11.784  17.332  67.983  1.00  0.00     1.004 C  
HETATM    4  O   UNL     1     -10.317  19.085  68.782  1.00  0.00    -0.332 OA 
ENDROOT
BRANCH   3   5
HETATM    5  N   UNL     1     -11.868  15.878  68.062  1.00  0.00    -0.215 N  
HETATM    6  C   UNL     1     -11.039  15.141  68.881  1.00  0.00    -0.270 C  
HETATM    7  H   UNL     1     -12.562  15.391  67.493  1.00  0.00     0.000 HD 
HETATM    8  O   UNL     1     -10.155  15.655  69.559  1.00  0.00    -0.242 OA 
BRANCH   6   9
HETATM    9  C   UNL     1     -11.264  13.624  68.856  1.00  0.00    -0.270 C  
BRANCH   9  10
HETATM   10  N   UNL     1     -10.329  12.911  68.002  1.00  0.00    -0.221 N  
HETATM   11  H   UNL     1      -9.330  13.065  68.131  1.00  0.00     0.000 HD 
HETATM   12  C   UNL     1     -10.744  12.034  67.025  1.00  0.00    -0.242 C  
HETATM   13  O   UNL     1     -11.929  11.776  66.836  1.00  0.00    -0.605 OA 
BRANCH  12  14
HETATM   14  C   UNL     1      -9.614  11.409  66.195  1.00  0.00    -0.218 C  
BRANCH  14  15
HETATM   15  N   UNL     1      -8.329  12.074  66.385  1.00  0.00    -0.391 N  
HETATM   16  C   UNL     1      -7.608  11.907  67.550  1.00  0.00    -0.140 C  
HETATM   17  H   UNL     1      -7.958  12.672  65.645  1.00  0.00     0.000 HD 
HETATM   18  O   UNL     1      -8.069  11.319  68.525  1.00  0.00    -0.134 OA 
BRANCH  16  19
HETATM   19  C   UNL     1      -6.245  12.579  67.559  1.00  0.00    -0.155 C  
BRANCH  19  20
HETATM   20  S   UNL     1      -6.145  13.892  68.794  1.00  0.00    -0.093 SA 
BRANCH  20  21
HETATM   21  C   UNL     1      -7.340  15.011  68.156  1.00  0.00    -0.115 C  
HETATM   22  O   UNL     1      -8.342  14.605  67.573  1.00  0.00    -0.163 OA 
BRANCH  21  23
HETATM   23  C   UNL     1      -7.079  16.466  68.335  1.00  0.00    -0.156 A  
HETATM   24  C   UNL     1      -5.792  16.881  68.704  1.00  0.00    -0.140 A  
HETATM   25  C   UNL     1      -5.531  18.236  68.932  1.00  0.00    -0.197 A  
HETATM   26  C   UNL     1      -6.552  19.177  68.802  1.00  0.00    -0.306 A  
HETATM   27  C   UNL     1      -7.832  18.770  68.434  1.00  0.00    -0.351 A  
HETATM   28  C   UNL     1      -8.098  17.421  68.202  1.00  0.00    -0.232 A  
ENDBRANCH  21  23
ENDBRANCH  20  21
ENDBRANCH  19  20
ENDBRANCH  16  19
ENDBRANCH  14  15
ENDBRANCH  12  14
ENDBRANCH   9  10
ENDBRANCH   6   9
ENDBRANCH   3   5
TORSDOF 9
ENDMDL
MODEL      405
REMARK 921   NORMALIZED FREE ENERGY PREDICTED BY IDOCK:    5.86 KCAL/MOL
REMARK 922        TOTAL FREE ENERGY PREDICTED BY IDOCK:    8.10 KCAL/MOL
REMARK 923 INTER-LIGAND FREE ENERGY PREDICTED BY IDOCK:    4.52 KCAL/MOL
REMARK 924 INTRA-LIGAND FREE ENERGY PREDICTED BY IDOCK:    3.57 KCAL/MOL
REMARK 927      BINDING AFFINITY PREDICTED BY RF-SCORE:    0.00 PKD
ROOT
HETATM    1  O   UNL     1     -10.116  15.758  68.332  1.00  0.00    -0.217 OA 
HETATM    2  C   UNL     1     -10.474  16.051  67.059  1.00  0.00    -0.307 C  
HETATM    3  C   UNL     1     -11.088  14.881  66.297  1.00  0.00    -0.340 C  
HETATM    4  O   UNL     1     -10.288  17.151  66.565  1.00  0.00    -0.318 OA 
ENDROOT
BRANCH   3   5
HETATM    5  N   UNL     1     -11.171  13.666  67.100  1.00  0.00    -0.300 N  
HETATM    6  C   UNL     1     -12.291  13.356  67.842  1.00  0.00     0.083 C  
HETATM    7  H   UNL     1     -10.376  13.026  67.112  1.00  0.00     0.000 HD 
HETATM    8  O   UNL     1     -13.266  14.098  67.908  1.00  0.00     1.846 OA 
BRANCH   6   9
HETATM    9  C   UNL     1     -12.222  12.035  68.621  1.00  0.00     0.120 C  
BRANCH   9  10
HETATM   10  N   UNL     1     -10.895  11.727  69.125  1.00  0.00    -0.360 N  
HETATM   11  H   UNL     1     -10.563  10.764  69.076  1.00  0.00     0.000 HD 
HETATM   12  C   UNL     1     -10.069  12.686  69.666  1.00  0.00     1.255 C  
HETATM   13  O   UNL     1     -10.392  13.870  69.728  1.00  0.00     0.299 OA 
BRANCH  12  14
HETATM   14  C   UNL     1      -8.723  12.164  70.186  1.00  0.00     3.942 C  
BRANCH  14  15
HETATM   15  N   UNL     1      -8.014  11.339  69.212  1.00  0.00    -0.365 N  
HETATM   16  C   UNL     1      -6.802  10.758  69.522  1.00  0.00    -0.116 C  
HETATM   17  H   UNL     1      -8.422  11.191  68.288  1.00  0.00     0.000 HD 
HETATM   18  O   UNL     1      -6.199  11.017  70.561  1.00  0.00    -0.254 OA 
BRANCH  16  19
HETATM   19  C   UNL     1      -6.238   9.846  68.445  1.00  0.00    -0.050 C  
BRANCH  19  20
HETATM   20  S   UNL     1      -6.221  10.642  66.825  1.00  0.00    -0.085 SA 
BRANCH  20  21
HETATM   21  C   UNL     1      -7.949  10.805  66.541  1.00  0.00    -0.144 C  
HETATM   22  O   UNL     1      -8.432  11.868  66.162  1.00  0.00    -0.050 OA 
BRANCH  21  23
HETATM   23  C   UNL     1      -8.798   9.608  66.795  1.00  0.00    -0.148 A  
HETATM   24  C   UNL     1      -8.417   8.709  67.800  1.00  0.00    -0.125 A  
HETATM   25  C   UNL     1      -9.166   7.551  68.024  1.00  0.00    -0.137 A  
HETATM   26  C   UNL     1     -10.289   7.280  67.243  1.00  0.00    -0.349 A  
HETATM   27  C   UNL     1     -10.674   8.171  66.244  1.00  0.00     0.971 A  
HETATM   28  C   UNL     1      -9.932   9.331  66.018  1.00  0.00    -0.325 A  
ENDBRANCH  21  23
ENDBRANCH  20  21
ENDBRANCH  19  20
ENDBRANCH  16  19
ENDBRANCH  14  15
ENDBRANCH  12  14
ENDBRANCH   9  10
ENDBRANCH   6   9
ENDBRANCH   3   5
TORSDOF 9
ENDMDL
MODEL      406
REMARK 921   NORMALIZED FREE ENERGY PREDICTED BY IDOCK:    6.10 KCAL/MOL
REMARK 922        TOTAL FREE ENERGY PREDICTED BY IDOCK:    8.47 KCAL/MOL
REMARK 923 INTER-LIGAND FREE ENERGY PREDICTED BY IDOCK:    4.90 KCAL/MOL
REMARK 924 INTRA-LIGAND FREE ENERGY PREDICTED BY IDOCK:    3.57 KCAL/MOL
REMARK 927      BINDING AFFINITY PREDICTED BY RF-SCORE:    0.00 PKD
ROOT
HETATM    1  O   UNL     1      -5.239  14.116  71.977  1.00  0.00    -0.162 OA 
HETATM    2  C   UNL     1      -6.023  13.062  72.308  1.00  0.00     1.504 C  
HETATM    3  C   UNL     1      -6.237  12.063  71.176  1.00  0.00     1.209 C  
HETATM    4  O   UNL     1      -6.532  12.948  73.411  1.00  0.00     2.338 OA 
ENDROOT
BRANCH   3   5
HETATM    5  N   UNL     1      -5.546  12.444  69.949  1.00  0.00    -0.100 N  
HETATM    6  C   UNL     1      -6.222  12.946  68.856  1.00  0.00    -0.085 C  
HETATM    7  H   UNL     1      -4.533  12.335  69.897  1.00  0.00     0.000 HD 
HETATM    8  O   UNL     1      -7.443  13.065  68.832  1.00  0.00    -0.084 OA 
BRANCH   6   9
HETATM    9  C   UNL     1      -5.347  13.308  67.649  1.00  0.00    -0.038 C  
BRANCH   9  10
HETATM   10  N   UNL     1      -5.494  14.688  67.218  1.00  0.00     0.425 N  
HETATM   11  H   UNL     1      -4.666  15.197  66.911  1.00  0.00     0.000 HD 
HETATM   12  C   UNL     1      -6.710  15.333  67.210  1.00  0.00    -0.024 C  
HETATM   13  O   UNL     1      -7.752  14.772  67.537  1.00  0.00    -0.163 OA 
BRANCH  12  14
HETATM   14  C   UNL     1      -6.661  16.801  66.765  1.00  0.00    -0.221 C  
BRANCH  14  15
HETATM   15  N   UNL     1      -7.804  17.579  67.234  1.00  0.00    -0.199 N  
HETATM   16  C   UNL     1      -7.779  18.959  67.217  1.00  0.00    -0.234 C  
HETATM   17  H   UNL     1      -8.634  17.096  67.579  1.00  0.00     0.000 HD 
HETATM   18  O   UNL     1      -6.760  19.591  66.948  1.00  0.00    -0.191 OA 
BRANCH  16  19
HETATM   19  C   UNL     1      -9.077  19.626  67.637  1.00  0.00    -0.329 C  
BRANCH  19  20
HETATM   20  S   UNL     1     -10.328  18.421  68.132  1.00  0.00    -0.338 SA 
BRANCH  20  21
HETATM   21  C   UNL     1     -10.753  17.753  66.562  1.00  0.00    -0.110 C  
HETATM   22  O   UNL     1     -11.362  18.422  65.731  1.00  0.00     0.485 OA 
BRANCH  21  23
HETATM   23  C   UNL     1     -10.361  16.342  66.291  1.00  0.00    -0.337 A  
HETATM   24  C   UNL     1      -9.654  16.050  65.118  1.00  0.00     0.527 A  
HETATM   25  C   UNL     1      -9.319  14.728  64.812  1.00  0.00     1.734 A  
HETATM   26  C   UNL     1      -9.697  13.693  65.668  1.00  0.00    -0.119 A  
HETATM   27  C   UNL     1     -10.399  13.978  66.837  1.00  0.00    -0.269 A  
HETATM   28  C   UNL     1     -10.732  15.296  67.149  1.00  0.00    -0.316 A  
ENDBRANCH  21  23
ENDBRANCH  20  21
ENDBRANCH  19  20
ENDBRANCH  16  19
ENDBRANCH  14  15
ENDBRANCH  12  14
ENDBRANCH   9  10
ENDBRANCH   6   9
ENDBRANCH   3   5
TORSDOF 9
ENDMDL
MODEL      407
REMARK 921   NORMALIZED FREE ENERGY PREDICTED BY IDOCK:   13.60 KCAL/MOL
REMARK 922        TOTAL FREE ENERGY PREDICTED BY IDOCK:   19.91 KCAL/MOL
REMARK 923 INTER-LIGAND FREE ENERGY PREDICTED BY IDOCK:    8.95 KCAL/MOL
REMARK 924 INTRA-LIGAND FREE ENERGY PREDICTED BY IDOCK:   10.95 KCAL/MOL
REMARK 927      BINDING AFFINITY PREDICTED BY RF-SCORE:    0.00 PKD
ROOT
HETATM    1  O   UNL     1     -12.542  11.962  64.579  1.00  0.00    -0.293 OA 
HETATM    2  C   UNL     1     -12.831  12.426  63.340  1.00  0.00    -0.138 C  
HETATM    3  C   UNL     1     -11.609  12.834  62.524  1.00  0.00     2.307 C  
HETATM    4  O   UNL     1     -13.976  12.531  62.933  1.00  0.00     2.107 OA 
ENDROOT
BRANCH   3   5
HETATM    5  N   UNL     1     -10.357  12.642  63.248  1.00  0.00    -0.327 N  
HETATM    6  C   UNL     1      -9.892  13.563  64.162  1.00  0.00     0.913 C  
HETATM    7  H   UNL     1      -9.808  11.799  63.072  1.00  0.00     0.000 HD 
HETATM    8  O   UNL     1     -10.477  14.617  64.393  1.00  0.00    -0.137 OA 
BRANCH   6   9
HETATM    9  C   UNL     1      -8.566  13.205  64.845  1.00  0.00     3.174 C  
BRANCH   9  10
HETATM   10  N   UNL     1      -8.258  14.041  65.993  1.00  0.00     0.832 N  
HETATM   11  H   UNL     1      -8.229  15.052  65.871  1.00  0.00     0.000 HD 
HETATM   12  C   UNL     1      -8.005  13.516  67.241  1.00  0.00    -0.112 C  
HETATM   13  O   UNL     1      -8.055  12.310  67.467  1.00  0.00    -0.149 OA 
BRANCH  12  14
HETATM   14  C   UNL     1      -7.657  14.551  68.320  1.00  0.00    -0.121 C  
BRANCH  14  15
HETATM   15  N   UNL     1      -7.557  15.911  67.797  1.00  0.00    -0.132 N  
HETATM   16  C   UNL     1      -8.453  16.378  66.858  1.00  0.00    -0.221 C  
HETATM   17  H   UNL     1      -6.813  16.525  68.132  1.00  0.00     0.000 HD 
HETATM   18  O   UNL     1      -9.276  15.642  66.317  1.00  0.00    -0.275 OA 
BRANCH  16  19
HETATM   19  C   UNL     1      -8.285  17.842  66.488  1.00  0.00    -0.269 C  
BRANCH  19  20
HETATM   20  S   UNL     1      -9.703  18.836  66.999  1.00  0.00    -0.326 SA 
BRANCH  20  21
HETATM   21  C   UNL     1     -10.615  17.636  67.903  1.00  0.00    -0.387 C  
HETATM   22  O   UNL     1     -10.597  17.618  69.131  1.00  0.00    -0.260 OA 
BRANCH  21  23
HETATM   23  C   UNL     1     -11.391  16.635  67.120  1.00  0.00     0.392 A  
HETATM   24  C   UNL     1     -11.919  15.519  67.783  1.00  0.00     0.184 A  
HETATM   25  C   UNL     1     -12.606  14.537  67.064  1.00  0.00     0.401 A  
HETATM   26  C   UNL     1     -12.761  14.658  65.683  1.00  0.00    -0.039 A  
HETATM   27  C   UNL     1     -12.240  15.767  65.020  1.00  0.00     0.619 A  
HETATM   28  C   UNL     1     -11.556  16.752  65.732  1.00  0.00     1.211 A  
ENDBRANCH  21  23
ENDBRANCH  20  21
ENDBRANCH  19  20
ENDBRANCH  16  19
ENDBRANCH  14  15
ENDBRANCH  12  14
ENDBRANCH   9  10
ENDBRANCH   6   9
ENDBRANCH   3   5
TORSDOF 9
ENDMDL
MODEL      408
REMARK 921   NORMALIZED FREE ENERGY PREDICTED BY IDOCK:   35.65 KCAL/MOL
REMARK 922        TOTAL FREE ENERGY PREDICTED BY IDOCK:   53.56 KCAL/MOL
REMARK 923 INTER-LIGAND FREE ENERGY PREDICTED BY IDOCK:   24.74 KCAL/MOL
REMARK 924 INTRA-LIGAND FREE ENERGY PREDICTED BY IDOCK:   28.83 KCAL/MOL
REMARK 927      BINDING AFFINITY PREDICTED BY RF-SCORE:    0.00 PKD
ROOT
HETATM    1  O   UNL     1     -11.548   9.401  72.833  1.00  0.00     1.005 OA 
HETATM    2  C   UNL     1     -10.478   8.800  72.258  1.00  0.00    -0.247 C  
HETATM    3  C   UNL     1     -10.530   8.755  70.735  1.00  0.00    -0.219 C  
HETATM    4  O   UNL     1      -9.572   8.314  72.914  1.00  0.00    -0.270 OA 
ENDROOT
BRANCH   3   5
HETATM    5  N   UNL     1     -11.734   9.375  70.192  1.00  0.00    -0.462 N  
HETATM    6  C   UNL     1     -11.767   9.923  68.927  1.00  0.00     0.309 C  
HETATM    7  H   UNL     1     -12.577   9.406  70.766  1.00  0.00     0.000 HD 
HETATM    8  O   UNL     1     -10.781   9.959  68.198  1.00  0.00    -0.214 OA 
BRANCH   6   9
HETATM    9  C   UNL     1     -13.112  10.526  68.503  1.00  0.00     4.421 C  
BRANCH   9  10
HETATM   10  N   UNL     1     -13.004  11.874  67.974  1.00  0.00     2.907 N  
HETATM   11  H   UNL     1     -13.857  12.373  67.721  1.00  0.00     0.000 HD 
HETATM   12  C   UNL     1     -11.792  12.504  67.801  1.00  0.00    -0.313 C  
HETATM   13  O   UNL     1     -10.728  11.976  68.114  1.00  0.00    -0.200 OA 
BRANCH  12  14
HETATM   14  C   UNL     1     -11.873  13.910  67.190  1.00  0.00    -0.412 C  
BRANCH  14  15
HETATM   15  N   UNL     1     -10.563  14.484  66.900  1.00  0.00    -0.276 N  
HETATM   16  C   UNL     1     -10.391  15.371  65.856  1.00  0.00    -0.341 C  
HETATM   17  H   UNL     1      -9.762  14.227  67.479  1.00  0.00     0.000 HD 
HETATM   18  O   UNL     1     -11.283  15.604  65.044  1.00  0.00    -0.368 OA 
BRANCH  16  19
HETATM   19  C   UNL     1      -8.996  15.962  65.744  1.00  0.00    -0.060 C  
BRANCH  19  20
HETATM   20  S   UNL     1      -7.740  14.870  66.445  1.00  0.00     1.577 SA 
BRANCH  20  21
HETATM   21  C   UNL     1      -7.822  13.532  65.307  1.00  0.00     6.214 C  
HETATM   22  O   UNL     1      -6.919  13.331  64.500  1.00  0.00    11.720 OA 
BRANCH  21  23
HETATM   23  C   UNL     1      -9.034  12.669  65.353  1.00  0.00     0.751 A  
HETATM   24  C   UNL     1     -10.138  13.093  66.104  1.00  0.00    -0.291 A  
HETATM   25  C   UNL     1     -11.270  12.279  66.208  1.00  0.00    -0.367 A  
HETATM   26  C   UNL     1     -11.301  11.038  65.573  1.00  0.00     0.238 A  
HETATM   27  C   UNL     1     -10.207  10.612  64.824  1.00  0.00    -0.401 A  
HETATM   28  C   UNL     1      -9.076  11.422  64.713  1.00  0.00     0.036 A  
ENDBRANCH  21  23
ENDBRANCH  20  21
ENDBRANCH  19  20
ENDBRANCH  16  19
ENDBRANCH  14  15
ENDBRANCH  12  14
ENDBRANCH   9  10
ENDBRANCH   6   9
ENDBRANCH   3   5
TORSDOF 9
ENDMDL
