MODEL        1
REMARK 921   NORMALIZED FREE ENERGY PREDICTED BY IDOCK:   -7.87 KCAL/MOL
REMARK 922        TOTAL FREE ENERGY PREDICTED BY IDOCK:  -11.82 KCAL/MOL
REMARK 923 INTER-LIGAND FREE ENERGY PREDICTED BY IDOCK:  -11.09 KCAL/MOL
REMARK 924 INTRA-LIGAND FREE ENERGY PREDICTED BY IDOCK:   -0.73 KCAL/MOL
REMARK 927      BINDING AFFINITY PREDICTED BY RF-SCORE:    0.00 PKD
ROOT
HETATM    1  C   UNL     1      -9.920  19.960  66.142  1.00  0.00    -0.487 C  
HETATM    2  O   UNL     1      -9.447  18.645  65.850  1.00  0.00    -0.477 OA 
ENDROOT
BRANCH   2   3
HETATM    3  C   UNL     1      -9.978  17.630  66.603  1.00  0.00    -0.328 A  
HETATM    4  C   UNL     1     -10.638  17.803  67.809  1.00  0.00    -0.392 A  
HETATM    5  C   UNL     1     -11.125  16.700  68.507  1.00  0.00    -0.301 A  
HETATM    6  C   UNL     1     -10.965  15.396  68.026  1.00  0.00    -0.307 A  
HETATM    7  C   UNL     1      -9.815  16.336  66.087  1.00  0.00    -0.358 A  
HETATM    8  C   UNL     1     -10.295  15.201  66.782  1.00  0.00    -0.273 A  
BRANCH   6   9
HETATM    9  N   UNL     1     -11.445  14.284  68.784  1.00  0.00    -0.277 N  
HETATM   10  C   UNL     1     -12.258  14.302  69.898  1.00  0.00    -0.352 C  
HETATM   11  H   UNL     1     -11.151  13.362  68.461  1.00  0.00     0.000 HD 
HETATM   12  O   UNL     1     -12.785  15.289  70.402  1.00  0.00    -0.379 OA 
BRANCH  10  13
HETATM   13  C   UNL     1     -12.467  12.998  70.596  1.00  0.00    -0.347 A  
HETATM   14  C   UNL     1     -11.788  11.885  70.085  1.00  0.00    -0.390 A  
HETATM   15  C   UNL     1     -13.276  12.843  71.724  1.00  0.00    -0.479 A  
HETATM   16  C   UNL     1     -11.984  10.615  70.635  1.00  0.00    -0.466 A  
HETATM   17  C   UNL     1     -13.424  11.572  72.310  1.00  0.00    -0.055 A  
HETATM   18  C   UNL     1     -12.829  10.438  71.740  1.00  0.00    -0.561 A  
BRANCH  18  19
HETATM   19  C   UNL     1     -13.057   9.033  72.262  1.00  0.00    -0.445 C  
HETATM   20  N   UNL     1     -14.161   8.788  72.912  1.00  0.00    -1.095 NA 
HETATM   21  H1  UNL     1     -14.314   7.843  73.264  1.00  0.00     0.000 HD 
HETATM   22  H2  UNL     1     -14.853   9.522  73.065  1.00  0.00     0.000 HD 
BRANCH  19  23
HETATM   23  N   UNL     1     -12.134   7.999  72.125  1.00  0.00    -0.329 NA 
HETATM   24  C   UNL     1     -10.893   7.853  72.867  1.00  0.00    -0.386 C  
HETATM   25  C   UNL     1     -12.306   6.984  71.081  1.00  0.00    -0.378 C  
ENDBRANCH  19  23
ENDBRANCH  18  19
ENDBRANCH  10  13
ENDBRANCH   6   9
BRANCH   8  26
HETATM   26  C   UNL     1     -10.111  13.797  66.244  1.00  0.00    -0.300 C  
HETATM   27  N   UNL     1      -9.505  12.832  67.043  1.00  0.00    -0.225 N  
HETATM   28  O   UNL     1     -10.517  13.586  65.099  1.00  0.00    -0.327 OA 
HETATM   29  H   UNL     1      -9.206  13.098  67.980  1.00  0.00     0.000 HD 
BRANCH  27  30
HETATM   30  C   UNL     1      -9.282  11.504  66.620  1.00  0.00    -0.186 A  
HETATM   31  C   UNL     1     -10.300  10.570  66.789  1.00  0.00    -0.301 A  
HETATM   32  C   UNL     1      -8.856   8.883  65.856  1.00  0.00    -0.179 A  
HETATM   33  N   UNL     1      -8.099  11.156  66.076  1.00  0.00    -0.113 NA 
HETATM   34  C   UNL     1      -7.906   9.871  65.704  1.00  0.00    -0.127 A  
HETATM   35 CL   UNL     1      -8.529   7.265  65.386  1.00  0.00    -0.128 Cl 
HETATM   36  C   UNL     1     -10.079   9.239  66.407  1.00  0.00    -0.337 A  
ENDBRANCH  27  30
ENDBRANCH   8  26
ENDBRANCH   2   3
TORSDOF 7
ENDMDL
MODEL        2
REMARK 921   NORMALIZED FREE ENERGY PREDICTED BY IDOCK:   -7.82 KCAL/MOL
REMARK 922        TOTAL FREE ENERGY PREDICTED BY IDOCK:  -11.76 KCAL/MOL
REMARK 923 INTER-LIGAND FREE ENERGY PREDICTED BY IDOCK:  -10.90 KCAL/MOL
REMARK 924 INTRA-LIGAND FREE ENERGY PREDICTED BY IDOCK:   -0.86 KCAL/MOL
REMARK 927      BINDING AFFINITY PREDICTED BY RF-SCORE:    0.00 PKD
ROOT
HETATM    1  C   UNL     1     -12.309  16.299  74.542  1.00  0.00    -0.450 C  
HETATM    2  O   UNL     1     -13.419  16.116  73.663  1.00  0.00    -0.628 OA 
ENDROOT
BRANCH   2   3
HETATM    3  C   UNL     1     -13.169  15.417  72.510  1.00  0.00    -0.447 A  
HETATM    4  C   UNL     1     -13.800  14.237  72.148  1.00  0.00    -0.589 A  
HETATM    5  C   UNL     1     -13.458  13.595  70.960  1.00  0.00    -0.024 A  
HETATM    6  C   UNL     1     -12.478  14.106  70.103  1.00  0.00    -0.331 A  
HETATM    7  C   UNL     1     -12.192  15.963  71.664  1.00  0.00    -0.544 A  
HETATM    8  C   UNL     1     -11.825  15.324  70.456  1.00  0.00    -0.363 A  
BRANCH   6   9
HETATM    9  N   UNL     1     -12.125  13.404  68.910  1.00  0.00    -0.309 N  
HETATM   10  C   UNL     1     -11.666  12.109  68.790  1.00  0.00    -0.321 C  
HETATM   11  H   UNL     1     -12.226  13.924  68.038  1.00  0.00     0.000 HD 
HETATM   12  O   UNL     1     -11.547  11.289  69.696  1.00  0.00    -0.271 OA 
BRANCH  10  13
HETATM   13  C   UNL     1     -11.210  11.682  67.434  1.00  0.00    -0.358 A  
HETATM   14  C   UNL     1     -10.604  10.424  67.331  1.00  0.00    -0.321 A  
HETATM   15  C   UNL     1     -11.374  12.454  66.281  1.00  0.00    -0.388 A  
HETATM   16  C   UNL     1     -10.084   9.979  66.113  1.00  0.00    -0.317 A  
HETATM   17  C   UNL     1     -10.901  11.976  65.045  1.00  0.00    -0.351 A  
HETATM   18  C   UNL     1     -10.201  10.764  64.957  1.00  0.00    -0.373 A  
BRANCH  18  19
HETATM   19  C   UNL     1      -9.568  10.265  63.672  1.00  0.00    -0.277 C  
HETATM   20  N   UNL     1     -10.232  10.413  62.560  1.00  0.00    -0.655 NA 
HETATM   21  H1  UNL     1      -9.807  10.077  61.696  1.00  0.00     0.000 HD 
HETATM   22  H2  UNL     1     -11.153  10.852  62.553  1.00  0.00     0.000 HD 
BRANCH  19  23
HETATM   23  N   UNL     1      -8.337   9.617  63.620  1.00  0.00    -0.158 NA 
HETATM   24  C   UNL     1      -7.093  10.086  64.206  1.00  0.00    -0.130 C  
HETATM   25  C   UNL     1      -8.176   8.394  62.826  1.00  0.00    -0.166 C  
ENDBRANCH  19  23
ENDBRANCH  18  19
ENDBRANCH  10  13
ENDBRANCH   6   9
BRANCH   8  26
HETATM   26  C   UNL     1     -10.760  15.894  69.542  1.00  0.00    -0.288 C  
HETATM   27  N   UNL     1     -10.858  17.218  69.121  1.00  0.00    -0.313 N  
HETATM   28  O   UNL     1      -9.847  15.134  69.214  1.00  0.00    -0.222 OA 
HETATM   29  H   UNL     1     -11.647  17.773  69.450  1.00  0.00     0.000 HD 
BRANCH  27  30
HETATM   30  C   UNL     1      -9.920  17.829  68.261  1.00  0.00    -0.355 A  
HETATM   31  C   UNL     1     -10.387  18.654  67.242  1.00  0.00    -0.440 A  
HETATM   32  C   UNL     1      -8.113  18.993  66.525  1.00  0.00    -0.289 A  
HETATM   33  N   UNL     1      -8.603  17.601  68.426  1.00  0.00    -0.278 NA 
HETATM   34  C   UNL     1      -7.730  18.180  67.570  1.00  0.00    -0.218 A  
HETATM   35 CL   UNL     1      -6.949  19.672  65.462  1.00  0.00    -0.316 Cl 
HETATM   36  C   UNL     1      -9.469  19.239  66.358  1.00  0.00    -0.411 A  
ENDBRANCH  27  30
ENDBRANCH   8  26
ENDBRANCH   2   3
TORSDOF 7
ENDMDL
MODEL        3
REMARK 921   NORMALIZED FREE ENERGY PREDICTED BY IDOCK:   -7.76 KCAL/MOL
REMARK 922        TOTAL FREE ENERGY PREDICTED BY IDOCK:  -11.66 KCAL/MOL
REMARK 923 INTER-LIGAND FREE ENERGY PREDICTED BY IDOCK:  -10.84 KCAL/MOL
REMARK 924 INTRA-LIGAND FREE ENERGY PREDICTED BY IDOCK:   -0.82 KCAL/MOL
REMARK 927      BINDING AFFINITY PREDICTED BY RF-SCORE:    0.00 PKD
ROOT
HETATM    1  C   UNL     1     -10.466   5.170  74.452  1.00  0.00    -0.255 C  
HETATM    2  O   UNL     1     -11.269   4.720  73.360  1.00  0.00    -0.315 OA 
ENDROOT
BRANCH   2   3
HETATM    3  C   UNL     1     -11.218   5.479  72.219  1.00  0.00    -0.220 A  
HETATM    4  C   UNL     1     -10.568   5.109  71.052  1.00  0.00    -0.201 A  
HETATM    5  C   UNL     1     -10.560   5.964  69.952  1.00  0.00    -0.370 A  
HETATM    6  C   UNL     1     -11.196   7.210  69.985  1.00  0.00    -0.238 A  
HETATM    7  C   UNL     1     -11.878   6.716  72.277  1.00  0.00    -0.289 A  
HETATM    8  C   UNL     1     -11.877   7.602  71.174  1.00  0.00    -0.314 A  
BRANCH   6   9
HETATM    9  N   UNL     1     -11.139   8.079  68.851  1.00  0.00    -0.407 N  
HETATM   10  C   UNL     1     -10.025   8.487  68.149  1.00  0.00    -0.181 C  
HETATM   11  H   UNL     1     -12.033   8.441  68.520  1.00  0.00     0.000 HD 
HETATM   12  O   UNL     1      -8.870   8.112  68.328  1.00  0.00    -0.133 OA 
BRANCH  10  13
HETATM   13  C   UNL     1     -10.236   9.537  67.108  1.00  0.00    -0.305 A  
HETATM   14  C   UNL     1     -10.943  10.683  67.493  1.00  0.00    -0.371 A  
HETATM   15  C   UNL     1      -9.755   9.442  65.800  1.00  0.00    -0.354 A  
HETATM   16  C   UNL     1     -11.247  11.680  66.562  1.00  0.00    -0.356 A  
HETATM   17  C   UNL     1     -10.013  10.476  64.881  1.00  0.00    -0.401 A  
HETATM   18  C   UNL     1     -10.809  11.575  65.233  1.00  0.00    -0.319 A  
BRANCH  18  19
HETATM   19  C   UNL     1     -11.215  12.653  64.247  1.00  0.00    -0.362 C  
HETATM   20  N   UNL     1     -11.564  12.288  63.045  1.00  0.00    -0.659 NA 
HETATM   21  H1  UNL     1     -11.837  13.013  62.381  1.00  0.00     0.000 HD 
HETATM   22  H2  UNL     1     -11.563  11.304  62.775  1.00  0.00     0.000 HD 
BRANCH  19  23
HETATM   23  N   UNL     1     -11.193  14.015  64.539  1.00  0.00    -0.369 NA 
HETATM   24  C   UNL     1     -10.075  14.756  65.096  1.00  0.00    -0.323 C  
HETATM   25  C   UNL     1     -12.409  14.822  64.398  1.00  0.00    -0.368 C  
ENDBRANCH  19  23
ENDBRANCH  18  19
ENDBRANCH  10  13
ENDBRANCH   6   9
BRANCH   8  26
HETATM   26  C   UNL     1     -12.571   8.947  71.231  1.00  0.00    -0.262 C  
HETATM   27  N   UNL     1     -11.814  10.112  71.140  1.00  0.00    -0.371 N  
HETATM   28  O   UNL     1     -13.797   8.933  71.360  1.00  0.00    -0.354 OA 
HETATM   29  H   UNL     1     -10.804  10.026  71.028  1.00  0.00     0.000 HD 
BRANCH  27  30
HETATM   30  C   UNL     1     -12.374  11.407  71.194  1.00  0.00    -0.299 A  
HETATM   31  C   UNL     1     -11.993  12.340  70.234  1.00  0.00    -0.373 A  
HETATM   32  C   UNL     1     -13.407  13.967  71.309  1.00  0.00    -0.272 A  
HETATM   33  N   UNL     1     -13.249  11.725  72.168  1.00  0.00    -0.414 NA 
HETATM   34  C   UNL     1     -13.749  12.981  72.210  1.00  0.00    -0.512 A  
HETATM   35 CL   UNL     1     -14.060  15.549  71.441  1.00  0.00    -0.538 Cl 
HETATM   36  C   UNL     1     -12.513  13.641  70.298  1.00  0.00    -0.335 A  
ENDBRANCH  27  30
ENDBRANCH   8  26
ENDBRANCH   2   3
TORSDOF 7
ENDMDL
MODEL        4
REMARK 921   NORMALIZED FREE ENERGY PREDICTED BY IDOCK:   -7.63 KCAL/MOL
REMARK 922        TOTAL FREE ENERGY PREDICTED BY IDOCK:  -11.48 KCAL/MOL
REMARK 923 INTER-LIGAND FREE ENERGY PREDICTED BY IDOCK:  -10.67 KCAL/MOL
REMARK 924 INTRA-LIGAND FREE ENERGY PREDICTED BY IDOCK:   -0.80 KCAL/MOL
REMARK 927      BINDING AFFINITY PREDICTED BY RF-SCORE:    0.00 PKD
ROOT
HETATM    1  C   UNL     1      -9.587   4.796  70.644  1.00  0.00    -0.185 C  
HETATM    2  O   UNL     1     -10.452   4.855  69.509  1.00  0.00    -0.188 OA 
ENDROOT
BRANCH   2   3
HETATM    3  C   UNL     1     -10.469   6.042  68.823  1.00  0.00    -0.248 A  
HETATM    4  C   UNL     1     -10.280   6.168  67.455  1.00  0.00    -0.218 A  
HETATM    5  C   UNL     1     -10.297   7.426  66.858  1.00  0.00    -0.367 A  
HETATM    6  C   UNL     1     -10.500   8.592  67.604  1.00  0.00    -0.241 A  
HETATM    7  C   UNL     1     -10.690   7.192  69.596  1.00  0.00    -0.256 A  
HETATM    8  C   UNL     1     -10.705   8.480  69.010  1.00  0.00    -0.113 A  
BRANCH   6   9
HETATM    9  N   UNL     1     -10.477   9.870  66.965  1.00  0.00    -0.240 N  
HETATM   10  C   UNL     1      -9.403  10.720  66.804  1.00  0.00    -0.161 C  
HETATM   11  H   UNL     1     -11.364  10.194  66.580  1.00  0.00     0.000 HD 
HETATM   12  O   UNL     1      -8.239  10.495  67.120  1.00  0.00    -0.121 OA 
BRANCH  10  13
HETATM   13  C   UNL     1      -9.698  12.074  66.247  1.00  0.00    -0.251 A  
HETATM   14  C   UNL     1      -9.335  13.178  67.029  1.00  0.00    -0.238 A  
HETATM   15  C   UNL     1     -10.287  12.289  64.999  1.00  0.00    -0.321 A  
HETATM   16  C   UNL     1      -9.640  14.477  66.615  1.00  0.00    -0.291 A  
HETATM   17  C   UNL     1     -10.540  13.602  64.560  1.00  0.00    -0.428 A  
HETATM   18  C   UNL     1     -10.274  14.705  65.384  1.00  0.00    -0.415 A  
BRANCH  18  19
HETATM   19  C   UNL     1     -10.638  16.127  65.007  1.00  0.00    -0.276 C  
HETATM   20  N   UNL     1     -11.497  16.308  64.042  1.00  0.00    -1.521 NA 
HETATM   21  H1  UNL     1     -11.742  17.265  63.788  1.00  0.00     0.000 HD 
HETATM   22  H2  UNL     1     -11.913  15.514  63.555  1.00  0.00     0.000 HD 
BRANCH  19  23
HETATM   23  N   UNL     1     -10.072  17.253  65.601  1.00  0.00    -0.591 NA 
HETATM   24  C   UNL     1     -10.712  18.546  65.772  1.00  0.00    -0.156 C  
HETATM   25  C   UNL     1      -8.667  17.241  66.021  1.00  0.00    -0.090 C  
ENDBRANCH  19  23
ENDBRANCH  18  19
ENDBRANCH  10  13
ENDBRANCH   6   9
BRANCH   8  26
HETATM   26  C   UNL     1     -10.927   9.730  69.836  1.00  0.00    -0.264 C  
HETATM   27  N   UNL     1     -12.091  10.472  69.656  1.00  0.00    -0.494 N  
HETATM   28  O   UNL     1     -10.040  10.028  70.639  1.00  0.00    -0.177 OA 
HETATM   29  H   UNL     1     -12.772  10.144  68.972  1.00  0.00     0.000 HD 
BRANCH  27  30
HETATM   30  C   UNL     1     -12.375  11.654  70.372  1.00  0.00    -0.288 A  
HETATM   31  C   UNL     1     -11.830  12.854  69.923  1.00  0.00    -0.373 A  
HETATM   32  C   UNL     1     -12.865  13.978  71.785  1.00  0.00    -0.340 A  
HETATM   33  N   UNL     1     -13.150  11.609  71.473  1.00  0.00    -0.381 NA 
HETATM   34  C   UNL     1     -13.384  12.755  72.153  1.00  0.00    -0.492 A  
HETATM   35 CL   UNL     1     -13.182  15.386  72.713  1.00  0.00    -0.527 Cl 
HETATM   36  C   UNL     1     -12.074  14.031  70.645  1.00  0.00    -0.424 A  
ENDBRANCH  27  30
ENDBRANCH   8  26
ENDBRANCH   2   3
TORSDOF 7
ENDMDL
MODEL        5
REMARK 921   NORMALIZED FREE ENERGY PREDICTED BY IDOCK:   -7.53 KCAL/MOL
REMARK 922        TOTAL FREE ENERGY PREDICTED BY IDOCK:  -11.34 KCAL/MOL
REMARK 923 INTER-LIGAND FREE ENERGY PREDICTED BY IDOCK:  -10.18 KCAL/MOL
REMARK 924 INTRA-LIGAND FREE ENERGY PREDICTED BY IDOCK:   -1.17 KCAL/MOL
REMARK 927      BINDING AFFINITY PREDICTED BY RF-SCORE:    0.00 PKD
ROOT
HETATM    1  C   UNL     1     -13.305   8.547  71.601  1.00  0.00    -0.343 C  
HETATM    2  O   UNL     1     -13.510   9.791  72.273  1.00  0.00    -0.434 OA 
ENDROOT
BRANCH   2   3
HETATM    3  C   UNL     1     -13.008  10.904  71.651  1.00  0.00    -0.464 A  
HETATM    4  C   UNL     1     -13.237  12.209  72.060  1.00  0.00    -0.496 A  
HETATM    5  C   UNL     1     -12.694  13.274  71.344  1.00  0.00    -0.401 A  
HETATM    6  C   UNL     1     -11.911  13.070  70.203  1.00  0.00    -0.303 A  
HETATM    7  C   UNL     1     -12.214  10.667  70.519  1.00  0.00    -0.449 A  
HETATM    8  C   UNL     1     -11.658  11.734  69.774  1.00  0.00    -0.372 A  
BRANCH   6   9
HETATM    9  N   UNL     1     -11.398  14.185  69.471  1.00  0.00    -0.283 N  
HETATM   10  C   UNL     1     -11.701  14.566  68.181  1.00  0.00    -0.337 C  
HETATM   11  H   UNL     1     -10.725  14.771  69.964  1.00  0.00     0.000 HD 
HETATM   12  O   UNL     1     -12.536  14.052  67.443  1.00  0.00    -0.217 OA 
BRANCH  10  13
HETATM   13  C   UNL     1     -10.888  15.677  67.603  1.00  0.00    -0.307 A  
HETATM   14  C   UNL     1     -10.337  16.600  68.501  1.00  0.00    -0.303 A  
HETATM   15  C   UNL     1     -10.637  15.826  66.236  1.00  0.00    -0.313 A  
HETATM   16  C   UNL     1      -9.624  17.709  68.039  1.00  0.00    -0.289 A  
HETATM   17  C   UNL     1      -9.869  16.913  65.780  1.00  0.00    -0.166 A  
HETATM   18  C   UNL     1      -9.404  17.895  66.666  1.00  0.00    -0.293 A  
BRANCH  18  19
HETATM   19  C   UNL     1      -8.677  19.145  66.210  1.00  0.00    -0.295 C  
HETATM   20  N   UNL     1      -9.347  20.263  66.156  1.00  0.00    -0.628 NA 
HETATM   21  H1  UNL     1      -8.859  21.104  65.848  1.00  0.00     0.000 HD 
HETATM   22  H2  UNL     1     -10.334  20.295  66.414  1.00  0.00     0.000 HD 
BRANCH  19  23
HETATM   23  N   UNL     1      -7.346  19.158  65.801  1.00  0.00    -0.422 NA 
HETATM   24  C   UNL     1      -6.673  20.240  65.103  1.00  0.00    -0.300 C  
HETATM   25  C   UNL     1      -6.511  17.963  65.959  1.00  0.00    -0.263 C  
ENDBRANCH  19  23
ENDBRANCH  18  19
ENDBRANCH  10  13
ENDBRANCH   6   9
BRANCH   8  26
HETATM   26  C   UNL     1     -10.814  11.491  68.540  1.00  0.00    -0.215 C  
HETATM   27  N   UNL     1     -11.434  11.134  67.346  1.00  0.00    -0.253 N  
HETATM   28  O   UNL     1      -9.595  11.623  68.669  1.00  0.00    -0.190 OA 
HETATM   29  H   UNL     1     -12.451  11.054  67.334  1.00  0.00     0.000 HD 
BRANCH  27  30
HETATM   30  C   UNL     1     -10.727  10.878  66.152  1.00  0.00    -0.159 A  
HETATM   31  C   UNL     1     -11.046  11.615  65.015  1.00  0.00    -0.312 A  
HETATM   32  C   UNL     1      -9.402  10.359  63.783  1.00  0.00    -0.288 A  
HETATM   33  N   UNL     1      -9.773   9.928  66.121  1.00  0.00    -0.218 NA 
HETATM   34  C   UNL     1      -9.130   9.686  64.956  1.00  0.00    -0.233 A  
HETATM   35 CL   UNL     1      -8.564   9.979  62.334  1.00  0.00    -0.184 Cl 
HETATM   36  C   UNL     1     -10.377  11.346  63.812  1.00  0.00    -0.447 A  
ENDBRANCH  27  30
ENDBRANCH   8  26
ENDBRANCH   2   3
TORSDOF 7
ENDMDL
MODEL        6
REMARK 921   NORMALIZED FREE ENERGY PREDICTED BY IDOCK:   -7.49 KCAL/MOL
REMARK 922        TOTAL FREE ENERGY PREDICTED BY IDOCK:  -11.29 KCAL/MOL
REMARK 923 INTER-LIGAND FREE ENERGY PREDICTED BY IDOCK:   -9.97 KCAL/MOL
REMARK 924 INTRA-LIGAND FREE ENERGY PREDICTED BY IDOCK:   -1.32 KCAL/MOL
REMARK 927      BINDING AFFINITY PREDICTED BY RF-SCORE:    0.00 PKD
ROOT
HETATM    1  C   UNL     1     -12.792  15.632  73.294  1.00  0.00    -0.527 C  
HETATM    2  O   UNL     1     -13.396  15.235  72.061  1.00  0.00    -0.361 OA 
ENDROOT
BRANCH   2   3
HETATM    3  C   UNL     1     -13.121  13.960  71.637  1.00  0.00    -0.367 A  
HETATM    4  C   UNL     1     -13.482  12.806  72.316  1.00  0.00    -0.591 A  
HETATM    5  C   UNL     1     -13.137  11.557  71.806  1.00  0.00    -0.503 A  
HETATM    6  C   UNL     1     -12.422  11.421  70.612  1.00  0.00    -0.327 A  
HETATM    7  C   UNL     1     -12.417  13.857  70.428  1.00  0.00    -0.404 A  
HETATM    8  C   UNL     1     -12.051  12.598  69.897  1.00  0.00    -0.322 A  
BRANCH   6   9
HETATM    9  N   UNL     1     -12.053  10.125  70.134  1.00  0.00    -0.452 N  
HETATM   10  C   UNL     1     -10.980   9.351  70.523  1.00  0.00    -0.274 C  
HETATM   11  H   UNL     1     -12.658   9.724  69.418  1.00  0.00     0.000 HD 
HETATM   12  O   UNL     1     -10.179   9.607  71.417  1.00  0.00    -0.205 OA 
BRANCH  10  13
HETATM   13  C   UNL     1     -10.733   8.106  69.736  1.00  0.00    -0.229 A  
HETATM   14  C   UNL     1     -10.021   8.240  68.537  1.00  0.00    -0.206 A  
HETATM   15  C   UNL     1     -11.151   6.835  70.140  1.00  0.00    -0.365 A  
HETATM   16  C   UNL     1      -9.808   7.137  67.706  1.00  0.00    -0.175 A  
HETATM   17  C   UNL     1     -10.884   5.719  69.327  1.00  0.00    -0.374 A  
HETATM   18  C   UNL     1     -10.263   5.864  68.078  1.00  0.00    -0.224 A  
BRANCH  18  19
HETATM   19  C   UNL     1     -10.062   4.710  67.114  1.00  0.00    -0.143 C  
HETATM   20  N   UNL     1     -10.854   4.625  66.081  1.00  0.00    -0.550 NA 
HETATM   21  H1  UNL     1     -10.719   3.849  65.433  1.00  0.00     0.000 HD 
HETATM   22  H2  UNL     1     -11.588   5.316  65.925  1.00  0.00     0.000 HD 
BRANCH  19  23
HETATM   23  N   UNL     1      -9.109   3.711  67.295  1.00  0.00    -0.153 NA 
HETATM   24  C   UNL     1      -9.375   2.318  67.611  1.00  0.00    -0.135 C  
HETATM   25  C   UNL     1      -7.680   4.040  67.287  1.00  0.00    -0.084 C  
ENDBRANCH  19  23
ENDBRANCH  18  19
ENDBRANCH  10  13
ENDBRANCH   6   9
BRANCH   8  26
HETATM   26  C   UNL     1     -11.276  12.473  68.601  1.00  0.00    -0.278 C  
HETATM   27  N   UNL     1     -11.886  11.892  67.493  1.00  0.00    -0.254 N  
HETATM   28  O   UNL     1     -10.120  12.902  68.603  1.00  0.00    -0.212 OA 
HETATM   29  H   UNL     1     -12.849  11.571  67.583  1.00  0.00     0.000 HD 
BRANCH  27  30
HETATM   30  C   UNL     1     -11.237  11.724  66.250  1.00  0.00    -0.312 A  
HETATM   31  C   UNL     1     -10.510  10.558  66.029  1.00  0.00    -0.226 A  
HETATM   32  C   UNL     1      -9.908  11.391  63.850  1.00  0.00    -0.300 A  
HETATM   33  N   UNL     1     -11.318  12.684  65.309  1.00  0.00    -0.305 NA 
HETATM   34  C   UNL     1     -10.665  12.507  64.139  1.00  0.00    -0.391 A  
HETATM   35 CL   UNL     1      -9.083  11.247  62.352  1.00  0.00    -0.314 Cl 
HETATM   36  C   UNL     1      -9.830  10.394  64.813  1.00  0.00    -0.406 A  
ENDBRANCH  27  30
ENDBRANCH   8  26
ENDBRANCH   2   3
TORSDOF 7
ENDMDL
MODEL        7
REMARK 921   NORMALIZED FREE ENERGY PREDICTED BY IDOCK:   -7.46 KCAL/MOL
REMARK 922        TOTAL FREE ENERGY PREDICTED BY IDOCK:  -11.24 KCAL/MOL
REMARK 923 INTER-LIGAND FREE ENERGY PREDICTED BY IDOCK:   -9.76 KCAL/MOL
REMARK 924 INTRA-LIGAND FREE ENERGY PREDICTED BY IDOCK:   -1.48 KCAL/MOL
REMARK 927      BINDING AFFINITY PREDICTED BY RF-SCORE:    0.00 PKD
ROOT
HETATM    1  C   UNL     1     -14.038  14.980  72.442  1.00  0.00    -0.476 C  
HETATM    2  O   UNL     1     -13.038  15.723  71.744  1.00  0.00    -0.462 OA 
ENDROOT
BRANCH   2   3
HETATM    3  C   UNL     1     -12.464  15.099  70.667  1.00  0.00    -0.388 A  
HETATM    4  C   UNL     1     -11.975  15.750  69.544  1.00  0.00    -0.326 A  
HETATM    5  C   UNL     1     -11.427  15.019  68.493  1.00  0.00    -0.335 A  
HETATM    6  C   UNL     1     -11.351  13.623  68.529  1.00  0.00    -0.290 A  
HETATM    7  C   UNL     1     -12.388  13.700  70.739  1.00  0.00    -0.446 A  
HETATM    8  C   UNL     1     -11.840  12.938  69.680  1.00  0.00    -0.387 A  
BRANCH   6   9
HETATM    9  N   UNL     1     -10.814  12.901  67.419  1.00  0.00    -0.247 N  
HETATM   10  C   UNL     1     -11.454  12.534  66.254  1.00  0.00    -0.370 C  
HETATM   11  H   UNL     1      -9.836  12.623  67.497  1.00  0.00     0.000 HD 
HETATM   12  O   UNL     1     -12.599  12.831  65.924  1.00  0.00    -0.518 OA 
BRANCH  10  13
HETATM   13  C   UNL     1     -10.702  11.632  65.331  1.00  0.00    -0.341 A  
HETATM   14  C   UNL     1     -10.003  10.566  65.911  1.00  0.00    -0.313 A  
HETATM   15  C   UNL     1     -10.680  11.786  63.943  1.00  0.00    -0.457 A  
HETATM   16  C   UNL     1      -9.215   9.719  65.126  1.00  0.00    -0.297 A  
HETATM   17  C   UNL     1      -9.932  10.895  63.151  1.00  0.00    -0.368 A  
HETATM   18  C   UNL     1      -9.148   9.890  63.736  1.00  0.00    -0.293 A  
BRANCH  18  19
HETATM   19  C   UNL     1      -8.232   8.984  62.935  1.00  0.00    -0.186 C  
HETATM   20  N   UNL     1      -8.758   7.952  62.335  1.00  0.00    -0.416 NA 
HETATM   21  H1  UNL     1      -8.142   7.342  61.797  1.00  0.00     0.000 HD 
HETATM   22  H2  UNL     1      -9.758   7.760  62.402  1.00  0.00     0.000 HD 
BRANCH  19  23
HETATM   23  N   UNL     1      -6.854   9.165  62.843  1.00  0.00    -0.093 NA 
HETATM   24  C   UNL     1      -6.165  10.431  62.658  1.00  0.00    -0.142 C  
HETATM   25  C   UNL     1      -5.955   8.007  62.813  1.00  0.00    -0.076 C  
ENDBRANCH  19  23
ENDBRANCH  18  19
ENDBRANCH  10  13
ENDBRANCH   6   9
BRANCH   8  26
HETATM   26  C   UNL     1     -11.768  11.426  69.739  1.00  0.00    -0.344 C  
HETATM   27  N   UNL     1     -10.561  10.811  70.058  1.00  0.00    -0.459 N  
HETATM   28  O   UNL     1     -12.808  10.812  69.492  1.00  0.00    -0.198 OA 
HETATM   29  H   UNL     1      -9.753  11.402  70.253  1.00  0.00     0.000 HD 
BRANCH  27  30
HETATM   30  C   UNL     1     -10.398   9.411  70.124  1.00  0.00    -0.233 A  
HETATM   31  C   UNL     1      -9.964   8.734  68.987  1.00  0.00    -0.197 A  
HETATM   32  C   UNL     1     -10.126   6.662  70.204  1.00  0.00    -0.178 A  
HETATM   33  N   UNL     1     -10.672   8.751  71.266  1.00  0.00    -0.246 NA 
HETATM   34  C   UNL     1     -10.531   7.406  71.291  1.00  0.00    -0.208 A  
HETATM   35 CL   UNL     1      -9.997   4.953  70.302  1.00  0.00    -0.304 Cl 
HETATM   36  C   UNL     1      -9.833   7.339  69.028  1.00  0.00    -0.165 A  
ENDBRANCH  27  30
ENDBRANCH   8  26
ENDBRANCH   2   3
TORSDOF 7
ENDMDL
MODEL        8
REMARK 921   NORMALIZED FREE ENERGY PREDICTED BY IDOCK:   -7.45 KCAL/MOL
REMARK 922        TOTAL FREE ENERGY PREDICTED BY IDOCK:  -11.23 KCAL/MOL
REMARK 923 INTER-LIGAND FREE ENERGY PREDICTED BY IDOCK:  -10.12 KCAL/MOL
REMARK 924 INTRA-LIGAND FREE ENERGY PREDICTED BY IDOCK:   -1.11 KCAL/MOL
REMARK 927      BINDING AFFINITY PREDICTED BY RF-SCORE:    0.00 PKD
ROOT
HETATM    1  C   UNL     1     -13.534  15.819  73.190  1.00  0.00    -0.561 C  
HETATM    2  O   UNL     1     -14.053  14.548  72.798  1.00  0.00    -0.517 OA 
ENDROOT
BRANCH   2   3
HETATM    3  C   UNL     1     -13.319  13.855  71.871  1.00  0.00    -0.412 A  
HETATM    4  C   UNL     1     -12.701  14.423  70.767  1.00  0.00    -0.427 A  
HETATM    5  C   UNL     1     -11.993  13.624  69.872  1.00  0.00    -0.415 A  
HETATM    6  C   UNL     1     -11.883  12.241  70.048  1.00  0.00    -0.296 A  
HETATM    7  C   UNL     1     -13.214  12.472  72.083  1.00  0.00    -0.508 A  
HETATM    8  C   UNL     1     -12.505  11.642  71.183  1.00  0.00    -0.412 A  
BRANCH   6   9
HETATM    9  N   UNL     1     -11.179  11.445  69.092  1.00  0.00    -0.250 N  
HETATM   10  C   UNL     1     -11.367  11.393  67.727  1.00  0.00    -0.287 C  
HETATM   11  H   UNL     1     -10.446  10.842  69.465  1.00  0.00     0.000 HD 
HETATM   12  O   UNL     1     -12.135  12.087  67.068  1.00  0.00    -0.603 OA 
BRANCH  10  13
HETATM   13  C   UNL     1     -10.605  10.345  66.985  1.00  0.00    -0.305 A  
HETATM   14  C   UNL     1     -10.499   9.086  67.590  1.00  0.00    -0.324 A  
HETATM   15  C   UNL     1     -10.023  10.548  65.732  1.00  0.00    -0.318 A  
HETATM   16  C   UNL     1      -9.743   8.071  66.998  1.00  0.00    -0.275 A  
HETATM   17  C   UNL     1      -9.312   9.504  65.112  1.00  0.00    -0.316 A  
HETATM   18  C   UNL     1      -9.115   8.277  65.761  1.00  0.00    -0.169 A  
BRANCH  18  19
HETATM   19  C   UNL     1      -8.256   7.166  65.188  1.00  0.00    -0.113 C  
HETATM   20  N   UNL     1      -8.245   7.001  63.894  1.00  0.00    -0.337 NA 
HETATM   21  H1  UNL     1      -7.668   6.253  63.508  1.00  0.00     0.000 HD 
HETATM   22  H2  UNL     1      -8.799   7.602  63.284  1.00  0.00     0.000 HD 
BRANCH  19  23
HETATM   23  N   UNL     1      -7.514   6.283  65.968  1.00  0.00    -0.080 NA 
HETATM   24  C   UNL     1      -6.249   6.571  66.623  1.00  0.00    -0.040 C  
HETATM   25  C   UNL     1      -7.928   4.883  66.100  1.00  0.00    -0.107 C  
ENDBRANCH  19  23
ENDBRANCH  18  19
ENDBRANCH  10  13
ENDBRANCH   6   9
BRANCH   8  26
HETATM   26  C   UNL     1     -12.398  10.145  71.392  1.00  0.00    -0.416 C  
HETATM   27  N   UNL     1     -11.142   9.563  71.535  1.00  0.00    -0.370 N  
HETATM   28  O   UNL     1     -13.456   9.513  71.422  1.00  0.00    -0.374 OA 
HETATM   29  H   UNL     1     -10.321  10.167  71.502  1.00  0.00     0.000 HD 
BRANCH  27  30
HETATM   30  C   UNL     1     -10.946   8.178  71.722  1.00  0.00    -0.261 A  
HETATM   31  C   UNL     1     -11.060   7.333  70.621  1.00  0.00    -0.287 A  
HETATM   32  C   UNL     1     -10.628   5.454  72.065  1.00  0.00    -0.224 A  
HETATM   33  N   UNL     1     -10.668   7.692  72.947  1.00  0.00    -0.339 NA 
HETATM   34  C   UNL     1     -10.511   6.358  73.100  1.00  0.00    -0.243 A  
HETATM   35 CL   UNL     1     -10.443   3.770  72.339  1.00  0.00    -0.180 Cl 
HETATM   36  C   UNL     1     -10.905   5.950  70.798  1.00  0.00    -0.352 A  
ENDBRANCH  27  30
ENDBRANCH   8  26
ENDBRANCH   2   3
TORSDOF 7
ENDMDL
MODEL        9
REMARK 921   NORMALIZED FREE ENERGY PREDICTED BY IDOCK:   -7.42 KCAL/MOL
REMARK 922        TOTAL FREE ENERGY PREDICTED BY IDOCK:  -11.18 KCAL/MOL
REMARK 923 INTER-LIGAND FREE ENERGY PREDICTED BY IDOCK:   -9.76 KCAL/MOL
REMARK 924 INTRA-LIGAND FREE ENERGY PREDICTED BY IDOCK:   -1.42 KCAL/MOL
REMARK 927      BINDING AFFINITY PREDICTED BY RF-SCORE:    0.00 PKD
ROOT
HETATM    1  C   UNL     1     -14.210   7.792  71.467  1.00  0.00    -0.424 C  
HETATM    2  O   UNL     1     -13.434   8.654  72.302  1.00  0.00    -0.370 OA 
ENDROOT
BRANCH   2   3
HETATM    3  C   UNL     1     -13.008   9.825  71.731  1.00  0.00    -0.438 A  
HETATM    4  C   UNL     1     -13.394  11.091  72.143  1.00  0.00    -0.285 A  
HETATM    5  C   UNL     1     -12.915  12.220  71.480  1.00  0.00    -0.390 A  
HETATM    6  C   UNL     1     -12.044  12.119  70.390  1.00  0.00    -0.309 A  
HETATM    7  C   UNL     1     -12.123   9.692  70.650  1.00  0.00    -0.269 A  
HETATM    8  C   UNL     1     -11.631  10.824  69.960  1.00  0.00    -0.417 A  
BRANCH   6   9
HETATM    9  N   UNL     1     -11.600  13.295  69.711  1.00  0.00    -0.453 N  
HETATM   10  C   UNL     1     -11.831  13.658  68.401  1.00  0.00    -0.372 C  
HETATM   11  H   UNL     1     -11.043  13.947  70.263  1.00  0.00     0.000 HD 
HETATM   12  O   UNL     1     -12.535  13.062  67.590  1.00  0.00    -0.081 OA 
BRANCH  10  13
HETATM   13  C   UNL     1     -11.103  14.862  67.900  1.00  0.00    -0.304 A  
HETATM   14  C   UNL     1     -10.539  14.779  66.620  1.00  0.00    -0.299 A  
HETATM   15  C   UNL     1     -10.977  16.050  68.623  1.00  0.00    -0.323 A  
HETATM   16  C   UNL     1      -9.780  15.834  66.106  1.00  0.00    -0.351 A  
HETATM   17  C   UNL     1     -10.261  17.131  68.076  1.00  0.00    -0.332 A  
HETATM   18  C   UNL     1      -9.608  17.016  66.841  1.00  0.00    -0.263 A  
BRANCH  18  19
HETATM   19  C   UNL     1      -8.726  18.107  66.267  1.00  0.00    -0.172 C  
HETATM   20  N   UNL     1      -7.637  17.754  65.641  1.00  0.00    -0.502 NA 
HETATM   21  H1  UNL     1      -7.044  18.488  65.255  1.00  0.00     0.000 HD 
HETATM   22  H2  UNL     1      -7.386  16.770  65.541  1.00  0.00     0.000 HD 
BRANCH  19  23
HETATM   23  N   UNL     1      -8.989  19.467  66.409  1.00  0.00    -0.358 NA 
HETATM   24  C   UNL     1      -8.177  20.428  67.135  1.00  0.00    -0.320 C  
HETATM   25  C   UNL     1     -10.239  20.037  65.895  1.00  0.00    -0.421 C  
ENDBRANCH  19  23
ENDBRANCH  18  19
ENDBRANCH  10  13
ENDBRANCH   6   9
BRANCH   8  26
HETATM   26  C   UNL     1     -10.688  10.693  68.781  1.00  0.00    -0.215 C  
HETATM   27  N   UNL     1     -11.166  10.184  67.577  1.00  0.00    -0.374 N  
HETATM   28  O   UNL     1      -9.522  11.051  68.962  1.00  0.00    -0.184 OA 
HETATM   29  H   UNL     1     -12.149   9.920  67.519  1.00  0.00     0.000 HD 
BRANCH  27  30
HETATM   30  C   UNL     1     -10.358  10.016  66.432  1.00  0.00    -0.179 A  
HETATM   31  C   UNL     1     -10.360  11.013  65.460  1.00  0.00    -0.321 A  
HETATM   32  C   UNL     1      -8.833   9.690  64.150  1.00  0.00    -0.226 A  
HETATM   33  N   UNL     1      -9.613   8.903  66.287  1.00  0.00    -0.240 NA 
HETATM   34  C   UNL     1      -8.869   8.758  65.167  1.00  0.00    -0.133 A  
HETATM   35 CL   UNL     1      -7.886   9.425  62.744  1.00  0.00    -0.117 Cl 
HETATM   36  C   UNL     1      -9.591  10.843  64.300  1.00  0.00    -0.318 A  
ENDBRANCH  27  30
ENDBRANCH   8  26
ENDBRANCH   2   3
TORSDOF 7
ENDMDL
MODEL       10
REMARK 921   NORMALIZED FREE ENERGY PREDICTED BY IDOCK:   -7.32 KCAL/MOL
REMARK 922        TOTAL FREE ENERGY PREDICTED BY IDOCK:  -11.04 KCAL/MOL
REMARK 923 INTER-LIGAND FREE ENERGY PREDICTED BY IDOCK:   -9.75 KCAL/MOL
REMARK 924 INTRA-LIGAND FREE ENERGY PREDICTED BY IDOCK:   -1.29 KCAL/MOL
REMARK 927      BINDING AFFINITY PREDICTED BY RF-SCORE:    0.00 PKD
ROOT
HETATM    1  C   UNL     1      -8.690   2.382  68.492  1.00  0.00    -0.091 C  
HETATM    2  O   UNL     1      -9.297   2.613  69.764  1.00  0.00    -0.130 OA 
ENDROOT
BRANCH   2   3
HETATM    3  C   UNL     1      -9.660   3.907  70.035  1.00  0.00    -0.199 A  
HETATM    4  C   UNL     1      -9.888   4.415  71.304  1.00  0.00    -0.260 A  
HETATM    5  C   UNL     1     -10.273   5.744  71.469  1.00  0.00    -0.255 A  
HETATM    6  C   UNL     1     -10.443   6.601  70.378  1.00  0.00    -0.211 A  
HETATM    7  C   UNL     1      -9.808   4.747  68.921  1.00  0.00    -0.230 A  
HETATM    8  C   UNL     1     -10.203   6.097  69.065  1.00  0.00    -0.237 A  
BRANCH   6   9
HETATM    9  N   UNL     1     -10.872   7.950  70.579  1.00  0.00    -0.238 N  
HETATM   10  C   UNL     1     -12.072   8.391  71.096  1.00  0.00    -0.249 C  
HETATM   11  H   UNL     1     -10.209   8.675  70.307  1.00  0.00     0.000 HD 
HETATM   12  O   UNL     1     -12.972   7.693  71.553  1.00  0.00    -0.336 OA 
BRANCH  10  13
HETATM   13  C   UNL     1     -12.327   9.861  71.036  1.00  0.00    -0.451 A  
HETATM   14  C   UNL     1     -11.756  10.565  69.968  1.00  0.00    -0.394 A  
HETATM   15  C   UNL     1     -13.110  10.552  71.965  1.00  0.00    -0.511 A  
HETATM   16  C   UNL     1     -11.885  11.953  69.877  1.00  0.00    -0.418 A  
HETATM   17  C   UNL     1     -13.285  11.942  71.836  1.00  0.00    -0.467 A  
HETATM   18  C   UNL     1     -12.631  12.665  70.829  1.00  0.00    -0.302 A  
BRANCH  18  19
HETATM   19  C   UNL     1     -12.691  14.176  70.722  1.00  0.00    -0.344 C  
HETATM   20  N   UNL     1     -12.373  14.727  69.583  1.00  0.00    -0.517 NA 
HETATM   21  H1  UNL     1     -12.413  15.743  69.511  1.00  0.00     0.000 HD 
HETATM   22  H2  UNL     1     -12.091  14.156  68.786  1.00  0.00     0.000 HD 
BRANCH  19  23
HETATM   23  N   UNL     1     -13.024  15.013  71.785  1.00  0.00    -0.323 NA 
HETATM   24  C   UNL     1     -14.359  15.463  72.138  1.00  0.00    -0.544 C  
HETATM   25  C   UNL     1     -11.972  15.623  72.604  1.00  0.00    -0.473 C  
ENDBRANCH  19  23
ENDBRANCH  18  19
ENDBRANCH  10  13
ENDBRANCH   6   9
BRANCH   8  26
HETATM   26  C   UNL     1     -10.382   7.010  67.869  1.00  0.00    -0.199 C  
HETATM   27  N   UNL     1      -9.464   8.031  67.645  1.00  0.00    -0.143 N  
HETATM   28  O   UNL     1     -11.357   6.791  67.147  1.00  0.00    -0.330 OA 
HETATM   29  H   UNL     1      -8.684   8.132  68.294  1.00  0.00     0.000 HD 
BRANCH  27  30
HETATM   30  C   UNL     1      -9.557   8.934  66.564  1.00  0.00    -0.232 A  
HETATM   31  C   UNL     1     -10.341  10.075  66.714  1.00  0.00    -0.283 A  
HETATM   32  C   UNL     1      -9.809  10.693  64.447  1.00  0.00    -0.334 A  
HETATM   33  N   UNL     1      -8.907   8.681  65.412  1.00  0.00    -0.178 NA 
HETATM   34  C   UNL     1      -9.037   9.552  64.385  1.00  0.00    -0.182 A  
HETATM   35 CL   UNL     1      -9.949  11.738  63.093  1.00  0.00    -0.417 Cl 
HETATM   36  C   UNL     1     -10.473  10.963  65.636  1.00  0.00    -0.274 A  
ENDBRANCH  27  30
ENDBRANCH   8  26
ENDBRANCH   2   3
TORSDOF 7
ENDMDL
MODEL       11
REMARK 921   NORMALIZED FREE ENERGY PREDICTED BY IDOCK:   -7.29 KCAL/MOL
REMARK 922        TOTAL FREE ENERGY PREDICTED BY IDOCK:  -11.01 KCAL/MOL
REMARK 923 INTER-LIGAND FREE ENERGY PREDICTED BY IDOCK:   -9.48 KCAL/MOL
REMARK 924 INTRA-LIGAND FREE ENERGY PREDICTED BY IDOCK:   -1.53 KCAL/MOL
REMARK 927      BINDING AFFINITY PREDICTED BY RF-SCORE:    0.00 PKD
ROOT
HETATM    1  C   UNL     1     -10.501  19.725  66.657  1.00  0.00    -0.497 C  
HETATM    2  O   UNL     1     -10.844  18.683  67.572  1.00  0.00    -0.435 OA 
ENDROOT
BRANCH   2   3
HETATM    3  C   UNL     1     -10.455  17.417  67.219  1.00  0.00    -0.321 A  
HETATM    4  C   UNL     1      -9.482  17.122  66.277  1.00  0.00    -0.267 A  
HETATM    5  C   UNL     1      -9.174  15.797  65.978  1.00  0.00    -0.379 A  
HETATM    6  C   UNL     1      -9.828  14.731  66.603  1.00  0.00    -0.259 A  
HETATM    7  C   UNL     1     -11.118  16.368  67.875  1.00  0.00    -0.249 A  
HETATM    8  C   UNL     1     -10.825  15.016  67.581  1.00  0.00    -0.291 A  
BRANCH   6   9
HETATM    9  N   UNL     1      -9.513  13.383  66.248  1.00  0.00    -0.420 N  
HETATM   10  C   UNL     1     -10.051  12.625  65.229  1.00  0.00    -0.253 C  
HETATM   11  H   UNL     1      -8.802  12.924  66.817  1.00  0.00     0.000 HD 
HETATM   12  O   UNL     1     -10.857  13.004  64.384  1.00  0.00    -0.344 OA 
BRANCH  10  13
HETATM   13  C   UNL     1      -9.662  11.184  65.188  1.00  0.00    -0.296 A  
HETATM   14  C   UNL     1      -9.982  10.405  66.308  1.00  0.00    -0.283 A  
HETATM   15  C   UNL     1      -9.027  10.581  64.100  1.00  0.00    -0.237 A  
HETATM   16  C   UNL     1      -9.590   9.066  66.381  1.00  0.00    -0.309 A  
HETATM   17  C   UNL     1      -8.686   9.218  64.154  1.00  0.00    -0.201 A  
HETATM   18  C   UNL     1      -8.910   8.461  65.313  1.00  0.00    -0.113 A  
BRANCH  18  19
HETATM   19  C   UNL     1      -8.452   7.023  65.464  1.00  0.00    -0.114 C  
HETATM   20  N   UNL     1      -8.611   6.216  64.452  1.00  0.00    -0.345 NA 
HETATM   21  H1  UNL     1      -8.304   5.249  64.554  1.00  0.00     0.000 HD 
HETATM   22  H2  UNL     1      -9.031   6.543  63.582  1.00  0.00     0.000 HD 
BRANCH  19  23
HETATM   23  N   UNL     1      -7.914   6.504  66.639  1.00  0.00    -0.107 NA 
HETATM   24  C   UNL     1      -8.592   5.632  67.583  1.00  0.00    -0.108 C  
HETATM   25  C   UNL     1      -6.580   6.917  67.088  1.00  0.00    -0.051 C  
ENDBRANCH  19  23
ENDBRANCH  18  19
ENDBRANCH  10  13
ENDBRANCH   6   9
BRANCH   8  26
HETATM   26  C   UNL     1     -11.545  13.875  68.271  1.00  0.00    -0.337 C  
HETATM   27  N   UNL     1     -11.217  13.555  69.585  1.00  0.00    -0.454 N  
HETATM   28  O   UNL     1     -12.399  13.280  67.611  1.00  0.00    -0.204 OA 
HETATM   29  H   UNL     1     -10.500  14.108  70.054  1.00  0.00     0.000 HD 
BRANCH  27  30
HETATM   30  C   UNL     1     -11.826  12.502  70.302  1.00  0.00    -0.223 A  
HETATM   31  C   UNL     1     -11.465  11.192  70.000  1.00  0.00    -0.376 A  
HETATM   32  C   UNL     1     -13.044  10.417  71.645  1.00  0.00    -0.448 A  
HETATM   33  N   UNL     1     -12.746  12.771  71.248  1.00  0.00    -0.336 NA 
HETATM   34  C   UNL     1     -13.332  11.741  71.900  1.00  0.00    -0.296 A  
HETATM   35 CL   UNL     1     -13.848   9.160  72.493  1.00  0.00    -0.515 Cl 
HETATM   36  C   UNL     1     -12.089  10.135  70.678  1.00  0.00    -0.411 A  
ENDBRANCH  27  30
ENDBRANCH   8  26
ENDBRANCH   2   3
TORSDOF 7
ENDMDL
MODEL       12
REMARK 921   NORMALIZED FREE ENERGY PREDICTED BY IDOCK:   -7.22 KCAL/MOL
REMARK 922        TOTAL FREE ENERGY PREDICTED BY IDOCK:  -10.91 KCAL/MOL
REMARK 923 INTER-LIGAND FREE ENERGY PREDICTED BY IDOCK:  -10.01 KCAL/MOL
REMARK 924 INTRA-LIGAND FREE ENERGY PREDICTED BY IDOCK:   -0.90 KCAL/MOL
REMARK 927      BINDING AFFINITY PREDICTED BY RF-SCORE:    0.00 PKD
ROOT
HETATM    1  C   UNL     1     -10.289  19.513  66.252  1.00  0.00    -0.506 C  
HETATM    2  O   UNL     1     -10.222  18.238  65.612  1.00  0.00    -0.573 OA 
ENDROOT
BRANCH   2   3
HETATM    3  C   UNL     1     -10.599  17.160  66.370  1.00  0.00    -0.172 A  
HETATM    4  C   UNL     1     -11.035  17.232  67.684  1.00  0.00    -0.133 A  
HETATM    5  C   UNL     1     -11.378  16.072  68.374  1.00  0.00    -0.355 A  
HETATM    6  C   UNL     1     -11.295  14.810  67.777  1.00  0.00    -0.330 A  
HETATM    7  C   UNL     1     -10.519  15.910  65.739  1.00  0.00    -0.386 A  
HETATM    8  C   UNL     1     -10.857  14.718  66.423  1.00  0.00    -0.322 A  
BRANCH   6   9
HETATM    9  N   UNL     1     -11.621  13.635  68.524  1.00  0.00    -0.312 N  
HETATM   10  C   UNL     1     -12.136  13.557  69.800  1.00  0.00    -0.318 C  
HETATM   11  H   UNL     1     -11.452  12.746  68.055  1.00  0.00     0.000 HD 
HETATM   12  O   UNL     1     -12.484  14.497  70.508  1.00  0.00    -0.310 OA 
BRANCH  10  13
HETATM   13  C   UNL     1     -12.223  12.194  70.405  1.00  0.00    -0.378 A  
HETATM   14  C   UNL     1     -11.489  11.174  69.786  1.00  0.00    -0.388 A  
HETATM   15  C   UNL     1     -12.968  11.897  71.549  1.00  0.00    -0.427 A  
HETATM   16  C   UNL     1     -11.571   9.856  70.245  1.00  0.00    -0.319 A  
HETATM   17  C   UNL     1     -13.001  10.580  72.042  1.00  0.00    -0.490 A  
HETATM   18  C   UNL     1     -12.353   9.537  71.365  1.00  0.00    -0.451 A  
BRANCH  18  19
HETATM   19  C   UNL     1     -12.458   8.085  71.787  1.00  0.00    -0.324 C  
HETATM   20  N   UNL     1     -13.647   7.575  71.953  1.00  0.00    -0.512 NA 
HETATM   21  H1  UNL     1     -13.718   6.598  72.237  1.00  0.00     0.000 HD 
HETATM   22  H2  UNL     1     -14.485   8.139  71.802  1.00  0.00     0.000 HD 
BRANCH  19  23
HETATM   23  N   UNL     1     -11.356   7.276  72.053  1.00  0.00    -0.252 NA 
HETATM   24  C   UNL     1     -10.456   7.397  73.187  1.00  0.00    -0.356 C  
HETATM   25  C   UNL     1     -10.937   6.254  71.088  1.00  0.00    -0.280 C  
ENDBRANCH  19  23
ENDBRANCH  18  19
ENDBRANCH  10  13
ENDBRANCH   6   9
BRANCH   8  26
HETATM   26  C   UNL     1     -10.759  13.361  65.758  1.00  0.00    -0.274 C  
HETATM   27  N   UNL     1      -9.520  12.900  65.323  1.00  0.00    -0.435 N  
HETATM   28  O   UNL     1     -11.810  12.727  65.635  1.00  0.00    -0.378 OA 
HETATM   29  H   UNL     1      -8.703  13.492  65.473  1.00  0.00     0.000 HD 
BRANCH  27  30
HETATM   30  C   UNL     1      -9.336  11.655  64.683  1.00  0.00     0.040 A  
HETATM   31  C   UNL     1      -8.840  10.589  65.428  1.00  0.00    -0.203 A  
HETATM   32  C   UNL     1      -8.910   9.221  63.447  1.00  0.00    -0.126 A  
HETATM   33  N   UNL     1      -9.628  11.517  63.376  1.00  0.00    -0.320 NA 
HETATM   34  C   UNL     1      -9.417  10.319  62.784  1.00  0.00    -0.290 A  
HETATM   35 CL   UNL     1      -8.643   7.739  62.623  1.00  0.00     0.077 Cl 
HETATM   36  C   UNL     1      -8.618   9.356  64.797  1.00  0.00    -0.202 A  
ENDBRANCH  27  30
ENDBRANCH   8  26
ENDBRANCH   2   3
TORSDOF 7
ENDMDL
MODEL       13
REMARK 921   NORMALIZED FREE ENERGY PREDICTED BY IDOCK:   -7.19 KCAL/MOL
REMARK 922        TOTAL FREE ENERGY PREDICTED BY IDOCK:  -10.86 KCAL/MOL
REMARK 923 INTER-LIGAND FREE ENERGY PREDICTED BY IDOCK:   -9.61 KCAL/MOL
REMARK 924 INTRA-LIGAND FREE ENERGY PREDICTED BY IDOCK:   -1.25 KCAL/MOL
REMARK 927      BINDING AFFINITY PREDICTED BY RF-SCORE:    0.00 PKD
ROOT
HETATM    1  C   UNL     1      -9.781   2.423  71.357  1.00  0.00    -0.147 C  
HETATM    2  O   UNL     1      -9.942   3.141  72.581  1.00  0.00    -0.135 OA 
ENDROOT
BRANCH   2   3
HETATM    3  C   UNL     1     -10.245   4.473  72.465  1.00  0.00    -0.186 A  
HETATM    4  C   UNL     1     -10.561   5.307  73.527  1.00  0.00    -0.313 A  
HETATM    5  C   UNL     1     -10.873   6.645  73.298  1.00  0.00    -0.290 A  
HETATM    6  C   UNL     1     -10.882   7.188  72.009  1.00  0.00    -0.222 A  
HETATM    7  C   UNL     1     -10.231   4.992  71.162  1.00  0.00    -0.281 A  
HETATM    8  C   UNL     1     -10.550   6.347  70.907  1.00  0.00    -0.285 A  
BRANCH   6   9
HETATM    9  N   UNL     1     -11.241   8.557  71.806  1.00  0.00    -0.286 N  
HETATM   10  C   UNL     1     -12.500   9.086  71.620  1.00  0.00    -0.351 C  
HETATM   11  H   UNL     1     -10.470   9.225  71.798  1.00  0.00     0.000 HD 
HETATM   12  O   UNL     1     -13.565   8.477  71.671  1.00  0.00    -0.355 OA 
BRANCH  10  13
HETATM   13  C   UNL     1     -12.572  10.533  71.258  1.00  0.00    -0.531 A  
HETATM   14  C   UNL     1     -11.902  10.934  70.095  1.00  0.00    -0.438 A  
HETATM   15  C   UNL     1     -13.279  11.485  71.998  1.00  0.00    -0.443 A  
HETATM   16  C   UNL     1     -11.859  12.281  69.725  1.00  0.00    -0.388 A  
HETATM   17  C   UNL     1     -13.282  12.830  71.588  1.00  0.00    -0.410 A  
HETATM   18  C   UNL     1     -12.527  13.253  70.484  1.00  0.00    -0.332 A  
BRANCH  18  19
HETATM   19  C   UNL     1     -12.400  14.708  70.076  1.00  0.00    -0.315 C  
HETATM   20  N   UNL     1     -13.338  15.536  70.446  1.00  0.00    -0.779 NA 
HETATM   21  H1  UNL     1     -13.253  16.514  70.171  1.00  0.00     0.000 HD 
HETATM   22  H2  UNL     1     -14.135  15.213  70.996  1.00  0.00     0.000 HD 
BRANCH  19  23
HETATM   23  N   UNL     1     -11.363  15.201  69.289  1.00  0.00    -0.281 NA 
HETATM   24  C   UNL     1     -11.356  15.298  67.839  1.00  0.00    -0.334 C  
HETATM   25  C   UNL     1     -10.084  15.577  69.900  1.00  0.00    -0.272 C  
ENDBRANCH  19  23
ENDBRANCH  18  19
ENDBRANCH  10  13
ENDBRANCH   6   9
BRANCH   8  26
HETATM   26  C   UNL     1     -10.554   6.916  69.503  1.00  0.00    -0.236 C  
HETATM   27  N   UNL     1      -9.573   7.832  69.134  1.00  0.00    -0.155 N  
HETATM   28  O   UNL     1     -11.450   6.527  68.751  1.00  0.00    -0.241 OA 
HETATM   29  H   UNL     1      -8.868   8.091  69.824  1.00  0.00     0.000 HD 
BRANCH  27  30
HETATM   30  C   UNL     1      -9.506   8.422  67.854  1.00  0.00    -0.146 A  
HETATM   31  C   UNL     1     -10.418   9.423  67.531  1.00  0.00    -0.343 A  
HETATM   32  C   UNL     1      -9.439   9.555  65.334  1.00  0.00    -0.269 A  
HETATM   33  N   UNL     1      -8.582   8.008  66.965  1.00  0.00    -0.125 NA 
HETATM   34  C   UNL     1      -8.559   8.573  65.737  1.00  0.00    -0.168 A  
HETATM   35 CL   UNL     1      -9.368  10.208  63.748  1.00  0.00    -0.319 Cl 
HETATM   36  C   UNL     1     -10.387   9.992  66.250  1.00  0.00    -0.235 A  
ENDBRANCH  27  30
ENDBRANCH   8  26
ENDBRANCH   2   3
TORSDOF 7
ENDMDL
MODEL       14
REMARK 921   NORMALIZED FREE ENERGY PREDICTED BY IDOCK:   -7.18 KCAL/MOL
REMARK 922        TOTAL FREE ENERGY PREDICTED BY IDOCK:  -10.86 KCAL/MOL
REMARK 923 INTER-LIGAND FREE ENERGY PREDICTED BY IDOCK:  -10.17 KCAL/MOL
REMARK 924 INTRA-LIGAND FREE ENERGY PREDICTED BY IDOCK:   -0.69 KCAL/MOL
REMARK 927      BINDING AFFINITY PREDICTED BY RF-SCORE:    0.00 PKD
ROOT
HETATM    1  C   UNL     1      -9.952  18.157  68.376  1.00  0.00    -0.380 C  
HETATM    2  O   UNL     1     -11.117  17.442  67.959  1.00  0.00    -0.259 OA 
ENDROOT
BRANCH   2   3
HETATM    3  C   UNL     1     -11.270  16.182  68.477  1.00  0.00    -0.365 A  
HETATM    4  C   UNL     1     -11.600  15.904  69.794  1.00  0.00    -0.340 A  
HETATM    5  C   UNL     1     -11.713  14.584  70.225  1.00  0.00    -0.356 A  
HETATM    6  C   UNL     1     -11.499  13.507  69.359  1.00  0.00    -0.282 A  
HETATM    7  C   UNL     1     -11.064  15.123  67.580  1.00  0.00    -0.318 A  
HETATM    8  C   UNL     1     -11.167  13.775  67.998  1.00  0.00    -0.293 A  
BRANCH   6   9
HETATM    9  N   UNL     1     -11.588  12.164  69.841  1.00  0.00    -0.492 N  
HETATM   10  C   UNL     1     -12.320  11.693  70.910  1.00  0.00    -0.336 C  
HETATM   11  H   UNL     1     -11.045  11.468  69.330  1.00  0.00     0.000 HD 
HETATM   12  O   UNL     1     -13.097  12.340  71.607  1.00  0.00    -0.409 OA 
BRANCH  10  13
HETATM   13  C   UNL     1     -12.097  10.269  71.299  1.00  0.00    -0.479 A  
HETATM   14  C   UNL     1     -10.839   9.721  71.020  1.00  0.00    -0.378 A  
HETATM   15  C   UNL     1     -13.057   9.477  71.935  1.00  0.00    -0.517 A  
HETATM   16  C   UNL     1     -10.571   8.375  71.285  1.00  0.00    -0.279 A  
HETATM   17  C   UNL     1     -12.763   8.139  72.253  1.00  0.00    -0.292 A  
HETATM   18  C   UNL     1     -11.542   7.557  71.881  1.00  0.00    -0.312 A  
BRANCH  18  19
HETATM   19  C   UNL     1     -11.226   6.090  72.094  1.00  0.00    -0.291 C  
HETATM   20  N   UNL     1     -11.688   5.508  73.166  1.00  0.00    -0.527 NA 
HETATM   21  H1  UNL     1     -11.475   4.521  73.309  1.00  0.00     0.000 HD 
HETATM   22  H2  UNL     1     -12.248   6.027  73.843  1.00  0.00     0.000 HD 
BRANCH  19  23
HETATM   23  N   UNL     1     -10.430   5.339  71.232  1.00  0.00    -0.223 NA 
HETATM   24  C   UNL     1     -10.333   5.503  69.791  1.00  0.00    -0.296 C  
HETATM   25  C   UNL     1      -9.674   4.188  71.735  1.00  0.00    -0.175 C  
ENDBRANCH  19  23
ENDBRANCH  18  19
ENDBRANCH  10  13
ENDBRANCH   6   9
BRANCH   8  26
HETATM   26  C   UNL     1     -10.931  12.623  67.043  1.00  0.00    -0.265 C  
HETATM   27  N   UNL     1      -9.723  12.541  66.357  1.00  0.00    -0.246 N  
HETATM   28  O   UNL     1     -11.846  11.806  66.924  1.00  0.00    -0.591 OA 
HETATM   29  H   UNL     1      -9.021  13.261  66.524  1.00  0.00     0.000 HD 
BRANCH  27  30
HETATM   30  C   UNL     1      -9.420  11.511  65.441  1.00  0.00    -0.198 A  
HETATM   31  C   UNL     1     -10.006  11.547  64.178  1.00  0.00    -0.327 A  
HETATM   32  C   UNL     1      -8.895   9.478  63.644  1.00  0.00    -0.210 A  
HETATM   33  N   UNL     1      -8.590  10.511  65.796  1.00  0.00    -0.167 NA 
HETATM   34  C   UNL     1      -8.340   9.525  64.905  1.00  0.00    -0.146 A  
HETATM   35 CL   UNL     1      -8.553   8.178  62.577  1.00  0.00    -0.062 Cl 
HETATM   36  C   UNL     1      -9.743  10.511  63.270  1.00  0.00    -0.361 A  
ENDBRANCH  27  30
ENDBRANCH   8  26
ENDBRANCH   2   3
TORSDOF 7
ENDMDL
MODEL       15
REMARK 921   NORMALIZED FREE ENERGY PREDICTED BY IDOCK:   -7.18 KCAL/MOL
REMARK 922        TOTAL FREE ENERGY PREDICTED BY IDOCK:  -10.85 KCAL/MOL
REMARK 923 INTER-LIGAND FREE ENERGY PREDICTED BY IDOCK:   -9.44 KCAL/MOL
REMARK 924 INTRA-LIGAND FREE ENERGY PREDICTED BY IDOCK:   -1.41 KCAL/MOL
REMARK 927      BINDING AFFINITY PREDICTED BY RF-SCORE:    0.00 PKD
ROOT
HETATM    1  C   UNL     1      -9.094   6.515  66.809  1.00  0.00    -0.144 C  
HETATM    2  O   UNL     1     -10.143   7.396  66.406  1.00  0.00    -0.143 OA 
ENDROOT
BRANCH   2   3
HETATM    3  C   UNL     1      -9.820   8.726  66.327  1.00  0.00    -0.272 A  
HETATM    4  C   UNL     1      -8.737   9.235  65.627  1.00  0.00    -0.193 A  
HETATM    5  C   UNL     1      -8.485  10.605  65.625  1.00  0.00    -0.180 A  
HETATM    6  C   UNL     1      -9.299  11.504  66.322  1.00  0.00    -0.213 A  
HETATM    7  C   UNL     1     -10.664   9.603  67.023  1.00  0.00    -0.225 A  
HETATM    8  C   UNL     1     -10.422  10.997  67.041  1.00  0.00    -0.284 A  
BRANCH   6   9
HETATM    9  N   UNL     1      -8.992  12.900  66.329  1.00  0.00    -0.439 N  
HETATM   10  C   UNL     1      -8.403  13.635  67.336  1.00  0.00    -0.192 C  
HETATM   11  H   UNL     1      -9.239  13.416  65.485  1.00  0.00     0.000 HD 
HETATM   12  O   UNL     1      -7.960  13.200  68.396  1.00  0.00    -0.136 OA 
BRANCH  10  13
HETATM   13  C   UNL     1      -8.354  15.115  67.145  1.00  0.00    -0.247 A  
HETATM   14  C   UNL     1      -9.417  15.703  66.446  1.00  0.00    -0.321 A  
HETATM   15  C   UNL     1      -7.332  15.929  67.638  1.00  0.00    -0.180 A  
HETATM   16  C   UNL     1      -9.413  17.071  66.162  1.00  0.00    -0.253 A  
HETATM   17  C   UNL     1      -7.362  17.315  67.399  1.00  0.00    -0.185 A  
HETATM   18  C   UNL     1      -8.369  17.892  66.611  1.00  0.00    -0.286 A  
BRANCH  18  19
HETATM   19  C   UNL     1      -8.379  19.358  66.225  1.00  0.00    -0.336 C  
HETATM   20  N   UNL     1      -9.490  19.867  65.768  1.00  0.00    -0.455 NA 
HETATM   21  H1  UNL     1      -9.497  20.853  65.507  1.00  0.00     0.000 HD 
HETATM   22  H2  UNL     1     -10.328  19.294  65.672  1.00  0.00     0.000 HD 
BRANCH  19  23
HETATM   23  N   UNL     1      -7.257  20.181  66.289  1.00  0.00    -0.274 NA 
HETATM   24  C   UNL     1      -6.830  20.964  67.436  1.00  0.00    -0.375 C  
HETATM   25  C   UNL     1      -6.442  20.416  65.092  1.00  0.00    -0.284 C  
ENDBRANCH  19  23
ENDBRANCH  18  19
ENDBRANCH  10  13
ENDBRANCH   6   9
BRANCH   8  26
HETATM   26  C   UNL     1     -11.317  11.954  67.802  1.00  0.00    -0.292 C  
HETATM   27  N   UNL     1     -11.057  12.210  69.145  1.00  0.00    -0.335 N  
HETATM   28  O   UNL     1     -12.248  12.460  67.173  1.00  0.00    -0.492 OA 
HETATM   29  H   UNL     1     -10.259  11.749  69.581  1.00  0.00     0.000 HD 
BRANCH  27  30
HETATM   30  C   UNL     1     -11.843  13.076  69.935  1.00  0.00    -0.307 A  
HETATM   31  C   UNL     1     -11.808  14.442  69.666  1.00  0.00    -0.372 A  
HETATM   32  C   UNL     1     -13.326  14.805  71.501  1.00  0.00    -0.374 A  
HETATM   33  N   UNL     1     -12.599  12.582  70.935  1.00  0.00    -0.304 NA 
HETATM   34  C   UNL     1     -13.322  13.439  71.691  1.00  0.00    -0.338 A  
HETATM   35 CL   UNL     1     -14.247  15.834  72.519  1.00  0.00    -0.558 Cl 
HETATM   36  C   UNL     1     -12.556  15.318  70.466  1.00  0.00    -0.450 A  
ENDBRANCH  27  30
ENDBRANCH   8  26
ENDBRANCH   2   3
TORSDOF 7
ENDMDL
MODEL       16
REMARK 921   NORMALIZED FREE ENERGY PREDICTED BY IDOCK:   -7.10 KCAL/MOL
REMARK 922        TOTAL FREE ENERGY PREDICTED BY IDOCK:  -10.73 KCAL/MOL
REMARK 923 INTER-LIGAND FREE ENERGY PREDICTED BY IDOCK:   -9.94 KCAL/MOL
REMARK 924 INTRA-LIGAND FREE ENERGY PREDICTED BY IDOCK:   -0.80 KCAL/MOL
REMARK 927      BINDING AFFINITY PREDICTED BY RF-SCORE:    0.00 PKD
ROOT
HETATM    1  C   UNL     1     -13.579  15.763  73.033  1.00  0.00    -0.555 C  
HETATM    2  O   UNL     1     -13.491  15.395  71.655  1.00  0.00    -0.437 OA 
ENDROOT
BRANCH   2   3
HETATM    3  C   UNL     1     -13.175  14.086  71.398  1.00  0.00    -0.334 A  
HETATM    4  C   UNL     1     -13.524  13.015  72.206  1.00  0.00    -0.645 A  
HETATM    5  C   UNL     1     -13.136  11.722  71.863  1.00  0.00    -0.482 A  
HETATM    6  C   UNL     1     -12.388  11.460  70.711  1.00  0.00    -0.386 A  
HETATM    7  C   UNL     1     -12.438  13.854  70.228  1.00  0.00    -0.380 A  
HETATM    8  C   UNL     1     -12.027  12.549  69.864  1.00  0.00    -0.371 A  
BRANCH   6   9
HETATM    9  N   UNL     1     -11.975  10.126  70.406  1.00  0.00    -0.344 N  
HETATM   10  C   UNL     1     -11.998   9.021  71.230  1.00  0.00    -0.312 C  
HETATM   11  H   UNL     1     -11.621   9.972  69.462  1.00  0.00     0.000 HD 
HETATM   12  O   UNL     1     -12.454   8.967  72.369  1.00  0.00    -0.375 OA 
BRANCH  10  13
HETATM   13  C   UNL     1     -11.346   7.782  70.708  1.00  0.00    -0.291 A  
HETATM   14  C   UNL     1     -10.543   7.916  69.569  1.00  0.00    -0.220 A  
HETATM   15  C   UNL     1     -11.480   6.525  71.302  1.00  0.00    -0.371 A  
HETATM   16  C   UNL     1      -9.956   6.796  68.974  1.00  0.00    -0.161 A  
HETATM   17  C   UNL     1     -10.839   5.410  70.734  1.00  0.00    -0.190 A  
HETATM   18  C   UNL     1     -10.120   5.521  69.535  1.00  0.00    -0.305 A  
BRANCH  18  19
HETATM   19  C   UNL     1      -9.514   4.329  68.820  1.00  0.00    -0.164 C  
HETATM   20  N   UNL     1      -9.390   3.211  69.480  1.00  0.00    -0.162 NA 
HETATM   21  H1  UNL     1      -8.981   2.410  68.999  1.00  0.00     0.000 HD 
HETATM   22  H2  UNL     1      -9.693   3.140  70.452  1.00  0.00     0.000 HD 
BRANCH  19  23
HETATM   23  N   UNL     1      -9.040   4.374  67.511  1.00  0.00    -0.121 NA 
HETATM   24  C   UNL     1      -9.846   4.330  66.303  1.00  0.00    -0.220 C  
HETATM   25  C   UNL     1      -7.597   4.356  67.244  1.00  0.00    -0.081 C  
ENDBRANCH  19  23
ENDBRANCH  18  19
ENDBRANCH  10  13
ENDBRANCH   6   9
BRANCH   8  26
HETATM   26  C   UNL     1     -11.217  12.288  68.611  1.00  0.00    -0.259 C  
HETATM   27  N   UNL     1     -11.869  12.181  67.385  1.00  0.00    -0.298 N  
HETATM   28  O   UNL     1      -9.998  12.179  68.753  1.00  0.00    -0.165 OA 
HETATM   29  H   UNL     1     -12.882  12.291  67.364  1.00  0.00     0.000 HD 
BRANCH  27  30
HETATM   30  C   UNL     1     -11.197  11.926  66.170  1.00  0.00    -0.333 A  
HETATM   31  C   UNL     1     -10.587  10.688  65.991  1.00  0.00    -0.195 A  
HETATM   32  C   UNL     1      -9.824  11.419  63.826  1.00  0.00    -0.319 A  
HETATM   33  N   UNL     1     -11.144  12.875  65.215  1.00  0.00    -0.280 NA 
HETATM   34  C   UNL     1     -10.471  12.612  64.072  1.00  0.00    -0.416 A  
HETATM   35 CL   UNL     1      -8.965  11.166  62.362  1.00  0.00    -0.359 Cl 
HETATM   36  C   UNL     1      -9.885  10.435  64.804  1.00  0.00    -0.406 A  
ENDBRANCH  27  30
ENDBRANCH   8  26
ENDBRANCH   2   3
TORSDOF 7
ENDMDL
MODEL       17
REMARK 921   NORMALIZED FREE ENERGY PREDICTED BY IDOCK:   -7.09 KCAL/MOL
REMARK 922        TOTAL FREE ENERGY PREDICTED BY IDOCK:  -10.73 KCAL/MOL
REMARK 923 INTER-LIGAND FREE ENERGY PREDICTED BY IDOCK:   -9.31 KCAL/MOL
REMARK 924 INTRA-LIGAND FREE ENERGY PREDICTED BY IDOCK:   -1.42 KCAL/MOL
REMARK 927      BINDING AFFINITY PREDICTED BY RF-SCORE:    0.00 PKD
ROOT
HETATM    1  C   UNL     1     -10.002  20.501  67.807  1.00  0.00    -0.269 C  
HETATM    2  O   UNL     1     -10.904  19.411  68.006  1.00  0.00    -0.327 OA 
ENDROOT
BRANCH   2   3
HETATM    3  C   UNL     1     -10.560  18.225  67.411  1.00  0.00    -0.401 A  
HETATM    4  C   UNL     1     -10.120  18.096  66.102  1.00  0.00    -0.338 A  
HETATM    5  C   UNL     1      -9.813  16.838  65.587  1.00  0.00    -0.111 A  
HETATM    6  C   UNL     1      -9.938  15.677  66.357  1.00  0.00    -0.281 A  
HETATM    7  C   UNL     1     -10.681  17.080  68.213  1.00  0.00    -0.372 A  
HETATM    8  C   UNL     1     -10.380  15.793  67.707  1.00  0.00    -0.275 A  
BRANCH   6   9
HETATM    9  N   UNL     1      -9.648  14.399  65.787  1.00  0.00    -0.512 N  
HETATM   10  C   UNL     1     -10.505  13.557  65.110  1.00  0.00    -0.364 C  
HETATM   11  H   UNL     1      -8.689  14.068  65.894  1.00  0.00     0.000 HD 
HETATM   12  O   UNL     1     -11.670  13.792  64.804  1.00  0.00    -0.349 OA 
BRANCH  10  13
HETATM   13  C   UNL     1      -9.981  12.201  64.769  1.00  0.00    -0.224 A  
HETATM   14  C   UNL     1      -9.386  11.469  65.804  1.00  0.00    -0.238 A  
HETATM   15  C   UNL     1     -10.074  11.629  63.497  1.00  0.00    -0.455 A  
HETATM   16  C   UNL     1      -8.806  10.222  65.554  1.00  0.00    -0.191 A  
HETATM   17  C   UNL     1      -9.540  10.349  63.264  1.00  0.00    -0.353 A  
HETATM   18  C   UNL     1      -8.852   9.657  64.270  1.00  0.00    -0.260 A  
BRANCH  18  19
HETATM   19  C   UNL     1      -8.156   8.330  64.036  1.00  0.00    -0.128 C  
HETATM   20  N   UNL     1      -8.456   7.659  62.959  1.00  0.00    -0.374 NA 
HETATM   21  H1  UNL     1      -7.989   6.766  62.801  1.00  0.00     0.000 HD 
HETATM   22  H2  UNL     1      -9.141   8.016  62.292  1.00  0.00     0.000 HD 
BRANCH  19  23
HETATM   23  N   UNL     1      -7.248   7.766  64.929  1.00  0.00    -0.063 NA 
HETATM   24  C   UNL     1      -5.834   8.082  65.030  1.00  0.00    -0.045 C  
HETATM   25  C   UNL     1      -7.659   6.666  65.808  1.00  0.00    -0.085 C  
ENDBRANCH  19  23
ENDBRANCH  18  19
ENDBRANCH  10  13
ENDBRANCH   6   9
BRANCH   8  26
HETATM   26  C   UNL     1     -10.523  14.548  68.558  1.00  0.00    -0.250 C  
HETATM   27  N   UNL     1     -11.794  14.088  68.890  1.00  0.00    -0.336 N  
HETATM   28  O   UNL     1      -9.478  14.002  68.920  1.00  0.00    -0.124 OA 
HETATM   29  H   UNL     1     -12.602  14.603  68.539  1.00  0.00     0.000 HD 
BRANCH  27  30
HETATM   30  C   UNL     1     -12.021  12.945  69.686  1.00  0.00    -0.292 A  
HETATM   31  C   UNL     1     -11.644  11.700  69.191  1.00  0.00    -0.378 A  
HETATM   32  C   UNL     1     -12.507  10.682  71.196  1.00  0.00    -0.418 A  
HETATM   33  N   UNL     1     -12.604  13.068  70.895  1.00  0.00    -0.323 NA 
HETATM   34  C   UNL     1     -12.832  11.952  71.624  1.00  0.00    -0.312 A  
HETATM   35 CL   UNL     1     -12.852   9.309  72.165  1.00  0.00    -0.471 Cl 
HETATM   36  C   UNL     1     -11.897  10.552  69.956  1.00  0.00    -0.388 A  
ENDBRANCH  27  30
ENDBRANCH   8  26
ENDBRANCH   2   3
TORSDOF 7
ENDMDL
MODEL       18
REMARK 921   NORMALIZED FREE ENERGY PREDICTED BY IDOCK:   -7.02 KCAL/MOL
REMARK 922        TOTAL FREE ENERGY PREDICTED BY IDOCK:  -10.63 KCAL/MOL
REMARK 923 INTER-LIGAND FREE ENERGY PREDICTED BY IDOCK:   -9.94 KCAL/MOL
REMARK 924 INTRA-LIGAND FREE ENERGY PREDICTED BY IDOCK:   -0.69 KCAL/MOL
REMARK 927      BINDING AFFINITY PREDICTED BY RF-SCORE:    0.00 PKD
ROOT
HETATM    1  C   UNL     1     -13.435  15.961  72.884  1.00  0.00    -0.554 C  
HETATM    2  O   UNL     1     -13.384  15.487  71.537  1.00  0.00    -0.473 OA 
ENDROOT
BRANCH   2   3
HETATM    3  C   UNL     1     -13.107  14.155  71.375  1.00  0.00    -0.358 A  
HETATM    4  C   UNL     1     -13.481  13.156  72.262  1.00  0.00    -0.665 A  
HETATM    5  C   UNL     1     -13.132  11.831  72.012  1.00  0.00    -0.436 A  
HETATM    6  C   UNL     1     -12.402  11.463  70.877  1.00  0.00    -0.381 A  
HETATM    7  C   UNL     1     -12.387  13.816  70.220  1.00  0.00    -0.407 A  
HETATM    8  C   UNL     1     -12.017  12.477  69.951  1.00  0.00    -0.371 A  
BRANCH   6   9
HETATM    9  N   UNL     1     -12.030  10.099  70.669  1.00  0.00    -0.309 N  
HETATM   10  C   UNL     1     -12.609   8.969  71.208  1.00  0.00    -0.280 C  
HETATM   11  H   UNL     1     -11.240   9.941  70.044  1.00  0.00     0.000 HD 
HETATM   12  O   UNL     1     -13.611   8.928  71.916  1.00  0.00    -0.373 OA 
BRANCH  10  13
HETATM   13  C   UNL     1     -11.911   7.673  70.956  1.00  0.00    -0.296 A  
HETATM   14  C   UNL     1     -11.592   6.893  72.074  1.00  0.00    -0.322 A  
HETATM   15  C   UNL     1     -11.587   7.201  69.682  1.00  0.00     0.030 A  
HETATM   16  C   UNL     1     -10.875   5.702  71.932  1.00  0.00    -0.302 A  
HETATM   17  C   UNL     1     -10.917   5.972  69.540  1.00  0.00    -0.467 A  
HETATM   18  C   UNL     1     -10.503   5.239  70.661  1.00  0.00    -0.306 A  
BRANCH  18  19
HETATM   19  C   UNL     1      -9.674   3.973  70.563  1.00  0.00    -0.188 C  
HETATM   20  N   UNL     1      -9.762   3.102  71.530  1.00  0.00    -0.157 NA 
HETATM   21  H1  UNL     1      -9.204   2.251  71.464  1.00  0.00     0.000 HD 
HETATM   22  H2  UNL     1     -10.372   3.268  72.330  1.00  0.00     0.000 HD 
BRANCH  19  23
HETATM   23  N   UNL     1      -8.789   3.708  69.520  1.00  0.00    -0.085 NA 
HETATM   24  C   UNL     1      -9.002   2.771  68.430  1.00  0.00    -0.145 C  
HETATM   25  C   UNL     1      -7.453   4.314  69.510  1.00  0.00    -0.054 C  
ENDBRANCH  19  23
ENDBRANCH  18  19
ENDBRANCH  10  13
ENDBRANCH   6   9
BRANCH   8  26
HETATM   26  C   UNL     1     -11.225  12.100  68.716  1.00  0.00    -0.264 C  
HETATM   27  N   UNL     1     -11.762  12.351  67.456  1.00  0.00    -0.368 N  
HETATM   28  O   UNL     1     -10.125  11.577  68.901  1.00  0.00    -0.199 OA 
HETATM   29  H   UNL     1     -12.679  12.794  67.400  1.00  0.00     0.000 HD 
BRANCH  27  30
HETATM   30  C   UNL     1     -11.102  12.024  66.252  1.00  0.00    -0.317 A  
HETATM   31  C   UNL     1     -10.942  13.014  65.287  1.00  0.00    -0.307 A  
HETATM   32  C   UNL     1      -9.865  11.399  63.861  1.00  0.00    -0.300 A  
HETATM   33  N   UNL     1     -10.650  10.771  66.047  1.00  0.00    -0.198 NA 
HETATM   34  C   UNL     1     -10.044  10.481  64.874  1.00  0.00    -0.333 A  
HETATM   35 CL   UNL     1      -9.111  10.951  62.386  1.00  0.00    -0.338 Cl 
HETATM   36  C   UNL     1     -10.320  12.694  64.072  1.00  0.00    -0.414 A  
ENDBRANCH  27  30
ENDBRANCH   8  26
ENDBRANCH   2   3
TORSDOF 7
ENDMDL
MODEL       19
REMARK 921   NORMALIZED FREE ENERGY PREDICTED BY IDOCK:   -6.98 KCAL/MOL
REMARK 922        TOTAL FREE ENERGY PREDICTED BY IDOCK:  -10.57 KCAL/MOL
REMARK 923 INTER-LIGAND FREE ENERGY PREDICTED BY IDOCK:   -9.21 KCAL/MOL
REMARK 924 INTRA-LIGAND FREE ENERGY PREDICTED BY IDOCK:   -1.36 KCAL/MOL
REMARK 927      BINDING AFFINITY PREDICTED BY RF-SCORE:    0.00 PKD
ROOT
HETATM    1  C   UNL     1     -11.580   5.749  72.946  1.00  0.00    -0.158 C  
HETATM    2  O   UNL     1     -12.407   6.304  71.922  1.00  0.00    -0.312 OA 
ENDROOT
BRANCH   2   3
HETATM    3  C   UNL     1     -12.155   7.608  71.582  1.00  0.00    -0.306 A  
HETATM    4  C   UNL     1     -12.655   8.712  72.256  1.00  0.00    -0.457 A  
HETATM    5  C   UNL     1     -12.352   9.998  71.816  1.00  0.00    -0.434 A  
HETATM    6  C   UNL     1     -11.548  10.222  70.694  1.00  0.00    -0.347 A  
HETATM    7  C   UNL     1     -11.333   7.800  70.462  1.00  0.00    -0.253 A  
HETATM    8  C   UNL     1     -11.018   9.098  69.994  1.00  0.00    -0.240 A  
BRANCH   6   9
HETATM    9  N   UNL     1     -11.286  11.554  70.248  1.00  0.00    -0.437 N  
HETATM   10  C   UNL     1     -11.684  12.149  69.069  1.00  0.00    -0.322 C  
HETATM   11  H   UNL     1     -10.736  12.137  70.879  1.00  0.00     0.000 HD 
HETATM   12  O   UNL     1     -12.411  11.657  68.211  1.00  0.00    -0.420 OA 
BRANCH  10  13
HETATM   13  C   UNL     1     -11.124  13.503  68.780  1.00  0.00    -0.298 A  
HETATM   14  C   UNL     1     -11.582  14.564  69.571  1.00  0.00    -0.350 A  
HETATM   15  C   UNL     1     -10.170  13.754  67.792  1.00  0.00    -0.241 A  
HETATM   16  C   UNL     1     -11.164  15.874  69.320  1.00  0.00    -0.335 A  
HETATM   17  C   UNL     1      -9.708  15.066  67.581  1.00  0.00    -0.215 A  
HETATM   18  C   UNL     1     -10.240  16.146  68.299  1.00  0.00    -0.248 A  
BRANCH  18  19
HETATM   19  C   UNL     1      -9.864  17.589  68.026  1.00  0.00    -0.299 C  
HETATM   20  N   UNL     1     -10.769  18.375  67.513  1.00  0.00    -0.414 NA 
HETATM   21  H1  UNL     1     -10.516  19.346  67.328  1.00  0.00     0.000 HD 
HETATM   22  H2  UNL     1     -11.705  18.029  67.302  1.00  0.00     0.000 HD 
BRANCH  19  23
HETATM   23  N   UNL     1      -8.591  18.111  68.249  1.00  0.00    -0.281 NA 
HETATM   24  C   UNL     1      -7.476  17.418  68.871  1.00  0.00    -0.235 C  
HETATM   25  C   UNL     1      -8.306  19.518  67.952  1.00  0.00    -0.315 C  
ENDBRANCH  19  23
ENDBRANCH  18  19
ENDBRANCH  10  13
ENDBRANCH   6   9
BRANCH   8  26
HETATM   26  C   UNL     1     -10.145   9.318  68.776  1.00  0.00    -0.195 C  
HETATM   27  N   UNL     1     -10.677   9.108  67.507  1.00  0.00    -0.423 N  
HETATM   28  O   UNL     1      -8.984   9.676  68.984  1.00  0.00    -0.136 OA 
HETATM   29  H   UNL     1     -11.652   8.817  67.432  1.00  0.00     0.000 HD 
BRANCH  27  30
HETATM   30  C   UNL     1      -9.935   9.277  66.318  1.00  0.00    -0.286 A  
HETATM   31  C   UNL     1     -10.078  10.463  65.604  1.00  0.00    -0.337 A  
HETATM   32  C   UNL     1      -8.542   9.614  63.955  1.00  0.00    -0.200 A  
HETATM   33  N   UNL     1      -9.117   8.297  65.886  1.00  0.00    -0.174 NA 
HETATM   34  C   UNL     1      -8.439   8.478  64.729  1.00  0.00    -0.127 A  
HETATM   35 CL   UNL     1      -7.671   9.761  62.484  1.00  0.00    -0.120 Cl 
HETATM   36  C   UNL     1      -9.376  10.630  64.402  1.00  0.00    -0.291 A  
ENDBRANCH  27  30
ENDBRANCH   8  26
ENDBRANCH   2   3
TORSDOF 7
ENDMDL
MODEL       20
REMARK 921   NORMALIZED FREE ENERGY PREDICTED BY IDOCK:   -6.94 KCAL/MOL
REMARK 922        TOTAL FREE ENERGY PREDICTED BY IDOCK:  -10.51 KCAL/MOL
REMARK 923 INTER-LIGAND FREE ENERGY PREDICTED BY IDOCK:   -9.66 KCAL/MOL
REMARK 924 INTRA-LIGAND FREE ENERGY PREDICTED BY IDOCK:   -0.85 KCAL/MOL
REMARK 927      BINDING AFFINITY PREDICTED BY RF-SCORE:    0.00 PKD
ROOT
HETATM    1  C   UNL     1     -12.240  15.782  64.002  1.00  0.00     0.275 C  
HETATM    2  O   UNL     1     -12.369  14.406  63.643  1.00  0.00    -0.722 OA 
ENDROOT
BRANCH   2   3
HETATM    3  C   UNL     1     -11.906  13.496  64.558  1.00  0.00    -0.405 A  
HETATM    4  C   UNL     1     -11.524  12.197  64.259  1.00  0.00    -0.437 A  
HETATM    5  C   UNL     1     -11.084  11.345  65.269  1.00  0.00    -0.198 A  
HETATM    6  C   UNL     1     -11.015  11.760  66.603  1.00  0.00    -0.294 A  
HETATM    7  C   UNL     1     -11.833  13.947  65.885  1.00  0.00    -0.399 A  
HETATM    8  C   UNL     1     -11.396  13.096  66.927  1.00  0.00    -0.355 A  
BRANCH   6   9
HETATM    9  N   UNL     1     -10.593  10.850  67.621  1.00  0.00    -0.208 N  
HETATM   10  C   UNL     1     -11.295  10.434  68.733  1.00  0.00    -0.214 C  
HETATM   11  H   UNL     1      -9.657  10.460  67.512  1.00  0.00     0.000 HD 
HETATM   12  O   UNL     1     -12.456  10.718  69.013  1.00  0.00    -0.379 OA 
BRANCH  10  13
HETATM   13  C   UNL     1     -10.547   9.607  69.727  1.00  0.00    -0.267 A  
HETATM   14  C   UNL     1      -9.528   8.783  69.232  1.00  0.00    -0.161 A  
HETATM   15  C   UNL     1     -10.796   9.630  71.101  1.00  0.00    -0.404 A  
HETATM   16  C   UNL     1      -8.829   7.924  70.084  1.00  0.00    -0.144 A  
HETATM   17  C   UNL     1     -10.050   8.806  71.962  1.00  0.00    -0.397 A  
HETATM   18  C   UNL     1      -9.101   7.904  71.460  1.00  0.00    -0.169 A  
BRANCH  18  19
HETATM   19  C   UNL     1      -8.358   6.912  72.333  1.00  0.00    -0.111 C  
HETATM   20  N   UNL     1      -7.673   7.372  73.343  1.00  0.00    -0.093 NA 
HETATM   21  H1  UNL     1      -7.172   6.705  73.930  1.00  0.00     0.000 HD 
HETATM   22  H2  UNL     1      -7.637   8.372  73.540  1.00  0.00     0.000 HD 
BRANCH  19  23
HETATM   23  N   UNL     1      -8.329   5.541  72.091  1.00  0.00    -0.122 NA 
HETATM   24  C   UNL     1      -7.140   4.727  71.904  1.00  0.00    -0.062 C  
HETATM   25  C   UNL     1      -9.577   4.798  71.885  1.00  0.00    -0.152 C  
ENDBRANCH  19  23
ENDBRANCH  18  19
ENDBRANCH  10  13
ENDBRANCH   6   9
BRANCH   8  26
HETATM   26  C   UNL     1     -11.329  13.565  68.366  1.00  0.00    -0.292 C  
HETATM   27  N   UNL     1     -12.478  14.057  68.979  1.00  0.00    -0.442 N  
HETATM   28  O   UNL     1     -10.233  13.485  68.924  1.00  0.00    -0.177 OA 
HETATM   29  H   UNL     1     -13.343  14.080  68.439  1.00  0.00     0.000 HD 
BRANCH  27  30
HETATM   30  C   UNL     1     -12.506  14.527  70.310  1.00  0.00    -0.348 A  
HETATM   31  C   UNL     1     -11.821  15.699  70.619  1.00  0.00    -0.409 A  
HETATM   32  C   UNL     1     -12.493  15.441  72.918  1.00  0.00    -0.418 A  
HETATM   33  N   UNL     1     -13.176  13.840  71.255  1.00  0.00    -0.296 NA 
HETATM   34  C   UNL     1     -13.164  14.301  72.527  1.00  0.00    -0.490 A  
HETATM   35 CL   UNL     1     -12.499  15.950  74.557  1.00  0.00    -0.765 Cl 
HETATM   36  C   UNL     1     -11.810  16.157  71.944  1.00  0.00    -0.605 A  
ENDBRANCH  27  30
ENDBRANCH   8  26
ENDBRANCH   2   3
TORSDOF 7
ENDMDL
MODEL       21
REMARK 921   NORMALIZED FREE ENERGY PREDICTED BY IDOCK:   -6.91 KCAL/MOL
REMARK 922        TOTAL FREE ENERGY PREDICTED BY IDOCK:  -10.48 KCAL/MOL
REMARK 923 INTER-LIGAND FREE ENERGY PREDICTED BY IDOCK:   -9.57 KCAL/MOL
REMARK 924 INTRA-LIGAND FREE ENERGY PREDICTED BY IDOCK:   -0.91 KCAL/MOL
REMARK 927      BINDING AFFINITY PREDICTED BY RF-SCORE:    0.00 PKD
ROOT
HETATM    1  C   UNL     1     -12.115  15.836  63.964  1.00  0.00     0.206 C  
HETATM    2  O   UNL     1     -12.556  14.513  63.651  1.00  0.00    -0.798 OA 
ENDROOT
BRANCH   2   3
HETATM    3  C   UNL     1     -12.080  13.512  64.457  1.00  0.00    -0.416 A  
HETATM    4  C   UNL     1     -11.739  12.241  64.021  1.00  0.00    -0.506 A  
HETATM    5  C   UNL     1     -11.282  11.287  64.928  1.00  0.00    -0.107 A  
HETATM    6  C   UNL     1     -11.156  11.570  66.292  1.00  0.00    -0.263 A  
HETATM    7  C   UNL     1     -11.950  13.831  65.817  1.00  0.00    -0.423 A  
HETATM    8  C   UNL     1     -11.494  12.876  66.756  1.00  0.00    -0.391 A  
BRANCH   6   9
HETATM    9  N   UNL     1     -10.717  10.559  67.202  1.00  0.00    -0.268 N  
HETATM   10  C   UNL     1     -10.018   9.405  66.916  1.00  0.00    -0.229 C  
HETATM   11  H   UNL     1     -10.949  10.709  68.183  1.00  0.00     0.000 HD 
HETATM   12  O   UNL     1      -9.574   9.071  65.821  1.00  0.00    -0.256 OA 
BRANCH  10  13
HETATM   13  C   UNL     1      -9.837   8.436  68.038  1.00  0.00    -0.202 A  
HETATM   14  C   UNL     1     -10.810   7.439  68.182  1.00  0.00    -0.100 A  
HETATM   15  C   UNL     1      -8.755   8.463  68.920  1.00  0.00    -0.136 A  
HETATM   16  C   UNL     1     -10.755   6.537  69.248  1.00  0.00    -0.329 A  
HETATM   17  C   UNL     1      -8.673   7.516  69.958  1.00  0.00    -0.140 A  
HETATM   18  C   UNL     1      -9.697   6.582  70.168  1.00  0.00    -0.180 A  
BRANCH  18  19
HETATM   19  C   UNL     1      -9.714   5.622  71.342  1.00  0.00    -0.162 C  
HETATM   20  N   UNL     1      -8.916   4.591  71.306  1.00  0.00    -0.123 NA 
HETATM   21  H1  UNL     1      -8.927   3.945  72.095  1.00  0.00     0.000 HD 
HETATM   22  H2  UNL     1      -8.297   4.435  70.510  1.00  0.00     0.000 HD 
BRANCH  19  23
HETATM   23  N   UNL     1     -10.566   5.754  72.436  1.00  0.00    -0.211 NA 
HETATM   24  C   UNL     1     -11.214   4.671  73.155  1.00  0.00    -0.281 C  
HETATM   25  C   UNL     1     -10.981   7.084  72.895  1.00  0.00    -0.302 C  
ENDBRANCH  19  23
ENDBRANCH  18  19
ENDBRANCH  10  13
ENDBRANCH   6   9
BRANCH   8  26
HETATM   26  C   UNL     1     -11.365  13.203  68.230  1.00  0.00    -0.297 C  
HETATM   27  N   UNL     1     -12.388  13.899  68.868  1.00  0.00    -0.454 N  
HETATM   28  O   UNL     1     -10.334  12.827  68.792  1.00  0.00    -0.208 OA 
HETATM   29  H   UNL     1     -13.207  14.164  68.322  1.00  0.00     0.000 HD 
BRANCH  27  30
HETATM   30  C   UNL     1     -12.348  14.257  70.232  1.00  0.00    -0.354 A  
HETATM   31  C   UNL     1     -12.932  13.403  71.164  1.00  0.00    -0.314 A  
HETATM   32  C   UNL     1     -12.337  14.958  72.906  1.00  0.00    -0.328 A  
HETATM   33  N   UNL     1     -11.763  15.410  70.613  1.00  0.00    -0.306 NA 
HETATM   34  C   UNL     1     -11.763  15.738  71.925  1.00  0.00    -0.483 A  
HETATM   35 CL   UNL     1     -12.323  15.453  74.549  1.00  0.00    -0.777 Cl 
HETATM   36  C   UNL     1     -12.932  13.764  72.519  1.00  0.00    -0.431 A  
ENDBRANCH  27  30
ENDBRANCH   8  26
ENDBRANCH   2   3
TORSDOF 7
ENDMDL
MODEL       22
REMARK 921   NORMALIZED FREE ENERGY PREDICTED BY IDOCK:   -6.90 KCAL/MOL
REMARK 922        TOTAL FREE ENERGY PREDICTED BY IDOCK:  -10.46 KCAL/MOL
REMARK 923 INTER-LIGAND FREE ENERGY PREDICTED BY IDOCK:   -9.25 KCAL/MOL
REMARK 924 INTRA-LIGAND FREE ENERGY PREDICTED BY IDOCK:   -1.21 KCAL/MOL
REMARK 927      BINDING AFFINITY PREDICTED BY RF-SCORE:    0.00 PKD
ROOT
HETATM    1  C   UNL     1      -6.362   8.346  62.677  1.00  0.00    -0.088 C  
HETATM    2  O   UNL     1      -7.768   8.439  62.439  1.00  0.00    -0.117 OA 
ENDROOT
BRANCH   2   3
HETATM    3  C   UNL     1      -8.507   9.047  63.420  1.00  0.00    -0.173 A  
HETATM    4  C   UNL     1      -9.215  10.228  63.259  1.00  0.00    -0.321 A  
HETATM    5  C   UNL     1      -9.921  10.774  64.329  1.00  0.00    -0.403 A  
HETATM    6  C   UNL     1      -9.941  10.162  65.586  1.00  0.00    -0.279 A  
HETATM    7  C   UNL     1      -8.520   8.401  64.666  1.00  0.00    -0.094 A  
HETATM    8  C   UNL     1      -9.226   8.941  65.767  1.00  0.00    -0.283 A  
BRANCH   6   9
HETATM    9  N   UNL     1     -10.647  10.766  66.672  1.00  0.00    -0.246 N  
HETATM   10  C   UNL     1     -10.301  11.892  67.389  1.00  0.00    -0.207 C  
HETATM   11  H   UNL     1     -11.515  10.309  66.951  1.00  0.00     0.000 HD 
HETATM   12  O   UNL     1      -9.346  12.633  67.171  1.00  0.00    -0.197 OA 
BRANCH  10  13
HETATM   13  C   UNL     1     -11.134  12.206  68.587  1.00  0.00    -0.297 A  
HETATM   14  C   UNL     1     -11.345  13.559  68.881  1.00  0.00    -0.332 A  
HETATM   15  C   UNL     1     -11.719  11.234  69.403  1.00  0.00    -0.409 A  
HETATM   16  C   UNL     1     -12.052  13.940  70.024  1.00  0.00    -0.411 A  
HETATM   17  C   UNL     1     -12.480  11.623  70.521  1.00  0.00    -0.344 A  
HETATM   18  C   UNL     1     -12.606  12.973  70.877  1.00  0.00    -0.364 A  
BRANCH  18  19
HETATM   19  C   UNL     1     -13.312  13.435  72.137  1.00  0.00    -0.520 C  
HETATM   20  N   UNL     1     -14.026  12.566  72.797  1.00  0.00    -0.479 NA 
HETATM   21  H1  UNL     1     -14.502  12.876  73.644  1.00  0.00     0.000 HD 
HETATM   22  H2  UNL     1     -14.108  11.601  72.474  1.00  0.00     0.000 HD 
BRANCH  19  23
HETATM   23  N   UNL     1     -13.278  14.746  72.605  1.00  0.00    -0.418 NA 
HETATM   24  C   UNL     1     -12.369  15.278  73.606  1.00  0.00    -0.571 C  
HETATM   25  C   UNL     1     -14.292  15.714  72.172  1.00  0.00    -0.401 C  
ENDBRANCH  19  23
ENDBRANCH  18  19
ENDBRANCH  10  13
ENDBRANCH   6   9
BRANCH   8  26
HETATM   26  C   UNL     1      -9.235   8.262  67.121  1.00  0.00    -0.144 C  
HETATM   27  N   UNL     1     -10.425   7.737  67.615  1.00  0.00    -0.299 N  
HETATM   28  O   UNL     1      -8.160   8.215  67.723  1.00  0.00    -0.124 OA 
HETATM   29  H   UNL     1     -11.265   7.818  67.042  1.00  0.00     0.000 HD 
BRANCH  27  30
HETATM   30  C   UNL     1     -10.529   7.099  68.870  1.00  0.00    -0.207 A  
HETATM   31  C   UNL     1     -10.843   7.868  69.986  1.00  0.00    -0.238 A  
HETATM   32  C   UNL     1     -10.682   5.889  71.350  1.00  0.00    -0.260 A  
HETATM   33  N   UNL     1     -10.315   5.773  68.974  1.00  0.00    -0.219 NA 
HETATM   34  C   UNL     1     -10.396   5.194  70.194  1.00  0.00    -0.270 A  
HETATM   35 CL   UNL     1     -10.741   5.092  72.868  1.00  0.00    -0.275 Cl 
HETATM   36  C   UNL     1     -10.914   7.254  71.245  1.00  0.00    -0.264 A  
ENDBRANCH  27  30
ENDBRANCH   8  26
ENDBRANCH   2   3
TORSDOF 7
ENDMDL
MODEL       23
REMARK 921   NORMALIZED FREE ENERGY PREDICTED BY IDOCK:   -6.89 KCAL/MOL
REMARK 922        TOTAL FREE ENERGY PREDICTED BY IDOCK:  -10.44 KCAL/MOL
REMARK 923 INTER-LIGAND FREE ENERGY PREDICTED BY IDOCK:   -9.24 KCAL/MOL
REMARK 924 INTRA-LIGAND FREE ENERGY PREDICTED BY IDOCK:   -1.21 KCAL/MOL
REMARK 927      BINDING AFFINITY PREDICTED BY RF-SCORE:    0.00 PKD
ROOT
HETATM    1  C   UNL     1      -6.239  21.264  67.606  1.00  0.00    -0.343 C  
HETATM    2  O   UNL     1      -7.513  20.871  67.094  1.00  0.00    -0.339 OA 
ENDROOT
BRANCH   2   3
HETATM    3  C   UNL     1      -7.701  19.526  66.907  1.00  0.00    -0.254 A  
HETATM    4  C   UNL     1      -6.962  18.738  66.038  1.00  0.00    -0.302 A  
HETATM    5  C   UNL     1      -7.247  17.381  65.908  1.00  0.00    -0.147 A  
HETATM    6  C   UNL     1      -8.274  16.772  66.637  1.00  0.00    -0.261 A  
HETATM    7  C   UNL     1      -8.727  18.941  67.663  1.00  0.00    -0.312 A  
HETATM    8  C   UNL     1      -9.037  17.566  67.542  1.00  0.00    -0.234 A  
BRANCH   6   9
HETATM    9  N   UNL     1      -8.563  15.384  66.455  1.00  0.00    -0.407 N  
HETATM   10  C   UNL     1      -9.647  14.819  65.816  1.00  0.00    -0.254 C  
HETATM   11  H   UNL     1      -7.884  14.730  66.845  1.00  0.00     0.000 HD 
HETATM   12  O   UNL     1     -10.534  15.416  65.214  1.00  0.00    -0.367 OA 
BRANCH  10  13
HETATM   13  C   UNL     1      -9.788  13.336  65.921  1.00  0.00    -0.241 A  
HETATM   14  C   UNL     1      -8.926  12.674  66.804  1.00  0.00    -0.197 A  
HETATM   15  C   UNL     1     -10.734  12.593  65.209  1.00  0.00    -0.318 A  
HETATM   16  C   UNL     1      -8.943  11.280  66.909  1.00  0.00    -0.163 A  
HETATM   17  C   UNL     1     -10.786  11.196  65.362  1.00  0.00    -0.259 A  
HETATM   18  C   UNL     1      -9.857  10.519  66.165  1.00  0.00    -0.271 A  
BRANCH  18  19
HETATM   19  C   UNL     1      -9.796   9.008  66.267  1.00  0.00    -0.291 C  
HETATM   20  N   UNL     1      -9.119   8.356  65.363  1.00  0.00    -0.405 NA 
HETATM   21  H1  UNL     1      -9.078   7.339  65.431  1.00  0.00     0.000 HD 
HETATM   22  H2  UNL     1      -8.643   8.850  64.607  1.00  0.00     0.000 HD 
BRANCH  19  23
HETATM   23  N   UNL     1     -10.460   8.272  67.246  1.00  0.00    -0.299 NA 
HETATM   24  C   UNL     1     -11.160   7.015  67.048  1.00  0.00    -0.177 C  
HETATM   25  C   UNL     1     -10.600   8.805  68.605  1.00  0.00    -0.139 C  
ENDBRANCH  19  23
ENDBRANCH  18  19
ENDBRANCH  10  13
ENDBRANCH   6   9
BRANCH   8  26
HETATM   26  C   UNL     1     -10.154  16.926  68.341  1.00  0.00    -0.304 C  
HETATM   27  N   UNL     1      -9.841  16.011  69.342  1.00  0.00    -0.255 N  
HETATM   28  O   UNL     1     -11.305  17.258  68.049  1.00  0.00    -0.067 OA 
HETATM   29  H   UNL     1      -8.859  15.801  69.517  1.00  0.00     0.000 HD 
BRANCH  27  30
HETATM   30  C   UNL     1     -10.816  15.358  70.127  1.00  0.00    -0.309 A  
HETATM   31  C   UNL     1     -11.270  14.105  69.723  1.00  0.00    -0.205 A  
HETATM   32  C   UNL     1     -12.766  14.078  71.610  1.00  0.00    -0.339 A  
HETATM   33  N   UNL     1     -11.298  15.949  71.237  1.00  0.00    -0.389 NA 
HETATM   34  C   UNL     1     -12.250  15.310  71.955  1.00  0.00    -0.361 A  
HETATM   35 CL   UNL     1     -13.994  13.340  72.555  1.00  0.00    -0.602 Cl 
HETATM   36  C   UNL     1     -12.264  13.461  70.473  1.00  0.00    -0.425 A  
ENDBRANCH  27  30
ENDBRANCH   8  26
ENDBRANCH   2   3
TORSDOF 7
ENDMDL
MODEL       24
REMARK 921   NORMALIZED FREE ENERGY PREDICTED BY IDOCK:   -6.81 KCAL/MOL
REMARK 922        TOTAL FREE ENERGY PREDICTED BY IDOCK:  -10.32 KCAL/MOL
REMARK 923 INTER-LIGAND FREE ENERGY PREDICTED BY IDOCK:   -9.63 KCAL/MOL
REMARK 924 INTRA-LIGAND FREE ENERGY PREDICTED BY IDOCK:   -0.69 KCAL/MOL
REMARK 927      BINDING AFFINITY PREDICTED BY RF-SCORE:    0.00 PKD
ROOT
HETATM    1  C   UNL     1     -12.122  13.162  63.340  1.00  0.00    -0.486 C  
HETATM    2  O   UNL     1     -10.846  12.550  63.533  1.00  0.00    -0.440 OA 
ENDROOT
BRANCH   2   3
HETATM    3  C   UNL     1     -10.720  11.751  64.640  1.00  0.00    -0.310 A  
HETATM    4  C   UNL     1     -10.159  10.483  64.640  1.00  0.00    -0.408 A  
HETATM    5  C   UNL     1     -10.097   9.744  65.820  1.00  0.00    -0.308 A  
HETATM    6  C   UNL     1     -10.592  10.244  67.028  1.00  0.00    -0.239 A  
HETATM    7  C   UNL     1     -11.212  12.286  65.840  1.00  0.00    -0.381 A  
HETATM    8  C   UNL     1     -11.164  11.550  67.048  1.00  0.00    -0.365 A  
BRANCH   6   9
HETATM    9  N   UNL     1     -10.544   9.447  68.213  1.00  0.00    -0.299 N  
HETATM   10  C   UNL     1      -9.579   9.447  69.198  1.00  0.00    -0.163 C  
HETATM   11  H   UNL     1     -11.319   8.798  68.347  1.00  0.00     0.000 HD 
HETATM   12  O   UNL     1      -8.611  10.197  69.274  1.00  0.00    -0.151 OA 
BRANCH  10  13
HETATM   13  C   UNL     1      -9.690   8.387  70.244  1.00  0.00    -0.178 A  
HETATM   14  C   UNL     1     -10.000   7.091  69.810  1.00  0.00    -0.179 A  
HETATM   15  C   UNL     1      -9.483   8.615  71.607  1.00  0.00    -0.339 A  
HETATM   16  C   UNL     1     -10.192   6.057  70.729  1.00  0.00    -0.258 A  
HETATM   17  C   UNL     1      -9.621   7.557  72.524  1.00  0.00    -0.214 A  
HETATM   18  C   UNL     1     -10.033   6.284  72.104  1.00  0.00    -0.184 A  
BRANCH  18  19
HETATM   19  C   UNL     1     -10.312   5.146  73.066  1.00  0.00    -0.193 C  
HETATM   20  N   UNL     1     -11.258   5.303  73.950  1.00  0.00    -0.425 NA 
HETATM   21  H1  UNL     1     -11.446   4.537  74.597  1.00  0.00     0.000 HD 
HETATM   22  H2  UNL     1     -11.796   6.169  73.993  1.00  0.00     0.000 HD 
BRANCH  19  23
HETATM   23  N   UNL     1      -9.584   3.958  73.089  1.00  0.00    -0.112 NA 
HETATM   24  C   UNL     1      -8.162   3.828  73.352  1.00  0.00    -0.088 C  
HETATM   25  C   UNL     1     -10.223   2.691  72.716  1.00  0.00    -0.155 C  
ENDBRANCH  19  23
ENDBRANCH  18  19
ENDBRANCH  10  13
ENDBRANCH   6   9
BRANCH   8  26
HETATM   26  C   UNL     1     -11.707  12.111  68.346  1.00  0.00    -0.332 C  
HETATM   27  N   UNL     1     -11.365  13.405  68.728  1.00  0.00    -0.272 N  
HETATM   28  O   UNL     1     -12.436  11.369  69.008  1.00  0.00    -0.364 OA 
HETATM   29  H   UNL     1     -10.760  13.948  68.112  1.00  0.00     0.000 HD 
BRANCH  27  30
HETATM   30  C   UNL     1     -11.814  14.004  69.925  1.00  0.00    -0.329 A  
HETATM   31  C   UNL     1     -11.443  15.318  70.194  1.00  0.00    -0.319 A  
HETATM   32  C   UNL     1     -12.628  15.186  72.287  1.00  0.00    -0.344 A  
HETATM   33  N   UNL     1     -12.577  13.304  70.787  1.00  0.00    -0.315 NA 
HETATM   34  C   UNL     1     -12.970  13.896  71.938  1.00  0.00    -0.354 A  
HETATM   35 CL   UNL     1     -13.141  15.862  73.778  1.00  0.00    -0.605 Cl 
HETATM   36  C   UNL     1     -11.851  15.914  71.396  1.00  0.00    -0.524 A  
ENDBRANCH  27  30
ENDBRANCH   8  26
ENDBRANCH   2   3
TORSDOF 7
ENDMDL
MODEL       25
REMARK 921   NORMALIZED FREE ENERGY PREDICTED BY IDOCK:   -6.73 KCAL/MOL
REMARK 922        TOTAL FREE ENERGY PREDICTED BY IDOCK:  -10.22 KCAL/MOL
REMARK 923 INTER-LIGAND FREE ENERGY PREDICTED BY IDOCK:   -9.36 KCAL/MOL
REMARK 924 INTRA-LIGAND FREE ENERGY PREDICTED BY IDOCK:   -0.86 KCAL/MOL
REMARK 927      BINDING AFFINITY PREDICTED BY RF-SCORE:    0.00 PKD
ROOT
HETATM    1  C   UNL     1      -7.397  18.617  66.163  1.00  0.00    -0.259 C  
HETATM    2  O   UNL     1      -8.717  18.282  65.729  1.00  0.00    -0.453 OA 
ENDROOT
BRANCH   2   3
HETATM    3  C   UNL     1      -9.370  17.327  66.465  1.00  0.00    -0.264 A  
HETATM    4  C   UNL     1     -10.404  17.583  67.352  1.00  0.00    -0.351 A  
HETATM    5  C   UNL     1     -10.989  16.541  68.067  1.00  0.00    -0.320 A  
HETATM    6  C   UNL     1     -10.560  15.217  67.921  1.00  0.00    -0.260 A  
HETATM    7  C   UNL     1      -8.928  16.008  66.286  1.00  0.00    -0.380 A  
HETATM    8  C   UNL     1      -9.504  14.935  67.006  1.00  0.00    -0.239 A  
BRANCH   6   9
HETATM    9  N   UNL     1     -11.159  14.175  68.695  1.00  0.00    -0.251 N  
HETATM   10  C   UNL     1     -11.850  14.290  69.883  1.00  0.00    -0.322 C  
HETATM   11  H   UNL     1     -11.063  13.231  68.323  1.00  0.00     0.000 HD 
HETATM   12  O   UNL     1     -12.145  15.332  70.460  1.00  0.00    -0.300 OA 
BRANCH  10  13
HETATM   13  C   UNL     1     -12.222  13.016  70.567  1.00  0.00    -0.392 A  
HETATM   14  C   UNL     1     -11.645  11.837  70.077  1.00  0.00    -0.318 A  
HETATM   15  C   UNL     1     -13.084  12.946  71.664  1.00  0.00    -0.430 A  
HETATM   16  C   UNL     1     -11.995  10.595  70.613  1.00  0.00    -0.466 A  
HETATM   17  C   UNL     1     -13.388  11.698  72.238  1.00  0.00    -0.132 A  
HETATM   18  C   UNL     1     -12.896  10.507  71.685  1.00  0.00    -0.581 A  
BRANCH  18  19
HETATM   19  C   UNL     1     -13.291   9.134  72.192  1.00  0.00    -0.463 C  
HETATM   20  N   UNL     1     -14.411   9.018  72.850  1.00  0.00    -1.108 NA 
HETATM   21  H1  UNL     1     -14.676   8.094  73.191  1.00  0.00     0.000 HD 
HETATM   22  H2  UNL     1     -15.006   9.830  73.019  1.00  0.00     0.000 HD 
BRANCH  19  23
HETATM   23  N   UNL     1     -12.502   7.997  72.035  1.00  0.00    -0.318 NA 
HETATM   24  C   UNL     1     -11.153   7.810  72.541  1.00  0.00    -0.346 C  
HETATM   25  C   UNL     1     -12.966   6.883  71.201  1.00  0.00    -0.178 C  
ENDBRANCH  19  23
ENDBRANCH  18  19
ENDBRANCH  10  13
ENDBRANCH   6   9
BRANCH   8  26
HETATM   26  C   UNL     1      -9.024  13.509  66.833  1.00  0.00    -0.209 C  
HETATM   27  N   UNL     1      -8.002  13.028  67.647  1.00  0.00    -0.155 N  
HETATM   28  O   UNL     1      -9.579  12.840  65.959  1.00  0.00    -0.246 OA 
HETATM   29  H   UNL     1      -7.607  13.653  68.348  1.00  0.00     0.000 HD 
BRANCH  27  30
HETATM   30  C   UNL     1      -7.484  11.718  67.548  1.00  0.00    -0.131 A  
HETATM   31  C   UNL     1      -6.346  11.506  66.776  1.00  0.00    -0.134 A  
HETATM   32  C   UNL     1      -6.480   9.157  67.289  1.00  0.00    -0.060 A  
HETATM   33  N   UNL     1      -8.095  10.700  68.184  1.00  0.00    -0.111 NA 
HETATM   34  C   UNL     1      -7.591   9.452  68.051  1.00  0.00    -0.083 A  
HETATM   35 CL   UNL     1      -5.914   7.543  67.143  1.00  0.00    -0.044 Cl 
HETATM   36  C   UNL     1      -5.842  10.205  66.640  1.00  0.00    -0.055 A  
ENDBRANCH  27  30
ENDBRANCH   8  26
ENDBRANCH   2   3
TORSDOF 7
ENDMDL
MODEL       26
REMARK 921   NORMALIZED FREE ENERGY PREDICTED BY IDOCK:   -6.66 KCAL/MOL
REMARK 922        TOTAL FREE ENERGY PREDICTED BY IDOCK:  -10.12 KCAL/MOL
REMARK 923 INTER-LIGAND FREE ENERGY PREDICTED BY IDOCK:   -8.72 KCAL/MOL
REMARK 924 INTRA-LIGAND FREE ENERGY PREDICTED BY IDOCK:   -1.40 KCAL/MOL
REMARK 927      BINDING AFFINITY PREDICTED BY RF-SCORE:    0.00 PKD
ROOT
HETATM    1  C   UNL     1     -10.361  18.397  68.024  1.00  0.00    -0.384 C  
HETATM    2  O   UNL     1     -11.276  17.306  67.899  1.00  0.00    -0.177 OA 
ENDROOT
BRANCH   2   3
HETATM    3  C   UNL     1     -10.768  16.149  67.369  1.00  0.00    -0.291 A  
HETATM    4  C   UNL     1      -9.861  16.091  66.322  1.00  0.00    -0.331 A  
HETATM    5  C   UNL     1      -9.421  14.859  65.844  1.00  0.00    -0.290 A  
HETATM    6  C   UNL     1      -9.871  13.653  66.391  1.00  0.00    -0.296 A  
HETATM    7  C   UNL     1     -11.227  14.957  67.949  1.00  0.00    -0.324 A  
HETATM    8  C   UNL     1     -10.797  13.695  67.475  1.00  0.00    -0.275 A  
BRANCH   6   9
HETATM    9  N   UNL     1      -9.426  12.405  65.854  1.00  0.00    -0.397 N  
HETATM   10  C   UNL     1     -10.036  11.630  64.891  1.00  0.00    -0.260 C  
HETATM   11  H   UNL     1      -8.549  12.045  66.229  1.00  0.00     0.000 HD 
HETATM   12  O   UNL     1     -11.049  11.912  64.258  1.00  0.00    -0.316 OA 
BRANCH  10  13
HETATM   13  C   UNL     1      -9.440  10.284  64.638  1.00  0.00    -0.351 A  
HETATM   14  C   UNL     1      -9.443   9.375  65.704  1.00  0.00    -0.328 A  
HETATM   15  C   UNL     1      -8.908   9.888  63.409  1.00  0.00    -0.253 A  
HETATM   16  C   UNL     1      -8.841   8.120  65.574  1.00  0.00    -0.130 A  
HETATM   17  C   UNL     1      -8.355   8.603  63.265  1.00  0.00    -0.137 A  
HETATM   18  C   UNL     1      -8.262   7.728  64.357  1.00  0.00    -0.041 A  
BRANCH  18  19
HETATM   19  C   UNL     1      -7.568   6.383  64.284  1.00  0.00    -0.099 C  
HETATM   20  N   UNL     1      -6.316   6.314  64.644  1.00  0.00    -0.033 NA 
HETATM   21  H1  UNL     1      -5.849   5.409  64.594  1.00  0.00     0.000 HD 
HETATM   22  H2  UNL     1      -5.818   7.144  64.968  1.00  0.00     0.000 HD 
BRANCH  19  23
HETATM   23  N   UNL     1      -8.178   5.224  63.809  1.00  0.00    -0.120 NA 
HETATM   24  C   UNL     1      -8.892   4.241  64.606  1.00  0.00    -0.141 C  
HETATM   25  C   UNL     1      -8.037   4.836  62.401  1.00  0.00    -0.077 C  
ENDBRANCH  19  23
ENDBRANCH  18  19
ENDBRANCH  10  13
ENDBRANCH   6   9
BRANCH   8  26
HETATM   26  C   UNL     1     -11.298  12.401  68.082  1.00  0.00    -0.291 C  
HETATM   27  N   UNL     1     -10.786  11.977  69.305  1.00  0.00    -0.440 N  
HETATM   28  O   UNL     1     -12.149  11.781  67.441  1.00  0.00    -0.595 OA 
HETATM   29  H   UNL     1     -10.087  12.559  69.766  1.00  0.00     0.000 HD 
BRANCH  27  30
HETATM   30  C   UNL     1     -11.184  10.780  69.939  1.00  0.00    -0.300 A  
HETATM   31  C   UNL     1     -12.280  10.812  70.798  1.00  0.00    -0.480 A  
HETATM   32  C   UNL     1     -11.955   8.467  71.241  1.00  0.00    -0.294 A  
HETATM   33  N   UNL     1     -10.504   9.639  69.720  1.00  0.00    -0.221 NA 
HETATM   34  C   UNL     1     -10.894   8.514  70.362  1.00  0.00    -0.234 A  
HETATM   35 CL   UNL     1     -12.375   7.008  72.041  1.00  0.00    -0.331 Cl 
HETATM   36  C   UNL     1     -12.665   9.639  71.463  1.00  0.00    -0.480 A  
ENDBRANCH  27  30
ENDBRANCH   8  26
ENDBRANCH   2   3
TORSDOF 7
ENDMDL
MODEL       27
REMARK 921   NORMALIZED FREE ENERGY PREDICTED BY IDOCK:   -6.56 KCAL/MOL
REMARK 922        TOTAL FREE ENERGY PREDICTED BY IDOCK:   -9.97 KCAL/MOL
REMARK 923 INTER-LIGAND FREE ENERGY PREDICTED BY IDOCK:   -8.73 KCAL/MOL
REMARK 924 INTRA-LIGAND FREE ENERGY PREDICTED BY IDOCK:   -1.25 KCAL/MOL
REMARK 927      BINDING AFFINITY PREDICTED BY RF-SCORE:    0.00 PKD
ROOT
HETATM    1  C   UNL     1      -9.596   5.419  68.196  1.00  0.00    -0.124 C  
HETATM    2  O   UNL     1     -10.584   6.138  67.457  1.00  0.00    -0.205 OA 
ENDROOT
BRANCH   2   3
HETATM    3  C   UNL     1     -10.327   7.466  67.237  1.00  0.00    -0.286 A  
HETATM    4  C   UNL     1      -9.724   7.977  66.098  1.00  0.00    -0.116 A  
HETATM    5  C   UNL     1      -9.490   9.345  65.982  1.00  0.00    -0.304 A  
HETATM    6  C   UNL     1      -9.845  10.241  66.995  1.00  0.00    -0.193 A  
HETATM    7  C   UNL     1     -10.708   8.342  68.265  1.00  0.00    -0.076 A  
HETATM    8  C   UNL     1     -10.474   9.734  68.170  1.00  0.00    -0.258 A  
BRANCH   6   9
HETATM    9  N   UNL     1      -9.559  11.635  66.859  1.00  0.00    -0.184 N  
HETATM   10  C   UNL     1      -8.403  12.302  67.205  1.00  0.00    -0.182 C  
HETATM   11  H   UNL     1     -10.301  12.207  66.457  1.00  0.00     0.000 HD 
HETATM   12  O   UNL     1      -7.367  11.798  67.629  1.00  0.00    -0.103 OA 
BRANCH  10  13
HETATM   13  C   UNL     1      -8.436  13.792  67.113  1.00  0.00    -0.189 A  
HETATM   14  C   UNL     1      -9.575  14.370  66.538  1.00  0.00    -0.310 A  
HETATM   15  C   UNL     1      -7.415  14.623  67.582  1.00  0.00    -0.205 A  
HETATM   16  C   UNL     1      -9.655  15.752  66.349  1.00  0.00    -0.311 A  
HETATM   17  C   UNL     1      -7.527  16.018  67.442  1.00  0.00    -0.208 A  
HETATM   18  C   UNL     1      -8.617  16.594  66.774  1.00  0.00    -0.268 A  
BRANCH  18  19
HETATM   19  C   UNL     1      -8.723  18.080  66.491  1.00  0.00    -0.260 C  
HETATM   20  N   UNL     1      -7.698  18.680  65.953  1.00  0.00    -0.490 NA 
HETATM   21  H1  UNL     1      -7.770  19.680  65.764  1.00  0.00     0.000 HD 
HETATM   22  H2  UNL     1      -6.847  18.164  65.728  1.00  0.00     0.000 HD 
BRANCH  19  23
HETATM   23  N   UNL     1      -9.838  18.849  66.816  1.00  0.00    -0.329 NA 
HETATM   24  C   UNL     1     -10.778  19.439  65.878  1.00  0.00    -0.407 C  
HETATM   25  C   UNL     1     -10.093  19.233  68.208  1.00  0.00    -0.425 C  
ENDBRANCH  19  23
ENDBRANCH  18  19
ENDBRANCH  10  13
ENDBRANCH   6   9
BRANCH   8  26
HETATM   26  C   UNL     1     -10.866  10.687  69.280  1.00  0.00    -0.239 C  
HETATM   27  N   UNL     1     -11.676  11.781  68.987  1.00  0.00    -0.303 N  
HETATM   28  O   UNL     1     -10.433  10.434  70.406  1.00  0.00    -0.183 OA 
HETATM   29  H   UNL     1     -11.992  11.906  68.026  1.00  0.00     0.000 HD 
BRANCH  27  30
HETATM   30  C   UNL     1     -12.081  12.726  69.954  1.00  0.00    -0.259 A  
HETATM   31  C   UNL     1     -11.616  14.034  69.846  1.00  0.00    -0.320 A  
HETATM   32  C   UNL     1     -12.809  14.586  71.864  1.00  0.00    -0.338 A  
HETATM   33  N   UNL     1     -12.892  12.356  70.964  1.00  0.00    -0.223 NA 
HETATM   34  C   UNL     1     -13.243  13.277  71.890  1.00  0.00    -0.431 A  
HETATM   35 CL   UNL     1     -13.273  15.694  73.090  1.00  0.00    -0.628 Cl 
HETATM   36  C   UNL     1     -11.981  14.975  70.820  1.00  0.00    -0.371 A  
ENDBRANCH  27  30
ENDBRANCH   8  26
ENDBRANCH   2   3
TORSDOF 7
ENDMDL
MODEL       28
REMARK 921   NORMALIZED FREE ENERGY PREDICTED BY IDOCK:   -6.55 KCAL/MOL
REMARK 922        TOTAL FREE ENERGY PREDICTED BY IDOCK:   -9.97 KCAL/MOL
REMARK 923 INTER-LIGAND FREE ENERGY PREDICTED BY IDOCK:   -8.77 KCAL/MOL
REMARK 924 INTRA-LIGAND FREE ENERGY PREDICTED BY IDOCK:   -1.20 KCAL/MOL
REMARK 927      BINDING AFFINITY PREDICTED BY RF-SCORE:    0.00 PKD
ROOT
HETATM    1  C   UNL     1      -6.224   2.372  68.123  1.00  0.00    -0.025 C  
HETATM    2  O   UNL     1      -7.244   2.329  67.125  1.00  0.00    -0.054 OA 
ENDROOT
BRANCH   2   3
HETATM    3  C   UNL     1      -7.647   3.539  66.620  1.00  0.00    -0.080 A  
HETATM    4  C   UNL     1      -7.158   4.112  65.456  1.00  0.00    -0.063 A  
HETATM    5  C   UNL     1      -7.621   5.358  65.040  1.00  0.00    -0.080 A  
HETATM    6  C   UNL     1      -8.580   6.067  65.769  1.00  0.00    -0.155 A  
HETATM    7  C   UNL     1      -8.621   4.219  67.366  1.00  0.00    -0.107 A  
HETATM    8  C   UNL     1      -9.101   5.488  66.964  1.00  0.00    -0.112 A  
BRANCH   6   9
HETATM    9  N   UNL     1      -9.009   7.359  65.333  1.00  0.00    -0.376 N  
HETATM   10  C   UNL     1      -8.324   8.553  65.412  1.00  0.00    -0.156 C  
HETATM   11  H   UNL     1      -9.936   7.403  64.910  1.00  0.00     0.000 HD 
HETATM   12  O   UNL     1      -7.173   8.711  65.810  1.00  0.00    -0.078 OA 
BRANCH  10  13
HETATM   13  C   UNL     1      -9.078   9.785  65.034  1.00  0.00    -0.280 A  
HETATM   14  C   UNL     1      -9.704  10.492  66.069  1.00  0.00    -0.257 A  
HETATM   15  C   UNL     1      -9.171  10.269  63.727  1.00  0.00    -0.312 A  
HETATM   16  C   UNL     1     -10.490  11.614  65.793  1.00  0.00    -0.308 A  
HETATM   17  C   UNL     1      -9.915  11.433  63.462  1.00  0.00    -0.424 A  
HETATM   18  C   UNL     1     -10.629  12.084  64.479  1.00  0.00    -0.356 A  
BRANCH  18  19
HETATM   19  C   UNL     1     -11.540  13.268  64.223  1.00  0.00    -0.400 C  
HETATM   20  N   UNL     1     -12.230  13.288  63.116  1.00  0.00    -0.901 NA 
HETATM   21  H1  UNL     1     -12.842  14.085  62.944  1.00  0.00     0.000 HD 
HETATM   22  H2  UNL     1     -12.158  12.527  62.440  1.00  0.00     0.000 HD 
BRANCH  19  23
HETATM   23  N   UNL     1     -11.648  14.359  65.082  1.00  0.00    -0.347 NA 
HETATM   24  C   UNL     1     -10.998  15.648  64.920  1.00  0.00    -0.431 C  
HETATM   25  C   UNL     1     -12.383  14.237  66.346  1.00  0.00    -0.350 C  
ENDBRANCH  19  23
ENDBRANCH  18  19
ENDBRANCH  10  13
ENDBRANCH   6   9
BRANCH   8  26
HETATM   26  C   UNL     1     -10.140   6.240  67.769  1.00  0.00    -0.149 C  
HETATM   27  N   UNL     1      -9.921   6.469  69.125  1.00  0.00    -0.143 N  
HETATM   28  O   UNL     1     -11.147   6.614  67.163  1.00  0.00    -0.392 OA 
HETATM   29  H   UNL     1      -9.054   6.127  69.540  1.00  0.00     0.000 HD 
BRANCH  27  30
HETATM   30  C   UNL     1     -10.838   7.149  69.954  1.00  0.00    -0.254 A  
HETATM   31  C   UNL     1     -10.705   8.526  70.109  1.00  0.00    -0.240 A  
HETATM   32  C   UNL     1     -12.582   8.502  71.618  1.00  0.00    -0.333 A  
HETATM   33  N   UNL     1     -11.812   6.467  70.589  1.00  0.00    -0.379 NA 
HETATM   34  C   UNL     1     -12.660   7.143  71.397  1.00  0.00    -0.394 A  
HETATM   35 CL   UNL     1     -13.677   9.287  72.681  1.00  0.00    -0.464 Cl 
HETATM   36  C   UNL     1     -11.587   9.210  70.958  1.00  0.00    -0.370 A  
ENDBRANCH  27  30
ENDBRANCH   8  26
ENDBRANCH   2   3
TORSDOF 7
ENDMDL
MODEL       29
REMARK 921   NORMALIZED FREE ENERGY PREDICTED BY IDOCK:   -6.53 KCAL/MOL
REMARK 922        TOTAL FREE ENERGY PREDICTED BY IDOCK:   -9.94 KCAL/MOL
REMARK 923 INTER-LIGAND FREE ENERGY PREDICTED BY IDOCK:   -8.56 KCAL/MOL
REMARK 924 INTRA-LIGAND FREE ENERGY PREDICTED BY IDOCK:   -1.37 KCAL/MOL
REMARK 927      BINDING AFFINITY PREDICTED BY RF-SCORE:    0.00 PKD
ROOT
HETATM    1  C   UNL     1      -9.515   3.845  73.473  1.00  0.00    -0.106 C  
HETATM    2  O   UNL     1     -10.444   4.870  73.831  1.00  0.00    -0.216 OA 
ENDROOT
BRANCH   2   3
HETATM    3  C   UNL     1     -10.592   5.893  72.932  1.00  0.00    -0.235 A  
HETATM    4  C   UNL     1     -10.899   7.203  73.268  1.00  0.00    -0.378 A  
HETATM    5  C   UNL     1     -11.046   8.166  72.272  1.00  0.00    -0.410 A  
HETATM    6  C   UNL     1     -10.895   7.853  70.917  1.00  0.00    -0.234 A  
HETATM    7  C   UNL     1     -10.419   5.551  71.582  1.00  0.00    -0.292 A  
HETATM    8  C   UNL     1     -10.570   6.513  70.555  1.00  0.00    -0.282 A  
BRANCH   6   9
HETATM    9  N   UNL     1     -11.087   8.857  69.919  1.00  0.00    -0.392 N  
HETATM   10  C   UNL     1     -10.202   9.836  69.518  1.00  0.00    -0.221 C  
HETATM   11  H   UNL     1     -11.989   8.849  69.444  1.00  0.00     0.000 HD 
HETATM   12  O   UNL     1      -9.044   9.977  69.900  1.00  0.00    -0.213 OA 
BRANCH  10  13
HETATM   13  C   UNL     1     -10.726  10.865  68.571  1.00  0.00    -0.239 A  
HETATM   14  C   UNL     1     -10.535  10.629  67.203  1.00  0.00    -0.295 A  
HETATM   15  C   UNL     1     -11.402  12.019  68.973  1.00  0.00    -0.331 A  
HETATM   16  C   UNL     1     -10.930  11.575  66.253  1.00  0.00    -0.328 A  
HETATM   17  C   UNL     1     -11.850  12.941  68.010  1.00  0.00    -0.390 A  
HETATM   18  C   UNL     1     -11.569  12.760  66.648  1.00  0.00    -0.430 A  
BRANCH  18  19
HETATM   19  C   UNL     1     -11.924  13.782  65.586  1.00  0.00    -0.388 C  
HETATM   20  N   UNL     1     -13.009  13.595  64.888  1.00  0.00    -0.719 NA 
HETATM   21  H1  UNL     1     -13.248  14.282  64.173  1.00  0.00     0.000 HD 
HETATM   22  H2  UNL     1     -13.604  12.782  65.052  1.00  0.00     0.000 HD 
BRANCH  19  23
HETATM   23  N   UNL     1     -11.131  14.887  65.282  1.00  0.00    -0.358 NA 
HETATM   24  C   UNL     1      -9.813  15.173  65.822  1.00  0.00    -0.351 C  
HETATM   25  C   UNL     1     -11.652  15.960  64.428  1.00  0.00    -0.234 C  
ENDBRANCH  19  23
ENDBRANCH  18  19
ENDBRANCH  10  13
ENDBRANCH   6   9
BRANCH   8  26
HETATM   26  C   UNL     1     -10.402   6.152  69.093  1.00  0.00    -0.218 C  
HETATM   27  N   UNL     1      -9.242   5.506  68.677  1.00  0.00    -0.120 N  
HETATM   28  O   UNL     1     -11.325   6.462  68.337  1.00  0.00    -0.280 OA 
HETATM   29  H   UNL     1      -8.534   5.284  69.376  1.00  0.00     0.000 HD 
BRANCH  27  30
HETATM   30  C   UNL     1      -8.995   5.143  67.335  1.00  0.00    -0.109 A  
HETATM   31  C   UNL     1      -8.356   6.058  66.503  1.00  0.00    -0.113 A  
HETATM   32  C   UNL     1      -8.550   4.486  64.688  1.00  0.00    -0.139 A  
HETATM   33  N   UNL     1      -9.385   3.938  66.878  1.00  0.00    -0.175 NA 
HETATM   34  C   UNL     1      -9.158   3.629  65.581  1.00  0.00    -0.150 A  
HETATM   35 CL   UNL     1      -8.320   4.036  63.048  1.00  0.00    -0.085 Cl 
HETATM   36  C   UNL     1      -8.138   5.726  65.158  1.00  0.00    -0.133 A  
ENDBRANCH  27  30
ENDBRANCH   8  26
ENDBRANCH   2   3
TORSDOF 7
ENDMDL
MODEL       30
REMARK 921   NORMALIZED FREE ENERGY PREDICTED BY IDOCK:   -6.52 KCAL/MOL
REMARK 922        TOTAL FREE ENERGY PREDICTED BY IDOCK:   -9.92 KCAL/MOL
REMARK 923 INTER-LIGAND FREE ENERGY PREDICTED BY IDOCK:   -8.88 KCAL/MOL
REMARK 924 INTRA-LIGAND FREE ENERGY PREDICTED BY IDOCK:   -1.04 KCAL/MOL
REMARK 927      BINDING AFFINITY PREDICTED BY RF-SCORE:    0.00 PKD
ROOT
HETATM    1  C   UNL     1     -11.247  15.664  69.717  1.00  0.00    -0.321 C  
HETATM    2  O   UNL     1     -12.273  14.672  69.773  1.00  0.00    -0.313 OA 
ENDROOT
BRANCH   2   3
HETATM    3  C   UNL     1     -11.954  13.444  69.256  1.00  0.00    -0.317 A  
HETATM    4  C   UNL     1     -11.615  13.207  67.932  1.00  0.00    -0.375 A  
HETATM    5  C   UNL     1     -11.327  11.914  67.503  1.00  0.00    -0.381 A  
HETATM    6  C   UNL     1     -11.370  10.822  68.376  1.00  0.00    -0.302 A  
HETATM    7  C   UNL     1     -11.991  12.371  70.159  1.00  0.00    -0.376 A  
HETATM    8  C   UNL     1     -11.708  11.049  69.743  1.00  0.00    -0.410 A  
BRANCH   6   9
HETATM    9  N   UNL     1     -11.102   9.503  67.896  1.00  0.00    -0.515 N  
HETATM   10  C   UNL     1      -9.882   8.867  67.793  1.00  0.00    -0.166 C  
HETATM   11  H   UNL     1     -11.913   8.964  67.591  1.00  0.00     0.000 HD 
HETATM   12  O   UNL     1      -8.798   9.300  68.173  1.00  0.00    -0.128 OA 
BRANCH  10  13
HETATM   13  C   UNL     1      -9.871   7.547  67.095  1.00  0.00    -0.263 A  
HETATM   14  C   UNL     1      -8.786   7.283  66.249  1.00  0.00    -0.179 A  
HETATM   15  C   UNL     1     -10.859   6.574  67.257  1.00  0.00    -0.463 A  
HETATM   16  C   UNL     1      -8.734   6.103  65.503  1.00  0.00    -0.105 A  
HETATM   17  C   UNL     1     -10.773   5.362  66.548  1.00  0.00    -0.309 A  
HETATM   18  C   UNL     1      -9.745   5.137  65.622  1.00  0.00    -0.081 A  
BRANCH  18  19
HETATM   19  C   UNL     1      -9.675   3.901  64.746  1.00  0.00    -0.187 C  
HETATM   20  N   UNL     1     -10.793   3.392  64.308  1.00  0.00    -0.530 NA 
HETATM   21  H1  UNL     1     -10.746   2.561  63.719  1.00  0.00     0.000 HD 
HETATM   22  H2  UNL     1     -11.690   3.815  64.547  1.00  0.00     0.000 HD 
BRANCH  19  23
HETATM   23  N   UNL     1      -8.486   3.251  64.422  1.00  0.00    -0.093 NA 
HETATM   24  C   UNL     1      -7.830   3.257  63.126  1.00  0.00    -0.068 C  
HETATM   25  C   UNL     1      -7.834   2.370  65.396  1.00  0.00    -0.078 C  
ENDBRANCH  19  23
ENDBRANCH  18  19
ENDBRANCH  10  13
ENDBRANCH   6   9
BRANCH   8  26
HETATM   26  C   UNL     1     -11.761   9.880  70.705  1.00  0.00    -0.323 C  
HETATM   27  N   UNL     1     -10.653   9.046  70.829  1.00  0.00    -0.221 N  
HETATM   28  O   UNL     1     -12.809   9.729  71.336  1.00  0.00    -0.340 OA 
HETATM   29  H   UNL     1      -9.826   9.253  70.269  1.00  0.00     0.000 HD 
BRANCH  27  30
HETATM   30  C   UNL     1     -10.617   7.928  71.690  1.00  0.00    -0.221 A  
HETATM   31  C   UNL     1     -11.015   6.690  71.194  1.00  0.00    -0.302 A  
HETATM   32  C   UNL     1     -10.613   5.732  73.367  1.00  0.00    -0.258 A  
HETATM   33  N   UNL     1     -10.215   8.071  72.968  1.00  0.00    -0.322 NA 
HETATM   34  C   UNL     1     -10.215   6.987  73.777  1.00  0.00    -0.363 A  
HETATM   35 CL   UNL     1     -10.614   4.407  74.458  1.00  0.00    -0.289 Cl 
HETATM   36  C   UNL     1     -11.019   5.578  72.049  1.00  0.00    -0.276 A  
ENDBRANCH  27  30
ENDBRANCH   8  26
ENDBRANCH   2   3
TORSDOF 7
ENDMDL
MODEL       31
REMARK 921   NORMALIZED FREE ENERGY PREDICTED BY IDOCK:   -6.48 KCAL/MOL
REMARK 922        TOTAL FREE ENERGY PREDICTED BY IDOCK:   -9.87 KCAL/MOL
REMARK 923 INTER-LIGAND FREE ENERGY PREDICTED BY IDOCK:   -8.65 KCAL/MOL
REMARK 924 INTRA-LIGAND FREE ENERGY PREDICTED BY IDOCK:   -1.22 KCAL/MOL
REMARK 927      BINDING AFFINITY PREDICTED BY RF-SCORE:    0.00 PKD
ROOT
HETATM    1  C   UNL     1      -6.000  20.739  69.398  1.00  0.00    -0.234 C  
HETATM    2  O   UNL     1      -6.643  20.682  68.124  1.00  0.00    -0.298 OA 
ENDROOT
BRANCH   2   3
HETATM    3  C   UNL     1      -6.946  19.430  67.656  1.00  0.00    -0.222 A  
HETATM    4  C   UNL     1      -6.566  18.936  66.417  1.00  0.00    -0.220 A  
HETATM    5  C   UNL     1      -6.943  17.652  66.029  1.00  0.00    -0.318 A  
HETATM    6  C   UNL     1      -7.709  16.827  66.858  1.00  0.00    -0.219 A  
HETATM    7  C   UNL     1      -7.703  18.621  68.517  1.00  0.00    -0.342 A  
HETATM    8  C   UNL     1      -8.101  17.317  68.139  1.00  0.00    -0.229 A  
BRANCH   6   9
HETATM    9  N   UNL     1      -8.109  15.529  66.415  1.00  0.00    -0.317 N  
HETATM   10  C   UNL     1      -9.384  15.080  66.141  1.00  0.00    -0.292 C  
HETATM   11  H   UNL     1      -7.359  14.850  66.286  1.00  0.00     0.000 HD 
HETATM   12  O   UNL     1     -10.413  15.748  66.155  1.00  0.00    -0.294 OA 
BRANCH  10  13
HETATM   13  C   UNL     1      -9.534  13.621  65.857  1.00  0.00    -0.057 A  
HETATM   14  C   UNL     1      -8.888  12.733  66.727  1.00  0.00    -0.161 A  
HETATM   15  C   UNL     1     -10.290  13.109  64.800  1.00  0.00    -0.369 A  
HETATM   16  C   UNL     1      -8.918  11.356  66.492  1.00  0.00    -0.192 A  
HETATM   17  C   UNL     1     -10.365  11.718  64.602  1.00  0.00    -0.336 A  
HETATM   18  C   UNL     1      -9.636  10.831  65.407  1.00  0.00    -0.272 A  
BRANCH  18  19
HETATM   19  C   UNL     1      -9.588   9.336  65.159  1.00  0.00    -0.033 C  
HETATM   20  N   UNL     1     -10.248   8.556  65.968  1.00  0.00    -0.327 NA 
HETATM   21  H1  UNL     1     -10.216   7.550  65.802  1.00  0.00     0.000 HD 
HETATM   22  H2  UNL     1     -10.783   8.941  66.748  1.00  0.00     0.000 HD 
BRANCH  19  23
HETATM   23  N   UNL     1      -8.842   8.746  64.141  1.00  0.00     0.012 NA 
HETATM   24  C   UNL     1      -7.966   7.595  64.276  1.00  0.00    -0.112 C  
HETATM   25  C   UNL     1      -8.801   9.351  62.806  1.00  0.00    -0.216 C  
ENDBRANCH  19  23
ENDBRANCH  18  19
ENDBRANCH  10  13
ENDBRANCH   6   9
BRANCH   8  26
HETATM   26  C   UNL     1      -8.932  16.440  69.053  1.00  0.00    -0.239 C  
HETATM   27  N   UNL     1     -10.308  16.639  69.128  1.00  0.00    -0.307 N  
HETATM   28  O   UNL     1      -8.326  15.580  69.697  1.00  0.00    -0.234 OA 
HETATM   29  H   UNL     1     -10.722  17.372  68.553  1.00  0.00     0.000 HD 
BRANCH  27  30
HETATM   30  C   UNL     1     -11.157  15.879  69.960  1.00  0.00    -0.354 A  
HETATM   31  C   UNL     1     -11.415  16.337  71.249  1.00  0.00    -0.369 A  
HETATM   32  C   UNL     1     -12.769  14.383  71.634  1.00  0.00    -0.344 A  
HETATM   33  N   UNL     1     -11.692  14.727  69.510  1.00  0.00    -0.302 NA 
HETATM   34  C   UNL     1     -12.481  14.007  70.339  1.00  0.00    -0.350 A  
HETATM   35 CL   UNL     1     -13.757  13.403  72.638  1.00  0.00    -0.616 Cl 
HETATM   36  C   UNL     1     -12.228  15.574  72.099  1.00  0.00    -0.488 A  
ENDBRANCH  27  30
ENDBRANCH   8  26
ENDBRANCH   2   3
TORSDOF 7
ENDMDL
MODEL       32
REMARK 921   NORMALIZED FREE ENERGY PREDICTED BY IDOCK:   -6.44 KCAL/MOL
REMARK 922        TOTAL FREE ENERGY PREDICTED BY IDOCK:   -9.81 KCAL/MOL
REMARK 923 INTER-LIGAND FREE ENERGY PREDICTED BY IDOCK:   -8.68 KCAL/MOL
REMARK 924 INTRA-LIGAND FREE ENERGY PREDICTED BY IDOCK:   -1.13 KCAL/MOL
REMARK 927      BINDING AFFINITY PREDICTED BY RF-SCORE:    0.00 PKD
ROOT
HETATM    1  C   UNL     1      -5.947  20.727  70.576  1.00  0.00     0.189 C  
HETATM    2  O   UNL     1      -6.305  21.088  69.242  1.00  0.00     0.010 OA 
ENDROOT
BRANCH   2   3
HETATM    3  C   UNL     1      -6.849  20.094  68.472  1.00  0.00    -0.274 A  
HETATM    4  C   UNL     1      -6.782  20.038  67.088  1.00  0.00    -0.244 A  
HETATM    5  C   UNL     1      -7.388  18.991  66.398  1.00  0.00    -0.263 A  
HETATM    6  C   UNL     1      -8.077  17.972  67.064  1.00  0.00    -0.225 A  
HETATM    7  C   UNL     1      -7.521  19.078  69.169  1.00  0.00    -0.270 A  
HETATM    8  C   UNL     1      -8.148  18.009  68.488  1.00  0.00    -0.306 A  
BRANCH   6   9
HETATM    9  N   UNL     1      -8.717  16.930  66.324  1.00  0.00    -0.291 N  
HETATM   10  C   UNL     1     -10.067  16.742  66.116  1.00  0.00    -0.345 C  
HETATM   11  H   UNL     1      -8.098  16.240  65.897  1.00  0.00     0.000 HD 
HETATM   12  O   UNL     1     -10.973  17.489  66.472  1.00  0.00    -0.024 OA 
BRANCH  10  13
HETATM   13  C   UNL     1     -10.470  15.470  65.445  1.00  0.00    -0.429 A  
HETATM   14  C   UNL     1      -9.795  14.304  65.830  1.00  0.00    -0.314 A  
HETATM   15  C   UNL     1     -11.483  15.384  64.487  1.00  0.00    -0.314 A  
HETATM   16  C   UNL     1     -10.061  13.085  65.201  1.00  0.00    -0.238 A  
HETATM   17  C   UNL     1     -11.787  14.143  63.898  1.00  0.00    -0.211 A  
HETATM   18  C   UNL     1     -11.044  12.995  64.204  1.00  0.00    -0.437 A  
BRANCH  18  19
HETATM   19  C   UNL     1     -11.254  11.664  63.509  1.00  0.00    -0.373 C  
HETATM   20  N   UNL     1     -12.363  11.481  62.848  1.00  0.00    -0.871 NA 
HETATM   21  H1  UNL     1     -12.505  10.585  62.381  1.00  0.00     0.000 HD 
HETATM   22  H2  UNL     1     -13.071  12.214  62.800  1.00  0.00     0.000 HD 
BRANCH  19  23
HETATM   23  N   UNL     1     -10.348  10.607  63.574  1.00  0.00    -0.160 NA 
HETATM   24  C   UNL     1      -9.911   9.924  64.779  1.00  0.00    -0.169 C  
HETATM   25  C   UNL     1      -9.646  10.158  62.367  1.00  0.00    -0.104 C  
ENDBRANCH  19  23
ENDBRANCH  18  19
ENDBRANCH  10  13
ENDBRANCH   6   9
BRANCH   8  26
HETATM   26  C   UNL     1      -8.890  16.915  69.229  1.00  0.00     0.051 C  
HETATM   27  N   UNL     1     -10.277  16.978  69.330  1.00  0.00    -0.279 N  
HETATM   28  O   UNL     1      -8.205  16.013  69.715  1.00  0.00     0.001 OA 
HETATM   29  H   UNL     1     -10.759  17.761  68.890  1.00  0.00     0.000 HD 
BRANCH  27  30
HETATM   30  C   UNL     1     -11.049  16.011  70.010  1.00  0.00    -0.362 A  
HETATM   31  C   UNL     1     -11.556  14.934  69.289  1.00  0.00    -0.330 A  
HETATM   32  C   UNL     1     -12.612  14.134  71.301  1.00  0.00    -0.363 A  
HETATM   33  N   UNL     1     -11.293  16.146  71.328  1.00  0.00    -0.357 NA 
HETATM   34  C   UNL     1     -12.057  15.218  71.947  1.00  0.00    -0.381 A  
HETATM   35 CL   UNL     1     -13.596  13.011  72.147  1.00  0.00    -0.633 Cl 
HETATM   36  C   UNL     1     -12.355  13.986  69.944  1.00  0.00    -0.367 A  
ENDBRANCH  27  30
ENDBRANCH   8  26
ENDBRANCH   2   3
TORSDOF 7
ENDMDL
MODEL       33
REMARK 921   NORMALIZED FREE ENERGY PREDICTED BY IDOCK:   -6.38 KCAL/MOL
REMARK 922        TOTAL FREE ENERGY PREDICTED BY IDOCK:   -9.72 KCAL/MOL
REMARK 923 INTER-LIGAND FREE ENERGY PREDICTED BY IDOCK:   -8.45 KCAL/MOL
REMARK 924 INTRA-LIGAND FREE ENERGY PREDICTED BY IDOCK:   -1.27 KCAL/MOL
REMARK 927      BINDING AFFINITY PREDICTED BY RF-SCORE:    0.00 PKD
ROOT
HETATM    1  C   UNL     1     -10.235  19.584  68.471  1.00  0.00    -0.416 C  
HETATM    2  O   UNL     1     -10.895  18.835  67.449  1.00  0.00    -0.449 OA 
ENDROOT
BRANCH   2   3
HETATM    3  C   UNL     1     -10.414  17.573  67.218  1.00  0.00    -0.327 A  
HETATM    4  C   UNL     1      -9.321  17.277  66.419  1.00  0.00    -0.281 A  
HETATM    5  C   UNL     1      -8.924  15.955  66.234  1.00  0.00    -0.381 A  
HETATM    6  C   UNL     1      -9.605  14.892  66.836  1.00  0.00    -0.245 A  
HETATM    7  C   UNL     1     -11.108  16.529  67.848  1.00  0.00    -0.229 A  
HETATM    8  C   UNL     1     -10.726  15.179  67.669  1.00  0.00    -0.285 A  
BRANCH   6   9
HETATM    9  N   UNL     1      -9.193  13.544  66.598  1.00  0.00    -0.356 N  
HETATM   10  C   UNL     1      -9.698  12.652  65.675  1.00  0.00    -0.139 C  
HETATM   11  H   UNL     1      -8.432  13.199  67.182  1.00  0.00     0.000 HD 
HETATM   12  O   UNL     1     -10.555  12.884  64.827  1.00  0.00    -0.308 OA 
BRANCH  10  13
HETATM   13  C   UNL     1      -9.196  11.248  65.756  1.00  0.00    -0.236 A  
HETATM   14  C   UNL     1      -7.911  11.060  66.280  1.00  0.00    -0.141 A  
HETATM   15  C   UNL     1      -9.940  10.133  65.362  1.00  0.00    -0.377 A  
HETATM   16  C   UNL     1      -7.338   9.786  66.324  1.00  0.00    -0.099 A  
HETATM   17  C   UNL     1      -9.381   8.846  65.463  1.00  0.00    -0.214 A  
HETATM   18  C   UNL     1      -8.057   8.663  65.888  1.00  0.00    -0.111 A  
BRANCH  18  19
HETATM   19  C   UNL     1      -7.371   7.311  65.899  1.00  0.00    -0.075 C  
HETATM   20  N   UNL     1      -7.713   6.454  66.821  1.00  0.00    -0.098 NA 
HETATM   21  H1  UNL     1      -7.251   5.544  66.829  1.00  0.00     0.000 HD 
HETATM   22  H2  UNL     1      -8.423   6.686  67.516  1.00  0.00     0.000 HD 
BRANCH  19  23
HETATM   23  N   UNL     1      -6.363   6.950  65.009  1.00  0.00    -0.039 NA 
HETATM   24  C   UNL     1      -5.991   7.661  63.798  1.00  0.00    -0.049 C  
HETATM   25  C   UNL     1      -5.636   5.688  65.184  1.00  0.00    -0.017 C  
ENDBRANCH  19  23
ENDBRANCH  18  19
ENDBRANCH  10  13
ENDBRANCH   6   9
BRANCH   8  26
HETATM   26  C   UNL     1     -11.477  14.042  68.330  1.00  0.00    -0.306 C  
HETATM   27  N   UNL     1     -11.109  13.631  69.608  1.00  0.00    -0.457 N  
HETATM   28  O   UNL     1     -12.393  13.531  67.681  1.00  0.00    -0.248 OA 
HETATM   29  H   UNL     1     -10.341  14.117  70.071  1.00  0.00     0.000 HD 
BRANCH  27  30
HETATM   30  C   UNL     1     -11.744  12.574  70.296  1.00  0.00    -0.116 A  
HETATM   31  C   UNL     1     -11.433  11.264  69.941  1.00  0.00    -0.373 A  
HETATM   32  C   UNL     1     -13.014  10.484  71.583  1.00  0.00    -0.476 A  
HETATM   33  N   UNL     1     -12.640  12.840  71.266  1.00  0.00    -0.319 NA 
HETATM   34  C   UNL     1     -13.251  11.807  71.890  1.00  0.00    -0.362 A  
HETATM   35 CL   UNL     1     -13.848   9.225  72.397  1.00  0.00    -0.512 Cl 
HETATM   36  C   UNL     1     -12.084  10.205  70.590  1.00  0.00    -0.411 A  
ENDBRANCH  27  30
ENDBRANCH   8  26
ENDBRANCH   2   3
TORSDOF 7
ENDMDL
MODEL       34
REMARK 921   NORMALIZED FREE ENERGY PREDICTED BY IDOCK:   -6.30 KCAL/MOL
REMARK 922        TOTAL FREE ENERGY PREDICTED BY IDOCK:   -9.61 KCAL/MOL
REMARK 923 INTER-LIGAND FREE ENERGY PREDICTED BY IDOCK:   -9.02 KCAL/MOL
REMARK 924 INTRA-LIGAND FREE ENERGY PREDICTED BY IDOCK:   -0.58 KCAL/MOL
REMARK 927      BINDING AFFINITY PREDICTED BY RF-SCORE:    0.00 PKD
ROOT
HETATM    1  C   UNL     1     -14.088  15.482  72.447  1.00  0.00    -0.536 C  
HETATM    2  O   UNL     1     -13.313  15.095  71.312  1.00  0.00    -0.407 OA 
ENDROOT
BRANCH   2   3
HETATM    3  C   UNL     1     -13.059  13.754  71.182  1.00  0.00    -0.253 A  
HETATM    4  C   UNL     1     -13.354  12.797  72.141  1.00  0.00    -0.593 A  
HETATM    5  C   UNL     1     -13.037  11.460  71.918  1.00  0.00    -0.505 A  
HETATM    6  C   UNL     1     -12.416  11.038  70.738  1.00  0.00    -0.396 A  
HETATM    7  C   UNL     1     -12.449  13.360  69.982  1.00  0.00    -0.202 A  
HETATM    8  C   UNL     1     -12.113  12.008  69.737  1.00  0.00    -0.317 A  
BRANCH   6   9
HETATM    9  N   UNL     1     -12.072   9.663  70.554  1.00  0.00    -0.447 N  
HETATM   10  C   UNL     1     -12.018   8.667  71.507  1.00  0.00    -0.306 C  
HETATM   11  H   UNL     1     -11.838   9.383  69.602  1.00  0.00     0.000 HD 
HETATM   12  O   UNL     1     -12.334   8.767  72.689  1.00  0.00    -0.346 OA 
BRANCH  10  13
HETATM   13  C   UNL     1     -11.462   7.352  71.070  1.00  0.00    -0.307 A  
HETATM   14  C   UNL     1     -11.020   6.481  72.074  1.00  0.00    -0.283 A  
HETATM   15  C   UNL     1     -11.381   6.947  69.735  1.00  0.00    -0.288 A  
HETATM   16  C   UNL     1     -10.420   5.261  71.748  1.00  0.00    -0.278 A  
HETATM   17  C   UNL     1     -10.830   5.693  69.415  1.00  0.00    -0.334 A  
HETATM   18  C   UNL     1     -10.291   4.863  70.409  1.00  0.00    -0.248 A  
BRANCH  18  19
HETATM   19  C   UNL     1      -9.579   3.560  70.104  1.00  0.00    -0.155 C  
HETATM   20  N   UNL     1      -9.657   2.596  70.979  1.00  0.00    -0.153 NA 
HETATM   21  H1  UNL     1      -9.178   1.719  70.774  1.00  0.00     0.000 HD 
HETATM   22  H2  UNL     1     -10.183   2.715  71.845  1.00  0.00     0.000 HD 
BRANCH  19  23
HETATM   23  N   UNL     1      -8.808   3.350  68.963  1.00  0.00    -0.096 NA 
HETATM   24  C   UNL     1      -7.567   4.028  68.629  1.00  0.00    -0.058 C  
HETATM   25  C   UNL     1      -9.283   2.455  67.903  1.00  0.00    -0.202 C  
ENDBRANCH  19  23
ENDBRANCH  18  19
ENDBRANCH  10  13
ENDBRANCH   6   9
BRANCH   8  26
HETATM   26  C   UNL     1     -11.440  11.572  68.452  1.00  0.00    -0.298 C  
HETATM   27  N   UNL     1     -10.228  10.891  68.511  1.00  0.00    -0.177 N  
HETATM   28  O   UNL     1     -12.018  11.856  67.400  1.00  0.00    -0.603 OA 
HETATM   29  H   UNL     1      -9.827  10.695  69.428  1.00  0.00     0.000 HD 
BRANCH  27  30
HETATM   30  C   UNL     1      -9.524  10.458  67.367  1.00  0.00    -0.149 A  
HETATM   31  C   UNL     1      -9.991   9.341  66.679  1.00  0.00    -0.333 A  
HETATM   32  C   UNL     1      -8.137   9.551  65.156  1.00  0.00    -0.126 A  
HETATM   33  N   UNL     1      -8.419  11.114  66.964  1.00  0.00    -0.141 NA 
HETATM   34  C   UNL     1      -7.751  10.660  65.878  1.00  0.00    -0.146 A  
HETATM   35 CL   UNL     1      -7.224   9.017  63.804  1.00  0.00    -0.095 Cl 
HETATM   36  C   UNL     1      -9.282   8.878  65.561  1.00  0.00    -0.242 A  
ENDBRANCH  27  30
ENDBRANCH   8  26
ENDBRANCH   2   3
TORSDOF 7
ENDMDL
MODEL       35
REMARK 921   NORMALIZED FREE ENERGY PREDICTED BY IDOCK:   -6.22 KCAL/MOL
REMARK 922        TOTAL FREE ENERGY PREDICTED BY IDOCK:   -9.50 KCAL/MOL
REMARK 923 INTER-LIGAND FREE ENERGY PREDICTED BY IDOCK:   -8.37 KCAL/MOL
REMARK 924 INTRA-LIGAND FREE ENERGY PREDICTED BY IDOCK:   -1.13 KCAL/MOL
REMARK 927      BINDING AFFINITY PREDICTED BY RF-SCORE:    0.00 PKD
ROOT
HETATM    1  C   UNL     1      -5.691   7.384  64.080  1.00  0.00    -0.033 C  
HETATM    2  O   UNL     1      -6.036   8.769  64.069  1.00  0.00    -0.071 OA 
ENDROOT
BRANCH   2   3
HETATM    3  C   UNL     1      -6.930   9.177  65.026  1.00  0.00    -0.081 A  
HETATM    4  C   UNL     1      -8.060   8.470  65.404  1.00  0.00    -0.127 A  
HETATM    5  C   UNL     1      -8.916   8.983  66.376  1.00  0.00    -0.189 A  
HETATM    6  C   UNL     1      -8.672  10.214  66.995  1.00  0.00    -0.132 A  
HETATM    7  C   UNL     1      -6.650  10.407  65.639  1.00  0.00    -0.129 A  
HETATM    8  C   UNL     1      -7.509  10.950  66.624  1.00  0.00    -0.139 A  
BRANCH   6   9
HETATM    9  N   UNL     1      -9.589  10.729  67.963  1.00  0.00    -0.160 N  
HETATM   10  C   UNL     1     -10.815  11.320  67.742  1.00  0.00    -0.235 C  
HETATM   11  H   UNL     1      -9.302  10.648  68.938  1.00  0.00     0.000 HD 
HETATM   12  O   UNL     1     -11.382  11.445  66.660  1.00  0.00    -0.355 OA 
BRANCH  10  13
HETATM   13  C   UNL     1     -11.491  11.924  68.928  1.00  0.00    -0.358 A  
HETATM   14  C   UNL     1     -11.808  13.287  68.857  1.00  0.00    -0.367 A  
HETATM   15  C   UNL     1     -11.836  11.206  70.075  1.00  0.00    -0.441 A  
HETATM   16  C   UNL     1     -12.376  13.946  69.950  1.00  0.00    -0.358 A  
HETATM   17  C   UNL     1     -12.461  11.861  71.152  1.00  0.00    -0.365 A  
HETATM   18  C   UNL     1     -12.685  13.245  71.125  1.00  0.00    -0.404 A  
BRANCH  18  19
HETATM   19  C   UNL     1     -13.244  14.016  72.305  1.00  0.00    -0.464 C  
HETATM   20  N   UNL     1     -14.396  13.647  72.793  1.00  0.00    -0.443 NA 
HETATM   21  H1  UNL     1     -14.772  14.166  73.586  1.00  0.00     0.000 HD 
HETATM   22  H2  UNL     1     -14.907  12.861  72.391  1.00  0.00     0.000 HD 
BRANCH  19  23
HETATM   23  N   UNL     1     -12.618  15.125  72.869  1.00  0.00    -0.375 NA 
HETATM   24  C   UNL     1     -12.126  16.290  72.154  1.00  0.00    -0.454 C  
HETATM   25  C   UNL     1     -12.293  15.145  74.299  1.00  0.00    -0.533 C  
ENDBRANCH  19  23
ENDBRANCH  18  19
ENDBRANCH  10  13
ENDBRANCH   6   9
BRANCH   8  26
HETATM   26  C   UNL     1      -7.227  12.285  67.282  1.00  0.00    -0.138 C  
HETATM   27  N   UNL     1      -7.977  13.399  66.918  1.00  0.00    -0.393 N  
HETATM   28  O   UNL     1      -6.324  12.309  68.121  1.00  0.00    -0.054 OA 
HETATM   29  H   UNL     1      -8.709  13.282  66.217  1.00  0.00     0.000 HD 
BRANCH  27  30
HETATM   30  C   UNL     1      -7.776  14.683  67.469  1.00  0.00    -0.195 A  
HETATM   31  C   UNL     1      -8.704  15.169  68.386  1.00  0.00    -0.169 A  
HETATM   32  C   UNL     1      -7.443  17.216  68.521  1.00  0.00    -0.238 A  
HETATM   33  N   UNL     1      -6.711  15.420  67.098  1.00  0.00    -0.275 NA 
HETATM   34  C   UNL     1      -6.559  16.656  67.623  1.00  0.00    -0.149 A  
HETATM   35 CL   UNL     1      -7.200  18.804  69.125  1.00  0.00    -0.293 Cl 
HETATM   36  C   UNL     1      -8.536  16.457  68.914  1.00  0.00    -0.250 A  
ENDBRANCH  27  30
ENDBRANCH   8  26
ENDBRANCH   2   3
TORSDOF 7
ENDMDL
MODEL       36
REMARK 921   NORMALIZED FREE ENERGY PREDICTED BY IDOCK:   -6.20 KCAL/MOL
REMARK 922        TOTAL FREE ENERGY PREDICTED BY IDOCK:   -9.47 KCAL/MOL
REMARK 923 INTER-LIGAND FREE ENERGY PREDICTED BY IDOCK:   -8.02 KCAL/MOL
REMARK 924 INTRA-LIGAND FREE ENERGY PREDICTED BY IDOCK:   -1.45 KCAL/MOL
REMARK 927      BINDING AFFINITY PREDICTED BY RF-SCORE:    0.00 PKD
ROOT
HETATM    1  C   UNL     1      -9.324   1.772  73.276  1.00  0.00    -0.072 C  
HETATM    2  O   UNL     1     -10.368   2.559  73.851  1.00  0.00    -0.110 OA 
ENDROOT
BRANCH   2   3
HETATM    3  C   UNL     1     -10.449   3.859  73.426  1.00  0.00    -0.176 A  
HETATM    4  C   UNL     1     -10.658   4.951  74.255  1.00  0.00    -0.321 A  
HETATM    5  C   UNL     1     -10.744   6.233  73.718  1.00  0.00    -0.182 A  
HETATM    6  C   UNL     1     -10.626   6.464  72.343  1.00  0.00    -0.213 A  
HETATM    7  C   UNL     1     -10.312   4.061  72.044  1.00  0.00    -0.121 A  
HETATM    8  C   UNL     1     -10.401   5.354  71.477  1.00  0.00    -0.289 A  
BRANCH   6   9
HETATM    9  N   UNL     1     -10.753   7.788  71.821  1.00  0.00    -0.218 N  
HETATM   10  C   UNL     1     -11.898   8.549  71.704  1.00  0.00    -0.311 C  
HETATM   11  H   UNL     1      -9.892   8.225  71.494  1.00  0.00     0.000 HD 
HETATM   12  O   UNL     1     -13.019   8.249  72.103  1.00  0.00    -0.326 OA 
BRANCH  10  13
HETATM   13  C   UNL     1     -11.772   9.839  70.962  1.00  0.00    -0.453 A  
HETATM   14  C   UNL     1     -12.495  10.932  71.457  1.00  0.00    -0.419 A  
HETATM   15  C   UNL     1     -10.968  10.011  69.833  1.00  0.00    -0.339 A  
HETATM   16  C   UNL     1     -12.489  12.156  70.782  1.00  0.00    -0.362 A  
HETATM   17  C   UNL     1     -10.920  11.261  69.190  1.00  0.00    -0.292 A  
HETATM   18  C   UNL     1     -11.722  12.328  69.620  1.00  0.00    -0.386 A  
BRANCH  18  19
HETATM   19  C   UNL     1     -11.797  13.654  68.890  1.00  0.00    -0.364 C  
HETATM   20  N   UNL     1     -12.487  14.618  69.432  1.00  0.00    -0.572 NA 
HETATM   21  H1  UNL     1     -12.538  15.511  68.941  1.00  0.00     0.000 HD 
HETATM   22  H2  UNL     1     -12.964  14.484  70.325  1.00  0.00     0.000 HD 
BRANCH  19  23
HETATM   23  N   UNL     1     -11.208  13.887  67.649  1.00  0.00    -0.284 NA 
HETATM   24  C   UNL     1      -9.949  14.571  67.411  1.00  0.00    -0.227 C  
HETATM   25  C   UNL     1     -11.916  13.533  66.415  1.00  0.00    -0.414 C  
ENDBRANCH  19  23
ENDBRANCH  18  19
ENDBRANCH  10  13
ENDBRANCH   6   9
BRANCH   8  26
HETATM   26  C   UNL     1     -10.272   5.582  69.985  1.00  0.00    -0.266 C  
HETATM   27  N   UNL     1      -9.026   5.447  69.379  1.00  0.00    -0.104 N  
HETATM   28  O   UNL     1     -11.302   5.885  69.380  1.00  0.00    -0.346 OA 
HETATM   29  H   UNL     1      -8.230   5.187  69.961  1.00  0.00     0.000 HD 
BRANCH  27  30
HETATM   30  C   UNL     1      -8.809   5.652  67.999  1.00  0.00    -0.105 A  
HETATM   31  C   UNL     1      -8.988   4.580  67.129  1.00  0.00    -0.122 A  
HETATM   32  C   UNL     1      -8.336   6.006  65.300  1.00  0.00    -0.148 A  
HETATM   33  N   UNL     1      -8.426   6.862  67.547  1.00  0.00    -0.122 NA 
HETATM   34  C   UNL     1      -8.201   7.021  66.223  1.00  0.00    -0.120 A  
HETATM   35 CL   UNL     1      -8.006   6.274  63.637  1.00  0.00    -0.111 Cl 
HETATM   36  C   UNL     1      -8.741   4.760  65.760  1.00  0.00    -0.127 A  
ENDBRANCH  27  30
ENDBRANCH   8  26
ENDBRANCH   2   3
TORSDOF 7
ENDMDL
MODEL       37
REMARK 921   NORMALIZED FREE ENERGY PREDICTED BY IDOCK:   -6.20 KCAL/MOL
REMARK 922        TOTAL FREE ENERGY PREDICTED BY IDOCK:   -9.47 KCAL/MOL
REMARK 923 INTER-LIGAND FREE ENERGY PREDICTED BY IDOCK:   -8.54 KCAL/MOL
REMARK 924 INTRA-LIGAND FREE ENERGY PREDICTED BY IDOCK:   -0.92 KCAL/MOL
REMARK 927      BINDING AFFINITY PREDICTED BY RF-SCORE:    0.00 PKD
ROOT
HETATM    1  C   UNL     1     -12.177  15.883  71.838  1.00  0.00    -0.483 C  
HETATM    2  O   UNL     1     -13.294  15.023  71.609  1.00  0.00    -0.341 OA 
ENDROOT
BRANCH   2   3
HETATM    3  C   UNL     1     -13.000  13.718  71.307  1.00  0.00    -0.334 A  
HETATM    4  C   UNL     1     -13.352  12.628  72.088  1.00  0.00    -0.570 A  
HETATM    5  C   UNL     1     -12.987  11.341  71.700  1.00  0.00    -0.537 A  
HETATM    6  C   UNL     1     -12.260  11.104  70.529  1.00  0.00    -0.384 A  
HETATM    7  C   UNL     1     -12.284  13.511  70.119  1.00  0.00    -0.400 A  
HETATM    8  C   UNL     1     -11.898  12.213  69.710  1.00  0.00    -0.397 A  
BRANCH   6   9
HETATM    9  N   UNL     1     -11.871   9.774  70.178  1.00  0.00    -0.446 N  
HETATM   10  C   UNL     1     -11.047   8.917  70.877  1.00  0.00    -0.271 C  
HETATM   11  H   UNL     1     -12.250   9.414  69.302  1.00  0.00     0.000 HD 
HETATM   12  O   UNL     1     -10.552   9.119  71.982  1.00  0.00    -0.333 OA 
BRANCH  10  13
HETATM   13  C   UNL     1     -10.670   7.644  70.194  1.00  0.00    -0.245 A  
HETATM   14  C   UNL     1      -9.930   7.750  69.010  1.00  0.00    -0.182 A  
HETATM   15  C   UNL     1     -10.996   6.376  70.680  1.00  0.00    -0.355 A  
HETATM   16  C   UNL     1      -9.598   6.611  68.271  1.00  0.00    -0.125 A  
HETATM   17  C   UNL     1     -10.610   5.229  69.963  1.00  0.00    -0.300 A  
HETATM   18  C   UNL     1      -9.960   5.334  68.725  1.00  0.00    -0.243 A  
BRANCH  18  19
HETATM   19  C   UNL     1      -9.630   4.135  67.858  1.00  0.00    -0.148 C  
HETATM   20  N   UNL     1     -10.057   4.129  66.626  1.00  0.00    -0.346 NA 
HETATM   21  H1  UNL     1      -9.837   3.322  66.042  1.00  0.00     0.000 HD 
HETATM   22  H2  UNL     1     -10.598   4.911  66.255  1.00  0.00     0.000 HD 
BRANCH  19  23
HETATM   23  N   UNL     1      -8.937   3.018  68.317  1.00  0.00    -0.126 NA 
HETATM   24  C   UNL     1      -7.524   2.961  68.650  1.00  0.00    -0.048 C  
HETATM   25  C   UNL     1      -9.602   1.713  68.394  1.00  0.00    -0.128 C  
ENDBRANCH  19  23
ENDBRANCH  18  19
ENDBRANCH  10  13
ENDBRANCH   6   9
BRANCH   8  26
HETATM   26  C   UNL     1     -11.111  11.978  68.437  1.00  0.00    -0.245 C  
HETATM   27  N   UNL     1      -9.931  11.241  68.489  1.00  0.00    -0.197 N  
HETATM   28  O   UNL     1     -11.570  12.468  67.403  1.00  0.00    -0.328 OA 
HETATM   29  H   UNL     1      -9.631  10.869  69.390  1.00  0.00     0.000 HD 
BRANCH  27  30
HETATM   30  C   UNL     1      -9.128  10.983  67.357  1.00  0.00    -0.141 A  
HETATM   31  C   UNL     1      -9.669  10.244  66.308  1.00  0.00    -0.263 A  
HETATM   32  C   UNL     1      -7.563  10.410  65.152  1.00  0.00    -0.103 A  
HETATM   33  N   UNL     1      -7.861  11.437  67.308  1.00  0.00    -0.141 NA 
HETATM   34  C   UNL     1      -7.107  11.152  66.222  1.00  0.00    -0.049 A  
HETATM   35 CL   UNL     1      -6.540  10.064  63.819  1.00  0.00    -0.127 Cl 
HETATM   36  C   UNL     1      -8.872   9.949  65.194  1.00  0.00    -0.209 A  
ENDBRANCH  27  30
ENDBRANCH   8  26
ENDBRANCH   2   3
TORSDOF 7
ENDMDL
MODEL       38
REMARK 921   NORMALIZED FREE ENERGY PREDICTED BY IDOCK:   -6.14 KCAL/MOL
REMARK 922        TOTAL FREE ENERGY PREDICTED BY IDOCK:   -9.38 KCAL/MOL
REMARK 923 INTER-LIGAND FREE ENERGY PREDICTED BY IDOCK:   -8.67 KCAL/MOL
REMARK 924 INTRA-LIGAND FREE ENERGY PREDICTED BY IDOCK:   -0.70 KCAL/MOL
REMARK 927      BINDING AFFINITY PREDICTED BY RF-SCORE:    0.00 PKD
ROOT
HETATM    1  C   UNL     1      -5.619   5.150  67.519  1.00  0.00    -0.013 C  
HETATM    2  O   UNL     1      -6.877   5.537  66.965  1.00  0.00    -0.060 OA 
ENDROOT
BRANCH   2   3
HETATM    3  C   UNL     1      -7.575   6.492  67.658  1.00  0.00    -0.105 A  
HETATM    4  C   UNL     1      -7.943   6.391  68.990  1.00  0.00    -0.111 A  
HETATM    5  C   UNL     1      -8.670   7.413  69.597  1.00  0.00    -0.137 A  
HETATM    6  C   UNL     1      -9.052   8.560  68.894  1.00  0.00    -0.146 A  
HETATM    7  C   UNL     1      -7.930   7.638  66.931  1.00  0.00    -0.115 A  
HETATM    8  C   UNL     1      -8.673   8.685  67.525  1.00  0.00    -0.135 A  
BRANCH   6   9
HETATM    9  N   UNL     1      -9.827   9.575  69.537  1.00  0.00    -0.182 N  
HETATM   10  C   UNL     1     -11.076   9.455  70.108  1.00  0.00    -0.242 C  
HETATM   11  H   UNL     1      -9.405  10.502  69.578  1.00  0.00     0.000 HD 
HETATM   12  O   UNL     1     -11.726   8.421  70.237  1.00  0.00    -0.083 OA 
BRANCH  10  13
HETATM   13  C   UNL     1     -11.731  10.719  70.560  1.00  0.00    -0.449 A  
HETATM   14  C   UNL     1     -11.487  11.870  69.800  1.00  0.00    -0.303 A  
HETATM   15  C   UNL     1     -12.575  10.803  71.669  1.00  0.00    -0.456 A  
HETATM   16  C   UNL     1     -12.002  13.108  70.194  1.00  0.00    -0.381 A  
HETATM   17  C   UNL     1     -13.139  12.041  72.029  1.00  0.00    -0.456 A  
HETATM   18  C   UNL     1     -12.814  13.214  71.333  1.00  0.00    -0.401 A  
BRANCH  18  19
HETATM   19  C   UNL     1     -13.299  14.587  71.754  1.00  0.00    -0.363 C  
HETATM   20  N   UNL     1     -14.392  15.048  71.211  1.00  0.00    -0.677 NA 
HETATM   21  H1  UNL     1     -14.718  15.973  71.494  1.00  0.00     0.000 HD 
HETATM   22  H2  UNL     1     -14.907  14.500  70.522  1.00  0.00     0.000 HD 
BRANCH  19  23
HETATM   23  N   UNL     1     -12.619  15.404  72.654  1.00  0.00    -0.353 NA 
HETATM   24  C   UNL     1     -12.779  15.411  74.098  1.00  0.00    -0.424 C  
HETATM   25  C   UNL     1     -11.719  16.455  72.166  1.00  0.00    -0.368 C  
ENDBRANCH  19  23
ENDBRANCH  18  19
ENDBRANCH  10  13
ENDBRANCH   6   9
BRANCH   8  26
HETATM   26  C   UNL     1      -9.077   9.920  66.746  1.00  0.00    -0.143 C  
HETATM   27  N   UNL     1     -10.417  10.294  66.704  1.00  0.00    -0.218 N  
HETATM   28  O   UNL     1      -8.173  10.536  66.178  1.00  0.00    -0.139 OA 
HETATM   29  H   UNL     1     -11.095   9.724  67.210  1.00  0.00     0.000 HD 
BRANCH  27  30
HETATM   30  C   UNL     1     -10.886  11.420  65.994  1.00  0.00    -0.249 A  
HETATM   31  C   UNL     1     -11.549  12.423  66.696  1.00  0.00    -0.447 A  
HETATM   32  C   UNL     1     -11.866  13.612  64.625  1.00  0.00    -0.397 A  
HETATM   33  N   UNL     1     -10.699  11.508  64.663  1.00  0.00    -0.309 NA 
HETATM   34  C   UNL     1     -11.182  12.587  64.007  1.00  0.00    -0.403 A  
HETATM   35 CL   UNL     1     -12.475  14.938  63.723  1.00  0.00     0.082 Cl 
HETATM   36  C   UNL     1     -12.052  13.531  65.999  1.00  0.00    -0.489 A  
ENDBRANCH  27  30
ENDBRANCH   8  26
ENDBRANCH   2   3
TORSDOF 7
ENDMDL
MODEL       39
REMARK 921   NORMALIZED FREE ENERGY PREDICTED BY IDOCK:   -6.13 KCAL/MOL
REMARK 922        TOTAL FREE ENERGY PREDICTED BY IDOCK:   -9.38 KCAL/MOL
REMARK 923 INTER-LIGAND FREE ENERGY PREDICTED BY IDOCK:   -8.03 KCAL/MOL
REMARK 924 INTRA-LIGAND FREE ENERGY PREDICTED BY IDOCK:   -1.35 KCAL/MOL
REMARK 927      BINDING AFFINITY PREDICTED BY RF-SCORE:    0.00 PKD
ROOT
HETATM    1  C   UNL     1     -10.695   2.992  73.099  1.00  0.00    -0.158 C  
HETATM    2  O   UNL     1     -10.887   4.316  73.600  1.00  0.00    -0.223 OA 
ENDROOT
BRANCH   2   3
HETATM    3  C   UNL     1     -10.925   5.317  72.664  1.00  0.00    -0.260 A  
HETATM    4  C   UNL     1     -11.523   6.553  72.852  1.00  0.00    -0.100 A  
HETATM    5  C   UNL     1     -11.523   7.496  71.827  1.00  0.00    -0.295 A  
HETATM    6  C   UNL     1     -10.929   7.234  70.588  1.00  0.00    -0.256 A  
HETATM    7  C   UNL     1     -10.308   5.030  71.437  1.00  0.00    -0.251 A  
HETATM    8  C   UNL     1     -10.301   5.971  70.380  1.00  0.00    -0.282 A  
BRANCH   6   9
HETATM    9  N   UNL     1     -10.977   8.211  69.545  1.00  0.00    -0.426 N  
HETATM   10  C   UNL     1     -10.229   9.363  69.426  1.00  0.00    -0.207 C  
HETATM   11  H   UNL     1     -11.645   8.033  68.795  1.00  0.00     0.000 HD 
HETATM   12  O   UNL     1      -9.321   9.726  70.169  1.00  0.00    -0.234 OA 
BRANCH  10  13
HETATM   13  C   UNL     1     -10.603  10.294  68.320  1.00  0.00    -0.255 A  
HETATM   14  C   UNL     1     -11.404  11.393  68.654  1.00  0.00    -0.327 A  
HETATM   15  C   UNL     1     -10.184  10.136  66.996  1.00  0.00    -0.290 A  
HETATM   16  C   UNL     1     -11.859  12.272  67.667  1.00  0.00    -0.334 A  
HETATM   17  C   UNL     1     -10.597  11.056  66.016  1.00  0.00    -0.275 A  
HETATM   18  C   UNL     1     -11.483  12.098  66.327  1.00  0.00    -0.433 A  
BRANCH  18  19
HETATM   19  C   UNL     1     -12.050  13.041  65.285  1.00  0.00    -0.441 C  
HETATM   20  N   UNL     1     -13.130  12.679  64.649  1.00  0.00    -0.848 NA 
HETATM   21  H1  UNL     1     -13.512  13.313  63.947  1.00  0.00     0.000 HD 
HETATM   22  H2  UNL     1     -13.581  11.786  64.848  1.00  0.00     0.000 HD 
BRANCH  19  23
HETATM   23  N   UNL     1     -11.458  14.252  64.935  1.00  0.00    -0.359 NA 
HETATM   24  C   UNL     1     -10.140  14.712  65.338  1.00  0.00    -0.372 C  
HETATM   25  C   UNL     1     -12.215  15.256  64.180  1.00  0.00    -0.114 C  
ENDBRANCH  19  23
ENDBRANCH  18  19
ENDBRANCH  10  13
ENDBRANCH   6   9
BRANCH   8  26
HETATM   26  C   UNL     1      -9.653   5.668  69.045  1.00  0.00    -0.135 C  
HETATM   27  N   UNL     1     -10.090   4.571  68.307  1.00  0.00    -0.026 N  
HETATM   28  O   UNL     1      -8.752   6.426  68.682  1.00  0.00    -0.122 OA 
HETATM   29  H   UNL     1     -10.847   4.003  68.685  1.00  0.00     0.000 HD 
BRANCH  27  30
HETATM   30  C   UNL     1      -9.537   4.207  67.060  1.00  0.00    -0.201 A  
HETATM   31  C   UNL     1     -10.184   4.615  65.897  1.00  0.00    -0.303 A  
HETATM   32  C   UNL     1      -8.512   3.459  64.605  1.00  0.00    -0.093 A  
HETATM   33  N   UNL     1      -8.412   3.468  67.009  1.00  0.00    -0.102 NA 
HETATM   34  C   UNL     1      -7.920   3.112  65.801  1.00  0.00    -0.086 A  
HETATM   35 CL   UNL     1      -7.846   2.947  63.108  1.00  0.00    -0.067 Cl 
HETATM   36  C   UNL     1      -9.667   4.230  64.652  1.00  0.00    -0.152 A  
ENDBRANCH  27  30
ENDBRANCH   8  26
ENDBRANCH   2   3
TORSDOF 7
ENDMDL
MODEL       40
REMARK 921   NORMALIZED FREE ENERGY PREDICTED BY IDOCK:   -6.09 KCAL/MOL
REMARK 922        TOTAL FREE ENERGY PREDICTED BY IDOCK:   -9.31 KCAL/MOL
REMARK 923 INTER-LIGAND FREE ENERGY PREDICTED BY IDOCK:   -7.69 KCAL/MOL
REMARK 924 INTRA-LIGAND FREE ENERGY PREDICTED BY IDOCK:   -1.62 KCAL/MOL
REMARK 927      BINDING AFFINITY PREDICTED BY RF-SCORE:    0.00 PKD
ROOT
HETATM    1  C   UNL     1      -7.986  20.492  67.105  1.00  0.00    -0.311 C  
HETATM    2  O   UNL     1      -7.251  20.141  68.278  1.00  0.00    -0.293 OA 
ENDROOT
BRANCH   2   3
HETATM    3  C   UNL     1      -7.222  18.808  68.597  1.00  0.00    -0.303 A  
HETATM    4  C   UNL     1      -6.299  18.217  69.446  1.00  0.00    -0.256 A  
HETATM    5  C   UNL     1      -6.346  16.847  69.689  1.00  0.00    -0.212 A  
HETATM    6  C   UNL     1      -7.311  16.027  69.094  1.00  0.00    -0.209 A  
HETATM    7  C   UNL     1      -8.211  18.014  67.997  1.00  0.00    -0.261 A  
HETATM    8  C   UNL     1      -8.274  16.619  68.226  1.00  0.00    -0.200 A  
BRANCH   6   9
HETATM    9  N   UNL     1      -7.310  14.618  69.338  1.00  0.00    -0.243 N  
HETATM   10  C   UNL     1      -6.931  13.608  68.479  1.00  0.00    -0.104 C  
HETATM   11  H   UNL     1      -7.630  14.324  70.260  1.00  0.00     0.000 HD 
HETATM   12  O   UNL     1      -6.446  13.743  67.360  1.00  0.00    -0.292 OA 
BRANCH  10  13
HETATM   13  C   UNL     1      -7.194  12.210  68.933  1.00  0.00    -0.079 A  
HETATM   14  C   UNL     1      -8.295  11.553  68.369  1.00  0.00    -0.154 A  
HETATM   15  C   UNL     1      -6.398  11.530  69.858  1.00  0.00    -0.136 A  
HETATM   16  C   UNL     1      -8.653  10.270  68.791  1.00  0.00    -0.139 A  
HETATM   17  C   UNL     1      -6.729  10.217  70.237  1.00  0.00    -0.143 A  
HETATM   18  C   UNL     1      -7.888   9.594  69.754  1.00  0.00    -0.144 A  
BRANCH  18  19
HETATM   19  C   UNL     1      -8.352   8.229  70.223  1.00  0.00    -0.123 C  
HETATM   20  N   UNL     1      -7.549   7.215  70.056  1.00  0.00    -0.089 NA 
HETATM   21  H1  UNL     1      -7.861   6.296  70.371  1.00  0.00     0.000 HD 
HETATM   22  H2  UNL     1      -6.633   7.336  69.623  1.00  0.00     0.000 HD 
BRANCH  19  23
HETATM   23  N   UNL     1      -9.606   7.989  70.779  1.00  0.00    -0.161 NA 
HETATM   24  C   UNL     1     -10.541   6.953  70.375  1.00  0.00    -0.219 C  
HETATM   25  C   UNL     1     -10.148   8.890  71.801  1.00  0.00    -0.337 C  
ENDBRANCH  19  23
ENDBRANCH  18  19
ENDBRANCH  10  13
ENDBRANCH   6   9
BRANCH   8  26
HETATM   26  C   UNL     1      -9.327  15.749  67.571  1.00  0.00    -0.209 C  
HETATM   27  N   UNL     1      -9.110  15.265  66.284  1.00  0.00    -0.345 N  
HETATM   28  O   UNL     1     -10.342  15.516  68.231  1.00  0.00    -0.229 OA 
HETATM   29  H   UNL     1      -8.236  15.506  65.817  1.00  0.00     0.000 HD 
BRANCH  27  30
HETATM   30  C   UNL     1     -10.039  14.459  65.592  1.00  0.00    -0.353 A  
HETATM   31  C   UNL     1      -9.941  13.075  65.710  1.00  0.00    -0.260 A  
HETATM   32  C   UNL     1     -11.807  12.851  64.204  1.00  0.00    -0.414 A  
HETATM   33  N   UNL     1     -10.991  15.027  64.827  1.00  0.00    -0.391 NA 
HETATM   34  C   UNL     1     -11.851  14.228  64.155  1.00  0.00    -0.312 A  
HETATM   35 CL   UNL     1     -12.915  11.900  63.302  1.00  0.00    -0.436 Cl 
HETATM   36  C   UNL     1     -10.834  12.261  64.999  1.00  0.00    -0.337 A  
ENDBRANCH  27  30
ENDBRANCH   8  26
ENDBRANCH   2   3
TORSDOF 7
ENDMDL
MODEL       41
REMARK 921   NORMALIZED FREE ENERGY PREDICTED BY IDOCK:   -6.06 KCAL/MOL
REMARK 922        TOTAL FREE ENERGY PREDICTED BY IDOCK:   -9.27 KCAL/MOL
REMARK 923 INTER-LIGAND FREE ENERGY PREDICTED BY IDOCK:   -7.83 KCAL/MOL
REMARK 924 INTRA-LIGAND FREE ENERGY PREDICTED BY IDOCK:   -1.44 KCAL/MOL
REMARK 927      BINDING AFFINITY PREDICTED BY RF-SCORE:    0.00 PKD
ROOT
HETATM    1  C   UNL     1      -7.571   3.690  66.043  1.00  0.00    -0.081 C  
HETATM    2  O   UNL     1      -6.795   4.652  65.327  1.00  0.00    -0.057 OA 
ENDROOT
BRANCH   2   3
HETATM    3  C   UNL     1      -7.221   5.952  65.407  1.00  0.00    -0.074 A  
HETATM    4  C   UNL     1      -6.674   7.009  64.695  1.00  0.00    -0.043 A  
HETATM    5  C   UNL     1      -7.170   8.299  64.864  1.00  0.00    -0.081 A  
HETATM    6  C   UNL     1      -8.220   8.575  65.746  1.00  0.00    -0.125 A  
HETATM    7  C   UNL     1      -8.285   6.194  66.288  1.00  0.00    -0.116 A  
HETATM    8  C   UNL     1      -8.800   7.498  66.479  1.00  0.00    -0.167 A  
BRANCH   6   9
HETATM    9  N   UNL     1      -8.682   9.916  65.921  1.00  0.00    -0.135 N  
HETATM   10  C   UNL     1      -9.494  10.650  65.083  1.00  0.00    -0.227 C  
HETATM   11  H   UNL     1      -8.374  10.387  66.771  1.00  0.00     0.000 HD 
HETATM   12  O   UNL     1     -10.036  10.253  64.056  1.00  0.00    -0.299 OA 
BRANCH  10  13
HETATM   13  C   UNL     1      -9.683  12.091  65.427  1.00  0.00    -0.203 A  
HETATM   14  C   UNL     1     -10.464  12.859  64.554  1.00  0.00    -0.400 A  
HETATM   15  C   UNL     1      -9.146  12.695  66.567  1.00  0.00    -0.163 A  
HETATM   16  C   UNL     1     -10.631  14.230  64.763  1.00  0.00    -0.434 A  
HETATM   17  C   UNL     1      -9.365  14.064  66.805  1.00  0.00    -0.289 A  
HETATM   18  C   UNL     1     -10.058  14.858  65.880  1.00  0.00    -0.348 A  
BRANCH  18  19
HETATM   19  C   UNL     1     -10.216  16.358  66.030  1.00  0.00    -0.356 C  
HETATM   20  N   UNL     1     -10.757  17.023  65.047  1.00  0.00    -0.693 NA 
HETATM   21  H1  UNL     1     -10.863  18.032  65.148  1.00  0.00     0.000 HD 
HETATM   22  H2  UNL     1     -11.065  16.546  64.199  1.00  0.00     0.000 HD 
BRANCH  19  23
HETATM   23  N   UNL     1      -9.776  17.073  67.142  1.00  0.00    -0.252 NA 
HETATM   24  C   UNL     1     -10.558  17.389  68.325  1.00  0.00    -0.366 C  
HETATM   25  C   UNL     1      -8.445  17.689  67.146  1.00  0.00    -0.226 C  
ENDBRANCH  19  23
ENDBRANCH  18  19
ENDBRANCH  10  13
ENDBRANCH   6   9
BRANCH   8  26
HETATM   26  C   UNL     1      -9.938   7.775  67.440  1.00  0.00    -0.195 C  
HETATM   27  N   UNL     1      -9.703   7.724  68.811  1.00  0.00    -0.155 N  
HETATM   28  O   UNL     1     -11.035   8.032  66.940  1.00  0.00    -0.154 OA 
HETATM   29  H   UNL     1      -8.759   7.508  69.133  1.00  0.00     0.000 HD 
BRANCH  27  30
HETATM   30  C   UNL     1     -10.704   7.956  69.779  1.00  0.00    -0.233 A  
HETATM   31  C   UNL     1     -11.477   6.881  70.210  1.00  0.00    -0.373 A  
HETATM   32  C   UNL     1     -12.712   8.387  71.628  1.00  0.00    -0.331 A  
HETATM   33  N   UNL     1     -10.907   9.198  70.259  1.00  0.00    -0.237 NA 
HETATM   34  C   UNL     1     -11.891   9.394  71.166  1.00  0.00    -0.338 A  
HETATM   35 CL   UNL     1     -13.960   8.715  72.760  1.00  0.00    -0.279 Cl 
HETATM   36  C   UNL     1     -12.500   7.103  71.143  1.00  0.00    -0.400 A  
ENDBRANCH  27  30
ENDBRANCH   8  26
ENDBRANCH   2   3
TORSDOF 7
ENDMDL
MODEL       42
REMARK 921   NORMALIZED FREE ENERGY PREDICTED BY IDOCK:   -6.01 KCAL/MOL
REMARK 922        TOTAL FREE ENERGY PREDICTED BY IDOCK:   -9.21 KCAL/MOL
REMARK 923 INTER-LIGAND FREE ENERGY PREDICTED BY IDOCK:   -8.53 KCAL/MOL
REMARK 924 INTRA-LIGAND FREE ENERGY PREDICTED BY IDOCK:   -0.67 KCAL/MOL
REMARK 927      BINDING AFFINITY PREDICTED BY RF-SCORE:    0.00 PKD
ROOT
HETATM    1  C   UNL     1     -13.454  15.430  72.066  1.00  0.00    -0.466 C  
HETATM    2  O   UNL     1     -13.290  14.743  70.824  1.00  0.00    -0.354 OA 
ENDROOT
BRANCH   2   3
HETATM    3  C   UNL     1     -12.952  13.417  70.906  1.00  0.00    -0.123 A  
HETATM    4  C   UNL     1     -13.334  12.566  71.932  1.00  0.00    -0.467 A  
HETATM    5  C   UNL     1     -12.920  11.236  71.931  1.00  0.00    -0.471 A  
HETATM    6  C   UNL     1     -12.112  10.718  70.913  1.00  0.00    -0.370 A  
HETATM    7  C   UNL     1     -12.154  12.923  69.863  1.00  0.00    -0.335 A  
HETATM    8  C   UNL     1     -11.717  11.578  69.846  1.00  0.00    -0.420 A  
BRANCH   6   9
HETATM    9  N   UNL     1     -11.676   9.358  70.960  1.00  0.00    -0.302 N  
HETATM   10  C   UNL     1     -12.400   8.246  71.334  1.00  0.00    -0.299 C  
HETATM   11  H   UNL     1     -10.709   9.189  70.682  1.00  0.00     0.000 HD 
HETATM   12  O   UNL     1     -13.591   8.214  71.628  1.00  0.00    -0.345 OA 
BRANCH  10  13
HETATM   13  C   UNL     1     -11.644   6.964  71.455  1.00  0.00    -0.340 A  
HETATM   14  C   UNL     1     -11.044   6.466  70.292  1.00  0.00    -0.416 A  
HETATM   15  C   UNL     1     -11.493   6.261  72.653  1.00  0.00    -0.255 A  
HETATM   16  C   UNL     1     -10.379   5.236  70.301  1.00  0.00    -0.350 A  
HETATM   17  C   UNL     1     -10.773   5.052  72.670  1.00  0.00    -0.279 A  
HETATM   18  C   UNL     1     -10.260   4.498  71.488  1.00  0.00    -0.195 A  
BRANCH  18  19
HETATM   19  C   UNL     1      -9.583   3.142  71.436  1.00  0.00    -0.157 C  
HETATM   20  N   UNL     1      -9.701   2.437  70.345  1.00  0.00    -0.032 NA 
HETATM   21  H1  UNL     1      -9.247   1.524  70.310  1.00  0.00     0.000 HD 
HETATM   22  H2  UNL     1     -10.234   2.787  69.549  1.00  0.00     0.000 HD 
BRANCH  19  23
HETATM   23  N   UNL     1      -8.881   2.588  72.503  1.00  0.00    -0.070 NA 
HETATM   24  C   UNL     1      -7.466   2.760  72.782  1.00  0.00    -0.045 C  
HETATM   25  C   UNL     1      -9.539   1.644  73.412  1.00  0.00    -0.072 C  
ENDBRANCH  19  23
ENDBRANCH  18  19
ENDBRANCH  10  13
ENDBRANCH   6   9
BRANCH   8  26
HETATM   26  C   UNL     1     -10.842  11.037  68.734  1.00  0.00    -0.210 C  
HETATM   27  N   UNL     1     -11.193  11.280  67.408  1.00  0.00    -0.301 N  
HETATM   28  O   UNL     1      -9.847  10.394  69.074  1.00  0.00    -0.192 OA 
HETATM   29  H   UNL     1     -12.033  11.827  67.222  1.00  0.00     0.000 HD 
BRANCH  27  30
HETATM   30  C   UNL     1     -10.445  10.805  66.309  1.00  0.00    -0.226 A  
HETATM   31  C   UNL     1     -10.293  11.631  65.199  1.00  0.00    -0.326 A  
HETATM   32  C   UNL     1      -9.037   9.883  64.118  1.00  0.00    -0.252 A  
HETATM   33  N   UNL     1      -9.904   9.572  66.341  1.00  0.00    -0.233 NA 
HETATM   34  C   UNL     1      -9.215   9.135  65.262  1.00  0.00    -0.179 A  
HETATM   35 CL   UNL     1      -8.173   9.252  62.776  1.00  0.00    -0.161 Cl 
HETATM   36  C   UNL     1      -9.584  11.159  64.085  1.00  0.00    -0.290 A  
ENDBRANCH  27  30
ENDBRANCH   8  26
ENDBRANCH   2   3
TORSDOF 7
ENDMDL
MODEL       43
REMARK 921   NORMALIZED FREE ENERGY PREDICTED BY IDOCK:   -5.91 KCAL/MOL
REMARK 922        TOTAL FREE ENERGY PREDICTED BY IDOCK:   -9.07 KCAL/MOL
REMARK 923 INTER-LIGAND FREE ENERGY PREDICTED BY IDOCK:   -7.77 KCAL/MOL
REMARK 924 INTRA-LIGAND FREE ENERGY PREDICTED BY IDOCK:   -1.30 KCAL/MOL
REMARK 927      BINDING AFFINITY PREDICTED BY RF-SCORE:    0.00 PKD
ROOT
HETATM    1  C   UNL     1     -11.827  15.762  64.497  1.00  0.00    -0.126 C  
HETATM    2  O   UNL     1     -12.606  14.580  64.688  1.00  0.00    -0.607 OA 
ENDROOT
BRANCH   2   3
HETATM    3  C   UNL     1     -11.918  13.395  64.673  1.00  0.00    -0.399 A  
HETATM    4  C   UNL     1     -11.550  12.709  63.525  1.00  0.00    -0.584 A  
HETATM    5  C   UNL     1     -10.867  11.499  63.620  1.00  0.00    -0.488 A  
HETATM    6  C   UNL     1     -10.536  10.936  64.857  1.00  0.00    -0.282 A  
HETATM    7  C   UNL     1     -11.586  12.863  65.928  1.00  0.00    -0.423 A  
HETATM    8  C   UNL     1     -10.899  11.632  66.047  1.00  0.00    -0.339 A  
BRANCH   6   9
HETATM    9  N   UNL     1      -9.866   9.675  64.920  1.00  0.00    -0.422 N  
HETATM   10  C   UNL     1      -8.534   9.408  64.682  1.00  0.00    -0.167 C  
HETATM   11  H   UNL     1     -10.443   8.874  65.173  1.00  0.00     0.000 HD 
HETATM   12  O   UNL     1      -7.655  10.231  64.442  1.00  0.00    -0.148 OA 
BRANCH  10  13
HETATM   13  C   UNL     1      -8.134   7.970  64.651  1.00  0.00    -0.140 A  
HETATM   14  C   UNL     1      -7.628   7.474  63.443  1.00  0.00    -0.118 A  
HETATM   15  C   UNL     1      -8.219   7.116  65.754  1.00  0.00    -0.132 A  
HETATM   16  C   UNL     1      -7.298   6.123  63.308  1.00  0.00    -0.062 A  
HETATM   17  C   UNL     1      -7.830   5.770  65.629  1.00  0.00    -0.100 A  
HETATM   18  C   UNL     1      -7.422   5.245  64.395  1.00  0.00    -0.066 A  
BRANCH  18  19
HETATM   19  C   UNL     1      -7.110   3.777  64.182  1.00  0.00    -0.050 C  
HETATM   20  N   UNL     1      -6.019   3.466  63.538  1.00  0.00    -0.014 NA 
HETATM   21  H1  UNL     1      -5.809   2.478  63.394  1.00  0.00     0.000 HD 
HETATM   22  H2  UNL     1      -5.393   4.191  63.187  1.00  0.00     0.000 HD 
BRANCH  19  23
HETATM   23  N   UNL     1      -7.945   2.742  64.595  1.00  0.00    -0.078 NA 
HETATM   24  C   UNL     1      -7.605   1.687  65.535  1.00  0.00    -0.066 C  
HETATM   25  C   UNL     1      -9.269   2.571  63.989  1.00  0.00    -0.114 C  
ENDBRANCH  19  23
ENDBRANCH  18  19
ENDBRANCH  10  13
ENDBRANCH   6   9
BRANCH   8  26
HETATM   26  C   UNL     1     -10.550  11.040  67.397  1.00  0.00    -0.237 C  
HETATM   27  N   UNL     1     -11.469  10.217  68.042  1.00  0.00    -0.497 N  
HETATM   28  O   UNL     1      -9.445  11.331  67.860  1.00  0.00    -0.169 OA 
HETATM   29  H   UNL     1     -12.358  10.028  67.578  1.00  0.00     0.000 HD 
BRANCH  27  30
HETATM   30  C   UNL     1     -11.234   9.633  69.304  1.00  0.00    -0.047 A  
HETATM   31  C   UNL     1     -11.750  10.258  70.436  1.00  0.00    -0.404 A  
HETATM   32  C   UNL     1     -10.742   8.545  71.797  1.00  0.00    -0.303 A  
HETATM   33  N   UNL     1     -10.514   8.499  69.402  1.00  0.00    -0.220 NA 
HETATM   34  C   UNL     1     -10.283   7.976  70.628  1.00  0.00    -0.196 A  
HETATM   35 CL   UNL     1     -10.387   7.840  73.321  1.00  0.00    -0.399 Cl 
HETATM   36  C   UNL     1     -11.494   9.708  71.701  1.00  0.00    -0.376 A  
ENDBRANCH  27  30
ENDBRANCH   8  26
ENDBRANCH   2   3
TORSDOF 7
ENDMDL
MODEL       44
REMARK 921   NORMALIZED FREE ENERGY PREDICTED BY IDOCK:   -5.79 KCAL/MOL
REMARK 922        TOTAL FREE ENERGY PREDICTED BY IDOCK:   -8.89 KCAL/MOL
REMARK 923 INTER-LIGAND FREE ENERGY PREDICTED BY IDOCK:   -8.14 KCAL/MOL
REMARK 924 INTRA-LIGAND FREE ENERGY PREDICTED BY IDOCK:   -0.75 KCAL/MOL
REMARK 927      BINDING AFFINITY PREDICTED BY RF-SCORE:    0.00 PKD
ROOT
HETATM    1  C   UNL     1      -6.464   6.917  62.561  1.00  0.00    -0.047 C  
HETATM    2  O   UNL     1      -7.137   6.402  63.711  1.00  0.00    -0.044 OA 
ENDROOT
BRANCH   2   3
HETATM    3  C   UNL     1      -7.852   7.309  64.449  1.00  0.00    -0.126 A  
HETATM    4  C   UNL     1      -8.017   8.645  64.116  1.00  0.00    -0.149 A  
HETATM    5  C   UNL     1      -8.750   9.489  64.947  1.00  0.00    -0.218 A  
HETATM    6  C   UNL     1      -9.336   9.029  66.131  1.00  0.00    -0.232 A  
HETATM    7  C   UNL     1      -8.441   6.814  65.622  1.00  0.00    -0.142 A  
HETATM    8  C   UNL     1      -9.184   7.656  66.484  1.00  0.00    -0.220 A  
BRANCH   6   9
HETATM    9  N   UNL     1     -10.052   9.930  66.979  1.00  0.00    -0.206 N  
HETATM   10  C   UNL     1     -10.617  11.142  66.645  1.00  0.00    -0.264 C  
HETATM   11  H   UNL     1     -10.158   9.640  67.951  1.00  0.00     0.000 HD 
HETATM   12  O   UNL     1     -10.673  11.639  65.524  1.00  0.00    -0.269 OA 
BRANCH  10  13
HETATM   13  C   UNL     1     -11.161  11.960  67.770  1.00  0.00    -0.330 A  
HETATM   14  C   UNL     1     -11.446  13.305  67.501  1.00  0.00    -0.361 A  
HETATM   15  C   UNL     1     -11.414  11.454  69.047  1.00  0.00    -0.366 A  
HETATM   16  C   UNL     1     -11.889  14.158  68.516  1.00  0.00    -0.390 A  
HETATM   17  C   UNL     1     -11.916  12.303  70.051  1.00  0.00    -0.379 A  
HETATM   18  C   UNL     1     -12.103  13.672  69.814  1.00  0.00    -0.396 A  
BRANCH  18  19
HETATM   19  C   UNL     1     -12.526  14.649  70.894  1.00  0.00    -0.336 C  
HETATM   20  N   UNL     1     -12.367  15.923  70.669  1.00  0.00    -0.468 NA 
HETATM   21  H1  UNL     1     -12.651  16.580  71.396  1.00  0.00     0.000 HD 
HETATM   22  H2  UNL     1     -11.970  16.255  69.790  1.00  0.00     0.000 HD 
BRANCH  19  23
HETATM   23  N   UNL     1     -13.032  14.259  72.132  1.00  0.00    -0.354 NA 
HETATM   24  C   UNL     1     -14.143  13.351  72.359  1.00  0.00    -0.416 C  
HETATM   25  C   UNL     1     -12.518  14.863  73.366  1.00  0.00    -0.446 C  
ENDBRANCH  19  23
ENDBRANCH  18  19
ENDBRANCH  10  13
ENDBRANCH   6   9
BRANCH   8  26
HETATM   26  C   UNL     1      -9.810   7.137  67.762  1.00  0.00    -0.145 C  
HETATM   27  N   UNL     1      -9.000   6.878  68.864  1.00  0.00    -0.132 N  
HETATM   28  O   UNL     1     -11.031   6.968  67.751  1.00  0.00    -0.218 OA 
HETATM   29  H   UNL     1      -7.999   7.055  68.781  1.00  0.00     0.000 HD 
BRANCH  27  30
HETATM   30  C   UNL     1      -9.494   6.383  70.090  1.00  0.00    -0.160 A  
HETATM   31  C   UNL     1      -9.630   5.007  70.248  1.00  0.00    -0.255 A  
HETATM   32  C   UNL     1     -10.515   5.385  72.456  1.00  0.00    -0.214 A  
HETATM   33  N   UNL     1      -9.837   7.236  71.075  1.00  0.00    -0.183 NA 
HETATM   34  C   UNL     1     -10.332   6.733  72.229  1.00  0.00    -0.196 A  
HETATM   35 CL   UNL     1     -11.175   4.821  73.937  1.00  0.00    -0.245 Cl 
HETATM   36  C   UNL     1     -10.154   4.503  71.447  1.00  0.00    -0.230 A  
ENDBRANCH  27  30
ENDBRANCH   8  26
ENDBRANCH   2   3
TORSDOF 7
ENDMDL
MODEL       45
REMARK 921   NORMALIZED FREE ENERGY PREDICTED BY IDOCK:   -5.72 KCAL/MOL
REMARK 922        TOTAL FREE ENERGY PREDICTED BY IDOCK:   -8.79 KCAL/MOL
REMARK 923 INTER-LIGAND FREE ENERGY PREDICTED BY IDOCK:   -7.51 KCAL/MOL
REMARK 924 INTRA-LIGAND FREE ENERGY PREDICTED BY IDOCK:   -1.28 KCAL/MOL
REMARK 927      BINDING AFFINITY PREDICTED BY RF-SCORE:    0.00 PKD
ROOT
HETATM    1  C   UNL     1     -11.367  15.363  68.515  1.00  0.00    -0.335 C  
HETATM    2  O   UNL     1     -12.304  14.387  68.059  1.00  0.00    -0.201 OA 
ENDROOT
BRANCH   2   3
HETATM    3  C   UNL     1     -11.775  13.207  67.603  1.00  0.00    -0.369 A  
HETATM    4  C   UNL     1     -11.549  12.906  66.269  1.00  0.00    -0.424 A  
HETATM    5  C   UNL     1     -11.023  11.667  65.909  1.00  0.00    -0.334 A  
HETATM    6  C   UNL     1     -10.710  10.695  66.865  1.00  0.00    -0.237 A  
HETATM    7  C   UNL     1     -11.457  12.259  68.587  1.00  0.00    -0.355 A  
HETATM    8  C   UNL     1     -10.928  10.992  68.243  1.00  0.00    -0.287 A  
BRANCH   6   9
HETATM    9  N   UNL     1     -10.204   9.421  66.460  1.00  0.00    -0.256 N  
HETATM   10  C   UNL     1      -8.894   9.066  66.217  1.00  0.00    -0.151 C  
HETATM   11  H   UNL     1     -10.897   8.684  66.336  1.00  0.00     0.000 HD 
HETATM   12  O   UNL     1      -7.903   9.771  66.380  1.00  0.00    -0.104 OA 
BRANCH  10  13
HETATM   13  C   UNL     1      -8.665   7.708  65.639  1.00  0.00    -0.119 A  
HETATM   14  C   UNL     1      -8.089   7.647  64.364  1.00  0.00    -0.084 A  
HETATM   15  C   UNL     1      -8.971   6.519  66.304  1.00  0.00    -0.168 A  
HETATM   16  C   UNL     1      -7.906   6.420  63.721  1.00  0.00    -0.111 A  
HETATM   17  C   UNL     1      -8.731   5.283  65.676  1.00  0.00    -0.146 A  
HETATM   18  C   UNL     1      -8.252   5.220  64.360  1.00  0.00    -0.135 A  
BRANCH  18  19
HETATM   19  C   UNL     1      -8.092   3.919  63.598  1.00  0.00    -0.089 C  
HETATM   20  N   UNL     1      -6.886   3.525  63.298  1.00  0.00    -0.041 NA 
HETATM   21  H1  UNL     1      -6.778   2.650  62.785  1.00  0.00     0.000 HD 
HETATM   22  H2  UNL     1      -6.072   4.078  63.568  1.00  0.00     0.000 HD 
BRANCH  19  23
HETATM   23  N   UNL     1      -9.163   3.143  63.162  1.00  0.00    -0.094 NA 
HETATM   24  C   UNL     1      -9.084   1.798  62.617  1.00  0.00    -0.079 C  
HETATM   25  C   UNL     1     -10.516   3.707  63.116  1.00  0.00    -0.224 C  
ENDBRANCH  19  23
ENDBRANCH  18  19
ENDBRANCH  10  13
ENDBRANCH   6   9
BRANCH   8  26
HETATM   26  C   UNL     1     -10.596   9.954  69.294  1.00  0.00    -0.224 C  
HETATM   27  N   UNL     1     -11.612   9.155  69.811  1.00  0.00    -0.426 N  
HETATM   28  O   UNL     1      -9.416   9.876  69.643  1.00  0.00    -0.206 OA 
HETATM   29  H   UNL     1     -12.559   9.287  69.457  1.00  0.00     0.000 HD 
BRANCH  27  30
HETATM   30  C   UNL     1     -11.398   8.171  70.800  1.00  0.00    -0.270 A  
HETATM   31  C   UNL     1     -11.302   6.838  70.407  1.00  0.00    -0.399 A  
HETATM   32  C   UNL     1     -11.037   6.215  72.719  1.00  0.00    -0.259 A  
HETATM   33  N   UNL     1     -11.301   8.524  72.096  1.00  0.00    -0.352 NA 
HETATM   34  C   UNL     1     -11.121   7.557  73.024  1.00  0.00    -0.362 A  
HETATM   35 CL   UNL     1     -10.836   5.039  73.953  1.00  0.00    -0.353 Cl 
HETATM   36  C   UNL     1     -11.126   5.847  71.383  1.00  0.00    -0.313 A  
ENDBRANCH  27  30
ENDBRANCH   8  26
ENDBRANCH   2   3
TORSDOF 7
ENDMDL
MODEL       46
REMARK 921   NORMALIZED FREE ENERGY PREDICTED BY IDOCK:   -5.66 KCAL/MOL
REMARK 922        TOTAL FREE ENERGY PREDICTED BY IDOCK:   -8.71 KCAL/MOL
REMARK 923 INTER-LIGAND FREE ENERGY PREDICTED BY IDOCK:   -7.36 KCAL/MOL
REMARK 924 INTRA-LIGAND FREE ENERGY PREDICTED BY IDOCK:   -1.36 KCAL/MOL
REMARK 927      BINDING AFFINITY PREDICTED BY RF-SCORE:    0.00 PKD
ROOT
HETATM    1  C   UNL     1      -9.622   4.116  69.677  1.00  0.00    -0.207 C  
HETATM    2  O   UNL     1      -8.329   4.621  69.340  1.00  0.00    -0.075 OA 
ENDROOT
BRANCH   2   3
HETATM    3  C   UNL     1      -8.282   5.920  68.906  1.00  0.00    -0.103 A  
HETATM    4  C   UNL     1      -7.567   6.359  67.802  1.00  0.00    -0.102 A  
HETATM    5  C   UNL     1      -7.570   7.708  67.456  1.00  0.00    -0.109 A  
HETATM    6  C   UNL     1      -8.280   8.656  68.198  1.00  0.00    -0.115 A  
HETATM    7  C   UNL     1      -9.017   6.845  69.662  1.00  0.00    -0.144 A  
HETATM    8  C   UNL     1      -9.028   8.221  69.331  1.00  0.00    -0.147 A  
BRANCH   6   9
HETATM    9  N   UNL     1      -8.234  10.038  67.837  1.00  0.00    -0.113 N  
HETATM   10  C   UNL     1      -7.287  10.977  68.188  1.00  0.00    -0.086 C  
HETATM   11  H   UNL     1      -8.995  10.372  67.245  1.00  0.00     0.000 HD 
HETATM   12  O   UNL     1      -6.257  10.774  68.824  1.00  0.00    -0.040 OA 
BRANCH  10  13
HETATM   13  C   UNL     1      -7.576  12.393  67.812  1.00  0.00    -0.134 A  
HETATM   14  C   UNL     1      -8.877  12.688  67.387  1.00  0.00    -0.189 A  
HETATM   15  C   UNL     1      -6.634  13.423  67.881  1.00  0.00    -0.149 A  
HETATM   16  C   UNL     1      -9.212  13.972  66.949  1.00  0.00    -0.271 A  
HETATM   17  C   UNL     1      -6.992  14.727  67.494  1.00  0.00    -0.198 A  
HETATM   18  C   UNL     1      -8.262  15.004  66.970  1.00  0.00    -0.246 A  
BRANCH  18  19
HETATM   19  C   UNL     1      -8.655  16.364  66.427  1.00  0.00    -0.323 C  
HETATM   20  N   UNL     1      -7.716  17.132  65.949  1.00  0.00    -0.427 NA 
HETATM   21  H1  UNL     1      -7.980  18.048  65.585  1.00  0.00     0.000 HD 
HETATM   22  H2  UNL     1      -6.743  16.826  65.941  1.00  0.00     0.000 HD 
BRANCH  19  23
HETATM   23  N   UNL     1      -9.957  16.858  66.452  1.00  0.00    -0.295 NA 
HETATM   24  C   UNL     1     -10.648  17.401  67.608  1.00  0.00    -0.350 C  
HETATM   25  C   UNL     1     -10.811  16.756  65.263  1.00  0.00    -0.138 C  
ENDBRANCH  19  23
ENDBRANCH  18  19
ENDBRANCH  10  13
ENDBRANCH   6   9
BRANCH   8  26
HETATM   26  C   UNL     1      -9.805   9.232  70.150  1.00  0.00    -0.215 C  
HETATM   27  N   UNL     1     -10.883   9.897  69.571  1.00  0.00    -0.236 N  
HETATM   28  O   UNL     1      -9.426   9.415  71.308  1.00  0.00    -0.224 OA 
HETATM   29  H   UNL     1     -11.127   9.676  68.606  1.00  0.00     0.000 HD 
BRANCH  27  30
HETATM   30  C   UNL     1     -11.655  10.862  70.253  1.00  0.00    -0.334 A  
HETATM   31  C   UNL     1     -11.554  12.194  69.864  1.00  0.00    -0.297 A  
HETATM   32  C   UNL     1     -13.109  12.783  71.607  1.00  0.00    -0.331 A  
HETATM   33  N   UNL     1     -12.461  10.490  71.267  1.00  0.00    -0.389 NA 
HETATM   34  C   UNL     1     -13.168  11.441  71.918  1.00  0.00    -0.380 A  
HETATM   35 CL   UNL     1     -14.015  13.937  72.497  1.00  0.00    -0.610 Cl 
HETATM   36  C   UNL     1     -12.287  13.169  70.556  1.00  0.00    -0.380 A  
ENDBRANCH  27  30
ENDBRANCH   8  26
ENDBRANCH   2   3
TORSDOF 7
ENDMDL
MODEL       47
REMARK 921   NORMALIZED FREE ENERGY PREDICTED BY IDOCK:   -5.65 KCAL/MOL
REMARK 922        TOTAL FREE ENERGY PREDICTED BY IDOCK:   -8.70 KCAL/MOL
REMARK 923 INTER-LIGAND FREE ENERGY PREDICTED BY IDOCK:   -7.10 KCAL/MOL
REMARK 924 INTRA-LIGAND FREE ENERGY PREDICTED BY IDOCK:   -1.60 KCAL/MOL
REMARK 927      BINDING AFFINITY PREDICTED BY RF-SCORE:    0.00 PKD
ROOT
HETATM    1  C   UNL     1      -8.156  20.439  67.248  1.00  0.00    -0.338 C  
HETATM    2  O   UNL     1      -7.219  20.062  68.258  1.00  0.00    -0.295 OA 
ENDROOT
BRANCH   2   3
HETATM    3  C   UNL     1      -7.188  18.732  68.587  1.00  0.00    -0.303 A  
HETATM    4  C   UNL     1      -6.258  18.148  69.434  1.00  0.00    -0.251 A  
HETATM    5  C   UNL     1      -6.302  16.779  69.688  1.00  0.00    -0.217 A  
HETATM    6  C   UNL     1      -7.270  15.954  69.106  1.00  0.00    -0.196 A  
HETATM    7  C   UNL     1      -8.180  17.932  67.999  1.00  0.00    -0.257 A  
HETATM    8  C   UNL     1      -8.240  16.539  68.239  1.00  0.00    -0.185 A  
BRANCH   6   9
HETATM    9  N   UNL     1      -7.267  14.548  69.360  1.00  0.00    -0.231 N  
HETATM   10  C   UNL     1      -6.848  13.534  68.524  1.00  0.00    -0.099 C  
HETATM   11  H   UNL     1      -7.617  14.258  70.273  1.00  0.00     0.000 HD 
HETATM   12  O   UNL     1      -6.324  13.665  67.421  1.00  0.00    -0.307 OA 
BRANCH  10  13
HETATM   13  C   UNL     1      -7.115  12.137  68.978  1.00  0.00    -0.062 A  
HETATM   14  C   UNL     1      -6.247  11.602  69.938  1.00  0.00    -0.144 A  
HETATM   15  C   UNL     1      -8.181  11.361  68.517  1.00  0.00    -0.153 A  
HETATM   16  C   UNL     1      -6.383  10.278  70.364  1.00  0.00    -0.127 A  
HETATM   17  C   UNL     1      -8.348  10.047  68.993  1.00  0.00    -0.134 A  
HETATM   18  C   UNL     1      -7.422   9.472  69.874  1.00  0.00    -0.113 A  
BRANCH  18  19
HETATM   19  C   UNL     1      -7.491   8.025  70.320  1.00  0.00    -0.072 C  
HETATM   20  N   UNL     1      -8.461   7.672  71.117  1.00  0.00    -0.115 NA 
HETATM   21  H1  UNL     1      -8.507   6.698  71.418  1.00  0.00     0.000 HD 
HETATM   22  H2  UNL     1      -9.154   8.351  71.432  1.00  0.00     0.000 HD 
BRANCH  19  23
HETATM   23  N   UNL     1      -6.551   7.061  69.962  1.00  0.00    -0.043 NA 
HETATM   24  C   UNL     1      -5.948   6.894  68.651  1.00  0.00    -0.026 C  
HETATM   25  C   UNL     1      -6.165   6.014  70.914  1.00  0.00    -0.039 C  
ENDBRANCH  19  23
ENDBRANCH  18  19
ENDBRANCH  10  13
ENDBRANCH   6   9
BRANCH   8  26
HETATM   26  C   UNL     1      -9.296  15.663  67.598  1.00  0.00    -0.206 C  
HETATM   27  N   UNL     1      -9.110  15.211  66.295  1.00  0.00    -0.385 N  
HETATM   28  O   UNL     1     -10.286  15.397  68.283  1.00  0.00    -0.224 OA 
HETATM   29  H   UNL     1      -8.256  15.477  65.807  1.00  0.00     0.000 HD 
BRANCH  27  30
HETATM   30  C   UNL     1     -10.045  14.401  65.615  1.00  0.00    -0.353 A  
HETATM   31  C   UNL     1      -9.862  13.021  65.617  1.00  0.00    -0.181 A  
HETATM   32  C   UNL     1     -11.826  12.794  64.243  1.00  0.00    -0.396 A  
HETATM   33  N   UNL     1     -11.085  14.965  64.969  1.00  0.00    -0.391 NA 
HETATM   34  C   UNL     1     -11.950  14.166  64.304  1.00  0.00    -0.435 A  
HETATM   35 CL   UNL     1     -12.948  11.845  63.356  1.00  0.00    -0.484 Cl 
HETATM   36  C   UNL     1     -10.762  12.208  64.915  1.00  0.00    -0.336 A  
ENDBRANCH  27  30
ENDBRANCH   8  26
ENDBRANCH   2   3
TORSDOF 7
ENDMDL
MODEL       48
REMARK 921   NORMALIZED FREE ENERGY PREDICTED BY IDOCK:   -5.58 KCAL/MOL
REMARK 922        TOTAL FREE ENERGY PREDICTED BY IDOCK:   -8.59 KCAL/MOL
REMARK 923 INTER-LIGAND FREE ENERGY PREDICTED BY IDOCK:   -8.13 KCAL/MOL
REMARK 924 INTRA-LIGAND FREE ENERGY PREDICTED BY IDOCK:   -0.46 KCAL/MOL
REMARK 927      BINDING AFFINITY PREDICTED BY RF-SCORE:    0.00 PKD
ROOT
HETATM    1  C   UNL     1     -10.534  15.600  65.282  1.00  0.00    -0.412 C  
HETATM    2  O   UNL     1     -11.404  14.641  64.679  1.00  0.00    -0.387 OA 
ENDROOT
BRANCH   2   3
HETATM    3  C   UNL     1     -11.057  13.325  64.841  1.00  0.00    -0.328 A  
HETATM    4  C   UNL     1     -10.597  12.498  63.827  1.00  0.00    -0.471 A  
HETATM    5  C   UNL     1     -10.289  11.166  64.094  1.00  0.00    -0.423 A  
HETATM    6  C   UNL     1     -10.432  10.620  65.373  1.00  0.00    -0.184 A  
HETATM    7  C   UNL     1     -11.197  12.810  66.138  1.00  0.00    -0.336 A  
HETATM    8  C   UNL     1     -10.896  11.458  66.429  1.00  0.00    -0.323 A  
BRANCH   6   9
HETATM    9  N   UNL     1     -10.140   9.240  65.605  1.00  0.00    -0.359 N  
HETATM   10  C   UNL     1      -8.909   8.619  65.594  1.00  0.00    -0.187 C  
HETATM   11  H   UNL     1     -10.941   8.641  65.805  1.00  0.00     0.000 HD 
HETATM   12  O   UNL     1      -7.817   9.162  65.453  1.00  0.00    -0.096 OA 
BRANCH  10  13
HETATM   13  C   UNL     1      -8.910   7.129  65.700  1.00  0.00    -0.043 A  
HETATM   14  C   UNL     1      -9.778   6.557  66.638  1.00  0.00    -0.201 A  
HETATM   15  C   UNL     1      -8.116   6.294  64.910  1.00  0.00    -0.130 A  
HETATM   16  C   UNL     1      -9.789   5.176  66.852  1.00  0.00    -0.201 A  
HETATM   17  C   UNL     1      -8.173   4.899  65.089  1.00  0.00    -0.124 A  
HETATM   18  C   UNL     1      -8.963   4.330  66.098  1.00  0.00    -0.123 A  
BRANCH  18  19
HETATM   19  C   UNL     1      -8.966   2.846  66.408  1.00  0.00    -0.150 C  
HETATM   20  N   UNL     1      -9.439   2.029  65.509  1.00  0.00    -0.340 NA 
HETATM   21  H1  UNL     1      -9.441   1.030  65.718  1.00  0.00     0.000 HD 
HETATM   22  H2  UNL     1      -9.797   2.378  64.619  1.00  0.00     0.000 HD 
BRANCH  19  23
HETATM   23  N   UNL     1      -8.535   2.310  67.620  1.00  0.00    -0.076 NA 
HETATM   24  C   UNL     1      -9.365   1.647  68.610  1.00  0.00    -0.173 C  
HETATM   25  C   UNL     1      -7.145   2.487  68.055  1.00  0.00    -0.048 C  
ENDBRANCH  19  23
ENDBRANCH  18  19
ENDBRANCH  10  13
ENDBRANCH   6   9
BRANCH   8  26
HETATM   26  C   UNL     1     -11.059  10.886  67.822  1.00  0.00    -0.309 C  
HETATM   27  N   UNL     1     -10.024  10.141  68.381  1.00  0.00    -0.152 N  
HETATM   28  O   UNL     1     -12.126  11.117  68.395  1.00  0.00    -0.605 OA 
HETATM   29  H   UNL     1      -9.174  10.006  67.834  1.00  0.00     0.000 HD 
BRANCH  27  30
HETATM   30  C   UNL     1     -10.093   9.560  69.666  1.00  0.00    -0.212 A  
HETATM   31  C   UNL     1      -8.915   9.405  70.392  1.00  0.00    -0.294 A  
HETATM   32  C   UNL     1     -10.185   8.375  72.160  1.00  0.00    -0.320 A  
HETATM   33  N   UNL     1     -11.278   9.159  70.164  1.00  0.00    -0.224 NA 
HETATM   34  C   UNL     1     -11.308   8.583  71.388  1.00  0.00    -0.271 A  
HETATM   35 CL   UNL     1     -10.297   7.611  73.693  1.00  0.00    -0.328 Cl 
HETATM   36  C   UNL     1      -8.963   8.797  71.654  1.00  0.00    -0.301 A  
ENDBRANCH  27  30
ENDBRANCH   8  26
ENDBRANCH   2   3
TORSDOF 7
ENDMDL
MODEL       49
REMARK 921   NORMALIZED FREE ENERGY PREDICTED BY IDOCK:   -5.56 KCAL/MOL
REMARK 922        TOTAL FREE ENERGY PREDICTED BY IDOCK:   -8.56 KCAL/MOL
REMARK 923 INTER-LIGAND FREE ENERGY PREDICTED BY IDOCK:   -7.23 KCAL/MOL
REMARK 924 INTRA-LIGAND FREE ENERGY PREDICTED BY IDOCK:   -1.34 KCAL/MOL
REMARK 927      BINDING AFFINITY PREDICTED BY RF-SCORE:    0.00 PKD
ROOT
HETATM    1  C   UNL     1      -9.903  19.501  67.890  1.00  0.00    -0.379 C  
HETATM    2  O   UNL     1     -10.870  18.576  67.392  1.00  0.00    -0.421 OA 
ENDROOT
BRANCH   2   3
HETATM    3  C   UNL     1     -10.422  17.302  67.155  1.00  0.00    -0.297 A  
HETATM    4  C   UNL     1      -9.350  16.981  66.338  1.00  0.00    -0.295 A  
HETATM    5  C   UNL     1      -8.987  15.649  66.149  1.00  0.00    -0.362 A  
HETATM    6  C   UNL     1      -9.681  14.603  66.764  1.00  0.00    -0.257 A  
HETATM    7  C   UNL     1     -11.130  16.275  67.798  1.00  0.00    -0.227 A  
HETATM    8  C   UNL     1     -10.782  14.916  67.615  1.00  0.00    -0.270 A  
BRANCH   6   9
HETATM    9  N   UNL     1      -9.305  13.245  66.521  1.00  0.00    -0.357 N  
HETATM   10  C   UNL     1      -8.404  12.475  67.226  1.00  0.00    -0.185 C  
HETATM   11  H   UNL     1      -9.759  12.790  65.730  1.00  0.00     0.000 HD 
HETATM   12  O   UNL     1      -7.809  12.798  68.250  1.00  0.00    -0.129 OA 
BRANCH  10  13
HETATM   13  C   UNL     1      -8.072  11.138  66.650  1.00  0.00    -0.159 A  
HETATM   14  C   UNL     1      -7.031  11.087  65.715  1.00  0.00     0.094 A  
HETATM   15  C   UNL     1      -8.723   9.955  67.008  1.00  0.00    -0.137 A  
HETATM   16  C   UNL     1      -6.704   9.888  65.075  1.00  0.00    -0.121 A  
HETATM   17  C   UNL     1      -8.351   8.740  66.403  1.00  0.00    -0.117 A  
HETATM   18  C   UNL     1      -7.381   8.702  65.391  1.00  0.00    -0.084 A  
BRANCH  18  19
HETATM   19  C   UNL     1      -7.032   7.440  64.627  1.00  0.00    -0.051 C  
HETATM   20  N   UNL     1      -6.339   6.520  65.239  1.00  0.00    -0.034 NA 
HETATM   21  H1  UNL     1      -6.104   5.671  64.724  1.00  0.00     0.000 HD 
HETATM   22  H2  UNL     1      -6.040   6.645  66.206  1.00  0.00     0.000 HD 
BRANCH  19  23
HETATM   23  N   UNL     1      -7.370   7.227  63.292  1.00  0.00    -0.079 NA 
HETATM   24  C   UNL     1      -8.486   7.829  62.583  1.00  0.00     0.064 C  
HETATM   25  C   UNL     1      -6.644   6.235  62.493  1.00  0.00    -0.034 C  
ENDBRANCH  19  23
ENDBRANCH  18  19
ENDBRANCH  10  13
ENDBRANCH   6   9
BRANCH   8  26
HETATM   26  C   UNL     1     -11.548  13.798  68.291  1.00  0.00    -0.338 C  
HETATM   27  N   UNL     1     -11.232  13.446  69.600  1.00  0.00    -0.464 N  
HETATM   28  O   UNL     1     -12.428  13.248  67.625  1.00  0.00    -0.078 OA 
HETATM   29  H   UNL     1     -10.491  13.962  70.075  1.00  0.00     0.000 HD 
BRANCH  27  30
HETATM   30  C   UNL     1     -11.884  12.411  70.303  1.00  0.00    -0.232 A  
HETATM   31  C   UNL     1     -12.858  12.749  71.239  1.00  0.00    -0.355 A  
HETATM   32  C   UNL     1     -13.138  10.410  71.739  1.00  0.00    -0.462 A  
HETATM   33  N   UNL     1     -11.554  11.125  70.075  1.00  0.00    -0.321 NA 
HETATM   34  C   UNL     1     -12.178  10.156  70.782  1.00  0.00    -0.338 A  
HETATM   35 CL   UNL     1     -13.867   9.129  72.619  1.00  0.00    -0.481 Cl 
HETATM   36  C   UNL     1     -13.488  11.733  71.971  1.00  0.00    -0.319 A  
ENDBRANCH  27  30
ENDBRANCH   8  26
ENDBRANCH   2   3
TORSDOF 7
ENDMDL
MODEL       50
REMARK 921   NORMALIZED FREE ENERGY PREDICTED BY IDOCK:   -5.46 KCAL/MOL
REMARK 922        TOTAL FREE ENERGY PREDICTED BY IDOCK:   -8.43 KCAL/MOL
REMARK 923 INTER-LIGAND FREE ENERGY PREDICTED BY IDOCK:   -7.46 KCAL/MOL
REMARK 924 INTRA-LIGAND FREE ENERGY PREDICTED BY IDOCK:   -0.97 KCAL/MOL
REMARK 927      BINDING AFFINITY PREDICTED BY RF-SCORE:    0.00 PKD
ROOT
HETATM    1  C   UNL     1      -9.537   4.352  66.498  1.00  0.00    -0.197 C  
HETATM    2  O   UNL     1     -10.535   5.371  66.561  1.00  0.00    -0.252 OA 
ENDROOT
BRANCH   2   3
HETATM    3  C   UNL     1     -10.086   6.664  66.481  1.00  0.00    -0.072 A  
HETATM    4  C   UNL     1      -8.980   7.072  65.750  1.00  0.00    -0.037 A  
HETATM    5  C   UNL     1      -8.596   8.411  65.750  1.00  0.00    -0.181 A  
HETATM    6  C   UNL     1      -9.296   9.378  66.478  1.00  0.00    -0.171 A  
HETATM    7  C   UNL     1     -10.818   7.613  67.210  1.00  0.00    -0.263 A  
HETATM    8  C   UNL     1     -10.441   8.976  67.228  1.00  0.00    -0.343 A  
BRANCH   6   9
HETATM    9  N   UNL     1      -8.854  10.737  66.485  1.00  0.00    -0.150 N  
HETATM   10  C   UNL     1      -7.943  11.329  67.334  1.00  0.00    -0.132 C  
HETATM   11  H   UNL     1      -9.262  11.343  65.774  1.00  0.00     0.000 HD 
HETATM   12  O   UNL     1      -7.282  10.769  68.203  1.00  0.00    -0.080 OA 
BRANCH  10  13
HETATM   13  C   UNL     1      -7.793  12.811  67.227  1.00  0.00    -0.148 A  
HETATM   14  C   UNL     1      -8.888  13.529  66.728  1.00  0.00    -0.146 A  
HETATM   15  C   UNL     1      -6.644  13.506  67.612  1.00  0.00    -0.177 A  
HETATM   16  C   UNL     1      -8.805  14.909  66.528  1.00  0.00    -0.256 A  
HETATM   17  C   UNL     1      -6.586  14.903  67.463  1.00  0.00    -0.140 A  
HETATM   18  C   UNL     1      -7.639  15.612  66.868  1.00  0.00    -0.201 A  
BRANCH  18  19
HETATM   19  C   UNL     1      -7.576  17.099  66.576  1.00  0.00    -0.285 C  
HETATM   20  N   UNL     1      -8.645  17.681  66.108  1.00  0.00    -0.491 NA 
HETATM   21  H1  UNL     1      -8.603  18.681  65.911  1.00  0.00     0.000 HD 
HETATM   22  H2  UNL     1      -9.501  17.151  65.943  1.00  0.00     0.000 HD 
BRANCH  19  23
HETATM   23  N   UNL     1      -6.427  17.869  66.736  1.00  0.00    -0.172 NA 
HETATM   24  C   UNL     1      -6.262  18.986  67.649  1.00  0.00    -0.203 C  
HETATM   25  C   UNL     1      -5.268  17.662  65.860  1.00  0.00    -0.165 C  
ENDBRANCH  19  23
ENDBRANCH  18  19
ENDBRANCH  10  13
ENDBRANCH   6   9
BRANCH   8  26
HETATM   26  C   UNL     1     -11.213  10.008  68.024  1.00  0.00    -0.122 C  
HETATM   27  N   UNL     1     -11.258   9.908  69.412  1.00  0.00    -0.378 N  
HETATM   28  O   UNL     1     -11.775  10.897  67.381  1.00  0.00    -0.510 OA 
HETATM   29  H   UNL     1     -10.757   9.140  69.859  1.00  0.00     0.000 HD 
BRANCH  27  30
HETATM   30  C   UNL     1     -11.962  10.815  70.232  1.00  0.00    -0.351 A  
HETATM   31  C   UNL     1     -11.852  12.178  69.969  1.00  0.00    -0.383 A  
HETATM   32  C   UNL     1     -13.281  12.621  71.856  1.00  0.00    -0.403 A  
HETATM   33  N   UNL     1     -12.713  10.361  71.254  1.00  0.00    -0.395 NA 
HETATM   34  C   UNL     1     -13.356  11.256  72.039  1.00  0.00    -0.280 A  
HETATM   35 CL   UNL     1     -14.102  13.698  72.910  1.00  0.00     0.009 Cl 
HETATM   36  C   UNL     1     -12.516  13.093  70.798  1.00  0.00    -0.389 A  
ENDBRANCH  27  30
ENDBRANCH   8  26
ENDBRANCH   2   3
TORSDOF 7
ENDMDL
MODEL       51
REMARK 921   NORMALIZED FREE ENERGY PREDICTED BY IDOCK:   -5.39 KCAL/MOL
REMARK 922        TOTAL FREE ENERGY PREDICTED BY IDOCK:   -8.33 KCAL/MOL
REMARK 923 INTER-LIGAND FREE ENERGY PREDICTED BY IDOCK:   -7.56 KCAL/MOL
REMARK 924 INTRA-LIGAND FREE ENERGY PREDICTED BY IDOCK:   -0.77 KCAL/MOL
REMARK 927      BINDING AFFINITY PREDICTED BY RF-SCORE:    0.00 PKD
ROOT
HETATM    1  C   UNL     1      -7.196  20.944  67.278  1.00  0.00    -0.350 C  
HETATM    2  O   UNL     1      -6.849  20.395  68.550  1.00  0.00    -0.274 OA 
ENDROOT
BRANCH   2   3
HETATM    3  C   UNL     1      -6.908  19.029  68.655  1.00  0.00    -0.281 A  
HETATM    4  C   UNL     1      -6.202  18.276  69.581  1.00  0.00    -0.220 A  
HETATM    5  C   UNL     1      -6.319  16.888  69.591  1.00  0.00    -0.212 A  
HETATM    6  C   UNL     1      -7.138  16.212  68.681  1.00  0.00    -0.147 A  
HETATM    7  C   UNL     1      -7.750  18.381  67.739  1.00  0.00    -0.240 A  
HETATM    8  C   UNL     1      -7.878  16.972  67.728  1.00  0.00    -0.188 A  
BRANCH   6   9
HETATM    9  N   UNL     1      -7.208  14.785  68.695  1.00  0.00    -0.112 N  
HETATM   10  C   UNL     1      -6.403  13.888  68.026  1.00  0.00    -0.142 C  
HETATM   11  H   UNL     1      -7.945  14.379  69.272  1.00  0.00     0.000 HD 
HETATM   12  O   UNL     1      -5.417  14.156  67.346  1.00  0.00    -0.339 OA 
BRANCH  10  13
HETATM   13  C   UNL     1      -6.807  12.451  68.085  1.00  0.00    -0.081 A  
HETATM   14  C   UNL     1      -7.752  12.016  67.147  1.00  0.00    -0.161 A  
HETATM   15  C   UNL     1      -6.282  11.533  68.998  1.00  0.00    -0.060 A  
HETATM   16  C   UNL     1      -8.238  10.706  67.179  1.00  0.00    -0.121 A  
HETATM   17  C   UNL     1      -6.732  10.200  68.988  1.00  0.00    -0.054 A  
HETATM   18  C   UNL     1      -7.753   9.787  68.121  1.00  0.00    -0.082 A  
BRANCH  18  19
HETATM   19  C   UNL     1      -8.354   8.395  68.154  1.00  0.00    -0.128 C  
HETATM   20  N   UNL     1      -7.571   7.379  67.917  1.00  0.00    -0.111 NA 
HETATM   21  H1  UNL     1      -7.976   6.443  67.939  1.00  0.00     0.000 HD 
HETATM   22  H2  UNL     1      -6.581   7.517  67.715  1.00  0.00     0.000 HD 
BRANCH  19  23
HETATM   23  N   UNL     1      -9.706   8.144  68.378  1.00  0.00    -0.158 NA 
HETATM   24  C   UNL     1     -10.376   8.141  69.667  1.00  0.00    -0.221 C  
HETATM   25  C   UNL     1     -10.576   7.730  67.273  1.00  0.00    -0.306 C  
ENDBRANCH  19  23
ENDBRANCH  18  19
ENDBRANCH  10  13
ENDBRANCH   6   9
BRANCH   8  26
HETATM   26  C   UNL     1      -8.770  16.259  66.732  1.00  0.00    -0.231 C  
HETATM   27  N   UNL     1      -9.509  15.154  67.146  1.00  0.00    -0.212 N  
HETATM   28  O   UNL     1      -8.789  16.708  65.585  1.00  0.00    -0.448 OA 
HETATM   29  H   UNL     1      -9.434  14.858  68.118  1.00  0.00     0.000 HD 
BRANCH  27  30
HETATM   30  C   UNL     1     -10.356  14.423  66.286  1.00  0.00    -0.295 A  
HETATM   31  C   UNL     1     -11.698  14.281  66.631  1.00  0.00    -0.417 A  
HETATM   32  C   UNL     1     -12.028  12.947  64.653  1.00  0.00    -0.392 A  
HETATM   33  N   UNL     1      -9.863  13.867  65.162  1.00  0.00    -0.189 NA 
HETATM   34  C   UNL     1     -10.694  13.150  64.371  1.00  0.00    -0.407 A  
HETATM   35 CL   UNL     1     -13.015  12.001  63.616  1.00  0.00    -0.489 Cl 
HETATM   36  C   UNL     1     -12.543  13.526  65.805  1.00  0.00    -0.490 A  
ENDBRANCH  27  30
ENDBRANCH   8  26
ENDBRANCH   2   3
TORSDOF 7
ENDMDL
MODEL       52
REMARK 921   NORMALIZED FREE ENERGY PREDICTED BY IDOCK:   -5.37 KCAL/MOL
REMARK 922        TOTAL FREE ENERGY PREDICTED BY IDOCK:   -8.31 KCAL/MOL
REMARK 923 INTER-LIGAND FREE ENERGY PREDICTED BY IDOCK:   -6.97 KCAL/MOL
REMARK 924 INTRA-LIGAND FREE ENERGY PREDICTED BY IDOCK:   -1.33 KCAL/MOL
REMARK 927      BINDING AFFINITY PREDICTED BY RF-SCORE:    0.00 PKD
ROOT
HETATM    1  C   UNL     1      -6.215   6.566  62.369  1.00  0.00    -0.031 C  
HETATM    2  O   UNL     1      -7.540   6.663  62.895  1.00  0.00    -0.075 OA 
ENDROOT
BRANCH   2   3
HETATM    3  C   UNL     1      -7.865   7.851  63.498  1.00  0.00    -0.138 A  
HETATM    4  C   UNL     1      -7.972   9.067  62.841  1.00  0.00    -0.147 A  
HETATM    5  C   UNL     1      -8.290  10.222  63.552  1.00  0.00    -0.169 A  
HETATM    6  C   UNL     1      -8.507  10.199  64.934  1.00  0.00    -0.172 A  
HETATM    7  C   UNL     1      -8.091   7.793  64.881  1.00  0.00    -0.136 A  
HETATM    8  C   UNL     1      -8.409   8.955  65.623  1.00  0.00    -0.144 A  
BRANCH   6   9
HETATM    9  N   UNL     1      -8.797  11.408  65.639  1.00  0.00    -0.369 N  
HETATM   10  C   UNL     1      -9.992  12.095  65.691  1.00  0.00    -0.249 C  
HETATM   11  H   UNL     1      -8.026  11.813  66.169  1.00  0.00     0.000 HD 
HETATM   12  O   UNL     1     -11.059  11.745  65.194  1.00  0.00    -0.308 OA 
BRANCH  10  13
HETATM   13  C   UNL     1      -9.971  13.427  66.366  1.00  0.00    -0.293 A  
HETATM   14  C   UNL     1     -11.197  14.086  66.515  1.00  0.00    -0.326 A  
HETATM   15  C   UNL     1      -8.812  14.026  66.866  1.00  0.00    -0.212 A  
HETATM   16  C   UNL     1     -11.256  15.367  67.070  1.00  0.00    -0.229 A  
HETATM   17  C   UNL     1      -8.885  15.291  67.477  1.00  0.00    -0.188 A  
HETATM   18  C   UNL     1     -10.093  15.999  67.534  1.00  0.00    -0.247 A  
BRANCH  18  19
HETATM   19  C   UNL     1     -10.200  17.412  68.073  1.00  0.00    -0.345 C  
HETATM   20  N   UNL     1     -10.721  17.583  69.257  1.00  0.00    -0.335 NA 
HETATM   21  H1  UNL     1     -10.793  18.534  69.619  1.00  0.00     0.000 HD 
HETATM   22  H2  UNL     1     -11.047  16.787  69.805  1.00  0.00     0.000 HD 
BRANCH  19  23
HETATM   23  N   UNL     1      -9.815  18.543  67.356  1.00  0.00    -0.302 NA 
HETATM   24  C   UNL     1     -10.605  19.233  66.352  1.00  0.00    -0.450 C  
HETATM   25  C   UNL     1      -8.458  19.082  67.496  1.00  0.00    -0.282 C  
ENDBRANCH  19  23
ENDBRANCH  18  19
ENDBRANCH  10  13
ENDBRANCH   6   9
BRANCH   8  26
HETATM   26  C   UNL     1      -8.639   8.909  67.120  1.00  0.00    -0.110 C  
HETATM   27  N   UNL     1      -9.612   8.057  67.636  1.00  0.00    -0.147 N  
HETATM   28  O   UNL     1      -7.937   9.648  67.812  1.00  0.00    -0.104 OA 
HETATM   29  H   UNL     1     -10.141   7.476  66.986  1.00  0.00     0.000 HD 
BRANCH  27  30
HETATM   30  C   UNL     1      -9.903   7.957  69.013  1.00  0.00    -0.171 A  
HETATM   31  C   UNL     1      -9.053   7.207  69.822  1.00  0.00    -0.141 A  
HETATM   32  C   UNL     1     -10.477   7.692  71.703  1.00  0.00    -0.197 A  
HETATM   33  N   UNL     1     -10.990   8.568  69.522  1.00  0.00    -0.118 NA 
HETATM   34  C   UNL     1     -11.258   8.433  70.840  1.00  0.00    -0.262 A  
HETATM   35 CL   UNL     1     -10.894   7.542  73.361  1.00  0.00    -0.418 Cl 
HETATM   36  C   UNL     1      -9.350   7.069  71.186  1.00  0.00    -0.158 A  
ENDBRANCH  27  30
ENDBRANCH   8  26
ENDBRANCH   2   3
TORSDOF 7
ENDMDL
MODEL       53
REMARK 921   NORMALIZED FREE ENERGY PREDICTED BY IDOCK:   -5.34 KCAL/MOL
REMARK 922        TOTAL FREE ENERGY PREDICTED BY IDOCK:   -8.26 KCAL/MOL
REMARK 923 INTER-LIGAND FREE ENERGY PREDICTED BY IDOCK:   -8.73 KCAL/MOL
REMARK 924 INTRA-LIGAND FREE ENERGY PREDICTED BY IDOCK:    0.46 KCAL/MOL
REMARK 927      BINDING AFFINITY PREDICTED BY RF-SCORE:    0.00 PKD
ROOT
HETATM    1  C   UNL     1      -8.397   3.045  67.436  1.00  0.00    -0.085 C  
HETATM    2  O   UNL     1      -7.489   4.135  67.604  1.00  0.00    -0.068 OA 
ENDROOT
BRANCH   2   3
HETATM    3  C   UNL     1      -7.929   5.360  67.175  1.00  0.00    -0.101 A  
HETATM    4  C   UNL     1      -7.575   5.950  65.971  1.00  0.00    -0.086 A  
HETATM    5  C   UNL     1      -8.065   7.211  65.638  1.00  0.00    -0.133 A  
HETATM    6  C   UNL     1      -8.916   7.919  66.492  1.00  0.00    -0.161 A  
HETATM    7  C   UNL     1      -8.793   6.039  68.046  1.00  0.00    -0.110 A  
HETATM    8  C   UNL     1      -9.297   7.323  67.730  1.00  0.00    -0.134 A  
BRANCH   6   9
HETATM    9  N   UNL     1      -9.372   9.226  66.136  1.00  0.00    -0.193 N  
HETATM   10  C   UNL     1      -9.388   9.808  64.886  1.00  0.00    -0.265 C  
HETATM   11  H   UNL     1      -9.731   9.798  66.899  1.00  0.00     0.000 HD 
HETATM   12  O   UNL     1      -9.077   9.273  63.826  1.00  0.00    -0.141 OA 
BRANCH  10  13
HETATM   13  C   UNL     1      -9.761  11.253  64.824  1.00  0.00    -0.298 A  
HETATM   14  C   UNL     1      -9.490  12.030  65.958  1.00  0.00    -0.229 A  
HETATM   15  C   UNL     1     -10.337  11.860  63.706  1.00  0.00    -0.451 A  
HETATM   16  C   UNL     1      -9.873  13.373  66.010  1.00  0.00    -0.273 A  
HETATM   17  C   UNL     1     -10.668  13.227  63.742  1.00  0.00     0.033 A  
HETATM   18  C   UNL     1     -10.494  13.983  64.910  1.00  0.00    -0.453 A  
BRANCH  18  19
HETATM   19  C   UNL     1     -10.945  15.425  65.037  1.00  0.00    -0.436 C  
HETATM   20  N   UNL     1     -11.494  15.993  64.000  1.00  0.00    -1.266 NA 
HETATM   21  H1  UNL     1     -11.797  16.963  64.085  1.00  0.00     0.000 HD 
HETATM   22  H2  UNL     1     -11.616  15.481  63.125  1.00  0.00     0.000 HD 
BRANCH  19  23
HETATM   23  N   UNL     1     -10.765  16.192  66.186  1.00  0.00    -0.266 NA 
HETATM   24  C   UNL     1      -9.941  17.382  66.304  1.00  0.00    -0.297 C  
HETATM   25  C   UNL     1     -11.344  15.760  67.463  1.00  0.00    -0.150 C  
ENDBRANCH  19  23
ENDBRANCH  18  19
ENDBRANCH  10  13
ENDBRANCH   6   9
BRANCH   8  26
HETATM   26  C   UNL     1     -10.217   8.074  68.670  1.00  0.00    -0.206 C  
HETATM   27  N   UNL     1     -10.235   9.465  68.644  1.00  0.00    -0.194 N  
HETATM   28  O   UNL     1     -10.913   7.392  69.426  1.00  0.00    -0.205 OA 
HETATM   29  H   UNL     1      -9.629   9.945  67.979  1.00  0.00     0.000 HD 
BRANCH  27  30
HETATM   30  C   UNL     1     -11.051  10.246  69.490  1.00  0.00    -0.262 A  
HETATM   31  C   UNL     1     -11.313  11.566  69.133  1.00  0.00    -0.351 A  
HETATM   32  C   UNL     1     -12.597  11.819  71.156  1.00  0.00    -0.309 A  
HETATM   33  N   UNL     1     -11.552   9.718  70.624  1.00  0.00    -0.293 NA 
HETATM   34  C   UNL     1     -12.309  10.499  71.428  1.00  0.00    -0.372 A  
HETATM   35 CL   UNL     1     -13.543  12.757  72.238  1.00  0.00    -0.636 Cl 
HETATM   36  C   UNL     1     -12.092  12.365  69.983  1.00  0.00    -0.335 A  
ENDBRANCH  27  30
ENDBRANCH   8  26
ENDBRANCH   2   3
TORSDOF 7
ENDMDL
MODEL       54
REMARK 921   NORMALIZED FREE ENERGY PREDICTED BY IDOCK:   -5.30 KCAL/MOL
REMARK 922        TOTAL FREE ENERGY PREDICTED BY IDOCK:   -8.20 KCAL/MOL
REMARK 923 INTER-LIGAND FREE ENERGY PREDICTED BY IDOCK:   -7.02 KCAL/MOL
REMARK 924 INTRA-LIGAND FREE ENERGY PREDICTED BY IDOCK:   -1.18 KCAL/MOL
REMARK 927      BINDING AFFINITY PREDICTED BY RF-SCORE:    0.00 PKD
ROOT
HETATM    1  C   UNL     1      -9.902   1.843  72.901  1.00  0.00    -0.099 C  
HETATM    2  O   UNL     1     -10.470   2.942  73.615  1.00  0.00    -0.121 OA 
ENDROOT
BRANCH   2   3
HETATM    3  C   UNL     1     -10.524   4.136  72.943  1.00  0.00    -0.172 A  
HETATM    4  C   UNL     1     -11.354   5.195  73.279  1.00  0.00    -0.361 A  
HETATM    5  C   UNL     1     -11.346   6.361  72.517  1.00  0.00    -0.299 A  
HETATM    6  C   UNL     1     -10.515   6.505  71.401  1.00  0.00    -0.213 A  
HETATM    7  C   UNL     1      -9.669   4.256  71.838  1.00  0.00    -0.231 A  
HETATM    8  C   UNL     1      -9.649   5.429  71.047  1.00  0.00    -0.224 A  
BRANCH   6   9
HETATM    9  N   UNL     1     -10.556   7.701  70.620  1.00  0.00    -0.218 N  
HETATM   10  C   UNL     1      -9.974   8.919  70.902  1.00  0.00    -0.242 C  
HETATM   11  H   UNL     1     -11.079   7.647  69.747  1.00  0.00     0.000 HD 
HETATM   12  O   UNL     1      -9.243   9.178  71.853  1.00  0.00    -0.354 OA 
BRANCH  10  13
HETATM   13  C   UNL     1     -10.320  10.053  69.993  1.00  0.00    -0.323 A  
HETATM   14  C   UNL     1     -11.605  10.596  70.112  1.00  0.00    -0.414 A  
HETATM   15  C   UNL     1      -9.434  10.601  69.063  1.00  0.00    -0.202 A  
HETATM   16  C   UNL     1     -12.034  11.611  69.252  1.00  0.00    -0.382 A  
HETATM   17  C   UNL     1      -9.851  11.661  68.238  1.00  0.00    -0.199 A  
HETATM   18  C   UNL     1     -11.168  12.138  68.282  1.00  0.00    -0.319 A  
BRANCH  18  19
HETATM   19  C   UNL     1     -11.699  13.195  67.333  1.00  0.00    -0.370 C  
HETATM   20  N   UNL     1     -12.437  12.807  66.329  1.00  0.00    -0.401 NA 
HETATM   21  H1  UNL     1     -12.793  13.518  65.690  1.00  0.00     0.000 HD 
HETATM   22  H2  UNL     1     -12.652  11.820  66.187  1.00  0.00     0.000 HD 
BRANCH  19  23
HETATM   23  N   UNL     1     -11.404  14.551  67.445  1.00  0.00    -0.340 NA 
HETATM   24  C   UNL     1     -10.815  15.391  66.416  1.00  0.00    -0.303 C  
HETATM   25  C   UNL     1     -11.578  15.243  68.726  1.00  0.00    -0.362 C  
ENDBRANCH  19  23
ENDBRANCH  18  19
ENDBRANCH  10  13
ENDBRANCH   6   9
BRANCH   8  26
HETATM   26  C   UNL     1      -8.741   5.564  69.842  1.00  0.00    -0.123 C  
HETATM   27  N   UNL     1      -9.279   5.440  68.564  1.00  0.00    -0.108 N  
HETATM   28  O   UNL     1      -7.548   5.778  70.068  1.00  0.00    -0.079 OA 
HETATM   29  H   UNL     1     -10.280   5.269  68.474  1.00  0.00     0.000 HD 
BRANCH  27  30
HETATM   30  C   UNL     1      -8.508   5.539  67.386  1.00  0.00    -0.109 A  
HETATM   31  C   UNL     1      -8.033   4.370  66.798  1.00  0.00    -0.098 A  
HETATM   32  C   UNL     1      -6.946   5.703  65.112  1.00  0.00    -0.063 A  
HETATM   33  N   UNL     1      -8.233   6.747  66.857  1.00  0.00    -0.112 NA 
HETATM   34  C   UNL     1      -7.470   6.812  65.742  1.00  0.00    -0.085 A  
HETATM   35 CL   UNL     1      -5.962   5.864  63.715  1.00  0.00    -0.024 Cl 
HETATM   36  C   UNL     1      -7.235   4.455  65.648  1.00  0.00    -0.072 A  
ENDBRANCH  27  30
ENDBRANCH   8  26
ENDBRANCH   2   3
TORSDOF 7
ENDMDL
MODEL       55
REMARK 921   NORMALIZED FREE ENERGY PREDICTED BY IDOCK:   -5.21 KCAL/MOL
REMARK 922        TOTAL FREE ENERGY PREDICTED BY IDOCK:   -8.07 KCAL/MOL
REMARK 923 INTER-LIGAND FREE ENERGY PREDICTED BY IDOCK:   -7.26 KCAL/MOL
REMARK 924 INTRA-LIGAND FREE ENERGY PREDICTED BY IDOCK:   -0.81 KCAL/MOL
REMARK 927      BINDING AFFINITY PREDICTED BY RF-SCORE:    0.00 PKD
ROOT
HETATM    1  C   UNL     1      -8.633   4.341  70.144  1.00  0.00    -0.069 C  
HETATM    2  O   UNL     1      -8.995   4.302  68.763  1.00  0.00    -0.099 OA 
ENDROOT
BRANCH   2   3
HETATM    3  C   UNL     1      -9.383   5.492  68.206  1.00  0.00    -0.111 A  
HETATM    4  C   UNL     1     -10.165   5.615  67.068  1.00  0.00    -0.265 A  
HETATM    5  C   UNL     1     -10.487   6.876  66.571  1.00  0.00    -0.088 A  
HETATM    6  C   UNL     1     -10.038   8.047  67.190  1.00  0.00    -0.263 A  
HETATM    7  C   UNL     1      -8.930   6.649  68.858  1.00  0.00    -0.130 A  
HETATM    8  C   UNL     1      -9.240   7.939  68.367  1.00  0.00    -0.134 A  
BRANCH   6   9
HETATM    9  N   UNL     1     -10.357   9.325  66.635  1.00  0.00    -0.248 N  
HETATM   10  C   UNL     1      -9.936   9.859  65.435  1.00  0.00    -0.279 C  
HETATM   11  H   UNL     1     -10.973   9.915  67.194  1.00  0.00     0.000 HD 
HETATM   12  O   UNL     1      -9.261   9.294  64.580  1.00  0.00    -0.190 OA 
BRANCH  10  13
HETATM   13  C   UNL     1     -10.285  11.288  65.179  1.00  0.00    -0.344 A  
HETATM   14  C   UNL     1      -9.678  12.249  65.997  1.00  0.00    -0.254 A  
HETATM   15  C   UNL     1     -11.153  11.707  64.168  1.00  0.00    -0.435 A  
HETATM   16  C   UNL     1     -10.003  13.603  65.872  1.00  0.00    -0.304 A  
HETATM   17  C   UNL     1     -11.434  13.076  64.008  1.00  0.00    -0.473 A  
HETATM   18  C   UNL     1     -10.910  14.031  64.891  1.00  0.00    -0.421 A  
BRANCH  18  19
HETATM   19  C   UNL     1     -11.277  15.501  64.834  1.00  0.00    -0.389 C  
HETATM   20  N   UNL     1     -11.950  15.929  63.801  1.00  0.00    -1.266 NA 
HETATM   21  H1  UNL     1     -12.197  16.918  63.763  1.00  0.00     0.000 HD 
HETATM   22  H2  UNL     1     -12.222  15.292  63.052  1.00  0.00     0.000 HD 
BRANCH  19  23
HETATM   23  N   UNL     1     -10.897  16.430  65.800  1.00  0.00    -0.208 NA 
HETATM   24  C   UNL     1     -10.904  16.225  67.238  1.00  0.00    -0.216 C  
HETATM   25  C   UNL     1     -10.548  17.801  65.413  1.00  0.00     0.078 C  
ENDBRANCH  19  23
ENDBRANCH  18  19
ENDBRANCH  10  13
ENDBRANCH   6   9
BRANCH   8  26
HETATM   26  C   UNL     1      -8.743   9.195  69.052  1.00  0.00    -0.135 C  
HETATM   27  N   UNL     1      -7.676   9.899  68.501  1.00  0.00    -0.080 N  
HETATM   28  O   UNL     1      -9.326   9.529  70.086  1.00  0.00    -0.215 OA 
HETATM   29  H   UNL     1      -7.259   9.549  67.639  1.00  0.00     0.000 HD 
BRANCH  27  30
HETATM   30  C   UNL     1      -7.140  11.070  69.077  1.00  0.00    -0.106 A  
HETATM   31  C   UNL     1      -6.200  10.944  70.097  1.00  0.00    -0.142 A  
HETATM   32  C   UNL     1      -6.115  13.345  70.266  1.00  0.00    -0.099 A  
HETATM   33  N   UNL     1      -7.545  12.282  68.649  1.00  0.00    -0.112 NA 
HETATM   34  C   UNL     1      -7.033  13.386  69.238  1.00  0.00     0.006 A  
HETATM   35 CL   UNL     1      -5.530  14.790  70.984  1.00  0.00    -0.142 Cl 
HETATM   36  C   UNL     1      -5.687  12.100  70.704  1.00  0.00    -0.128 A  
ENDBRANCH  27  30
ENDBRANCH   8  26
ENDBRANCH   2   3
TORSDOF 7
ENDMDL
MODEL       56
REMARK 921   NORMALIZED FREE ENERGY PREDICTED BY IDOCK:   -5.19 KCAL/MOL
REMARK 922        TOTAL FREE ENERGY PREDICTED BY IDOCK:   -8.05 KCAL/MOL
REMARK 923 INTER-LIGAND FREE ENERGY PREDICTED BY IDOCK:   -7.21 KCAL/MOL
REMARK 924 INTRA-LIGAND FREE ENERGY PREDICTED BY IDOCK:   -0.84 KCAL/MOL
REMARK 927      BINDING AFFINITY PREDICTED BY RF-SCORE:    0.00 PKD
ROOT
HETATM    1  C   UNL     1     -13.815  13.812  72.367  1.00  0.00    -0.579 C  
HETATM    2  O   UNL     1     -13.330  13.988  71.035  1.00  0.00    -0.283 OA 
ENDROOT
BRANCH   2   3
HETATM    3  C   UNL     1     -12.518  12.995  70.551  1.00  0.00    -0.231 A  
HETATM    4  C   UNL     1     -11.681  13.123  69.454  1.00  0.00    -0.386 A  
HETATM    5  C   UNL     1     -10.909  12.043  69.031  1.00  0.00    -0.223 A  
HETATM    6  C   UNL     1     -10.952  10.807  69.685  1.00  0.00    -0.264 A  
HETATM    7  C   UNL     1     -12.572  11.772  71.237  1.00  0.00    -0.401 A  
HETATM    8  C   UNL     1     -11.802  10.661  70.820  1.00  0.00    -0.459 A  
BRANCH   6   9
HETATM    9  N   UNL     1     -10.174   9.709  69.204  1.00  0.00    -0.192 N  
HETATM   10  C   UNL     1     -10.259   9.079  67.981  1.00  0.00    -0.212 C  
HETATM   11  H   UNL     1      -9.468   9.347  69.845  1.00  0.00     0.000 HD 
HETATM   12  O   UNL     1     -10.980   9.401  67.041  1.00  0.00    -0.118 OA 
BRANCH  10  13
HETATM   13  C   UNL     1      -9.439   7.843  67.804  1.00  0.00    -0.165 A  
HETATM   14  C   UNL     1      -9.677   6.787  68.693  1.00  0.00    -0.131 A  
HETATM   15  C   UNL     1      -8.478   7.685  66.803  1.00  0.00    -0.127 A  
HETATM   16  C   UNL     1      -8.904   5.624  68.643  1.00  0.00    -0.109 A  
HETATM   17  C   UNL     1      -7.742   6.489  66.720  1.00  0.00    -0.099 A  
HETATM   18  C   UNL     1      -7.905   5.472  67.671  1.00  0.00    -0.097 A  
BRANCH  18  19
HETATM   19  C   UNL     1      -7.053   4.218  67.695  1.00  0.00    -0.064 C  
HETATM   20  N   UNL     1      -6.005   4.199  68.473  1.00  0.00    -0.026 NA 
HETATM   21  H1  UNL     1      -5.432   3.356  68.489  1.00  0.00     0.000 HD 
HETATM   22  H2  UNL     1      -5.766   5.007  69.049  1.00  0.00     0.000 HD 
BRANCH  19  23
HETATM   23  N   UNL     1      -7.299   3.101  66.901  1.00  0.00    -0.069 NA 
HETATM   24  C   UNL     1      -8.297   2.998  65.850  1.00  0.00    -0.098 C  
HETATM   25  C   UNL     1      -6.600   1.838  67.160  1.00  0.00    -0.034 C  
ENDBRANCH  19  23
ENDBRANCH  18  19
ENDBRANCH  10  13
ENDBRANCH   6   9
BRANCH   8  26
HETATM   26  C   UNL     1     -11.863   9.331  71.543  1.00  0.00    -0.374 C  
HETATM   27  N   UNL     1     -10.682   8.649  71.822  1.00  0.00    -0.294 N  
HETATM   28  O   UNL     1     -12.984   8.917  71.847  1.00  0.00    -0.333 OA 
HETATM   29  H   UNL     1      -9.799   9.073  71.537  1.00  0.00     0.000 HD 
BRANCH  27  30
HETATM   30  C   UNL     1     -10.644   7.401  72.480  1.00  0.00    -0.261 A  
HETATM   31  C   UNL     1     -10.272   7.364  73.821  1.00  0.00    -0.321 A  
HETATM   32  C   UNL     1     -10.504   4.966  73.780  1.00  0.00    -0.253 A  
HETATM   33  N   UNL     1     -10.953   6.274  71.810  1.00  0.00    -0.248 NA 
HETATM   34  C   UNL     1     -10.883   5.090  72.460  1.00  0.00    -0.196 A  
HETATM   35 CL   UNL     1     -10.411   3.426  74.532  1.00  0.00    -0.241 Cl 
HETATM   36  C   UNL     1     -10.195   6.127  74.477  1.00  0.00    -0.318 A  
ENDBRANCH  27  30
ENDBRANCH   8  26
ENDBRANCH   2   3
TORSDOF 7
ENDMDL
MODEL       57
REMARK 921   NORMALIZED FREE ENERGY PREDICTED BY IDOCK:   -5.19 KCAL/MOL
REMARK 922        TOTAL FREE ENERGY PREDICTED BY IDOCK:   -8.04 KCAL/MOL
REMARK 923 INTER-LIGAND FREE ENERGY PREDICTED BY IDOCK:   -6.59 KCAL/MOL
REMARK 924 INTRA-LIGAND FREE ENERGY PREDICTED BY IDOCK:   -1.46 KCAL/MOL
REMARK 927      BINDING AFFINITY PREDICTED BY RF-SCORE:    0.00 PKD
ROOT
HETATM    1  C   UNL     1      -6.995   2.609  67.848  1.00  0.00    -0.048 C  
HETATM    2  O   UNL     1      -8.374   2.874  68.111  1.00  0.00    -0.075 OA 
ENDROOT
BRANCH   2   3
HETATM    3  C   UNL     1      -8.851   4.081  67.671  1.00  0.00    -0.115 A  
HETATM    4  C   UNL     1      -9.699   4.249  66.587  1.00  0.00    -0.239 A  
HETATM    5  C   UNL     1     -10.112   5.525  66.210  1.00  0.00    -0.185 A  
HETATM    6  C   UNL     1      -9.692   6.667  66.899  1.00  0.00    -0.164 A  
HETATM    7  C   UNL     1      -8.425   5.207  68.392  1.00  0.00    -0.095 A  
HETATM    8  C   UNL     1      -8.827   6.512  68.023  1.00  0.00    -0.114 A  
BRANCH   6   9
HETATM    9  N   UNL     1     -10.106   7.965  66.466  1.00  0.00    -0.448 N  
HETATM   10  C   UNL     1      -9.384   8.888  65.739  1.00  0.00    -0.219 C  
HETATM   11  H   UNL     1     -11.052   8.242  66.726  1.00  0.00     0.000 HD 
HETATM   12  O   UNL     1      -8.265   8.729  65.261  1.00  0.00    -0.127 OA 
BRANCH  10  13
HETATM   13  C   UNL     1     -10.001  10.237  65.569  1.00  0.00    -0.364 A  
HETATM   14  C   UNL     1     -10.523  10.848  66.716  1.00  0.00    -0.302 A  
HETATM   15  C   UNL     1     -10.063  10.915  64.349  1.00  0.00    -0.402 A  
HETATM   16  C   UNL     1     -11.181  12.079  66.633  1.00  0.00    -0.380 A  
HETATM   17  C   UNL     1     -10.675  12.180  64.281  1.00  0.00    -0.380 A  
HETATM   18  C   UNL     1     -11.291  12.748  65.405  1.00  0.00    -0.339 A  
BRANCH  18  19
HETATM   19  C   UNL     1     -12.066  14.050  65.354  1.00  0.00    -0.401 C  
HETATM   20  N   UNL     1     -13.366  13.990  65.257  1.00  0.00    -0.580 NA 
HETATM   21  H1  UNL     1     -13.887  14.866  65.223  1.00  0.00     0.000 HD 
HETATM   22  H2  UNL     1     -13.847  13.092  65.216  1.00  0.00     0.000 HD 
BRANCH  19  23
HETATM   23  N   UNL     1     -11.466  15.307  65.360  1.00  0.00    -0.245 NA 
HETATM   24  C   UNL     1     -11.594  16.325  64.331  1.00  0.00    -0.056 C  
HETATM   25  C   UNL     1     -10.517  15.670  66.418  1.00  0.00    -0.305 C  
ENDBRANCH  19  23
ENDBRANCH  18  19
ENDBRANCH  10  13
ENDBRANCH   6   9
BRANCH   8  26
HETATM   26  C   UNL     1      -8.361   7.736  68.783  1.00  0.00    -0.128 C  
HETATM   27  N   UNL     1      -7.193   8.383  68.387  1.00  0.00    -0.084 N  
HETATM   28  O   UNL     1      -9.057   8.097  69.734  1.00  0.00    -0.147 OA 
HETATM   29  H   UNL     1      -6.685   8.015  67.584  1.00  0.00     0.000 HD 
BRANCH  27  30
HETATM   30  C   UNL     1      -6.677   9.522  69.043  1.00  0.00    -0.050 A  
HETATM   31  C   UNL     1      -5.766   9.340  70.079  1.00  0.00    -0.035 A  
HETATM   32  C   UNL     1      -5.694  11.728  70.385  1.00  0.00    -0.161 A  
HETATM   33  N   UNL     1      -7.075  10.754  68.672  1.00  0.00    -0.073 NA 
HETATM   34  C   UNL     1      -6.584  11.825  69.336  1.00  0.00    -0.113 A  
HETATM   35 CL   UNL     1      -5.133  13.131  71.200  1.00  0.00    -0.144 Cl 
HETATM   36  C   UNL     1      -5.273  10.460  70.764  1.00  0.00    -0.069 A  
ENDBRANCH  27  30
ENDBRANCH   8  26
ENDBRANCH   2   3
TORSDOF 7
ENDMDL
MODEL       58
REMARK 921   NORMALIZED FREE ENERGY PREDICTED BY IDOCK:   -5.15 KCAL/MOL
REMARK 922        TOTAL FREE ENERGY PREDICTED BY IDOCK:   -7.99 KCAL/MOL
REMARK 923 INTER-LIGAND FREE ENERGY PREDICTED BY IDOCK:   -6.91 KCAL/MOL
REMARK 924 INTRA-LIGAND FREE ENERGY PREDICTED BY IDOCK:   -1.08 KCAL/MOL
REMARK 927      BINDING AFFINITY PREDICTED BY RF-SCORE:    0.00 PKD
ROOT
HETATM    1  C   UNL     1     -13.562  15.103  70.717  1.00  0.00    -0.245 C  
HETATM    2  O   UNL     1     -12.307  15.553  70.204  1.00  0.00    -0.373 OA 
ENDROOT
BRANCH   2   3
HETATM    3  C   UNL     1     -11.681  14.714  69.319  1.00  0.00    -0.312 A  
HETATM    4  C   UNL     1     -11.192  15.097  68.079  1.00  0.00    -0.329 A  
HETATM    5  C   UNL     1     -10.588  14.159  67.244  1.00  0.00    -0.277 A  
HETATM    6  C   UNL     1     -10.455  12.818  67.619  1.00  0.00    -0.220 A  
HETATM    7  C   UNL     1     -11.550  13.379  69.729  1.00  0.00    -0.305 A  
HETATM    8  C   UNL     1     -10.944  12.410  68.894  1.00  0.00    -0.268 A  
BRANCH   6   9
HETATM    9  N   UNL     1      -9.861  11.875  66.724  1.00  0.00    -0.195 N  
HETATM   10  C   UNL     1     -10.348  11.428  65.514  1.00  0.00    -0.266 C  
HETATM   11  H   UNL     1      -8.966  11.484  67.017  1.00  0.00     0.000 HD 
HETATM   12  O   UNL     1     -11.360  11.823  64.942  1.00  0.00    -0.301 OA 
BRANCH  10  13
HETATM   13  C   UNL     1      -9.604  10.308  64.864  1.00  0.00    -0.365 A  
HETATM   14  C   UNL     1      -9.246   9.225  65.676  1.00  0.00    -0.291 A  
HETATM   15  C   UNL     1      -9.273  10.280  63.507  1.00  0.00    -0.321 A  
HETATM   16  C   UNL     1      -8.486   8.170  65.164  1.00  0.00    -0.134 A  
HETATM   17  C   UNL     1      -8.558   9.188  62.983  1.00  0.00    -0.196 A  
HETATM   18  C   UNL     1      -8.107   8.151  63.813  1.00  0.00    -0.112 A  
BRANCH  18  19
HETATM   19  C   UNL     1      -7.232   7.016  63.320  1.00  0.00    -0.074 C  
HETATM   20  N   UNL     1      -6.391   7.261  62.353  1.00  0.00    -0.060 NA 
HETATM   21  H1  UNL     1      -5.803   6.497  62.020  1.00  0.00     0.000 HD 
HETATM   22  H2  UNL     1      -6.324   8.192  61.941  1.00  0.00     0.000 HD 
BRANCH  19  23
HETATM   23  N   UNL     1      -7.308   5.714  63.809  1.00  0.00    -0.054 NA 
HETATM   24  C   UNL     1      -6.240   4.979  64.464  1.00  0.00    -0.030 C  
HETATM   25  C   UNL     1      -8.512   4.907  63.583  1.00  0.00    -0.132 C  
ENDBRANCH  19  23
ENDBRANCH  18  19
ENDBRANCH  10  13
ENDBRANCH   6   9
BRANCH   8  26
HETATM   26  C   UNL     1     -10.811  10.962  69.319  1.00  0.00    -0.241 C  
HETATM   27  N   UNL     1      -9.587  10.498  69.793  1.00  0.00    -0.423 N  
HETATM   28  O   UNL     1     -11.819  10.259  69.215  1.00  0.00    -0.146 OA 
HETATM   29  H   UNL     1      -8.809  11.155  69.849  1.00  0.00     0.000 HD 
BRANCH  27  30
HETATM   30  C   UNL     1      -9.368   9.164  70.199  1.00  0.00    -0.209 A  
HETATM   31  C   UNL     1     -10.070   8.677  71.298  1.00  0.00    -0.312 A  
HETATM   32  C   UNL     1      -8.919   6.575  71.055  1.00  0.00    -0.146 A  
HETATM   33  N   UNL     1      -8.487   8.391  69.536  1.00  0.00    -0.123 NA 
HETATM   34  C   UNL     1      -8.279   7.125  69.964  1.00  0.00    -0.136 A  
HETATM   35 CL   UNL     1      -8.584   4.969  71.557  1.00  0.00    -0.124 Cl 
HETATM   36  C   UNL     1      -9.836   7.365  71.735  1.00  0.00    -0.187 A  
ENDBRANCH  27  30
ENDBRANCH   8  26
ENDBRANCH   2   3
TORSDOF 7
ENDMDL
MODEL       59
REMARK 921   NORMALIZED FREE ENERGY PREDICTED BY IDOCK:   -5.13 KCAL/MOL
REMARK 922        TOTAL FREE ENERGY PREDICTED BY IDOCK:   -7.95 KCAL/MOL
REMARK 923 INTER-LIGAND FREE ENERGY PREDICTED BY IDOCK:   -6.68 KCAL/MOL
REMARK 924 INTRA-LIGAND FREE ENERGY PREDICTED BY IDOCK:   -1.27 KCAL/MOL
REMARK 927      BINDING AFFINITY PREDICTED BY RF-SCORE:    0.00 PKD
ROOT
HETATM    1  C   UNL     1      -7.247  19.457  68.683  1.00  0.00    -0.339 C  
HETATM    2  O   UNL     1      -6.089  18.628  68.784  1.00  0.00    -0.206 OA 
ENDROOT
BRANCH   2   3
HETATM    3  C   UNL     1      -6.317  17.291  68.977  1.00  0.00    -0.210 A  
HETATM    4  C   UNL     1      -5.526  16.457  69.752  1.00  0.00    -0.158 A  
HETATM    5  C   UNL     1      -5.836  15.104  69.868  1.00  0.00    -0.130 A  
HETATM    6  C   UNL     1      -6.939  14.544  69.215  1.00  0.00    -0.141 A  
HETATM    7  C   UNL     1      -7.439  16.761  68.322  1.00  0.00    -0.186 A  
HETATM    8  C   UNL     1      -7.769  15.389  68.421  1.00  0.00    -0.120 A  
BRANCH   6   9
HETATM    9  N   UNL     1      -7.209  13.145  69.327  1.00  0.00    -0.312 N  
HETATM   10  C   UNL     1      -6.877  12.142  68.440  1.00  0.00    -0.073 C  
HETATM   11  H   UNL     1      -7.709  12.851  70.166  1.00  0.00     0.000 HD 
HETATM   12  O   UNL     1      -6.213  12.263  67.415  1.00  0.00    -0.125 OA 
BRANCH  10  13
HETATM   13  C   UNL     1      -7.434  10.786  68.723  1.00  0.00    -0.109 A  
HETATM   14  C   UNL     1      -8.105  10.140  67.677  1.00  0.00    -0.109 A  
HETATM   15  C   UNL     1      -7.303  10.133  69.951  1.00  0.00    -0.169 A  
HETATM   16  C   UNL     1      -8.717   8.900  67.878  1.00  0.00    -0.129 A  
HETATM   17  C   UNL     1      -7.872   8.859  70.132  1.00  0.00    -0.097 A  
HETATM   18  C   UNL     1      -8.632   8.255  69.121  1.00  0.00    -0.138 A  
BRANCH  18  19
HETATM   19  C   UNL     1      -9.365   6.941  69.309  1.00  0.00    -0.144 C  
HETATM   20  N   UNL     1      -9.611   6.541  70.525  1.00  0.00    -0.169 NA 
HETATM   21  H1  UNL     1     -10.103   5.656  70.652  1.00  0.00     0.000 HD 
HETATM   22  H2  UNL     1      -9.319   7.097  71.329  1.00  0.00     0.000 HD 
BRANCH  19  23
HETATM   23  N   UNL     1      -9.749   6.114  68.256  1.00  0.00    -0.120 NA 
HETATM   24  C   UNL     1     -11.034   6.128  67.578  1.00  0.00    -0.307 C  
HETATM   25  C   UNL     1      -8.868   5.032  67.804  1.00  0.00    -0.103 C  
ENDBRANCH  19  23
ENDBRANCH  18  19
ENDBRANCH  10  13
ENDBRANCH   6   9
BRANCH   8  26
HETATM   26  C   UNL     1      -8.968  14.802  67.706  1.00  0.00    -0.182 C  
HETATM   27  N   UNL     1      -8.792  14.182  66.472  1.00  0.00    -0.467 N  
HETATM   28  O   UNL     1     -10.058  14.912  68.270  1.00  0.00    -0.215 OA 
HETATM   29  H   UNL     1      -7.850  14.133  66.085  1.00  0.00     0.000 HD 
BRANCH  27  30
HETATM   30  C   UNL     1      -9.852  13.619  65.729  1.00  0.00    -0.211 A  
HETATM   31  C   UNL     1     -10.749  14.472  65.094  1.00  0.00    -0.422 A  
HETATM   32  C   UNL     1     -11.971  12.548  64.316  1.00  0.00    -0.408 A  
HETATM   33  N   UNL     1      -9.989  12.281  65.653  1.00  0.00    -0.253 NA 
HETATM   34  C   UNL     1     -11.029  11.770  64.956  1.00  0.00    -0.300 A  
HETATM   35 CL   UNL     1     -13.282  11.830  63.472  1.00  0.00    -0.177 Cl 
HETATM   36  C   UNL     1     -11.828  13.927  64.383  1.00  0.00    -0.456 A  
ENDBRANCH  27  30
ENDBRANCH   8  26
ENDBRANCH   2   3
TORSDOF 7
ENDMDL
MODEL       60
REMARK 921   NORMALIZED FREE ENERGY PREDICTED BY IDOCK:   -5.10 KCAL/MOL
REMARK 922        TOTAL FREE ENERGY PREDICTED BY IDOCK:   -7.92 KCAL/MOL
REMARK 923 INTER-LIGAND FREE ENERGY PREDICTED BY IDOCK:   -6.76 KCAL/MOL
REMARK 924 INTRA-LIGAND FREE ENERGY PREDICTED BY IDOCK:   -1.16 KCAL/MOL
REMARK 927      BINDING AFFINITY PREDICTED BY RF-SCORE:    0.00 PKD
ROOT
HETATM    1  C   UNL     1     -10.062   4.939  68.048  1.00  0.00    -0.077 C  
HETATM    2  O   UNL     1     -10.556   5.774  69.097  1.00  0.00    -0.250 OA 
ENDROOT
BRANCH   2   3
HETATM    3  C   UNL     1      -9.967   7.006  69.216  1.00  0.00    -0.162 A  
HETATM    4  C   UNL     1      -8.800   7.260  69.921  1.00  0.00    -0.142 A  
HETATM    5  C   UNL     1      -8.294   8.556  69.996  1.00  0.00    -0.123 A  
HETATM    6  C   UNL     1      -8.935   9.633  69.375  1.00  0.00    -0.181 A  
HETATM    7  C   UNL     1     -10.624   8.064  68.569  1.00  0.00    -0.144 A  
HETATM    8  C   UNL     1     -10.131   9.388  68.638  1.00  0.00    -0.208 A  
BRANCH   6   9
HETATM    9  N   UNL     1      -8.408  10.956  69.500  1.00  0.00    -0.381 N  
HETATM   10  C   UNL     1      -7.615  11.642  68.605  1.00  0.00    -0.133 C  
HETATM   11  H   UNL     1      -8.649  11.454  70.357  1.00  0.00     0.000 HD 
HETATM   12  O   UNL     1      -7.275  11.263  67.488  1.00  0.00    -0.090 OA 
BRANCH  10  13
HETATM   13  C   UNL     1      -7.063  12.952  69.066  1.00  0.00    -0.024 A  
HETATM   14  C   UNL     1      -7.881  14.078  68.909  1.00  0.00    -0.045 A  
HETATM   15  C   UNL     1      -5.805  13.101  69.654  1.00  0.00    -0.109 A  
HETATM   16  C   UNL     1      -7.414  15.351  69.248  1.00  0.00    -0.207 A  
HETATM   17  C   UNL     1      -5.362  14.377  70.047  1.00  0.00    -0.097 A  
HETATM   18  C   UNL     1      -6.134  15.521  69.796  1.00  0.00    -0.153 A  
BRANCH  18  19
HETATM   19  C   UNL     1      -5.650  16.927  70.090  1.00  0.00    -0.222 C  
HETATM   20  N   UNL     1      -5.157  17.175  71.272  1.00  0.00    -0.399 NA 
HETATM   21  H1  UNL     1      -4.832  18.121  71.471  1.00  0.00     0.000 HD 
HETATM   22  H2  UNL     1      -5.100  16.442  71.980  1.00  0.00     0.000 HD 
BRANCH  19  23
HETATM   23  N   UNL     1      -5.743  17.981  69.184  1.00  0.00    -0.206 NA 
HETATM   24  C   UNL     1      -6.493  19.211  69.372  1.00  0.00    -0.303 C  
HETATM   25  C   UNL     1      -5.143  17.867  67.851  1.00  0.00    -0.138 C  
ENDBRANCH  19  23
ENDBRANCH  18  19
ENDBRANCH  10  13
ENDBRANCH   6   9
BRANCH   8  26
HETATM   26  C   UNL     1     -10.840  10.541  67.958  1.00  0.00    -0.263 C  
HETATM   27  N   UNL     1     -10.310  11.076  66.787  1.00  0.00    -0.229 N  
HETATM   28  O   UNL     1     -11.871  10.951  68.495  1.00  0.00    -0.464 OA 
HETATM   29  H   UNL     1      -9.454  10.667  66.412  1.00  0.00     0.000 HD 
BRANCH  27  30
HETATM   30  C   UNL     1     -10.896  12.156  66.093  1.00  0.00    -0.282 A  
HETATM   31  C   UNL     1     -10.095  13.241  65.747  1.00  0.00    -0.293 A  
HETATM   32  C   UNL     1     -12.026  14.313  64.786  1.00  0.00    -0.440 A  
HETATM   33  N   UNL     1     -12.208  12.132  65.789  1.00  0.00    -0.532 NA 
HETATM   34  C   UNL     1     -12.747  13.194  65.146  1.00  0.00    -0.405 A  
HETATM   35 CL   UNL     1     -12.784  15.635  63.997  1.00  0.00     0.348 Cl 
HETATM   36  C   UNL     1     -10.672  14.337  65.090  1.00  0.00    -0.407 A  
ENDBRANCH  27  30
ENDBRANCH   8  26
ENDBRANCH   2   3
TORSDOF 7
ENDMDL
MODEL       61
REMARK 921   NORMALIZED FREE ENERGY PREDICTED BY IDOCK:   -5.02 KCAL/MOL
REMARK 922        TOTAL FREE ENERGY PREDICTED BY IDOCK:   -7.81 KCAL/MOL
REMARK 923 INTER-LIGAND FREE ENERGY PREDICTED BY IDOCK:   -6.51 KCAL/MOL
REMARK 924 INTRA-LIGAND FREE ENERGY PREDICTED BY IDOCK:   -1.30 KCAL/MOL
REMARK 927      BINDING AFFINITY PREDICTED BY RF-SCORE:    0.00 PKD
ROOT
HETATM    1  C   UNL     1      -8.365  10.791  62.339  1.00  0.00    -0.247 C  
HETATM    2  O   UNL     1      -9.491  10.701  63.212  1.00  0.00    -0.266 OA 
ENDROOT
BRANCH   2   3
HETATM    3  C   UNL     1      -9.277  10.072  64.411  1.00  0.00    -0.266 A  
HETATM    4  C   UNL     1      -8.695   8.822  64.555  1.00  0.00    -0.078 A  
HETATM    5  C   UNL     1      -8.540   8.262  65.822  1.00  0.00    -0.182 A  
HETATM    6  C   UNL     1      -8.962   8.928  66.977  1.00  0.00    -0.127 A  
HETATM    7  C   UNL     1      -9.696  10.772  65.553  1.00  0.00    -0.290 A  
HETATM    8  C   UNL     1      -9.554  10.219  66.847  1.00  0.00    -0.211 A  
BRANCH   6   9
HETATM    9  N   UNL     1      -8.820   8.311  68.258  1.00  0.00    -0.139 N  
HETATM   10  C   UNL     1      -7.655   7.988  68.921  1.00  0.00    -0.099 C  
HETATM   11  H   UNL     1      -9.688   8.082  68.743  1.00  0.00     0.000 HD 
HETATM   12  O   UNL     1      -6.511   8.244  68.556  1.00  0.00    -0.052 OA 
BRANCH  10  13
HETATM   13  C   UNL     1      -7.796   7.192  70.176  1.00  0.00    -0.108 A  
HETATM   14  C   UNL     1      -7.347   5.866  70.145  1.00  0.00    -0.077 A  
HETATM   15  C   UNL     1      -8.326   7.702  71.364  1.00  0.00    -0.111 A  
HETATM   16  C   UNL     1      -7.508   5.031  71.253  1.00  0.00    -0.082 A  
HETATM   17  C   UNL     1      -8.433   6.874  72.496  1.00  0.00    -0.124 A  
HETATM   18  C   UNL     1      -8.081   5.518  72.438  1.00  0.00    -0.107 A  
BRANCH  18  19
HETATM   19  C   UNL     1      -8.290   4.557  73.592  1.00  0.00    -0.101 C  
HETATM   20  N   UNL     1      -7.291   4.338  74.400  1.00  0.00    -0.071 NA 
HETATM   21  H1  UNL     1      -7.431   3.691  75.177  1.00  0.00     0.000 HD 
HETATM   22  H2  UNL     1      -6.392   4.800  74.260  1.00  0.00     0.000 HD 
BRANCH  19  23
HETATM   23  N   UNL     1      -9.477   3.861  73.812  1.00  0.00    -0.099 NA 
HETATM   24  C   UNL     1     -10.741   4.432  74.243  1.00  0.00    -0.220 C  
HETATM   25  C   UNL     1      -9.503   2.397  73.724  1.00  0.00    -0.083 C  
ENDBRANCH  19  23
ENDBRANCH  18  19
ENDBRANCH  10  13
ENDBRANCH   6   9
BRANCH   8  26
HETATM   26  C   UNL     1     -10.018  10.958  68.086  1.00  0.00    -0.174 C  
HETATM   27  N   UNL     1     -11.361  11.299  68.216  1.00  0.00    -0.262 N  
HETATM   28  O   UNL     1      -9.157  11.223  68.927  1.00  0.00    -0.149 OA 
HETATM   29  H   UNL     1     -12.003  11.032  67.470  1.00  0.00     0.000 HD 
BRANCH  27  30
HETATM   30  C   UNL     1     -11.880  11.996  69.328  1.00  0.00    -0.318 A  
HETATM   31  C   UNL     1     -12.278  11.269  70.446  1.00  0.00    -0.453 A  
HETATM   32  C   UNL     1     -12.954  13.327  71.499  1.00  0.00    -0.337 A  
HETATM   33  N   UNL     1     -11.994  13.338  69.292  1.00  0.00    -0.317 NA 
HETATM   34  C   UNL     1     -12.518  13.976  70.363  1.00  0.00    -0.350 A  
HETATM   35 CL   UNL     1     -13.635  14.202  72.809  1.00  0.00    -0.588 Cl 
HETATM   36  C   UNL     1     -12.829  11.945  71.544  1.00  0.00    -0.421 A  
ENDBRANCH  27  30
ENDBRANCH   8  26
ENDBRANCH   2   3
TORSDOF 7
ENDMDL
MODEL       62
REMARK 921   NORMALIZED FREE ENERGY PREDICTED BY IDOCK:   -5.01 KCAL/MOL
REMARK 922        TOTAL FREE ENERGY PREDICTED BY IDOCK:   -7.80 KCAL/MOL
REMARK 923 INTER-LIGAND FREE ENERGY PREDICTED BY IDOCK:   -6.80 KCAL/MOL
REMARK 924 INTRA-LIGAND FREE ENERGY PREDICTED BY IDOCK:   -1.00 KCAL/MOL
REMARK 927      BINDING AFFINITY PREDICTED BY RF-SCORE:    0.00 PKD
ROOT
HETATM    1  C   UNL     1      -6.141  20.564  67.580  1.00  0.00    -0.245 C  
HETATM    2  O   UNL     1      -7.032  19.936  66.658  1.00  0.00    -0.210 OA 
ENDROOT
BRANCH   2   3
HETATM    3  C   UNL     1      -7.163  18.576  66.774  1.00  0.00    -0.211 A  
HETATM    4  C   UNL     1      -6.243  17.650  66.306  1.00  0.00    -0.272 A  
HETATM    5  C   UNL     1      -6.481  16.286  66.458  1.00  0.00     0.433 A  
HETATM    6  C   UNL     1      -7.640  15.807  67.077  1.00  0.00    -0.222 A  
HETATM    7  C   UNL     1      -8.328  18.126  67.412  1.00  0.00    -0.239 A  
HETATM    8  C   UNL     1      -8.592  16.745  67.572  1.00  0.00    -0.203 A  
BRANCH   6   9
HETATM    9  N   UNL     1      -7.870  14.400  67.186  1.00  0.00    -0.346 N  
HETATM   10  C   UNL     1      -8.827  13.644  66.543  1.00  0.00     0.023 C  
HETATM   11  H   UNL     1      -7.250  13.893  67.817  1.00  0.00     0.000 HD 
HETATM   12  O   UNL     1      -9.619  14.036  65.691  1.00  0.00    -0.194 OA 
BRANCH  10  13
HETATM   13  C   UNL     1      -8.955  12.219  66.973  1.00  0.00    -0.204 A  
HETATM   14  C   UNL     1     -10.116  11.866  67.673  1.00  0.00    -0.202 A  
HETATM   15  C   UNL     1      -8.002  11.236  66.697  1.00  0.00    -0.159 A  
HETATM   16  C   UNL     1     -10.282  10.572  68.173  1.00  0.00    -0.187 A  
HETATM   17  C   UNL     1      -8.201   9.920  67.152  1.00  0.00    -0.121 A  
HETATM   18  C   UNL     1      -9.310   9.587  67.942  1.00  0.00    -0.145 A  
BRANCH  18  19
HETATM   19  C   UNL     1      -9.506   8.215  68.557  1.00  0.00    -0.143 C  
HETATM   20  N   UNL     1     -10.308   8.106  69.580  1.00  0.00    -0.217 NA 
HETATM   21  H1  UNL     1     -10.439   7.183  69.994  1.00  0.00     0.000 HD 
HETATM   22  H2  UNL     1     -10.789   8.923  69.957  1.00  0.00     0.000 HD 
BRANCH  19  23
HETATM   23  N   UNL     1      -8.844   7.070  68.119  1.00  0.00    -0.129 NA 
HETATM   24  C   UNL     1      -7.680   6.461  68.739  1.00  0.00    -0.101 C  
HETATM   25  C   UNL     1      -9.233   6.425  66.860  1.00  0.00    -0.135 C  
ENDBRANCH  19  23
ENDBRANCH  18  19
ENDBRANCH  10  13
ENDBRANCH   6   9
BRANCH   8  26
HETATM   26  C   UNL     1      -9.855  16.246  68.245  1.00  0.00    -0.227 C  
HETATM   27  N   UNL     1      -9.784  15.737  69.539  1.00  0.00    -0.275 N  
HETATM   28  O   UNL     1     -10.897  16.319  67.590  1.00  0.00    -0.327 OA 
HETATM   29  H   UNL     1      -8.877  15.722  70.005  1.00  0.00     0.000 HD 
BRANCH  27  30
HETATM   30  C   UNL     1     -10.905  15.241  70.238  1.00  0.00    -0.279 A  
HETATM   31  C   UNL     1     -11.574  16.089  71.117  1.00  0.00    -0.492 A  
HETATM   32  C   UNL     1     -13.068  14.281  71.666  1.00  0.00    -0.346 A  
HETATM   33  N   UNL     1     -11.304  13.966  70.060  1.00  0.00    -0.132 NA 
HETATM   34  C   UNL     1     -12.365  13.511  70.763  1.00  0.00    -0.363 A  
HETATM   35 CL   UNL     1     -14.389  13.626  72.545  1.00  0.00    -0.414 Cl 
HETATM   36  C   UNL     1     -12.667  15.598  71.845  1.00  0.00    -0.513 A  
ENDBRANCH  27  30
ENDBRANCH   8  26
ENDBRANCH   2   3
TORSDOF 7
ENDMDL
MODEL       63
REMARK 921   NORMALIZED FREE ENERGY PREDICTED BY IDOCK:   -4.94 KCAL/MOL
REMARK 922        TOTAL FREE ENERGY PREDICTED BY IDOCK:   -7.69 KCAL/MOL
REMARK 923 INTER-LIGAND FREE ENERGY PREDICTED BY IDOCK:   -6.09 KCAL/MOL
REMARK 924 INTRA-LIGAND FREE ENERGY PREDICTED BY IDOCK:   -1.61 KCAL/MOL
REMARK 927      BINDING AFFINITY PREDICTED BY RF-SCORE:    0.00 PKD
ROOT
HETATM    1  C   UNL     1      -8.411   2.775  65.882  1.00  0.00    -0.093 C  
HETATM    2  O   UNL     1      -7.215   3.527  65.671  1.00  0.00    -0.068 OA 
ENDROOT
BRANCH   2   3
HETATM    3  C   UNL     1      -7.318   4.884  65.837  1.00  0.00    -0.077 A  
HETATM    4  C   UNL     1      -6.423   5.813  65.330  1.00  0.00    -0.042 A  
HETATM    5  C   UNL     1      -6.609   7.172  65.573  1.00  0.00    -0.048 A  
HETATM    6  C   UNL     1      -7.688   7.643  66.328  1.00  0.00    -0.089 A  
HETATM    7  C   UNL     1      -8.419   5.327  66.586  1.00  0.00    -0.107 A  
HETATM    8  C   UNL     1      -8.624   6.702  66.850  1.00  0.00    -0.115 A  
BRANCH   6   9
HETATM    9  N   UNL     1      -7.831   9.041  66.588  1.00  0.00    -0.099 N  
HETATM   10  C   UNL     1      -7.660   9.704  67.785  1.00  0.00    -0.087 C  
HETATM   11  H   UNL     1      -8.091   9.620  65.790  1.00  0.00     0.000 HD 
HETATM   12  O   UNL     1      -7.275   9.216  68.843  1.00  0.00    -0.071 OA 
BRANCH  10  13
HETATM   13  C   UNL     1      -8.041  11.148  67.812  1.00  0.00    -0.117 A  
HETATM   14  C   UNL     1      -7.094  12.066  67.342  1.00  0.00    -0.136 A  
HETATM   15  C   UNL     1      -9.280  11.616  68.255  1.00  0.00    -0.187 A  
HETATM   16  C   UNL     1      -7.342  13.440  67.399  1.00  0.00    -0.124 A  
HETATM   17  C   UNL     1      -9.548  12.997  68.256  1.00  0.00    -0.213 A  
HETATM   18  C   UNL     1      -8.565  13.926  67.885  1.00  0.00    -0.180 A  
BRANCH  18  19
HETATM   19  C   UNL     1      -8.764  15.426  67.984  1.00  0.00    -0.160 C  
HETATM   20  N   UNL     1      -7.969  16.102  68.766  1.00  0.00    -0.202 NA 
HETATM   21  H1  UNL     1      -8.103  17.111  68.833  1.00  0.00     0.000 HD 
HETATM   22  H2  UNL     1      -7.234  15.635  69.297  1.00  0.00     0.000 HD 
BRANCH  19  23
HETATM   23  N   UNL     1      -9.776  16.116  67.321  1.00  0.00    -0.231 NA 
HETATM   24  C   UNL     1     -11.013  16.600  67.909  1.00  0.00    -0.276 C  
HETATM   25  C   UNL     1      -9.708  16.317  65.870  1.00  0.00    -0.321 C  
ENDBRANCH  19  23
ENDBRANCH  18  19
ENDBRANCH  10  13
ENDBRANCH   6   9
BRANCH   8  26
HETATM   26  C   UNL     1      -9.799   7.191  67.670  1.00  0.00    -0.147 C  
HETATM   27  N   UNL     1      -9.734   7.136  69.060  1.00  0.00    -0.149 N  
HETATM   28  O   UNL     1     -10.772   7.619  67.045  1.00  0.00    -0.348 OA 
HETATM   29  H   UNL     1      -8.884   6.771  69.490  1.00  0.00     0.000 HD 
BRANCH  27  30
HETATM   30  C   UNL     1     -10.784   7.558  69.903  1.00  0.00    -0.246 A  
HETATM   31  C   UNL     1     -10.817   8.887  70.315  1.00  0.00    -0.265 A  
HETATM   32  C   UNL     1     -12.794   8.402  71.601  1.00  0.00    -0.334 A  
HETATM   33  N   UNL     1     -11.724   6.680  70.304  1.00  0.00    -0.397 NA 
HETATM   34  C   UNL     1     -12.703   7.108  71.133  1.00  0.00    -0.315 A  
HETATM   35 CL   UNL     1     -14.051   8.866  72.674  1.00  0.00    -0.443 Cl 
HETATM   36  C   UNL     1     -11.834   9.312  71.182  1.00  0.00    -0.396 A  
ENDBRANCH  27  30
ENDBRANCH   8  26
ENDBRANCH   2   3
TORSDOF 7
ENDMDL
MODEL       64
REMARK 921   NORMALIZED FREE ENERGY PREDICTED BY IDOCK:   -4.93 KCAL/MOL
REMARK 922        TOTAL FREE ENERGY PREDICTED BY IDOCK:   -7.68 KCAL/MOL
REMARK 923 INTER-LIGAND FREE ENERGY PREDICTED BY IDOCK:   -6.56 KCAL/MOL
REMARK 924 INTRA-LIGAND FREE ENERGY PREDICTED BY IDOCK:   -1.12 KCAL/MOL
REMARK 927      BINDING AFFINITY PREDICTED BY RF-SCORE:    0.00 PKD
ROOT
HETATM    1  C   UNL     1      -8.005   6.694  70.248  1.00  0.00    -0.115 C  
HETATM    2  O   UNL     1      -6.856   7.328  70.813  1.00  0.00    -0.051 OA 
ENDROOT
BRANCH   2   3
HETATM    3  C   UNL     1      -6.705   8.662  70.536  1.00  0.00    -0.040 A  
HETATM    4  C   UNL     1      -5.650   9.446  70.977  1.00  0.00    -0.056 A  
HETATM    5  C   UNL     1      -5.601  10.800  70.655  1.00  0.00    -0.114 A  
HETATM    6  C   UNL     1      -6.600  11.411  69.889  1.00  0.00    -0.081 A  
HETATM    7  C   UNL     1      -7.714   9.242  69.753  1.00  0.00    -0.096 A  
HETATM    8  C   UNL     1      -7.687  10.617  69.420  1.00  0.00    -0.132 A  
BRANCH   6   9
HETATM    9  N   UNL     1      -6.537  12.811  69.605  1.00  0.00    -0.318 N  
HETATM   10  C   UNL     1      -6.263  13.842  70.478  1.00  0.00    -0.087 C  
HETATM   11  H   UNL     1      -6.717  13.079  68.638  1.00  0.00     0.000 HD 
HETATM   12  O   UNL     1      -5.945  13.737  71.659  1.00  0.00    -0.334 OA 
BRANCH  10  13
HETATM   13  C   UNL     1      -6.431  15.229  69.950  1.00  0.00    -0.162 A  
HETATM   14  C   UNL     1      -7.660  15.540  69.354  1.00  0.00    -0.225 A  
HETATM   15  C   UNL     1      -5.449  16.219  70.038  1.00  0.00    -0.169 A  
HETATM   16  C   UNL     1      -7.875  16.792  68.771  1.00  0.00    -0.243 A  
HETATM   17  C   UNL     1      -5.691  17.496  69.501  1.00  0.00    -0.222 A  
HETATM   18  C   UNL     1      -6.879  17.779  68.812  1.00  0.00    -0.247 A  
BRANCH  18  19
HETATM   19  C   UNL     1      -7.136  19.099  68.113  1.00  0.00    -0.258 C  
HETATM   20  N   UNL     1      -6.941  20.201  68.784  1.00  0.00    -0.263 NA 
HETATM   21  H1  UNL     1      -7.115  21.089  68.313  1.00  0.00     0.000 HD 
HETATM   22  H2  UNL     1      -6.625  20.175  69.753  1.00  0.00     0.000 HD 
BRANCH  19  23
HETATM   23  N   UNL     1      -7.612  19.202  66.808  1.00  0.00    -0.232 NA 
HETATM   24  C   UNL     1      -8.968  19.540  66.412  1.00  0.00    -0.370 C  
HETATM   25  C   UNL     1      -6.751  18.845  65.675  1.00  0.00    -0.275 C  
ENDBRANCH  19  23
ENDBRANCH  18  19
ENDBRANCH  10  13
ENDBRANCH   6   9
BRANCH   8  26
HETATM   26  C   UNL     1      -8.779  11.259  68.590  1.00  0.00    -0.136 C  
HETATM   27  N   UNL     1      -8.456  11.840  67.367  1.00  0.00    -0.151 N  
HETATM   28  O   UNL     1      -9.919  11.231  69.057  1.00  0.00    -0.189 OA 
HETATM   29  H   UNL     1      -7.485  11.810  67.058  1.00  0.00     0.000 HD 
BRANCH  27  30
HETATM   30  C   UNL     1      -9.405  12.470  66.533  1.00  0.00    -0.233 A  
HETATM   31  C   UNL     1      -9.761  13.789  66.804  1.00  0.00    -0.277 A  
HETATM   32  C   UNL     1     -11.303  13.713  64.956  1.00  0.00    -0.329 A  
HETATM   33  N   UNL     1      -9.957  11.796  65.506  1.00  0.00    -0.236 NA 
HETATM   34  C   UNL     1     -10.883  12.418  64.741  1.00  0.00    -0.304 A  
HETATM   35 CL   UNL     1     -12.504  14.428  63.959  1.00  0.00    -0.316 Cl 
HETATM   36  C   UNL     1     -10.729  14.416  66.007  1.00  0.00    -0.302 A  
ENDBRANCH  27  30
ENDBRANCH   8  26
ENDBRANCH   2   3
TORSDOF 7
ENDMDL
MODEL       65
REMARK 921   NORMALIZED FREE ENERGY PREDICTED BY IDOCK:   -4.92 KCAL/MOL
REMARK 922        TOTAL FREE ENERGY PREDICTED BY IDOCK:   -7.67 KCAL/MOL
REMARK 923 INTER-LIGAND FREE ENERGY PREDICTED BY IDOCK:   -7.17 KCAL/MOL
REMARK 924 INTRA-LIGAND FREE ENERGY PREDICTED BY IDOCK:   -0.50 KCAL/MOL
REMARK 927      BINDING AFFINITY PREDICTED BY RF-SCORE:    0.00 PKD
ROOT
HETATM    1  C   UNL     1      -8.132  11.087  62.353  1.00  0.00    -0.146 C  
HETATM    2  O   UNL     1      -9.366  10.705  62.963  1.00  0.00    -0.257 OA 
ENDROOT
BRANCH   2   3
HETATM    3  C   UNL     1      -9.268   9.931  64.090  1.00  0.00    -0.262 A  
HETATM    4  C   UNL     1      -8.545   8.751  64.178  1.00  0.00    -0.085 A  
HETATM    5  C   UNL     1      -8.527   8.027  65.369  1.00  0.00    -0.155 A  
HETATM    6  C   UNL     1      -9.227   8.456  66.501  1.00  0.00    -0.189 A  
HETATM    7  C   UNL     1      -9.969  10.394  65.214  1.00  0.00    -0.376 A  
HETATM    8  C   UNL     1      -9.968   9.672  66.430  1.00  0.00    -0.323 A  
BRANCH   6   9
HETATM    9  N   UNL     1      -9.215   7.672  67.696  1.00  0.00    -0.135 N  
HETATM   10  C   UNL     1      -9.636   6.369  67.862  1.00  0.00    -0.121 C  
HETATM   11  H   UNL     1      -8.851   8.133  68.530  1.00  0.00     0.000 HD 
HETATM   12  O   UNL     1     -10.032   5.611  66.981  1.00  0.00    -0.138 OA 
BRANCH  10  13
HETATM   13  C   UNL     1      -9.670   5.849  69.261  1.00  0.00    -0.182 A  
HETATM   14  C   UNL     1      -9.504   6.782  70.293  1.00  0.00    -0.164 A  
HETATM   15  C   UNL     1      -9.877   4.506  69.586  1.00  0.00    -0.288 A  
HETATM   16  C   UNL     1      -9.452   6.369  71.627  1.00  0.00    -0.160 A  
HETATM   17  C   UNL     1      -9.882   4.104  70.934  1.00  0.00    -0.247 A  
HETATM   18  C   UNL     1      -9.613   5.017  71.963  1.00  0.00    -0.200 A  
BRANCH  18  19
HETATM   19  C   UNL     1      -9.487   4.610  73.418  1.00  0.00    -0.118 C  
HETATM   20  N   UNL     1     -10.530   4.749  74.189  1.00  0.00    -0.261 NA 
HETATM   21  H1  UNL     1     -10.446   4.476  75.168  1.00  0.00     0.000 HD 
HETATM   22  H2  UNL     1     -11.407   5.121  73.823  1.00  0.00     0.000 HD 
BRANCH  19  23
HETATM   23  N   UNL     1      -8.308   4.140  73.990  1.00  0.00    -0.095 NA 
HETATM   24  C   UNL     1      -7.140   4.935  74.328  1.00  0.00    -0.077 C  
HETATM   25  C   UNL     1      -8.109   2.702  74.201  1.00  0.00    -0.067 C  
ENDBRANCH  19  23
ENDBRANCH  18  19
ENDBRANCH  10  13
ENDBRANCH   6   9
BRANCH   8  26
HETATM   26  C   UNL     1     -10.734  10.154  67.645  1.00  0.00    -0.285 C  
HETATM   27  N   UNL     1     -10.782  11.516  67.928  1.00  0.00    -0.191 N  
HETATM   28  O   UNL     1     -11.282   9.290  68.333  1.00  0.00     0.043 OA 
HETATM   29  H   UNL     1     -10.302  12.158  67.298  1.00  0.00     0.000 HD 
BRANCH  27  30
HETATM   30  C   UNL     1     -11.460  12.053  69.043  1.00  0.00    -0.300 A  
HETATM   31  C   UNL     1     -11.522  13.437  69.184  1.00  0.00    -0.351 A  
HETATM   32  C   UNL     1     -12.731  13.135  71.245  1.00  0.00    -0.306 A  
HETATM   33  N   UNL     1     -12.024  11.234  69.951  1.00  0.00    -0.336 NA 
HETATM   34  C   UNL     1     -12.645  11.777  71.023  1.00  0.00    -0.310 A  
HETATM   35 CL   UNL     1     -13.512  13.753  72.643  1.00  0.00    -0.656 Cl 
HETATM   36  C   UNL     1     -12.161  13.984  70.306  1.00  0.00    -0.430 A  
ENDBRANCH  27  30
ENDBRANCH   8  26
ENDBRANCH   2   3
TORSDOF 7
ENDMDL
MODEL       66
REMARK 921   NORMALIZED FREE ENERGY PREDICTED BY IDOCK:   -4.91 KCAL/MOL
REMARK 922        TOTAL FREE ENERGY PREDICTED BY IDOCK:   -7.66 KCAL/MOL
REMARK 923 INTER-LIGAND FREE ENERGY PREDICTED BY IDOCK:   -7.19 KCAL/MOL
REMARK 924 INTRA-LIGAND FREE ENERGY PREDICTED BY IDOCK:   -0.47 KCAL/MOL
REMARK 927      BINDING AFFINITY PREDICTED BY RF-SCORE:    0.00 PKD
ROOT
HETATM    1  C   UNL     1      -9.934  19.111  66.364  1.00  0.00    -0.395 C  
HETATM    2  O   UNL     1     -10.765  18.393  65.451  1.00  0.00    -0.594 OA 
ENDROOT
BRANCH   2   3
HETATM    3  C   UNL     1     -10.614  17.031  65.440  1.00  0.00    -0.134 A  
HETATM    4  C   UNL     1     -11.163  16.182  64.491  1.00  0.00    -0.275 A  
HETATM    5  C   UNL     1     -10.964  14.806  64.581  1.00  0.00    -0.332 A  
HETATM    6  C   UNL     1     -10.217  14.238  65.618  1.00  0.00    -0.347 A  
HETATM    7  C   UNL     1      -9.846  16.491  66.483  1.00  0.00    -0.292 A  
HETATM    8  C   UNL     1      -9.637  15.097  66.597  1.00  0.00    -0.272 A  
BRANCH   6   9
HETATM    9  N   UNL     1     -10.061  12.819  65.701  1.00  0.00    -0.276 N  
HETATM   10  C   UNL     1     -10.894  11.908  66.316  1.00  0.00    -0.282 C  
HETATM   11  H   UNL     1      -9.232  12.433  65.250  1.00  0.00     0.000 HD 
HETATM   12  O   UNL     1     -11.975  12.147  66.845  1.00  0.00    -0.603 OA 
BRANCH  10  13
HETATM   13  C   UNL     1     -10.402  10.501  66.399  1.00  0.00    -0.283 A  
HETATM   14  C   UNL     1     -10.608   9.823  67.608  1.00  0.00    -0.333 A  
HETATM   15  C   UNL     1      -9.776   9.832  65.344  1.00  0.00    -0.383 A  
HETATM   16  C   UNL     1     -10.115   8.529  67.794  1.00  0.00    -0.266 A  
HETATM   17  C   UNL     1      -9.333   8.509  65.517  1.00  0.00    -0.039 A  
HETATM   18  C   UNL     1      -9.445   7.864  66.757  1.00  0.00    -0.257 A  
BRANCH  18  19
HETATM   19  C   UNL     1      -8.875   6.485  67.027  1.00  0.00    -0.116 C  
HETATM   20  N   UNL     1      -7.660   6.400  67.493  1.00  0.00    -0.098 NA 
HETATM   21  H1  UNL     1      -7.277   5.473  67.674  1.00  0.00     0.000 HD 
HETATM   22  H2  UNL     1      -7.107   7.239  67.671  1.00  0.00     0.000 HD 
BRANCH  19  23
HETATM   23  N   UNL     1      -9.560   5.301  66.763  1.00  0.00    -0.137 NA 
HETATM   24  C   UNL     1      -9.027   3.955  66.882  1.00  0.00    -0.137 C  
HETATM   25  C   UNL     1     -10.917   5.339  66.207  1.00  0.00     0.017 C  
ENDBRANCH  19  23
ENDBRANCH  18  19
ENDBRANCH  10  13
ENDBRANCH   6   9
BRANCH   8  26
HETATM   26  C   UNL     1      -8.825  14.501  67.729  1.00  0.00    -0.183 C  
HETATM   27  N   UNL     1      -8.233  13.252  67.561  1.00  0.00    -0.173 N  
HETATM   28  O   UNL     1      -8.734  15.172  68.759  1.00  0.00    -0.173 OA 
HETATM   29  H   UNL     1      -8.358  12.772  66.670  1.00  0.00     0.000 HD 
BRANCH  27  30
HETATM   30  C   UNL     1      -7.469  12.616  68.564  1.00  0.00    -0.121 A  
HETATM   31  C   UNL     1      -7.718  11.274  68.842  1.00  0.00    -0.125 A  
HETATM   32  C   UNL     1      -6.032  11.357  70.561  1.00  0.00    -0.104 A  
HETATM   33  N   UNL     1      -6.530  13.306  69.239  1.00  0.00    -0.107 NA 
HETATM   34  C   UNL     1      -5.832  12.676  70.212  1.00  0.00    -0.156 A  
HETATM   35 CL   UNL     1      -5.128  10.632  71.826  1.00  0.00    -0.061 Cl 
HETATM   36  C   UNL     1      -6.992  10.639  69.860  1.00  0.00    -0.148 A  
ENDBRANCH  27  30
ENDBRANCH   8  26
ENDBRANCH   2   3
TORSDOF 7
ENDMDL
MODEL       67
REMARK 921   NORMALIZED FREE ENERGY PREDICTED BY IDOCK:   -4.90 KCAL/MOL
REMARK 922        TOTAL FREE ENERGY PREDICTED BY IDOCK:   -7.63 KCAL/MOL
REMARK 923 INTER-LIGAND FREE ENERGY PREDICTED BY IDOCK:   -6.57 KCAL/MOL
REMARK 924 INTRA-LIGAND FREE ENERGY PREDICTED BY IDOCK:   -1.07 KCAL/MOL
REMARK 927      BINDING AFFINITY PREDICTED BY RF-SCORE:    0.00 PKD
ROOT
HETATM    1  C   UNL     1      -5.366   4.594  67.618  1.00  0.00    -0.012 C  
HETATM    2  O   UNL     1      -6.752   4.394  67.337  1.00  0.00    -0.046 OA 
ENDROOT
BRANCH   2   3
HETATM    3  C   UNL     1      -7.619   5.290  67.907  1.00  0.00    -0.084 A  
HETATM    4  C   UNL     1      -8.945   5.022  68.213  1.00  0.00    -0.120 A  
HETATM    5  C   UNL     1      -9.748   6.011  68.775  1.00  0.00    -0.156 A  
HETATM    6  C   UNL     1      -9.257   7.293  69.045  1.00  0.00    -0.139 A  
HETATM    7  C   UNL     1      -7.093   6.561  68.180  1.00  0.00    -0.083 A  
HETATM    8  C   UNL     1      -7.893   7.583  68.745  1.00  0.00    -0.121 A  
BRANCH   6   9
HETATM    9  N   UNL     1     -10.117   8.296  69.590  1.00  0.00    -0.194 N  
HETATM   10  C   UNL     1     -10.700   9.361  68.936  1.00  0.00    -0.178 C  
HETATM   11  H   UNL     1     -10.326   8.214  70.584  1.00  0.00     0.000 HD 
HETATM   12  O   UNL     1     -10.645   9.600  67.733  1.00  0.00    -0.237 OA 
BRANCH  10  13
HETATM   13  C   UNL     1     -11.419  10.356  69.786  1.00  0.00    -0.348 A  
HETATM   14  C   UNL     1     -11.270  11.708  69.449  1.00  0.00    -0.311 A  
HETATM   15  C   UNL     1     -12.235  10.011  70.866  1.00  0.00    -0.441 A  
HETATM   16  C   UNL     1     -11.850  12.707  70.235  1.00  0.00    -0.295 A  
HETATM   17  C   UNL     1     -12.864  11.018  71.619  1.00  0.00    -0.540 A  
HETATM   18  C   UNL     1     -12.634  12.375  71.350  1.00  0.00    -0.299 A  
BRANCH  18  19
HETATM   19  C   UNL     1     -13.191  13.495  72.206  1.00  0.00    -0.475 C  
HETATM   20  N   UNL     1     -14.396  13.362  72.687  1.00  0.00    -0.579 NA 
HETATM   21  H1  UNL     1     -14.771  14.116  73.263  1.00  0.00     0.000 HD 
HETATM   22  H2  UNL     1     -14.949  12.527  72.493  1.00  0.00     0.000 HD 
BRANCH  19  23
HETATM   23  N   UNL     1     -12.506  14.679  72.471  1.00  0.00    -0.317 NA 
HETATM   24  C   UNL     1     -11.755  15.469  71.511  1.00  0.00    -0.412 C  
HETATM   25  C   UNL     1     -12.398  15.181  73.845  1.00  0.00    -0.591 C  
ENDBRANCH  19  23
ENDBRANCH  18  19
ENDBRANCH  10  13
ENDBRANCH   6   9
BRANCH   8  26
HETATM   26  C   UNL     1      -7.341   8.964  69.029  1.00  0.00    -0.073 C  
HETATM   27  N   UNL     1      -7.486   9.968  68.075  1.00  0.00    -0.087 N  
HETATM   28  O   UNL     1      -6.779   9.124  70.114  1.00  0.00    -0.042 OA 
HETATM   29  H   UNL     1      -7.972   9.744  67.207  1.00  0.00     0.000 HD 
BRANCH  27  30
HETATM   30  C   UNL     1      -6.994  11.279  68.249  1.00  0.00    -0.071 A  
HETATM   31  C   UNL     1      -7.830  12.237  68.818  1.00  0.00     0.006 A  
HETATM   32  C   UNL     1      -6.081  13.870  68.549  1.00  0.00    -0.093 A  
HETATM   33  N   UNL     1      -5.743  11.590  67.857  1.00  0.00    -0.044 NA 
HETATM   34  C   UNL     1      -5.308  12.861  68.013  1.00  0.00    -0.099 A  
HETATM   35 CL   UNL     1      -5.471  15.468  68.690  1.00  0.00    -0.090 Cl 
HETATM   36  C   UNL     1      -7.367  13.552  68.963  1.00  0.00     0.004 A  
ENDBRANCH  27  30
ENDBRANCH   8  26
ENDBRANCH   2   3
TORSDOF 7
ENDMDL
MODEL       68
REMARK 921   NORMALIZED FREE ENERGY PREDICTED BY IDOCK:   -4.83 KCAL/MOL
REMARK 922        TOTAL FREE ENERGY PREDICTED BY IDOCK:   -7.55 KCAL/MOL
REMARK 923 INTER-LIGAND FREE ENERGY PREDICTED BY IDOCK:   -5.99 KCAL/MOL
REMARK 924 INTRA-LIGAND FREE ENERGY PREDICTED BY IDOCK:   -1.55 KCAL/MOL
REMARK 927      BINDING AFFINITY PREDICTED BY RF-SCORE:    0.00 PKD
ROOT
HETATM    1  C   UNL     1      -9.158   1.705  64.527  1.00  0.00    -0.122 C  
HETATM    2  O   UNL     1      -8.010   2.499  64.222  1.00  0.00    -0.076 OA 
ENDROOT
BRANCH   2   3
HETATM    3  C   UNL     1      -8.165   3.856  64.337  1.00  0.00    -0.090 A  
HETATM    4  C   UNL     1      -7.578   4.792  63.500  1.00  0.00    -0.060 A  
HETATM    5  C   UNL     1      -7.786   6.153  63.715  1.00  0.00    -0.109 A  
HETATM    6  C   UNL     1      -8.578   6.618  64.769  1.00  0.00     0.187 A  
HETATM    7  C   UNL     1      -8.978   4.291  65.394  1.00  0.00    -0.134 A  
HETATM    8  C   UNL     1      -9.197   5.668  65.634  1.00  0.00    -0.070 A  
BRANCH   6   9
HETATM    9  N   UNL     1      -8.743   8.022  64.983  1.00  0.00    -0.381 N  
HETATM   10  C   UNL     1      -8.180   8.801  65.972  1.00  0.00    -0.118 C  
HETATM   11  H   UNL     1      -9.350   8.507  64.324  1.00  0.00     0.000 HD 
HETATM   12  O   UNL     1      -7.365   8.438  66.814  1.00  0.00    -0.081 OA 
BRANCH  10  13
HETATM   13  C   UNL     1      -8.658  10.213  66.065  1.00  0.00    -0.150 A  
HETATM   14  C   UNL     1      -9.962  10.475  65.625  1.00  0.00    -0.332 A  
HETATM   15  C   UNL     1      -7.891  11.261  66.580  1.00  0.00    -0.133 A  
HETATM   16  C   UNL     1     -10.461  11.781  65.610  1.00  0.00    -0.308 A  
HETATM   17  C   UNL     1      -8.419  12.564  66.617  1.00  0.00    -0.006 A  
HETATM   18  C   UNL     1      -9.683  12.849  66.082  1.00  0.00    -0.250 A  
BRANCH  18  19
HETATM   19  C   UNL     1     -10.246  14.253  65.989  1.00  0.00    -0.315 C  
HETATM   20  N   UNL     1     -10.738  14.646  64.847  1.00  0.00    -0.469 NA 
HETATM   21  H1  UNL     1     -11.117  15.592  64.785  1.00  0.00     0.000 HD 
HETATM   22  H2  UNL     1     -10.744  14.025  64.037  1.00  0.00     0.000 HD 
BRANCH  19  23
HETATM   23  N   UNL     1     -10.226  15.164  67.043  1.00  0.00    -0.258 NA 
HETATM   24  C   UNL     1      -9.680  16.510  67.005  1.00  0.00    -0.250 C  
HETATM   25  C   UNL     1     -10.685  14.763  68.377  1.00  0.00    -0.243 C  
ENDBRANCH  19  23
ENDBRANCH  18  19
ENDBRANCH  10  13
ENDBRANCH   6   9
BRANCH   8  26
HETATM   26  C   UNL     1     -10.059   6.151  66.782  1.00  0.00    -0.182 C  
HETATM   27  N   UNL     1      -9.477   6.383  68.025  1.00  0.00    -0.117 N  
HETATM   28  O   UNL     1     -11.258   6.312  66.544  1.00  0.00    -0.142 OA 
HETATM   29  H   UNL     1      -8.474   6.228  68.126  1.00  0.00     0.000 HD 
BRANCH  27  30
HETATM   30  C   UNL     1     -10.204   6.822  69.152  1.00  0.00    -0.181 A  
HETATM   31  C   UNL     1     -10.292   8.190  69.399  1.00  0.00    -0.219 A  
HETATM   32  C   UNL     1     -11.571   7.711  71.383  1.00  0.00    -0.274 A  
HETATM   33  N   UNL     1     -10.787   5.927  69.972  1.00  0.00    -0.332 NA 
HETATM   34  C   UNL     1     -11.455   6.376  71.058  1.00  0.00    -0.334 A  
HETATM   35 CL   UNL     1     -12.412   8.207  72.795  1.00  0.00    -0.178 Cl 
HETATM   36  C   UNL     1     -10.981   8.638  70.535  1.00  0.00    -0.266 A  
ENDBRANCH  27  30
ENDBRANCH   8  26
ENDBRANCH   2   3
TORSDOF 7
ENDMDL
MODEL       69
REMARK 921   NORMALIZED FREE ENERGY PREDICTED BY IDOCK:   -4.80 KCAL/MOL
REMARK 922        TOTAL FREE ENERGY PREDICTED BY IDOCK:   -7.49 KCAL/MOL
REMARK 923 INTER-LIGAND FREE ENERGY PREDICTED BY IDOCK:   -6.02 KCAL/MOL
REMARK 924 INTRA-LIGAND FREE ENERGY PREDICTED BY IDOCK:   -1.47 KCAL/MOL
REMARK 927      BINDING AFFINITY PREDICTED BY RF-SCORE:    0.00 PKD
ROOT
HETATM    1  C   UNL     1      -6.462  15.463  69.661  1.00  0.00    -0.171 C  
HETATM    2  O   UNL     1      -5.572  14.355  69.516  1.00  0.00    -0.090 OA 
ENDROOT
BRANCH   2   3
HETATM    3  C   UNL     1      -6.096  13.232  68.930  1.00  0.00    -0.083 A  
HETATM    4  C   UNL     1      -6.340  13.089  67.573  1.00  0.00    -0.153 A  
HETATM    5  C   UNL     1      -6.894  11.909  67.081  1.00  0.00    -0.144 A  
HETATM    6  C   UNL     1      -7.223  10.843  67.924  1.00  0.00    -0.086 A  
HETATM    7  C   UNL     1      -6.401  12.174  69.800  1.00  0.00    -0.102 A  
HETATM    8  C   UNL     1      -6.970  10.970  69.322  1.00  0.00    -0.116 A  
BRANCH   6   9
HETATM    9  N   UNL     1      -7.823   9.660  67.391  1.00  0.00    -0.095 N  
HETATM   10  C   UNL     1      -9.143   9.269  67.467  1.00  0.00    -0.120 C  
HETATM   11  H   UNL     1      -7.197   9.027  66.894  1.00  0.00     0.000 HD 
HETATM   12  O   UNL     1     -10.070   9.913  67.949  1.00  0.00    -0.158 OA 
BRANCH  10  13
HETATM   13  C   UNL     1      -9.465   7.898  66.970  1.00  0.00    -0.222 A  
HETATM   14  C   UNL     1      -8.529   7.290  66.124  1.00  0.00    -0.144 A  
HETATM   15  C   UNL     1     -10.623   7.198  67.317  1.00  0.00    -0.398 A  
HETATM   16  C   UNL     1      -8.786   6.039  65.557  1.00  0.00    -0.120 A  
HETATM   17  C   UNL     1     -10.850   5.914  66.789  1.00  0.00    -0.347 A  
HETATM   18  C   UNL     1      -9.967   5.345  65.861  1.00  0.00    -0.056 A  
BRANCH  18  19
HETATM   19  C   UNL     1     -10.228   4.019  65.174  1.00  0.00    -0.161 C  
HETATM   20  N   UNL     1     -11.360   3.863  64.545  1.00  0.00    -0.670 NA 
HETATM   21  H1  UNL     1     -11.536   2.971  64.083  1.00  0.00     0.000 HD 
HETATM   22  H2  UNL     1     -12.051   4.613  64.516  1.00  0.00     0.000 HD 
BRANCH  19  23
HETATM   23  N   UNL     1      -9.346   2.942  65.215  1.00  0.00    -0.140 NA 
HETATM   24  C   UNL     1      -8.922   2.135  64.083  1.00  0.00    -0.104 C  
HETATM   25  C   UNL     1      -8.840   2.447  66.500  1.00  0.00    -0.127 C  
ENDBRANCH  19  23
ENDBRANCH  18  19
ENDBRANCH  10  13
ENDBRANCH   6   9
BRANCH   8  26
HETATM   26  C   UNL     1      -7.319   9.827  70.253  1.00  0.00    -0.158 C  
HETATM   27  N   UNL     1      -8.637   9.663  70.669  1.00  0.00    -0.242 N  
HETATM   28  O   UNL     1      -6.392   9.092  70.598  1.00  0.00    -0.039 OA 
HETATM   29  H   UNL     1      -9.339  10.318  70.326  1.00  0.00     0.000 HD 
BRANCH  27  30
HETATM   30  C   UNL     1      -9.051   8.635  71.544  1.00  0.00    -0.239 A  
HETATM   31  C   UNL     1      -9.791   7.575  71.026  1.00  0.00    -0.182 A  
HETATM   32  C   UNL     1      -9.926   6.636  73.240  1.00  0.00    -0.191 A  
HETATM   33  N   UNL     1      -8.740   8.694  72.853  1.00  0.00    -0.381 NA 
HETATM   34  C   UNL     1      -9.173   7.708  73.671  1.00  0.00    -0.283 A  
HETATM   35 CL   UNL     1     -10.464   5.436  74.342  1.00  0.00    -0.288 Cl 
HETATM   36  C   UNL     1     -10.240   6.566  71.890  1.00  0.00    -0.214 A  
ENDBRANCH  27  30
ENDBRANCH   8  26
ENDBRANCH   2   3
TORSDOF 7
ENDMDL
MODEL       70
REMARK 921   NORMALIZED FREE ENERGY PREDICTED BY IDOCK:   -4.77 KCAL/MOL
REMARK 922        TOTAL FREE ENERGY PREDICTED BY IDOCK:   -7.46 KCAL/MOL
REMARK 923 INTER-LIGAND FREE ENERGY PREDICTED BY IDOCK:   -5.91 KCAL/MOL
REMARK 924 INTRA-LIGAND FREE ENERGY PREDICTED BY IDOCK:   -1.55 KCAL/MOL
REMARK 927      BINDING AFFINITY PREDICTED BY RF-SCORE:    0.00 PKD
ROOT
HETATM    1  C   UNL     1      -8.254  15.542  69.206  1.00  0.00    -0.255 C  
HETATM    2  O   UNL     1      -7.017  14.930  68.835  1.00  0.00    -0.099 OA 
ENDROOT
BRANCH   2   3
HETATM    3  C   UNL     1      -7.098  13.652  68.344  1.00  0.00    -0.107 A  
HETATM    4  C   UNL     1      -6.173  13.074  67.490  1.00  0.00    -0.143 A  
HETATM    5  C   UNL     1      -6.359  11.771  67.032  1.00  0.00    -0.150 A  
HETATM    6  C   UNL     1      -7.471  11.011  67.410  1.00  0.00    -0.106 A  
HETATM    7  C   UNL     1      -8.217  12.910  68.753  1.00  0.00     0.116 A  
HETATM    8  C   UNL     1      -8.428  11.588  68.295  1.00  0.00    -0.159 A  
BRANCH   6   9
HETATM    9  N   UNL     1      -7.651   9.690  66.895  1.00  0.00    -0.095 N  
HETATM   10  C   UNL     1      -8.006   9.318  65.615  1.00  0.00    -0.103 C  
HETATM   11  H   UNL     1      -7.497   8.928  67.554  1.00  0.00     0.000 HD 
HETATM   12  O   UNL     1      -8.162  10.065  64.653  1.00  0.00    -0.149 OA 
BRANCH  10  13
HETATM   13  C   UNL     1      -8.291   7.869  65.393  1.00  0.00    -0.146 A  
HETATM   14  C   UNL     1      -9.046   7.210  66.372  1.00  0.00    -0.189 A  
HETATM   15  C   UNL     1      -7.866   7.157  64.268  1.00  0.00    -0.111 A  
HETATM   16  C   UNL     1      -9.296   5.839  66.277  1.00  0.00    -0.171 A  
HETATM   17  C   UNL     1      -8.170   5.789  64.149  1.00  0.00    -0.098 A  
HETATM   18  C   UNL     1      -8.835   5.103  65.175  1.00  0.00    -0.146 A  
BRANCH  18  19
HETATM   19  C   UNL     1      -9.079   3.607  65.147  1.00  0.00    -0.143 C  
HETATM   20  N   UNL     1     -10.036   3.152  64.387  1.00  0.00    -0.318 NA 
HETATM   21  H1  UNL     1     -10.201   2.145  64.369  1.00  0.00     0.000 HD 
HETATM   22  H2  UNL     1     -10.606   3.786  63.826  1.00  0.00     0.000 HD 
BRANCH  19  23
HETATM   23  N   UNL     1      -8.368   2.694  65.923  1.00  0.00    -0.088 NA 
HETATM   24  C   UNL     1      -8.919   1.829  66.953  1.00  0.00    -0.109 C  
HETATM   25  C   UNL     1      -6.907   2.618  65.825  1.00  0.00    -0.044 C  
ENDBRANCH  19  23
ENDBRANCH  18  19
ENDBRANCH  10  13
ENDBRANCH   6   9
BRANCH   8  26
HETATM   26  C   UNL     1      -9.640  10.782  68.716  1.00  0.00    -0.189 C  
HETATM   27  N   UNL     1      -9.777  10.398  70.047  1.00  0.00    -0.391 N  
HETATM   28  O   UNL     1     -10.453  10.502  67.833  1.00  0.00    -0.184 OA 
HETATM   29  H   UNL     1      -9.055  10.681  70.710  1.00  0.00     0.000 HD 
BRANCH  27  30
HETATM   30  C   UNL     1     -10.865   9.637  70.526  1.00  0.00    -0.309 A  
HETATM   31  C   UNL     1     -10.765   8.249  70.516  1.00  0.00    -0.238 A  
HETATM   32  C   UNL     1     -13.001   8.118  71.403  1.00  0.00    -0.242 A  
HETATM   33  N   UNL     1     -11.977  10.253  70.972  1.00  0.00    -0.359 NA 
HETATM   34  C   UNL     1     -13.014   9.497  71.401  1.00  0.00    -0.368 A  
HETATM   35 CL   UNL     1     -14.365   7.223  71.936  1.00  0.00    -0.526 Cl 
HETATM   36  C   UNL     1     -11.852   7.479  70.954  1.00  0.00    -0.293 A  
ENDBRANCH  27  30
ENDBRANCH   8  26
ENDBRANCH   2   3
TORSDOF 7
ENDMDL
MODEL       71
REMARK 921   NORMALIZED FREE ENERGY PREDICTED BY IDOCK:   -4.61 KCAL/MOL
REMARK 922        TOTAL FREE ENERGY PREDICTED BY IDOCK:   -7.23 KCAL/MOL
REMARK 923 INTER-LIGAND FREE ENERGY PREDICTED BY IDOCK:   -6.72 KCAL/MOL
REMARK 924 INTRA-LIGAND FREE ENERGY PREDICTED BY IDOCK:   -0.51 KCAL/MOL
REMARK 927      BINDING AFFINITY PREDICTED BY RF-SCORE:    0.00 PKD
ROOT
HETATM    1  C   UNL     1     -11.480   6.041  71.484  1.00  0.00    -0.216 C  
HETATM    2  O   UNL     1     -10.139   6.038  70.992  1.00  0.00    -0.182 OA 
ENDROOT
BRANCH   2   3
HETATM    3  C   UNL     1      -9.617   7.259  70.653  1.00  0.00    -0.172 A  
HETATM    4  C   UNL     1      -8.462   7.802  71.193  1.00  0.00    -0.115 A  
HETATM    5  C   UNL     1      -8.026   9.063  70.793  1.00  0.00    -0.172 A  
HETATM    6  C   UNL     1      -8.729   9.818  69.848  1.00  0.00    -0.217 A  
HETATM    7  C   UNL     1     -10.336   7.986  69.692  1.00  0.00    -0.220 A  
HETATM    8  C   UNL     1      -9.914   9.271  69.275  1.00  0.00    -0.180 A  
BRANCH   6   9
HETATM    9  N   UNL     1      -8.274  11.124  69.485  1.00  0.00    -0.345 N  
HETATM   10  C   UNL     1      -7.064  11.476  68.924  1.00  0.00    -0.111 C  
HETATM   11  H   UNL     1      -8.924  11.889  69.662  1.00  0.00     0.000 HD 
HETATM   12  O   UNL     1      -6.176  10.710  68.560  1.00  0.00    -0.049 OA 
BRANCH  10  13
HETATM   13  C   UNL     1      -6.781  12.937  68.803  1.00  0.00    -0.093 A  
HETATM   14  C   UNL     1      -6.213  13.570  69.916  1.00  0.00    -0.108 A  
HETATM   15  C   UNL     1      -7.032  13.685  67.650  1.00  0.00    -0.183 A  
HETATM   16  C   UNL     1      -5.983  14.949  69.913  1.00  0.00    -0.132 A  
HETATM   17  C   UNL     1      -6.745  15.062  67.632  1.00  0.00    -0.201 A  
HETATM   18  C   UNL     1      -6.274  15.719  68.777  1.00  0.00    -0.105 A  
BRANCH  18  19
HETATM   19  C   UNL     1      -6.064  17.219  68.844  1.00  0.00    -0.182 C  
HETATM   20  N   UNL     1      -5.186  17.682  69.690  1.00  0.00    -0.178 NA 
HETATM   21  H1  UNL     1      -5.046  18.691  69.735  1.00  0.00     0.000 HD 
HETATM   22  H2  UNL     1      -4.654  17.052  70.291  1.00  0.00     0.000 HD 
BRANCH  19  23
HETATM   23  N   UNL     1      -6.790  18.135  68.085  1.00  0.00    -0.207 NA 
HETATM   24  C   UNL     1      -6.297  18.884  66.942  1.00  0.00    -0.183 C  
HETATM   25  C   UNL     1      -8.151  18.510  68.479  1.00  0.00    -0.330 C  
ENDBRANCH  19  23
ENDBRANCH  18  19
ENDBRANCH  10  13
ENDBRANCH   6   9
BRANCH   8  26
HETATM   26  C   UNL     1     -10.690  10.072  68.250  1.00  0.00    -0.240 C  
HETATM   27  N   UNL     1     -10.097  10.374  67.028  1.00  0.00    -0.206 N  
HETATM   28  O   UNL     1     -11.829  10.422  68.567  1.00  0.00    -0.280 OA 
HETATM   29  H   UNL     1      -9.151  10.037  66.852  1.00  0.00     0.000 HD 
BRANCH  27  30
HETATM   30  C   UNL     1     -10.739  11.125  66.019  1.00  0.00    -0.211 A  
HETATM   31  C   UNL     1     -10.386  10.899  64.692  1.00  0.00    -0.407 A  
HETATM   32  C   UNL     1     -11.936  12.619  64.026  1.00  0.00    -0.451 A  
HETATM   33  N   UNL     1     -11.665  12.046  66.348  1.00  0.00    -0.565 NA 
HETATM   34  C   UNL     1     -12.245  12.768  65.361  1.00  0.00    -0.478 A  
HETATM   35 CL   UNL     1     -12.693  13.590  62.831  1.00  0.00     0.501 Cl 
HETATM   36  C   UNL     1     -10.989  11.663  63.682  1.00  0.00    -0.507 A  
ENDBRANCH  27  30
ENDBRANCH   8  26
ENDBRANCH   2   3
TORSDOF 7
ENDMDL
MODEL       72
REMARK 921   NORMALIZED FREE ENERGY PREDICTED BY IDOCK:   -4.60 KCAL/MOL
REMARK 922        TOTAL FREE ENERGY PREDICTED BY IDOCK:   -7.21 KCAL/MOL
REMARK 923 INTER-LIGAND FREE ENERGY PREDICTED BY IDOCK:   -7.23 KCAL/MOL
REMARK 924 INTRA-LIGAND FREE ENERGY PREDICTED BY IDOCK:    0.02 KCAL/MOL
REMARK 927      BINDING AFFINITY PREDICTED BY RF-SCORE:    0.00 PKD
ROOT
HETATM    1  C   UNL     1     -11.277  15.359  65.086  1.00  0.00    -0.350 C  
HETATM    2  O   UNL     1     -10.736  15.357  66.409  1.00  0.00    -0.306 OA 
ENDROOT
BRANCH   2   3
HETATM    3  C   UNL     1     -10.887  14.197  67.122  1.00  0.00    -0.290 A  
HETATM    4  C   UNL     1     -11.585  14.087  68.315  1.00  0.00    -0.364 A  
HETATM    5  C   UNL     1     -11.662  12.860  68.971  1.00  0.00    -0.375 A  
HETATM    6  C   UNL     1     -11.046  11.713  68.462  1.00  0.00    -0.235 A  
HETATM    7  C   UNL     1     -10.271  13.060  66.578  1.00  0.00    -0.270 A  
HETATM    8  C   UNL     1     -10.331  11.806  67.231  1.00  0.00    -0.231 A  
BRANCH   6   9
HETATM    9  N   UNL     1     -11.115  10.478  69.178  1.00  0.00    -0.233 N  
HETATM   10  C   UNL     1     -11.840  10.196  70.317  1.00  0.00    -0.261 C  
HETATM   11  H   UNL     1     -10.560   9.710  68.801  1.00  0.00     0.000 HD 
HETATM   12  O   UNL     1     -12.628  10.946  70.886  1.00  0.00    -0.345 OA 
BRANCH  10  13
HETATM   13  C   UNL     1     -11.595   8.869  70.956  1.00  0.00    -0.347 A  
HETATM   14  C   UNL     1     -10.260   8.501  71.170  1.00  0.00    -0.272 A  
HETATM   15  C   UNL     1     -12.613   8.002  71.362  1.00  0.00    -0.307 A  
HETATM   16  C   UNL     1      -9.942   7.247  71.697  1.00  0.00    -0.192 A  
HETATM   17  C   UNL     1     -12.287   6.764  71.945  1.00  0.00    -0.369 A  
HETATM   18  C   UNL     1     -10.954   6.348  72.065  1.00  0.00    -0.289 A  
BRANCH  18  19
HETATM   19  C   UNL     1     -10.558   4.976  72.575  1.00  0.00    -0.219 C  
HETATM   20  N   UNL     1     -11.263   4.448  73.537  1.00  0.00    -0.301 NA 
HETATM   21  H1  UNL     1     -10.996   3.526  73.880  1.00  0.00     0.000 HD 
HETATM   22  H2  UNL     1     -12.060   4.945  73.936  1.00  0.00     0.000 HD 
BRANCH  19  23
HETATM   23  N   UNL     1      -9.455   4.267  72.105  1.00  0.00    -0.127 NA 
HETATM   24  C   UNL     1      -9.266   3.770  70.753  1.00  0.00    -0.131 C  
HETATM   25  C   UNL     1      -8.393   3.852  73.027  1.00  0.00    -0.092 C  
ENDBRANCH  19  23
ENDBRANCH  18  19
ENDBRANCH  10  13
ENDBRANCH   6   9
BRANCH   8  26
HETATM   26  C   UNL     1      -9.656  10.576  66.662  1.00  0.00    -0.172 C  
HETATM   27  N   UNL     1      -9.684   9.385  67.384  1.00  0.00    -0.152 N  
HETATM   28  O   UNL     1      -9.104  10.703  65.568  1.00  0.00    -0.175 OA 
HETATM   29  H   UNL     1     -10.171   9.373  68.280  1.00  0.00     0.000 HD 
BRANCH  27  30
HETATM   30  C   UNL     1      -9.073   8.194  66.937  1.00  0.00    -0.154 A  
HETATM   31  C   UNL     1      -9.884   7.132  66.546  1.00  0.00    -0.189 A  
HETATM   32  C   UNL     1      -7.906   5.828  66.114  1.00  0.00    -0.101 A  
HETATM   33  N   UNL     1      -7.730   8.093  66.906  1.00  0.00    -0.095 NA 
HETATM   34  C   UNL     1      -7.173   6.930  66.498  1.00  0.00    -0.072 A  
HETATM   35 CL   UNL     1      -7.130   4.374  65.635  1.00  0.00    -0.066 Cl 
HETATM   36  C   UNL     1      -9.291   5.930  66.135  1.00  0.00    -0.150 A  
ENDBRANCH  27  30
ENDBRANCH   8  26
ENDBRANCH   2   3
TORSDOF 7
ENDMDL
MODEL       73
REMARK 921   NORMALIZED FREE ENERGY PREDICTED BY IDOCK:   -4.54 KCAL/MOL
REMARK 922        TOTAL FREE ENERGY PREDICTED BY IDOCK:   -7.14 KCAL/MOL
REMARK 923 INTER-LIGAND FREE ENERGY PREDICTED BY IDOCK:   -6.60 KCAL/MOL
REMARK 924 INTRA-LIGAND FREE ENERGY PREDICTED BY IDOCK:   -0.54 KCAL/MOL
REMARK 927      BINDING AFFINITY PREDICTED BY RF-SCORE:    0.00 PKD
ROOT
HETATM    1  C   UNL     1      -8.923   2.415  71.020  1.00  0.00    -0.082 C  
HETATM    2  O   UNL     1      -9.943   3.252  71.567  1.00  0.00    -0.167 OA 
ENDROOT
BRANCH   2   3
HETATM    3  C   UNL     1     -10.108   4.474  70.969  1.00  0.00    -0.152 A  
HETATM    4  C   UNL     1     -11.082   5.399  71.314  1.00  0.00    -0.053 A  
HETATM    5  C   UNL     1     -11.175   6.608  70.628  1.00  0.00    -0.370 A  
HETATM    6  C   UNL     1     -10.306   6.928  69.580  1.00  0.00    -0.206 A  
HETATM    7  C   UNL     1      -9.212   4.773  69.932  1.00  0.00    -0.183 A  
HETATM    8  C   UNL     1      -9.293   5.992  69.218  1.00  0.00    -0.146 A  
BRANCH   6   9
HETATM    9  N   UNL     1     -10.452   8.162  68.874  1.00  0.00    -0.279 N  
HETATM   10  C   UNL     1     -10.533   9.436  69.397  1.00  0.00    -0.220 C  
HETATM   11  H   UNL     1     -10.502   8.093  67.858  1.00  0.00     0.000 HD 
HETATM   12  O   UNL     1     -10.417   9.750  70.578  1.00  0.00    -0.278 OA 
BRANCH  10  13
HETATM   13  C   UNL     1     -10.855  10.534  68.439  1.00  0.00    -0.284 A  
HETATM   14  C   UNL     1     -11.238  11.766  68.985  1.00  0.00    -0.324 A  
HETATM   15  C   UNL     1     -10.774  10.403  67.050  1.00  0.00    -0.298 A  
HETATM   16  C   UNL     1     -11.625  12.824  68.159  1.00  0.00    -0.380 A  
HETATM   17  C   UNL     1     -11.109  11.490  66.223  1.00  0.00    -0.321 A  
HETATM   18  C   UNL     1     -11.593  12.690  66.763  1.00  0.00    -0.438 A  
BRANCH  18  19
HETATM   19  C   UNL     1     -12.080  13.845  65.911  1.00  0.00    -0.433 C  
HETATM   20  N   UNL     1     -13.363  14.074  65.858  1.00  0.00    -0.512 NA 
HETATM   21  H1  UNL     1     -13.691  14.851  65.284  1.00  0.00     0.000 HD 
HETATM   22  H2  UNL     1     -14.021  13.491  66.376  1.00  0.00     0.000 HD 
BRANCH  19  23
HETATM   23  N   UNL     1     -11.239  14.648  65.144  1.00  0.00    -0.355 NA 
HETATM   24  C   UNL     1      -9.795  14.523  65.038  1.00  0.00    -0.021 C  
HETATM   25  C   UNL     1     -11.772  15.816  64.435  1.00  0.00    -0.201 C  
ENDBRANCH  19  23
ENDBRANCH  18  19
ENDBRANCH  10  13
ENDBRANCH   6   9
BRANCH   8  26
HETATM   26  C   UNL     1      -8.342   6.320  68.086  1.00  0.00    -0.115 C  
HETATM   27  N   UNL     1      -8.802   7.055  66.997  1.00  0.00    -0.121 N  
HETATM   28  O   UNL     1      -7.187   5.903  68.194  1.00  0.00    -0.075 OA 
HETATM   29  H   UNL     1      -9.774   7.363  66.997  1.00  0.00     0.000 HD 
BRANCH  27  30
HETATM   30  C   UNL     1      -7.991   7.396  65.893  1.00  0.00    -0.118 A  
HETATM   31  C   UNL     1      -7.149   8.499  65.999  1.00  0.00    -0.076 A  
HETATM   32  C   UNL     1      -6.434   8.124  63.729  1.00  0.00    -0.071 A  
HETATM   33  N   UNL     1      -8.048   6.668  64.761  1.00  0.00    -0.120 NA 
HETATM   34  C   UNL     1      -7.279   7.034  63.711  1.00  0.00    -0.067 A  
HETATM   35 CL   UNL     1      -5.507   8.546  62.348  1.00  0.00    -0.071 Cl 
HETATM   36  C   UNL     1      -6.364   8.872  64.898  1.00  0.00    -0.065 A  
ENDBRANCH  27  30
ENDBRANCH   8  26
ENDBRANCH   2   3
TORSDOF 7
ENDMDL
MODEL       74
REMARK 921   NORMALIZED FREE ENERGY PREDICTED BY IDOCK:   -4.49 KCAL/MOL
REMARK 922        TOTAL FREE ENERGY PREDICTED BY IDOCK:   -7.05 KCAL/MOL
REMARK 923 INTER-LIGAND FREE ENERGY PREDICTED BY IDOCK:   -6.82 KCAL/MOL
REMARK 924 INTRA-LIGAND FREE ENERGY PREDICTED BY IDOCK:   -0.23 KCAL/MOL
REMARK 927      BINDING AFFINITY PREDICTED BY RF-SCORE:    0.00 PKD
ROOT
HETATM    1  C   UNL     1     -10.478  18.324  66.050  1.00  0.00    -0.361 C  
HETATM    2  O   UNL     1      -9.734  18.007  67.228  1.00  0.00    -0.283 OA 
ENDROOT
BRANCH   2   3
HETATM    3  C   UNL     1      -9.815  16.710  67.663  1.00  0.00    -0.256 A  
HETATM    4  C   UNL     1     -10.108  16.329  68.963  1.00  0.00    -0.259 A  
HETATM    5  C   UNL     1     -10.147  14.979  69.307  1.00  0.00    -0.236 A  
HETATM    6  C   UNL     1      -9.894  13.974  68.368  1.00  0.00    -0.232 A  
HETATM    7  C   UNL     1      -9.571  15.724  66.695  1.00  0.00    -0.266 A  
HETATM    8  C   UNL     1      -9.600  14.348  67.024  1.00  0.00    -0.251 A  
BRANCH   6   9
HETATM    9  N   UNL     1      -9.908  12.599  68.761  1.00  0.00    -0.421 N  
HETATM   10  C   UNL     1     -10.852  11.640  68.461  1.00  0.00    -0.219 C  
HETATM   11  H   UNL     1      -9.123  12.290  69.334  1.00  0.00     0.000 HD 
HETATM   12  O   UNL     1     -11.826  11.777  67.727  1.00  0.00    -0.541 OA 
BRANCH  10  13
HETATM   13  C   UNL     1     -10.707  10.321  69.146  1.00  0.00    -0.259 A  
HETATM   14  C   UNL     1     -10.241   9.249  68.373  1.00  0.00    -0.231 A  
HETATM   15  C   UNL     1     -10.988  10.112  70.498  1.00  0.00    -0.380 A  
HETATM   16  C   UNL     1     -10.145   7.965  68.917  1.00  0.00    -0.203 A  
HETATM   17  C   UNL     1     -10.835   8.830  71.056  1.00  0.00    -0.321 A  
HETATM   18  C   UNL     1     -10.469   7.734  70.262  1.00  0.00    -0.225 A  
BRANCH  18  19
HETATM   19  C   UNL     1     -10.408   6.313  70.790  1.00  0.00    -0.206 C  
HETATM   20  N   UNL     1     -10.663   5.337  69.964  1.00  0.00    -0.235 NA 
HETATM   21  H1  UNL     1     -10.622   4.382  70.319  1.00  0.00     0.000 HD 
HETATM   22  H2  UNL     1     -10.897   5.524  68.988  1.00  0.00     0.000 HD 
BRANCH  19  23
HETATM   23  N   UNL     1     -10.139   5.994  72.119  1.00  0.00    -0.180 NA 
HETATM   24  C   UNL     1     -11.105   5.940  73.202  1.00  0.00    -0.221 C  
HETATM   25  C   UNL     1      -8.757   5.787  72.566  1.00  0.00    -0.124 C  
ENDBRANCH  19  23
ENDBRANCH  18  19
ENDBRANCH  10  13
ENDBRANCH   6   9
BRANCH   8  26
HETATM   26  C   UNL     1      -9.323  13.274  65.992  1.00  0.00     0.004 C  
HETATM   27  N   UNL     1      -8.392  12.278  66.275  1.00  0.00    -0.381 N  
HETATM   28  O   UNL     1      -9.950  13.348  64.934  1.00  0.00    -0.247 OA 
HETATM   29  H   UNL     1      -7.925  12.295  67.181  1.00  0.00     0.000 HD 
BRANCH  27  30
HETATM   30  C   UNL     1      -8.062  11.247  65.370  1.00  0.00     0.324 A  
HETATM   31  C   UNL     1      -6.738  10.821  65.296  1.00  0.00     0.108 A  
HETATM   32  C   UNL     1      -7.372   9.269  63.566  1.00  0.00    -0.097 A  
HETATM   33  N   UNL     1      -9.014  10.700  64.589  1.00  0.00    -0.196 NA 
HETATM   34  C   UNL     1      -8.663   9.732  63.713  1.00  0.00    -0.224 A  
HETATM   35 CL   UNL     1      -6.995   8.056  62.413  1.00  0.00    -0.086 Cl 
HETATM   36  C   UNL     1      -6.389   9.822  64.375  1.00  0.00    -0.116 A  
ENDBRANCH  27  30
ENDBRANCH   8  26
ENDBRANCH   2   3
TORSDOF 7
ENDMDL
MODEL       75
REMARK 921   NORMALIZED FREE ENERGY PREDICTED BY IDOCK:   -4.48 KCAL/MOL
REMARK 922        TOTAL FREE ENERGY PREDICTED BY IDOCK:   -7.04 KCAL/MOL
REMARK 923 INTER-LIGAND FREE ENERGY PREDICTED BY IDOCK:   -5.44 KCAL/MOL
REMARK 924 INTRA-LIGAND FREE ENERGY PREDICTED BY IDOCK:   -1.60 KCAL/MOL
REMARK 927      BINDING AFFINITY PREDICTED BY RF-SCORE:    0.00 PKD
ROOT
HETATM    1  C   UNL     1     -10.405  14.833  68.976  1.00  0.00    -0.243 C  
HETATM    2  O   UNL     1      -9.520  14.600  67.879  1.00  0.00    -0.203 OA 
ENDROOT
BRANCH   2   3
HETATM    3  C   UNL     1      -9.427  13.304  67.443  1.00  0.00    -0.218 A  
HETATM    4  C   UNL     1      -9.680  12.886  66.145  1.00  0.00    -0.250 A  
HETATM    5  C   UNL     1      -9.575  11.538  65.809  1.00  0.00    -0.259 A  
HETATM    6  C   UNL     1      -9.219  10.570  66.754  1.00  0.00    -0.155 A  
HETATM    7  C   UNL     1      -9.054  12.358  68.410  1.00  0.00    -0.141 A  
HETATM    8  C   UNL     1      -8.948  10.983  68.092  1.00  0.00    -0.152 A  
BRANCH   6   9
HETATM    9  N   UNL     1      -9.154   9.191  66.385  1.00  0.00    -0.159 N  
HETATM   10  C   UNL     1     -10.002   8.170  66.761  1.00  0.00    -0.279 C  
HETATM   11  H   UNL     1      -8.387   8.929  65.766  1.00  0.00     0.000 HD 
HETATM   12  O   UNL     1     -11.024   8.278  67.432  1.00  0.00    -0.127 OA 
BRANCH  10  13
HETATM   13  C   UNL     1      -9.601   6.787  66.366  1.00  0.00    -0.149 A  
HETATM   14  C   UNL     1     -10.412   5.736  66.813  1.00  0.00    -0.350 A  
HETATM   15  C   UNL     1      -8.491   6.497  65.570  1.00  0.00    -0.139 A  
HETATM   16  C   UNL     1     -10.069   4.407  66.549  1.00  0.00    -0.217 A  
HETATM   17  C   UNL     1      -8.182   5.161  65.257  1.00  0.00    -0.126 A  
HETATM   18  C   UNL     1      -8.931   4.101  65.789  1.00  0.00    -0.129 A  
BRANCH  18  19
HETATM   19  C   UNL     1      -8.567   2.644  65.580  1.00  0.00    -0.109 C  
HETATM   20  N   UNL     1      -8.655   1.835  66.599  1.00  0.00    -0.101 NA 
HETATM   21  H1  UNL     1      -8.409   0.855  66.459  1.00  0.00     0.000 HD 
HETATM   22  H2  UNL     1      -8.960   2.173  67.512  1.00  0.00     0.000 HD 
BRANCH  19  23
HETATM   23  N   UNL     1      -8.100   2.130  64.373  1.00  0.00    -0.074 NA 
HETATM   24  C   UNL     1      -6.726   1.773  64.065  1.00  0.00    -0.026 C  
HETATM   25  C   UNL     1      -9.000   2.009  63.221  1.00  0.00    -0.088 C  
ENDBRANCH  19  23
ENDBRANCH  18  19
ENDBRANCH  10  13
ENDBRANCH   6   9
BRANCH   8  26
HETATM   26  C   UNL     1      -8.561   9.951  69.130  1.00  0.00    -0.157 C  
HETATM   27  N   UNL     1      -9.537   9.438  69.981  1.00  0.00    -0.210 N  
HETATM   28  O   UNL     1      -7.375   9.618  69.166  1.00  0.00    -0.072 OA 
HETATM   29  H   UNL     1     -10.495   9.769  69.874  1.00  0.00     0.000 HD 
BRANCH  27  30
HETATM   30  C   UNL     1      -9.266   8.483  70.984  1.00  0.00    -0.182 A  
HETATM   31  C   UNL     1      -9.453   7.135  70.691  1.00  0.00    -0.161 A  
HETATM   32  C   UNL     1      -8.802   6.593  72.946  1.00  0.00    -0.125 A  
HETATM   33  N   UNL     1      -8.848   8.881  72.202  1.00  0.00    -0.380 NA 
HETATM   34  C   UNL     1      -8.621   7.944  73.151  1.00  0.00    -0.201 A  
HETATM   35 CL   UNL     1      -8.521   5.463  74.207  1.00  0.00    -0.110 Cl 
HETATM   36  C   UNL     1      -9.223   6.178  71.690  1.00  0.00    -0.150 A  
ENDBRANCH  27  30
ENDBRANCH   8  26
ENDBRANCH   2   3
TORSDOF 7
ENDMDL
MODEL       76
REMARK 921   NORMALIZED FREE ENERGY PREDICTED BY IDOCK:   -4.42 KCAL/MOL
REMARK 922        TOTAL FREE ENERGY PREDICTED BY IDOCK:   -6.96 KCAL/MOL
REMARK 923 INTER-LIGAND FREE ENERGY PREDICTED BY IDOCK:   -6.42 KCAL/MOL
REMARK 924 INTRA-LIGAND FREE ENERGY PREDICTED BY IDOCK:   -0.54 KCAL/MOL
REMARK 927      BINDING AFFINITY PREDICTED BY RF-SCORE:    0.00 PKD
ROOT
HETATM    1  C   UNL     1      -9.597   6.166  72.341  1.00  0.00    -0.151 C  
HETATM    2  O   UNL     1      -8.293   6.203  71.758  1.00  0.00    -0.123 OA 
ENDROOT
BRANCH   2   3
HETATM    3  C   UNL     1      -7.886   7.416  71.265  1.00  0.00    -0.095 A  
HETATM    4  C   UNL     1      -6.600   7.923  71.376  1.00  0.00    -0.042 A  
HETATM    5  C   UNL     1      -6.294   9.178  70.856  1.00  0.00    -0.070 A  
HETATM    6  C   UNL     1      -7.257   9.963  70.214  1.00  0.00    -0.154 A  
HETATM    7  C   UNL     1      -8.870   8.173  70.613  1.00  0.00    -0.143 A  
HETATM    8  C   UNL     1      -8.582   9.453  70.083  1.00  0.00    -0.233 A  
BRANCH   6   9
HETATM    9  N   UNL     1      -6.919  11.262  69.721  1.00  0.00    -0.321 N  
HETATM   10  C   UNL     1      -6.119  12.214  70.317  1.00  0.00    -0.080 C  
HETATM   11  H   UNL     1      -7.318  11.515  68.818  1.00  0.00     0.000 HD 
HETATM   12  O   UNL     1      -5.484  12.087  71.359  1.00  0.00    -0.361 OA 
BRANCH  10  13
HETATM   13  C   UNL     1      -6.072  13.555  69.661  1.00  0.00    -0.121 A  
HETATM   14  C   UNL     1      -6.033  14.675  70.502  1.00  0.00    -0.172 A  
HETATM   15  C   UNL     1      -6.044  13.742  68.277  1.00  0.00    -0.111 A  
HETATM   16  C   UNL     1      -6.060  15.967  69.970  1.00  0.00    -0.138 A  
HETATM   17  C   UNL     1      -6.012  15.045  67.747  1.00  0.00    -0.138 A  
HETATM   18  C   UNL     1      -6.079  16.169  68.582  1.00  0.00    -0.112 A  
BRANCH  18  19
HETATM   19  C   UNL     1      -6.169  17.587  68.055  1.00  0.00    -0.153 C  
HETATM   20  N   UNL     1      -5.432  17.912  67.030  1.00  0.00    -0.132 NA 
HETATM   21  H1  UNL     1      -5.492  18.867  66.676  1.00  0.00     0.000 HD 
HETATM   22  H2  UNL     1      -4.811  17.230  66.593  1.00  0.00     0.000 HD 
BRANCH  19  23
HETATM   23  N   UNL     1      -6.961  18.577  68.634  1.00  0.00    -0.264 NA 
HETATM   24  C   UNL     1      -8.397  18.729  68.475  1.00  0.00    -0.346 C  
HETATM   25  C   UNL     1      -6.345  19.665  69.401  1.00  0.00    -0.330 C  
ENDBRANCH  19  23
ENDBRANCH  18  19
ENDBRANCH  10  13
ENDBRANCH   6   9
BRANCH   8  26
HETATM   26  C   UNL     1      -9.641  10.287  69.391  1.00  0.00    -0.218 C  
HETATM   27  N   UNL     1      -9.319  10.966  68.219  1.00  0.00    -0.162 N  
HETATM   28  O   UNL     1     -10.754  10.320  69.920  1.00  0.00    -0.262 OA 
HETATM   29  H   UNL     1      -8.372  10.875  67.852  1.00  0.00     0.000 HD 
BRANCH  27  30
HETATM   30  C   UNL     1     -10.236  11.775  67.515  1.00  0.00    -0.195 A  
HETATM   31  C   UNL     1     -10.582  13.013  68.049  1.00  0.00    -0.246 A  
HETATM   32  C   UNL     1     -12.074  13.357  66.189  1.00  0.00    -0.429 A  
HETATM   33  N   UNL     1     -10.769  11.342  66.356  1.00  0.00    -0.270 NA 
HETATM   34  C   UNL     1     -11.665  12.128  65.717  1.00  0.00    -0.327 A  
HETATM   35 CL   UNL     1     -13.238  14.287  65.338  1.00  0.00    -0.153 Cl 
HETATM   36  C   UNL     1     -11.520  13.811  67.378  1.00  0.00    -0.372 A  
ENDBRANCH  27  30
ENDBRANCH   8  26
ENDBRANCH   2   3
TORSDOF 7
ENDMDL
MODEL       77
REMARK 921   NORMALIZED FREE ENERGY PREDICTED BY IDOCK:   -4.38 KCAL/MOL
REMARK 922        TOTAL FREE ENERGY PREDICTED BY IDOCK:   -6.91 KCAL/MOL
REMARK 923 INTER-LIGAND FREE ENERGY PREDICTED BY IDOCK:   -5.91 KCAL/MOL
REMARK 924 INTRA-LIGAND FREE ENERGY PREDICTED BY IDOCK:   -1.00 KCAL/MOL
REMARK 927      BINDING AFFINITY PREDICTED BY RF-SCORE:    0.00 PKD
ROOT
HETATM    1  C   UNL     1      -9.512   3.217  67.430  1.00  0.00    -0.154 C  
HETATM    2  O   UNL     1      -8.987   4.032  66.381  1.00  0.00    -0.117 OA 
ENDROOT
BRANCH   2   3
HETATM    3  C   UNL     1      -8.520   5.267  66.751  1.00  0.00    -0.107 A  
HETATM    4  C   UNL     1      -7.316   5.494  67.401  1.00  0.00    -0.076 A  
HETATM    5  C   UNL     1      -6.943   6.790  67.751  1.00  0.00    -0.083 A  
HETATM    6  C   UNL     1      -7.755   7.892  67.467  1.00  0.00    -0.117 A  
HETATM    7  C   UNL     1      -9.350   6.354  66.439  1.00  0.00    -0.176 A  
HETATM    8  C   UNL     1      -8.992   7.677  66.791  1.00  0.00    -0.166 A  
BRANCH   6   9
HETATM    9  N   UNL     1      -7.358   9.204  67.871  1.00  0.00    -0.083 N  
HETATM   10  C   UNL     1      -7.632   9.846  69.061  1.00  0.00    -0.086 C  
HETATM   11  H   UNL     1      -6.804   9.731  67.197  1.00  0.00     0.000 HD 
HETATM   12  O   UNL     1      -8.211   9.369  70.032  1.00  0.00    -0.124 OA 
BRANCH  10  13
HETATM   13  C   UNL     1      -7.239  11.284  69.152  1.00  0.00    -0.115 A  
HETATM   14  C   UNL     1      -6.158  11.597  69.987  1.00  0.00    -0.158 A  
HETATM   15  C   UNL     1      -7.870  12.309  68.444  1.00  0.00    -0.151 A  
HETATM   16  C   UNL     1      -5.771  12.926  70.185  1.00  0.00    -0.148 A  
HETATM   17  C   UNL     1      -7.440  13.639  68.602  1.00  0.00    -0.113 A  
HETATM   18  C   UNL     1      -6.428  13.969  69.515  1.00  0.00    -0.122 A  
BRANCH  18  19
HETATM   19  C   UNL     1      -6.012  15.397  69.809  1.00  0.00    -0.141 C  
HETATM   20  N   UNL     1      -5.652  15.695  71.027  1.00  0.00     0.000 NA 
HETATM   21  H1  UNL     1      -5.373  16.656  71.225  1.00  0.00     0.000 HD 
HETATM   22  H2  UNL     1      -5.650  14.987  71.761  1.00  0.00     0.000 HD 
BRANCH  19  23
HETATM   23  N   UNL     1      -6.036  16.418  68.863  1.00  0.00    -0.130 NA 
HETATM   24  C   UNL     1      -6.919  17.571  68.866  1.00  0.00    -0.252 C  
HETATM   25  C   UNL     1      -5.193  16.338  67.665  1.00  0.00    -0.137 C  
ENDBRANCH  19  23
ENDBRANCH  18  19
ENDBRANCH  10  13
ENDBRANCH   6   9
BRANCH   8  26
HETATM   26  C   UNL     1      -9.887   8.857  66.474  1.00  0.00    -0.274 C  
HETATM   27  N   UNL     1      -9.456   9.817  65.563  1.00  0.00    -0.242 N  
HETATM   28  O   UNL     1     -10.972   8.902  67.058  1.00  0.00    -0.086 OA 
HETATM   29  H   UNL     1      -8.544   9.693  65.124  1.00  0.00     0.000 HD 
BRANCH  27  30
HETATM   30  C   UNL     1     -10.217  10.954  65.217  1.00  0.00    -0.288 A  
HETATM   31  C   UNL     1     -10.506  11.181  63.874  1.00  0.00    -0.445 A  
HETATM   32  C   UNL     1     -11.655  13.203  64.501  1.00  0.00    -0.364 A  
HETATM   33  N   UNL     1     -10.640  11.803  66.174  1.00  0.00    -0.251 NA 
HETATM   34  C   UNL     1     -11.345  12.898  65.809  1.00  0.00    -0.315 A  
HETATM   35 CL   UNL     1     -12.531  14.626  64.110  1.00  0.00    -0.358 Cl 
HETATM   36  C   UNL     1     -11.230  12.326  63.512  1.00  0.00    -0.535 A  
ENDBRANCH  27  30
ENDBRANCH   8  26
ENDBRANCH   2   3
TORSDOF 7
ENDMDL
MODEL       78
REMARK 921   NORMALIZED FREE ENERGY PREDICTED BY IDOCK:   -4.37 KCAL/MOL
REMARK 922        TOTAL FREE ENERGY PREDICTED BY IDOCK:   -6.90 KCAL/MOL
REMARK 923 INTER-LIGAND FREE ENERGY PREDICTED BY IDOCK:   -5.60 KCAL/MOL
REMARK 924 INTRA-LIGAND FREE ENERGY PREDICTED BY IDOCK:   -1.30 KCAL/MOL
REMARK 927      BINDING AFFINITY PREDICTED BY RF-SCORE:    0.00 PKD
ROOT
HETATM    1  C   UNL     1      -6.769   2.539  69.834  1.00  0.00    -0.033 C  
HETATM    2  O   UNL     1      -6.991   2.723  68.435  1.00  0.00    -0.047 OA 
ENDROOT
BRANCH   2   3
HETATM    3  C   UNL     1      -7.274   4.002  68.032  1.00  0.00    -0.059 A  
HETATM    4  C   UNL     1      -6.512   4.736  67.135  1.00  0.00    -0.045 A  
HETATM    5  C   UNL     1      -6.878   6.039  66.806  1.00  0.00    -0.059 A  
HETATM    6  C   UNL     1      -8.009   6.648  67.360  1.00  0.00    -0.114 A  
HETATM    7  C   UNL     1      -8.422   4.581  68.593  1.00  0.00    -0.093 A  
HETATM    8  C   UNL     1      -8.809   5.905  68.277  1.00  0.00    -0.110 A  
BRANCH   6   9
HETATM    9  N   UNL     1      -8.337   7.999  67.027  1.00  0.00    -0.115 N  
HETATM   10  C   UNL     1      -7.916   9.154  67.653  1.00  0.00    -0.100 C  
HETATM   11  H   UNL     1      -8.959   8.124  66.229  1.00  0.00     0.000 HD 
HETATM   12  O   UNL     1      -7.111   9.234  68.576  1.00  0.00    -0.070 OA 
BRANCH  10  13
HETATM   13  C   UNL     1      -8.550  10.428  67.202  1.00  0.00    -0.130 A  
HETATM   14  C   UNL     1      -9.269  10.393  66.001  1.00  0.00    -0.200 A  
HETATM   15  C   UNL     1      -8.480  11.626  67.918  1.00  0.00    -0.148 A  
HETATM   16  C   UNL     1      -9.832  11.558  65.472  1.00  0.00    -0.269 A  
HETATM   17  C   UNL     1      -9.099  12.783  67.411  1.00  0.00    -0.192 A  
HETATM   18  C   UNL     1      -9.730  12.777  66.159  1.00  0.00    -0.246 A  
BRANCH  18  19
HETATM   19  C   UNL     1     -10.304  14.024  65.515  1.00  0.00    -0.339 C  
HETATM   20  N   UNL     1      -9.483  14.981  65.183  1.00  0.00    -0.225 NA 
HETATM   21  H1  UNL     1      -9.870  15.820  64.750  1.00  0.00     0.000 HD 
HETATM   22  H2  UNL     1      -8.480  14.893  65.351  1.00  0.00     0.000 HD 
BRANCH  19  23
HETATM   23  N   UNL     1     -11.666  14.224  65.300  1.00  0.00    -0.345 NA 
HETATM   24  C   UNL     1     -12.750  13.710  66.119  1.00  0.00    -0.238 C  
HETATM   25  C   UNL     1     -12.131  14.918  64.095  1.00  0.00    -0.267 C  
ENDBRANCH  19  23
ENDBRANCH  18  19
ENDBRANCH  10  13
ENDBRANCH   6   9
BRANCH   8  26
HETATM   26  C   UNL     1     -10.037   6.546  68.889  1.00  0.00    -0.164 C  
HETATM   27  N   UNL     1      -9.886   7.454  69.933  1.00  0.00    -0.178 N  
HETATM   28  O   UNL     1     -11.127   6.216  68.418  1.00  0.00    -0.330 OA 
HETATM   29  H   UNL     1      -8.942   7.671  70.253  1.00  0.00     0.000 HD 
BRANCH  27  30
HETATM   30  C   UNL     1     -10.973   8.090  70.570  1.00  0.00    -0.247 A  
HETATM   31  C   UNL     1     -11.088   9.474  70.472  1.00  0.00    -0.342 A  
HETATM   32  C   UNL     1     -13.057   9.372  71.856  1.00  0.00    -0.424 A  
HETATM   33  N   UNL     1     -11.868   7.364  71.267  1.00  0.00    -0.290 NA 
HETATM   34  C   UNL     1     -12.885   8.004  71.888  1.00  0.00    -0.320 A  
HETATM   35 CL   UNL     1     -14.356  10.118  72.693  1.00  0.00     0.628 Cl 
HETATM   36  C   UNL     1     -12.142  10.124  71.131  1.00  0.00    -0.485 A  
ENDBRANCH  27  30
ENDBRANCH   8  26
ENDBRANCH   2   3
TORSDOF 7
ENDMDL
MODEL       79
REMARK 921   NORMALIZED FREE ENERGY PREDICTED BY IDOCK:   -4.32 KCAL/MOL
REMARK 922        TOTAL FREE ENERGY PREDICTED BY IDOCK:   -6.81 KCAL/MOL
REMARK 923 INTER-LIGAND FREE ENERGY PREDICTED BY IDOCK:   -5.74 KCAL/MOL
REMARK 924 INTRA-LIGAND FREE ENERGY PREDICTED BY IDOCK:   -1.07 KCAL/MOL
REMARK 927      BINDING AFFINITY PREDICTED BY RF-SCORE:    0.00 PKD
ROOT
HETATM    1  C   UNL     1      -8.100  16.704  66.558  1.00  0.00    -0.302 C  
HETATM    2  O   UNL     1      -8.922  15.541  66.447  1.00  0.00    -0.278 OA 
ENDROOT
BRANCH   2   3
HETATM    3  C   UNL     1      -8.521  14.447  67.169  1.00  0.00    -0.208 A  
HETATM    4  C   UNL     1      -7.205  14.149  67.487  1.00  0.00    -0.188 A  
HETATM    5  C   UNL     1      -6.903  12.998  68.212  1.00  0.00    -0.101 A  
HETATM    6  C   UNL     1      -7.900  12.113  68.637  1.00  0.00    -0.078 A  
HETATM    7  C   UNL     1      -9.545  13.587  67.594  1.00  0.00    -0.222 A  
HETATM    8  C   UNL     1      -9.259  12.410  68.326  1.00  0.00    -0.189 A  
BRANCH   6   9
HETATM    9  N   UNL     1      -7.553  10.923  69.348  1.00  0.00    -0.288 N  
HETATM   10  C   UNL     1      -7.197   9.696  68.829  1.00  0.00    -0.072 C  
HETATM   11  H   UNL     1      -7.569  10.990  70.366  1.00  0.00     0.000 HD 
HETATM   12  O   UNL     1      -7.040   9.422  67.643  1.00  0.00    -0.080 OA 
BRANCH  10  13
HETATM   13  C   UNL     1      -7.050   8.574  69.803  1.00  0.00    -0.051 A  
HETATM   14  C   UNL     1      -6.876   7.289  69.273  1.00  0.00    -0.054 A  
HETATM   15  C   UNL     1      -7.056   8.742  71.190  1.00  0.00    -0.089 A  
HETATM   16  C   UNL     1      -6.803   6.174  70.114  1.00  0.00    -0.057 A  
HETATM   17  C   UNL     1      -6.923   7.624  72.032  1.00  0.00    -0.064 A  
HETATM   18  C   UNL     1      -6.854   6.326  71.507  1.00  0.00    -0.071 A  
BRANCH  18  19
HETATM   19  C   UNL     1      -6.832   5.082  72.374  1.00  0.00    -0.069 C  
HETATM   20  N   UNL     1      -5.816   4.906  73.174  1.00  0.00    -0.017 NA 
HETATM   21  H1  UNL     1      -5.801   4.069  73.757  1.00  0.00     0.000 HD 
HETATM   22  H2  UNL     1      -5.057   5.587  73.215  1.00  0.00     0.000 HD 
BRANCH  19  23
HETATM   23  N   UNL     1      -7.812   4.094  72.332  1.00  0.00    -0.080 NA 
HETATM   24  C   UNL     1      -9.249   4.307  72.367  1.00  0.00    -0.117 C  
HETATM   25  C   UNL     1      -7.437   2.676  72.363  1.00  0.00    -0.051 C  
ENDBRANCH  19  23
ENDBRANCH  18  19
ENDBRANCH  10  13
ENDBRANCH   6   9
BRANCH   8  26
HETATM   26  C   UNL     1     -10.354  11.465  68.776  1.00  0.00    -0.204 C  
HETATM   27  N   UNL     1     -10.259  10.853  70.023  1.00  0.00    -0.327 N  
HETATM   28  O   UNL     1     -11.288  11.285  67.992  1.00  0.00    -0.261 OA 
HETATM   29  H   UNL     1      -9.451  11.067  70.607  1.00  0.00     0.000 HD 
BRANCH  27  30
HETATM   30  C   UNL     1     -11.224   9.951  70.520  1.00  0.00    -0.330 A  
HETATM   31  C   UNL     1     -10.853   8.626  70.732  1.00  0.00    -0.272 A  
HETATM   32  C   UNL     1     -13.106   8.146  71.435  1.00  0.00    -0.225 A  
HETATM   33  N   UNL     1     -12.479  10.372  70.768  1.00  0.00    -0.341 NA 
HETATM   34  C   UNL     1     -13.389   9.478  71.219  1.00  0.00    -0.314 A  
HETATM   35 CL   UNL     1     -14.320   7.063  71.982  1.00  0.00    -0.424 Cl 
HETATM   36  C   UNL     1     -11.811   7.710  71.190  1.00  0.00    -0.314 A  
ENDBRANCH  27  30
ENDBRANCH   8  26
ENDBRANCH   2   3
TORSDOF 7
ENDMDL
MODEL       80
REMARK 921   NORMALIZED FREE ENERGY PREDICTED BY IDOCK:   -4.21 KCAL/MOL
REMARK 922        TOTAL FREE ENERGY PREDICTED BY IDOCK:   -6.67 KCAL/MOL
REMARK 923 INTER-LIGAND FREE ENERGY PREDICTED BY IDOCK:   -5.51 KCAL/MOL
REMARK 924 INTRA-LIGAND FREE ENERGY PREDICTED BY IDOCK:   -1.16 KCAL/MOL
REMARK 927      BINDING AFFINITY PREDICTED BY RF-SCORE:    0.00 PKD
ROOT
HETATM    1  C   UNL     1      -8.616  16.940  67.022  1.00  0.00    -0.205 C  
HETATM    2  O   UNL     1      -9.581  16.441  66.095  1.00  0.00    -0.290 OA 
ENDROOT
BRANCH   2   3
HETATM    3  C   UNL     1      -9.626  15.079  65.945  1.00  0.00    -0.321 A  
HETATM    4  C   UNL     1     -10.451  14.408  65.055  1.00  0.00    -0.454 A  
HETATM    5  C   UNL     1     -10.433  13.017  64.995  1.00  0.00    -0.345 A  
HETATM    6  C   UNL     1      -9.599  12.255  65.820  1.00  0.00    -0.176 A  
HETATM    7  C   UNL     1      -8.767  14.343  66.775  1.00  0.00    -0.187 A  
HETATM    8  C   UNL     1      -8.738  12.929  66.735  1.00  0.00    -0.112 A  
BRANCH   6   9
HETATM    9  N   UNL     1      -9.631  10.828  65.758  1.00  0.00    -0.197 N  
HETATM   10  C   UNL     1     -10.252   9.954  66.625  1.00  0.00    -0.226 C  
HETATM   11  H   UNL     1      -9.133  10.403  64.976  1.00  0.00     0.000 HD 
HETATM   12  O   UNL     1     -10.964  10.252  67.579  1.00  0.00    -0.297 OA 
BRANCH  10  13
HETATM   13  C   UNL     1      -9.981   8.499  66.419  1.00  0.00    -0.314 A  
HETATM   14  C   UNL     1      -8.731   8.153  65.889  1.00  0.00    -0.184 A  
HETATM   15  C   UNL     1     -10.887   7.487  66.742  1.00  0.00    -0.022 A  
HETATM   16  C   UNL     1      -8.424   6.821  65.599  1.00  0.00    -0.142 A  
HETATM   17  C   UNL     1     -10.551   6.142  66.501  1.00  0.00    -0.214 A  
HETATM   18  C   UNL     1      -9.344   5.798  65.876  1.00  0.00    -0.096 A  
BRANCH  18  19
HETATM   19  C   UNL     1      -8.989   4.377  65.486  1.00  0.00    -0.135 C  
HETATM   20  N   UNL     1      -9.201   3.428  66.356  1.00  0.00    -0.163 NA 
HETATM   21  H1  UNL     1      -8.961   2.472  66.094  1.00  0.00     0.000 HD 
HETATM   22  H2  UNL     1      -9.595   3.637  67.274  1.00  0.00     0.000 HD 
BRANCH  19  23
HETATM   23  N   UNL     1      -8.406   4.032  64.269  1.00  0.00    -0.094 NA 
HETATM   24  C   UNL     1      -6.986   3.858  64.015  1.00  0.00    -0.046 C  
HETATM   25  C   UNL     1      -9.228   3.923  63.059  1.00  0.00    -0.113 C  
ENDBRANCH  19  23
ENDBRANCH  18  19
ENDBRANCH  10  13
ENDBRANCH   6   9
BRANCH   8  26
HETATM   26  C   UNL     1      -7.826  12.123  67.638  1.00  0.00    -0.153 C  
HETATM   27  N   UNL     1      -8.337  11.574  68.810  1.00  0.00    -0.307 N  
HETATM   28  O   UNL     1      -6.655  12.000  67.274  1.00  0.00    -0.119 OA 
HETATM   29  H   UNL     1      -9.322  11.724  69.026  1.00  0.00     0.000 HD 
BRANCH  27  30
HETATM   30  C   UNL     1      -7.560  10.820  69.715  1.00  0.00     0.033 A  
HETATM   31  C   UNL     1      -8.057   9.600  70.168  1.00  0.00    -0.205 A  
HETATM   32  C   UNL     1      -6.089   9.347  71.533  1.00  0.00    -0.037 A  
HETATM   33  N   UNL     1      -6.368  11.286  70.135  1.00  0.00    -0.159 NA 
HETATM   34  C   UNL     1      -5.657  10.553  71.023  1.00  0.00    -0.072 A  
HETATM   35 CL   UNL     1      -5.145   8.485  72.679  1.00  0.00    -0.038 Cl 
HETATM   36  C   UNL     1      -7.312   8.858  71.096  1.00  0.00    -0.119 A  
ENDBRANCH  27  30
ENDBRANCH   8  26
ENDBRANCH   2   3
TORSDOF 7
ENDMDL
MODEL       81
REMARK 921   NORMALIZED FREE ENERGY PREDICTED BY IDOCK:   -4.15 KCAL/MOL
REMARK 922        TOTAL FREE ENERGY PREDICTED BY IDOCK:   -6.58 KCAL/MOL
REMARK 923 INTER-LIGAND FREE ENERGY PREDICTED BY IDOCK:   -5.71 KCAL/MOL
REMARK 924 INTRA-LIGAND FREE ENERGY PREDICTED BY IDOCK:   -0.87 KCAL/MOL
REMARK 927      BINDING AFFINITY PREDICTED BY RF-SCORE:    0.00 PKD
ROOT
HETATM    1  C   UNL     1      -5.129  14.212  72.829  1.00  0.00    -0.242 C  
HETATM    2  O   UNL     1      -5.291  14.294  71.412  1.00  0.00    -0.143 OA 
ENDROOT
BRANCH   2   3
HETATM    3  C   UNL     1      -5.756  13.164  70.791  1.00  0.00    -0.170 A  
HETATM    4  C   UNL     1      -5.447  11.867  71.174  1.00  0.00    -0.017 A  
HETATM    5  C   UNL     1      -5.958  10.785  70.461  1.00  0.00    -0.122 A  
HETATM    6  C   UNL     1      -6.786  10.962  69.348  1.00  0.00    -0.107 A  
HETATM    7  C   UNL     1      -6.596  13.374  69.687  1.00  0.00    -0.008 A  
HETATM    8  C   UNL     1      -7.121  12.289  68.946  1.00  0.00    -0.088 A  
BRANCH   6   9
HETATM    9  N   UNL     1      -7.265   9.831  68.618  1.00  0.00    -0.072 N  
HETATM   10  C   UNL     1      -8.382   9.065  68.875  1.00  0.00    -0.125 C  
HETATM   11  H   UNL     1      -6.713   9.557  67.805  1.00  0.00     0.000 HD 
HETATM   12  O   UNL     1      -9.221   9.266  69.749  1.00  0.00    -0.158 OA 
BRANCH  10  13
HETATM   13  C   UNL     1      -8.555   7.833  68.049  1.00  0.00    -0.123 A  
HETATM   14  C   UNL     1      -9.827   7.600  67.510  1.00  0.00    -0.214 A  
HETATM   15  C   UNL     1      -7.525   6.930  67.777  1.00  0.00    -0.098 A  
HETATM   16  C   UNL     1     -10.092   6.435  66.785  1.00  0.00    -0.239 A  
HETATM   17  C   UNL     1      -7.783   5.787  66.997  1.00  0.00    -0.101 A  
HETATM   18  C   UNL     1      -9.077   5.497  66.543  1.00  0.00    -0.138 A  
BRANCH  18  19
HETATM   19  C   UNL     1      -9.429   4.221  65.805  1.00  0.00    -0.176 C  
HETATM   20  N   UNL     1      -9.590   3.130  66.501  1.00  0.00    -0.409 NA 
HETATM   21  H1  UNL     1      -9.827   2.271  66.005  1.00  0.00     0.000 HD 
HETATM   22  H2  UNL     1      -9.483   3.135  67.516  1.00  0.00     0.000 HD 
BRANCH  19  23
HETATM   23  N   UNL     1      -9.545   4.137  64.419  1.00  0.00    -0.162 NA 
HETATM   24  C   UNL     1      -8.617   4.684  63.445  1.00  0.00    -0.131 C  
HETATM   25  C   UNL     1     -10.744   3.550  63.810  1.00  0.00    -0.256 C  
ENDBRANCH  19  23
ENDBRANCH  18  19
ENDBRANCH  10  13
ENDBRANCH   6   9
BRANCH   8  26
HETATM   26  C   UNL     1      -8.016  12.503  67.743  1.00  0.00    -0.163 C  
HETATM   27  N   UNL     1      -9.229  11.824  67.663  1.00  0.00    -0.176 N  
HETATM   28  O   UNL     1      -7.607  13.283  66.880  1.00  0.00     0.070 OA 
HETATM   29  H   UNL     1      -9.486  11.202  68.429  1.00  0.00     0.000 HD 
BRANCH  27  30
HETATM   30  C   UNL     1     -10.119  11.953  66.576  1.00  0.00    -0.203 A  
HETATM   31  C   UNL     1     -11.189  12.837  66.690  1.00  0.00    -0.344 A  
HETATM   32  C   UNL     1     -11.914  12.185  64.488  1.00  0.00    -0.337 A  
HETATM   33  N   UNL     1      -9.935  11.221  65.460  1.00  0.00    -0.234 NA 
HETATM   34  C   UNL     1     -10.820  11.347  64.445  1.00  0.00    -0.330 A  
HETATM   35 CL   UNL     1     -13.011  12.272  63.171  1.00  0.00    -0.188 Cl 
HETATM   36  C   UNL     1     -12.102  12.948  65.632  1.00  0.00    -0.511 A  
ENDBRANCH  27  30
ENDBRANCH   8  26
ENDBRANCH   2   3
TORSDOF 7
ENDMDL
MODEL       82
REMARK 921   NORMALIZED FREE ENERGY PREDICTED BY IDOCK:   -4.03 KCAL/MOL
REMARK 922        TOTAL FREE ENERGY PREDICTED BY IDOCK:   -6.41 KCAL/MOL
REMARK 923 INTER-LIGAND FREE ENERGY PREDICTED BY IDOCK:   -5.90 KCAL/MOL
REMARK 924 INTRA-LIGAND FREE ENERGY PREDICTED BY IDOCK:   -0.51 KCAL/MOL
REMARK 927      BINDING AFFINITY PREDICTED BY RF-SCORE:    0.00 PKD
ROOT
HETATM    1  C   UNL     1      -5.311   7.052  62.356  1.00  0.00    -0.033 C  
HETATM    2  O   UNL     1      -6.093   6.326  63.306  1.00  0.00    -0.022 OA 
ENDROOT
BRANCH   2   3
HETATM    3  C   UNL     1      -6.948   7.070  64.077  1.00  0.00    -0.056 A  
HETATM    4  C   UNL     1      -7.612   8.209  63.649  1.00  0.00    -0.132 A  
HETATM    5  C   UNL     1      -8.447   8.904  64.521  1.00  0.00    -0.178 A  
HETATM    6  C   UNL     1      -8.642   8.487  65.842  1.00  0.00    -0.163 A  
HETATM    7  C   UNL     1      -7.136   6.617  65.392  1.00  0.00    -0.064 A  
HETATM    8  C   UNL     1      -7.974   7.312  66.296  1.00  0.00    -0.110 A  
BRANCH   6   9
HETATM    9  N   UNL     1      -9.478   9.242  66.721  1.00  0.00    -0.164 N  
HETATM   10  C   UNL     1      -9.287  10.529  67.177  1.00  0.00    -0.154 C  
HETATM   11  H   UNL     1     -10.320   8.771  67.052  1.00  0.00     0.000 HD 
HETATM   12  O   UNL     1      -8.388  11.297  66.845  1.00  0.00    -0.142 OA 
BRANCH  10  13
HETATM   13  C   UNL     1     -10.231  11.015  68.227  1.00  0.00    -0.192 A  
HETATM   14  C   UNL     1     -10.491  12.391  68.264  1.00  0.00    -0.234 A  
HETATM   15  C   UNL     1     -10.873  10.178  69.143  1.00  0.00    -0.260 A  
HETATM   16  C   UNL     1     -11.306  12.938  69.258  1.00  0.00    -0.303 A  
HETATM   17  C   UNL     1     -11.739  10.727  70.106  1.00  0.00    -0.425 A  
HETATM   18  C   UNL     1     -11.920  12.113  70.212  1.00  0.00    -0.389 A  
BRANCH  18  19
HETATM   19  C   UNL     1     -12.746  12.759  71.308  1.00  0.00    -0.269 C  
HETATM   20  N   UNL     1     -13.531  11.997  72.018  1.00  0.00    -0.413 NA 
HETATM   21  H1  UNL     1     -14.087  12.432  72.755  1.00  0.00     0.000 HD 
HETATM   22  H2  UNL     1     -13.587  10.994  71.842  1.00  0.00     0.000 HD 
BRANCH  19  23
HETATM   23  N   UNL     1     -12.748  14.127  71.568  1.00  0.00    -0.341 NA 
HETATM   24  C   UNL     1     -12.710  14.752  72.879  1.00  0.00    -0.426 C  
HETATM   25  C   UNL     1     -12.910  15.089  70.473  1.00  0.00    -0.333 C  
ENDBRANCH  19  23
ENDBRANCH  18  19
ENDBRANCH  10  13
ENDBRANCH   6   9
BRANCH   8  26
HETATM   26  C   UNL     1      -8.172   6.842  67.723  1.00  0.00    -0.117 C  
HETATM   27  N   UNL     1      -8.280   5.480  67.986  1.00  0.00    -0.100 N  
HETATM   28  O   UNL     1      -8.230   7.716  68.590  1.00  0.00    -0.125 OA 
HETATM   29  H   UNL     1      -8.213   4.829  67.204  1.00  0.00     0.000 HD 
BRANCH  27  30
HETATM   30  C   UNL     1      -8.476   4.953  69.281  1.00  0.00    -0.087 A  
HETATM   31  C   UNL     1      -7.360   4.616  70.041  1.00  0.00    -0.054 A  
HETATM   32  C   UNL     1      -8.829   3.866  71.797  1.00  0.00    -0.104 A  
HETATM   33  N   UNL     1      -9.724   4.774  69.756  1.00  0.00    -0.183 NA 
HETATM   34  C   UNL     1      -9.881   4.244  70.990  1.00  0.00    -0.181 A  
HETATM   35 CL   UNL     1      -9.106   3.173  73.342  1.00  0.00    -0.090 Cl 
HETATM   36  C   UNL     1      -7.541   4.058  71.315  1.00  0.00    -0.055 A  
ENDBRANCH  27  30
ENDBRANCH   8  26
ENDBRANCH   2   3
TORSDOF 7
ENDMDL
MODEL       83
REMARK 921   NORMALIZED FREE ENERGY PREDICTED BY IDOCK:   -4.02 KCAL/MOL
REMARK 922        TOTAL FREE ENERGY PREDICTED BY IDOCK:   -6.40 KCAL/MOL
REMARK 923 INTER-LIGAND FREE ENERGY PREDICTED BY IDOCK:   -5.41 KCAL/MOL
REMARK 924 INTRA-LIGAND FREE ENERGY PREDICTED BY IDOCK:   -0.99 KCAL/MOL
REMARK 927      BINDING AFFINITY PREDICTED BY RF-SCORE:    0.00 PKD
ROOT
HETATM    1  C   UNL     1     -11.871  15.651  64.425  1.00  0.00    -0.182 C  
HETATM    2  O   UNL     1     -12.640  14.460  64.590  1.00  0.00    -0.622 OA 
ENDROOT
BRANCH   2   3
HETATM    3  C   UNL     1     -11.966  13.277  64.428  1.00  0.00    -0.406 A  
HETATM    4  C   UNL     1     -12.108  12.428  63.342  1.00  0.00    -0.620 A  
HETATM    5  C   UNL     1     -11.388  11.237  63.284  1.00  0.00     0.074 A  
HETATM    6  C   UNL     1     -10.511  10.857  64.305  1.00  0.00    -0.335 A  
HETATM    7  C   UNL     1     -11.082  12.931  65.461  1.00  0.00    -0.306 A  
HETATM    8  C   UNL     1     -10.346  11.724  65.425  1.00  0.00    -0.311 A  
BRANCH   6   9
HETATM    9  N   UNL     1      -9.813   9.612  64.231  1.00  0.00    -0.383 N  
HETATM   10  C   UNL     1      -8.554   9.373  63.722  1.00  0.00    -0.211 C  
HETATM   11  H   UNL     1     -10.307   8.800  64.601  1.00  0.00     0.000 HD 
HETATM   12  O   UNL     1      -7.763  10.213  63.302  1.00  0.00    -0.148 OA 
BRANCH  10  13
HETATM   13  C   UNL     1      -8.136   7.943  63.613  1.00  0.00    -0.074 A  
HETATM   14  C   UNL     1      -7.681   7.321  64.782  1.00  0.00    -0.115 A  
HETATM   15  C   UNL     1      -8.195   7.205  62.429  1.00  0.00    -0.071 A  
HETATM   16  C   UNL     1      -7.204   6.008  64.753  1.00  0.00    -0.063 A  
HETATM   17  C   UNL     1      -7.768   5.864  62.417  1.00  0.00    -0.076 A  
HETATM   18  C   UNL     1      -7.215   5.270  63.560  1.00  0.00    -0.049 A  
BRANCH  18  19
HETATM   19  C   UNL     1      -6.630   3.871  63.566  1.00  0.00    -0.038 C  
HETATM   20  N   UNL     1      -5.342   3.741  63.412  1.00  0.00    -0.008 NA 
HETATM   21  H1  UNL     1      -4.948   2.800  63.415  1.00  0.00     0.000 HD 
HETATM   22  H2  UNL     1      -4.743   4.558  63.291  1.00  0.00     0.000 HD 
BRANCH  19  23
HETATM   23  N   UNL     1      -7.397   2.714  63.681  1.00  0.00    -0.055 NA 
HETATM   24  C   UNL     1      -7.885   1.895  62.585  1.00  0.00    -0.054 C  
HETATM   25  C   UNL     1      -7.889   2.279  64.992  1.00  0.00    -0.077 C  
ENDBRANCH  19  23
ENDBRANCH  18  19
ENDBRANCH  10  13
ENDBRANCH   6   9
BRANCH   8  26
HETATM   26  C   UNL     1      -9.400  11.331  66.542  1.00  0.00    -0.185 C  
HETATM   27  N   UNL     1      -9.656  10.180  67.282  1.00  0.00    -0.157 N  
HETATM   28  O   UNL     1      -8.436  12.074  66.738  1.00  0.00    -0.183 OA 
HETATM   29  H   UNL     1     -10.477   9.624  67.043  1.00  0.00     0.000 HD 
BRANCH  27  30
HETATM   30  C   UNL     1      -8.838   9.745  68.346  1.00  0.00    -0.120 A  
HETATM   31  C   UNL     1      -7.527   9.366  68.069  1.00  0.00    -0.080 A  
HETATM   32  C   UNL     1      -7.228   8.833  70.399  1.00  0.00    -0.050 A  
HETATM   33  N   UNL     1      -9.329   9.691  69.599  1.00  0.00    -0.196 NA 
HETATM   34  C   UNL     1      -8.529   9.245  70.594  1.00  0.00    -0.217 A  
HETATM   35 CL   UNL     1      -6.280   8.252  71.706  1.00  0.00    -0.045 Cl 
HETATM   36  C   UNL     1      -6.714   8.897  69.111  1.00  0.00    -0.051 A  
ENDBRANCH  27  30
ENDBRANCH   8  26
ENDBRANCH   2   3
TORSDOF 7
ENDMDL
MODEL       84
REMARK 921   NORMALIZED FREE ENERGY PREDICTED BY IDOCK:   -3.86 KCAL/MOL
REMARK 922        TOTAL FREE ENERGY PREDICTED BY IDOCK:   -6.18 KCAL/MOL
REMARK 923 INTER-LIGAND FREE ENERGY PREDICTED BY IDOCK:   -4.67 KCAL/MOL
REMARK 924 INTRA-LIGAND FREE ENERGY PREDICTED BY IDOCK:   -1.50 KCAL/MOL
REMARK 927      BINDING AFFINITY PREDICTED BY RF-SCORE:    0.00 PKD
ROOT
HETATM    1  C   UNL     1      -5.993  14.011  71.055  1.00  0.00    -0.172 C  
HETATM    2  O   UNL     1      -5.431  12.704  71.188  1.00  0.00    -0.251 OA 
ENDROOT
BRANCH   2   3
HETATM    3  C   UNL     1      -5.912  11.749  70.330  1.00  0.00    -0.155 A  
HETATM    4  C   UNL     1      -6.006  11.897  68.955  1.00  0.00    -0.055 A  
HETATM    5  C   UNL     1      -6.529  10.869  68.173  1.00  0.00    -0.058 A  
HETATM    6  C   UNL     1      -6.976   9.670  68.737  1.00  0.00    -0.066 A  
HETATM    7  C   UNL     1      -6.338  10.552  70.924  1.00  0.00     0.123 A  
HETATM    8  C   UNL     1      -6.879   9.498  70.150  1.00  0.00    -0.085 A  
BRANCH   6   9
HETATM    9  N   UNL     1      -7.540   8.650  67.911  1.00  0.00    -0.097 N  
HETATM   10  C   UNL     1      -8.873   8.386  67.677  1.00  0.00    -0.136 C  
HETATM   11  H   UNL     1      -6.874   8.041  67.435  1.00  0.00     0.000 HD 
HETATM   12  O   UNL     1      -9.830   9.038  68.085  1.00  0.00    -0.156 OA 
BRANCH  10  13
HETATM   13  C   UNL     1      -9.186   7.148  66.903  1.00  0.00    -0.174 A  
HETATM   14  C   UNL     1      -8.275   6.771  65.907  1.00  0.00    -0.132 A  
HETATM   15  C   UNL     1     -10.309   6.351  67.134  1.00  0.00    -0.293 A  
HETATM   16  C   UNL     1      -8.529   5.667  65.089  1.00  0.00    -0.144 A  
HETATM   17  C   UNL     1     -10.530   5.206  66.346  1.00  0.00    -0.356 A  
HETATM   18  C   UNL     1      -9.677   4.885  65.280  1.00  0.00    -0.050 A  
BRANCH  18  19
HETATM   19  C   UNL     1      -9.939   3.734  64.329  1.00  0.00    -0.196 C  
HETATM   20  N   UNL     1     -10.820   3.904  63.383  1.00  0.00    -0.345 NA 
HETATM   21  H1  UNL     1     -10.996   3.129  62.743  1.00  0.00     0.000 HD 
HETATM   22  H2  UNL     1     -11.320   4.788  63.285  1.00  0.00     0.000 HD 
BRANCH  19  23
HETATM   23  N   UNL     1      -9.324   2.488  64.436  1.00  0.00    -0.132 NA 
HETATM   24  C   UNL     1      -8.950   1.818  65.670  1.00  0.00    -0.109 C  
HETATM   25  C   UNL     1      -8.883   1.774  63.233  1.00  0.00    -0.087 C  
ENDBRANCH  19  23
ENDBRANCH  18  19
ENDBRANCH  10  13
ENDBRANCH   6   9
BRANCH   8  26
HETATM   26  C   UNL     1      -7.357   8.207  70.781  1.00  0.00    -0.058 C  
HETATM   27  N   UNL     1      -8.628   8.152  71.346  1.00  0.00    -0.127 N  
HETATM   28  O   UNL     1      -6.573   7.257  70.761  1.00  0.00    -0.043 OA 
HETATM   29  H   UNL     1      -9.210   8.989  71.310  1.00  0.00     0.000 HD 
BRANCH  27  30
HETATM   30  C   UNL     1      -9.152   6.997  71.965  1.00  0.00    -0.131 A  
HETATM   31  C   UNL     1     -10.072   6.222  71.265  1.00  0.00    -0.222 A  
HETATM   32  C   UNL     1     -10.240   4.762  73.173  1.00  0.00    -0.169 A  
HETATM   33  N   UNL     1      -8.770   6.667  73.214  1.00  0.00    -0.123 NA 
HETATM   34  C   UNL     1      -9.309   5.569  73.792  1.00  0.00    -0.137 A  
HETATM   35 CL   UNL     1     -10.901   3.399  73.978  1.00  0.00    -0.284 Cl 
HETATM   36  C   UNL     1     -10.628   5.092  71.881  1.00  0.00    -0.256 A  
ENDBRANCH  27  30
ENDBRANCH   8  26
ENDBRANCH   2   3
TORSDOF 7
ENDMDL
MODEL       85
REMARK 921   NORMALIZED FREE ENERGY PREDICTED BY IDOCK:   -3.79 KCAL/MOL
REMARK 922        TOTAL FREE ENERGY PREDICTED BY IDOCK:   -6.08 KCAL/MOL
REMARK 923 INTER-LIGAND FREE ENERGY PREDICTED BY IDOCK:   -5.25 KCAL/MOL
REMARK 924 INTRA-LIGAND FREE ENERGY PREDICTED BY IDOCK:   -0.82 KCAL/MOL
REMARK 927      BINDING AFFINITY PREDICTED BY RF-SCORE:    0.00 PKD
ROOT
HETATM    1  C   UNL     1      -5.562  19.328  66.794  1.00  0.00    -0.159 C  
HETATM    2  O   UNL     1      -6.123  19.040  68.076  1.00  0.00    -0.213 OA 
ENDROOT
BRANCH   2   3
HETATM    3  C   UNL     1      -6.148  17.720  68.442  1.00  0.00    -0.174 A  
HETATM    4  C   UNL     1      -5.379  17.165  69.453  1.00  0.00    -0.165 A  
HETATM    5  C   UNL     1      -5.467  15.803  69.734  1.00  0.00    -0.124 A  
HETATM    6  C   UNL     1      -6.318  14.957  69.015  1.00  0.00    -0.099 A  
HETATM    7  C   UNL     1      -7.023  16.900  67.713  1.00  0.00    -0.156 A  
HETATM    8  C   UNL     1      -7.123  15.513  67.978  1.00  0.00    -0.136 A  
BRANCH   6   9
HETATM    9  N   UNL     1      -6.359  13.558  69.305  1.00  0.00    -0.104 N  
HETATM   10  C   UNL     1      -6.025  12.925  70.484  1.00  0.00    -0.075 C  
HETATM   11  H   UNL     1      -6.673  12.953  68.547  1.00  0.00     0.000 HD 
HETATM   12  O   UNL     1      -5.700  13.465  71.538  1.00  0.00    -0.344 OA 
BRANCH  10  13
HETATM   13  C   UNL     1      -5.997  11.432  70.458  1.00  0.00    -0.104 A  
HETATM   14  C   UNL     1      -6.771  10.797  69.480  1.00  0.00    -0.108 A  
HETATM   15  C   UNL     1      -5.234  10.655  71.333  1.00  0.00    -0.063 A  
HETATM   16  C   UNL     1      -6.857   9.403  69.432  1.00  0.00    -0.049 A  
HETATM   17  C   UNL     1      -5.278   9.252  71.243  1.00  0.00    -0.042 A  
HETATM   18  C   UNL     1      -6.132   8.611  70.334  1.00  0.00    -0.031 A  
BRANCH  18  19
HETATM   19  C   UNL     1      -6.306   7.105  70.282  1.00  0.00    -0.034 C  
HETATM   20  N   UNL     1      -5.258   6.372  70.025  1.00  0.00    -0.013 NA 
HETATM   21  H1  UNL     1      -5.375   5.360  69.989  1.00  0.00     0.000 HD 
HETATM   22  H2  UNL     1      -4.345   6.800  69.864  1.00  0.00     0.000 HD 
BRANCH  19  23
HETATM   23  N   UNL     1      -7.531   6.463  70.447  1.00  0.00    -0.092 NA 
HETATM   24  C   UNL     1      -8.347   6.467  71.649  1.00  0.00    -0.125 C  
HETATM   25  C   UNL     1      -8.060   5.594  69.390  1.00  0.00    -0.100 C  
ENDBRANCH  19  23
ENDBRANCH  18  19
ENDBRANCH  10  13
ENDBRANCH   6   9
BRANCH   8  26
HETATM   26  C   UNL     1      -8.051  14.614  67.187  1.00  0.00    -0.185 C  
HETATM   27  N   UNL     1      -9.321  15.073  66.847  1.00  0.00    -0.228 N  
HETATM   28  O   UNL     1      -7.619  13.500  66.885  1.00  0.00     0.110 OA 
HETATM   29  H   UNL     1      -9.590  16.013  67.136  1.00  0.00     0.000 HD 
BRANCH  27  30
HETATM   30  C   UNL     1     -10.255  14.301  66.124  1.00  0.00    -0.307 A  
HETATM   31  C   UNL     1     -10.987  13.330  66.802  1.00  0.00    -0.302 A  
HETATM   32  C   UNL     1     -12.051  12.733  64.725  1.00  0.00    -0.432 A  
HETATM   33  N   UNL     1     -10.419  14.501  64.802  1.00  0.00    -0.399 NA 
HETATM   34  C   UNL     1     -11.303  13.728  64.130  1.00  0.00    -0.256 A  
HETATM   35 CL   UNL     1     -13.134  11.773  63.803  1.00  0.00    -0.286 Cl 
HETATM   36  C   UNL     1     -11.893  12.531  66.089  1.00  0.00    -0.459 A  
ENDBRANCH  27  30
ENDBRANCH   8  26
ENDBRANCH   2   3
TORSDOF 7
ENDMDL
MODEL       86
REMARK 921   NORMALIZED FREE ENERGY PREDICTED BY IDOCK:   -3.66 KCAL/MOL
REMARK 922        TOTAL FREE ENERGY PREDICTED BY IDOCK:   -5.89 KCAL/MOL
REMARK 923 INTER-LIGAND FREE ENERGY PREDICTED BY IDOCK:   -5.00 KCAL/MOL
REMARK 924 INTRA-LIGAND FREE ENERGY PREDICTED BY IDOCK:   -0.89 KCAL/MOL
REMARK 927      BINDING AFFINITY PREDICTED BY RF-SCORE:    0.00 PKD
ROOT
HETATM    1  C   UNL     1      -7.395   1.556  67.707  1.00  0.00    -0.046 C  
HETATM    2  O   UNL     1      -8.793   1.846  67.678  1.00  0.00    -0.100 OA 
ENDROOT
BRANCH   2   3
HETATM    3  C   UNL     1      -9.135   3.155  67.460  1.00  0.00    -0.177 A  
HETATM    4  C   UNL     1      -9.769   3.628  66.321  1.00  0.00    -0.093 A  
HETATM    5  C   UNL     1     -10.055   4.985  66.190  1.00  0.00    -0.262 A  
HETATM    6  C   UNL     1      -9.717   5.908  67.185  1.00  0.00    -0.132 A  
HETATM    7  C   UNL     1      -8.797   4.054  68.483  1.00  0.00    -0.143 A  
HETATM    8  C   UNL     1      -9.073   5.437  68.367  1.00  0.00    -0.119 A  
BRANCH   6   9
HETATM    9  N   UNL     1      -9.994   7.298  67.004  1.00  0.00    -0.204 N  
HETATM   10  C   UNL     1      -9.243   8.231  66.320  1.00  0.00    -0.203 C  
HETATM   11  H   UNL     1     -10.852   7.643  67.433  1.00  0.00     0.000 HD 
HETATM   12  O   UNL     1      -8.225   8.016  65.670  1.00  0.00    -0.119 OA 
BRANCH  10  13
HETATM   13  C   UNL     1      -9.679   9.655  66.433  1.00  0.00    -0.285 A  
HETATM   14  C   UNL     1     -10.473  10.163  65.397  1.00  0.00    -0.054 A  
HETATM   15  C   UNL     1      -9.358  10.482  67.512  1.00  0.00    -0.162 A  
HETATM   16  C   UNL     1     -10.863  11.505  65.390  1.00  0.00    -0.318 A  
HETATM   17  C   UNL     1      -9.803  11.817  67.529  1.00  0.00    -0.195 A  
HETATM   18  C   UNL     1     -10.508  12.359  66.445  1.00  0.00    -0.267 A  
BRANCH  18  19
HETATM   19  C   UNL     1     -10.904  13.820  66.362  1.00  0.00    -0.287 C  
HETATM   20  N   UNL     1     -11.926  14.141  65.618  1.00  0.00    -0.380 NA 
HETATM   21  H1  UNL     1     -12.192  15.124  65.561  1.00  0.00     0.000 HD 
HETATM   22  H2  UNL     1     -12.446  13.427  65.106  1.00  0.00     0.000 HD 
BRANCH  19  23
HETATM   23  N   UNL     1     -10.209  14.845  66.998  1.00  0.00    -0.254 NA 
HETATM   24  C   UNL     1      -8.765  14.978  67.088  1.00  0.00    -0.220 C  
HETATM   25  C   UNL     1     -10.932  15.866  67.765  1.00  0.00    -0.315 C  
ENDBRANCH  19  23
ENDBRANCH  18  19
ENDBRANCH  10  13
ENDBRANCH   6   9
BRANCH   8  26
HETATM   26  C   UNL     1      -8.698   6.420  69.457  1.00  0.00    -0.133 C  
HETATM   27  N   UNL     1      -7.544   6.205  70.205  1.00  0.00    -0.093 N  
HETATM   28  O   UNL     1      -9.458   7.376  69.626  1.00  0.00    -0.157 OA 
HETATM   29  H   UNL     1      -6.973   5.388  69.989  1.00  0.00     0.000 HD 
BRANCH  27  30
HETATM   30  C   UNL     1      -7.124   7.060  71.246  1.00  0.00    -0.073 A  
HETATM   31  C   UNL     1      -6.721   8.354  70.926  1.00  0.00    -0.042 A  
HETATM   32  C   UNL     1      -6.241   8.740  73.255  1.00  0.00    -0.032 A  
HETATM   33  N   UNL     1      -7.106   6.619  72.519  1.00  0.00    -0.072 NA 
HETATM   34  C   UNL     1      -6.675   7.453  73.492  1.00  0.00    -0.065 A  
HETATM   35 CL   UNL     1      -5.680   9.733  74.537  1.00  0.00     0.009 Cl 
HETATM   36  C   UNL     1      -6.267   9.203  71.946  1.00  0.00    -0.009 A  
ENDBRANCH  27  30
ENDBRANCH   8  26
ENDBRANCH   2   3
TORSDOF 7
ENDMDL
MODEL       87
REMARK 921   NORMALIZED FREE ENERGY PREDICTED BY IDOCK:   -3.54 KCAL/MOL
REMARK 922        TOTAL FREE ENERGY PREDICTED BY IDOCK:   -5.72 KCAL/MOL
REMARK 923 INTER-LIGAND FREE ENERGY PREDICTED BY IDOCK:   -4.97 KCAL/MOL
REMARK 924 INTRA-LIGAND FREE ENERGY PREDICTED BY IDOCK:   -0.76 KCAL/MOL
REMARK 927      BINDING AFFINITY PREDICTED BY RF-SCORE:    0.00 PKD
ROOT
HETATM    1  C   UNL     1     -13.161  13.721  72.378  1.00  0.00    -0.422 C  
HETATM    2  O   UNL     1     -13.509  13.180  71.102  1.00  0.00    -0.052 OA 
ENDROOT
BRANCH   2   3
HETATM    3  C   UNL     1     -12.884  12.012  70.750  1.00  0.00    -0.032 A  
HETATM    4  C   UNL     1     -13.207  10.760  71.252  1.00  0.00    -0.326 A  
HETATM    5  C   UNL     1     -12.495   9.636  70.842  1.00  0.00    -0.320 A  
HETATM    6  C   UNL     1     -11.443   9.725  69.925  1.00  0.00    -0.140 A  
HETATM    7  C   UNL     1     -11.843  12.132  69.818  1.00  0.00    -0.397 A  
HETATM    8  C   UNL     1     -11.103  11.003  69.393  1.00  0.00    -0.320 A  
BRANCH   6   9
HETATM    9  N   UNL     1     -10.710   8.556  69.552  1.00  0.00    -0.318 N  
HETATM   10  C   UNL     1      -9.545   8.070  70.107  1.00  0.00    -0.175 C  
HETATM   11  H   UNL     1     -11.096   8.013  68.780  1.00  0.00     0.000 HD 
HETATM   12  O   UNL     1      -8.959   8.521  71.087  1.00  0.00    -0.153 OA 
BRANCH  10  13
HETATM   13  C   UNL     1      -8.899   6.919  69.409  1.00  0.00    -0.136 A  
HETATM   14  C   UNL     1      -7.556   7.069  69.041  1.00  0.00    -0.104 A  
HETATM   15  C   UNL     1      -9.550   5.715  69.129  1.00  0.00    -0.176 A  
HETATM   16  C   UNL     1      -6.897   6.069  68.321  1.00  0.00    -0.070 A  
HETATM   17  C   UNL     1      -8.865   4.688  68.455  1.00  0.00    -0.123 A  
HETATM   18  C   UNL     1      -7.554   4.874  67.994  1.00  0.00    -0.082 A  
BRANCH  18  19
HETATM   19  C   UNL     1      -6.817   3.844  67.159  1.00  0.00    -0.051 C  
HETATM   20  N   UNL     1      -6.050   4.269  66.194  1.00  0.00    -0.030 NA 
HETATM   21  H1  UNL     1      -5.554   3.576  65.632  1.00  0.00     0.000 HD 
HETATM   22  H2  UNL     1      -5.948   5.266  66.005  1.00  0.00     0.000 HD 
BRANCH  19  23
HETATM   23  N   UNL     1      -6.948   2.469  67.337  1.00  0.00    -0.044 NA 
HETATM   24  C   UNL     1      -7.737   1.568  66.514  1.00  0.00    -0.065 C  
HETATM   25  C   UNL     1      -6.351   1.812  68.504  1.00  0.00    -0.025 C  
ENDBRANCH  19  23
ENDBRANCH  18  19
ENDBRANCH  10  13
ENDBRANCH   6   9
BRANCH   8  26
HETATM   26  C   UNL     1      -9.966  11.122  68.399  1.00  0.00    -0.187 C  
HETATM   27  N   UNL     1      -9.794  10.132  67.436  1.00  0.00    -0.180 N  
HETATM   28  O   UNL     1      -9.239  12.112  68.504  1.00  0.00    -0.179 OA 
HETATM   29  H   UNL     1     -10.449   9.351  67.421  1.00  0.00     0.000 HD 
BRANCH  27  30
HETATM   30  C   UNL     1      -8.757  10.154  66.478  1.00  0.00    -0.129 A  
HETATM   31  C   UNL     1      -9.075  10.447  65.155  1.00  0.00    -0.232 A  
HETATM   32  C   UNL     1      -6.758  10.147  64.570  1.00  0.00    -0.117 A  
HETATM   33  N   UNL     1      -7.490   9.883  66.847  1.00  0.00    -0.091 NA 
HETATM   34  C   UNL     1      -6.521   9.886  65.903  1.00  0.00    -0.087 A  
HETATM   35 CL   UNL     1      -5.483  10.106  63.422  1.00  0.00    -0.109 Cl 
HETATM   36  C   UNL     1      -8.061  10.437  64.187  1.00  0.00    -0.095 A  
ENDBRANCH  27  30
ENDBRANCH   8  26
ENDBRANCH   2   3
TORSDOF 7
ENDMDL
MODEL       88
REMARK 921   NORMALIZED FREE ENERGY PREDICTED BY IDOCK:   -3.43 KCAL/MOL
REMARK 922        TOTAL FREE ENERGY PREDICTED BY IDOCK:   -5.57 KCAL/MOL
REMARK 923 INTER-LIGAND FREE ENERGY PREDICTED BY IDOCK:   -5.58 KCAL/MOL
REMARK 924 INTRA-LIGAND FREE ENERGY PREDICTED BY IDOCK:    0.00 KCAL/MOL
REMARK 927      BINDING AFFINITY PREDICTED BY RF-SCORE:    0.00 PKD
ROOT
HETATM    1  C   UNL     1      -9.383  18.831  66.187  1.00  0.00    -0.161 C  
HETATM    2  O   UNL     1     -10.464  18.112  66.781  1.00  0.00    -0.365 OA 
ENDROOT
BRANCH   2   3
HETATM    3  C   UNL     1     -10.162  16.875  67.288  1.00  0.00    -0.297 A  
HETATM    4  C   UNL     1      -9.918  16.607  68.626  1.00  0.00    -0.261 A  
HETATM    5  C   UNL     1      -9.599  15.314  69.035  1.00  0.00    -0.237 A  
HETATM    6  C   UNL     1      -9.511  14.255  68.126  1.00  0.00    -0.204 A  
HETATM    7  C   UNL     1     -10.096  15.831  66.353  1.00  0.00    -0.305 A  
HETATM    8  C   UNL     1      -9.767  14.512  66.747  1.00  0.00    -0.269 A  
BRANCH   6   9
HETATM    9  N   UNL     1      -9.147  12.948  68.574  1.00  0.00    -0.370 N  
HETATM   10  C   UNL     1      -7.890  12.479  68.894  1.00  0.00     0.127 C  
HETATM   11  H   UNL     1      -9.911  12.279  68.669  1.00  0.00     0.000 HD 
HETATM   12  O   UNL     1      -6.852  13.132  68.924  1.00  0.00    -0.098 OA 
BRANCH  10  13
HETATM   13  C   UNL     1      -7.771  11.016  69.171  1.00  0.00    -0.102 A  
HETATM   14  C   UNL     1      -8.943  10.253  69.083  1.00  0.00    -0.187 A  
HETATM   15  C   UNL     1      -6.568  10.381  69.487  1.00  0.00    -0.073 A  
HETATM   16  C   UNL     1      -8.933   8.892  69.397  1.00  0.00    -0.145 A  
HETATM   17  C   UNL     1      -6.553   8.998  69.746  1.00  0.00    -0.045 A  
HETATM   18  C   UNL     1      -7.739   8.251  69.761  1.00  0.00    -0.098 A  
BRANCH  18  19
HETATM   19  C   UNL     1      -7.791   6.787  70.151  1.00  0.00    -0.107 C  
HETATM   20  N   UNL     1      -8.126   5.917  69.239  1.00  0.00    -0.105 NA 
HETATM   21  H1  UNL     1      -8.161   4.932  69.501  1.00  0.00     0.000 HD 
HETATM   22  H2  UNL     1      -8.347   6.214  68.288  1.00  0.00     0.000 HD 
BRANCH  19  23
HETATM   23  N   UNL     1      -7.545   6.322  71.441  1.00  0.00    -0.097 NA 
HETATM   24  C   UNL     1      -7.875   7.008  72.678  1.00  0.00    -0.093 C  
HETATM   25  C   UNL     1      -6.789   5.083  71.650  1.00  0.00    -0.048 C  
ENDBRANCH  19  23
ENDBRANCH  18  19
ENDBRANCH  10  13
ENDBRANCH   6   9
BRANCH   8  26
HETATM   26  C   UNL     1      -9.677  13.379  65.745  1.00  0.00    -0.129 C  
HETATM   27  N   UNL     1      -8.951  12.236  66.069  1.00  0.00    -0.425 N  
HETATM   28  O   UNL     1     -10.264  13.539  64.673  1.00  0.00    -0.387 OA 
HETATM   29  H   UNL     1      -8.503  12.190  66.984  1.00  0.00     0.000 HD 
BRANCH  27  30
HETATM   30  C   UNL     1      -8.803  11.138  65.195  1.00  0.00    -0.046 A  
HETATM   31  C   UNL     1      -7.936  10.110  65.554  1.00  0.00    -0.146 A  
HETATM   32  C   UNL     1      -8.447   9.002  63.477  1.00  0.00    -0.169 A  
HETATM   33  N   UNL     1      -9.484  11.102  64.033  1.00  0.00    -0.224 NA 
HETATM   34  C   UNL     1      -9.302  10.049  63.204  1.00  0.00    -0.260 A  
HETATM   35 CL   UNL     1      -8.246   7.712  62.364  1.00  0.00    -0.137 Cl 
HETATM   36  C   UNL     1      -7.752   9.030  64.678  1.00  0.00    -0.115 A  
ENDBRANCH  27  30
ENDBRANCH   8  26
ENDBRANCH   2   3
TORSDOF 7
ENDMDL
MODEL       89
REMARK 921   NORMALIZED FREE ENERGY PREDICTED BY IDOCK:   -3.43 KCAL/MOL
REMARK 922        TOTAL FREE ENERGY PREDICTED BY IDOCK:   -5.57 KCAL/MOL
REMARK 923 INTER-LIGAND FREE ENERGY PREDICTED BY IDOCK:   -4.25 KCAL/MOL
REMARK 924 INTRA-LIGAND FREE ENERGY PREDICTED BY IDOCK:   -1.32 KCAL/MOL
REMARK 927      BINDING AFFINITY PREDICTED BY RF-SCORE:    0.00 PKD
ROOT
HETATM    1  C   UNL     1     -10.195   1.933  63.895  1.00  0.00    -0.043 C  
HETATM    2  O   UNL     1      -8.875   2.455  63.735  1.00  0.00    -0.089 OA 
ENDROOT
BRANCH   2   3
HETATM    3  C   UNL     1      -8.675   3.737  64.178  1.00  0.00    -0.107 A  
HETATM    4  C   UNL     1      -7.982   4.715  63.481  1.00  0.00    -0.087 A  
HETATM    5  C   UNL     1      -7.819   5.985  64.030  1.00  0.00    -0.116 A  
HETATM    6  C   UNL     1      -8.337   6.315  65.287  1.00  0.00    -0.138 A  
HETATM    7  C   UNL     1      -9.219   4.042  65.435  1.00  0.00    -0.150 A  
HETATM    8  C   UNL     1      -9.059   5.324  66.013  1.00  0.00    -0.154 A  
BRANCH   6   9
HETATM    9  N   UNL     1      -8.121   7.617  65.837  1.00  0.00    -0.115 N  
HETATM   10  C   UNL     1      -7.090   8.034  66.651  1.00  0.00    -0.076 C  
HETATM   11  H   UNL     1      -8.816   8.324  65.597  1.00  0.00     0.000 HD 
HETATM   12  O   UNL     1      -6.116   7.372  66.995  1.00  0.00    -0.042 OA 
BRANCH  10  13
HETATM   13  C   UNL     1      -7.203   9.410  67.223  1.00  0.00    -0.087 A  
HETATM   14  C   UNL     1      -6.220  10.336  66.852  1.00  0.00    -0.068 A  
HETATM   15  C   UNL     1      -8.232   9.815  68.075  1.00  0.00    -0.109 A  
HETATM   16  C   UNL     1      -6.210  11.623  67.397  1.00  0.00    -0.101 A  
HETATM   17  C   UNL     1      -8.251  11.130  68.576  1.00  0.00    -0.149 A  
HETATM   18  C   UNL     1      -7.213  12.028  68.291  1.00  0.00    -0.090 A  
BRANCH  18  19
HETATM   19  C   UNL     1      -7.125  13.413  68.902  1.00  0.00    -0.084 C  
HETATM   20  N   UNL     1      -6.702  13.518  70.131  1.00  0.00    -0.362 NA 
HETATM   21  H1  UNL     1      -6.644  14.450  70.543  1.00  0.00     0.000 HD 
HETATM   22  H2  UNL     1      -6.438  12.692  70.667  1.00  0.00     0.000 HD 
BRANCH  19  23
HETATM   23  N   UNL     1      -7.513  14.575  68.240  1.00  0.00    -0.111 NA 
HETATM   24  C   UNL     1      -8.870  15.080  68.116  1.00  0.00    -0.167 C  
HETATM   25  C   UNL     1      -6.532  15.359  67.481  1.00  0.00    -0.144 C  
ENDBRANCH  19  23
ENDBRANCH  18  19
ENDBRANCH  10  13
ENDBRANCH   6   9
BRANCH   8  26
HETATM   26  C   UNL     1      -9.628   5.660  67.376  1.00  0.00    -0.118 C  
HETATM   27  N   UNL     1      -8.950   5.249  68.521  1.00  0.00    -0.107 N  
HETATM   28  O   UNL     1     -10.686   6.293  67.394  1.00  0.00    -0.249 OA 
HETATM   29  H   UNL     1      -8.077   4.734  68.408  1.00  0.00     0.000 HD 
BRANCH  27  30
HETATM   30  C   UNL     1      -9.411   5.507  69.829  1.00  0.00    -0.149 A  
HETATM   31  C   UNL     1      -9.788   4.432  70.629  1.00  0.00    -0.280 A  
HETATM   32  C   UNL     1     -10.374   5.984  72.376  1.00  0.00    -0.194 A  
HETATM   33  N   UNL     1      -9.492   6.774  70.281  1.00  0.00    -0.162 NA 
HETATM   34  C   UNL     1      -9.962   6.992  71.530  1.00  0.00    -0.180 A  
HETATM   35 CL   UNL     1     -10.986   6.338  73.940  1.00  0.00     0.034 Cl 
HETATM   36  C   UNL     1     -10.283   4.676  71.919  1.00  0.00    -0.254 A  
ENDBRANCH  27  30
ENDBRANCH   8  26
ENDBRANCH   2   3
TORSDOF 7
ENDMDL
MODEL       90
REMARK 921   NORMALIZED FREE ENERGY PREDICTED BY IDOCK:   -3.43 KCAL/MOL
REMARK 922        TOTAL FREE ENERGY PREDICTED BY IDOCK:   -5.56 KCAL/MOL
REMARK 923 INTER-LIGAND FREE ENERGY PREDICTED BY IDOCK:   -4.31 KCAL/MOL
REMARK 924 INTRA-LIGAND FREE ENERGY PREDICTED BY IDOCK:   -1.26 KCAL/MOL
REMARK 927      BINDING AFFINITY PREDICTED BY RF-SCORE:    0.00 PKD
ROOT
HETATM    1  C   UNL     1     -10.297   1.681  62.468  1.00  0.00    -0.098 C  
HETATM    2  O   UNL     1     -10.659   2.910  63.101  1.00  0.00    -0.173 OA 
ENDROOT
BRANCH   2   3
HETATM    3  C   UNL     1     -10.003   3.206  64.267  1.00  0.00    -0.148 A  
HETATM    4  C   UNL     1      -9.447   2.267  65.122  1.00  0.00     0.018 A  
HETATM    5  C   UNL     1      -8.815   2.673  66.295  1.00  0.00    -0.136 A  
HETATM    6  C   UNL     1      -8.722   4.023  66.650  1.00  0.00    -0.116 A  
HETATM    7  C   UNL     1      -9.912   4.568  64.589  1.00  0.00     0.003 A  
HETATM    8  C   UNL     1      -9.281   5.003  65.778  1.00  0.00    -0.159 A  
BRANCH   6   9
HETATM    9  N   UNL     1      -8.098   4.404  67.878  1.00  0.00    -0.094 N  
HETATM   10  C   UNL     1      -8.557   4.201  69.163  1.00  0.00    -0.082 C  
HETATM   11  H   UNL     1      -7.203   4.885  67.795  1.00  0.00     0.000 HD 
HETATM   12  O   UNL     1      -9.564   3.580  69.490  1.00  0.00    -0.179 OA 
BRANCH  10  13
HETATM   13  C   UNL     1      -7.785   4.855  70.261  1.00  0.00    -0.062 A  
HETATM   14  C   UNL     1      -8.459   5.811  71.032  1.00  0.00    -0.123 A  
HETATM   15  C   UNL     1      -6.456   4.551  70.565  1.00  0.00    -0.034 A  
HETATM   16  C   UNL     1      -7.790   6.522  72.033  1.00  0.00    -0.099 A  
HETATM   17  C   UNL     1      -5.803   5.228  71.611  1.00  0.00    -0.024 A  
HETATM   18  C   UNL     1      -6.441   6.258  72.316  1.00  0.00    -0.055 A  
BRANCH  18  19
HETATM   19  C   UNL     1      -5.743   7.097  73.369  1.00  0.00    -0.049 C  
HETATM   20  N   UNL     1      -5.444   6.535  74.507  1.00  0.00    -0.053 NA 
HETATM   21  H1  UNL     1      -4.975   7.100  75.215  1.00  0.00     0.000 HD 
HETATM   22  H2  UNL     1      -5.673   5.557  74.684  1.00  0.00     0.000 HD 
BRANCH  19  23
HETATM   23  N   UNL     1      -5.444   8.448  73.206  1.00  0.00    -0.052 NA 
HETATM   24  C   UNL     1      -5.150   9.117  71.950  1.00  0.00    -0.050 C  
HETATM   25  C   UNL     1      -5.288   9.318  74.376  1.00  0.00    -0.132 C  
ENDBRANCH  19  23
ENDBRANCH  18  19
ENDBRANCH  10  13
ENDBRANCH   6   9
BRANCH   8  26
HETATM   26  C   UNL     1      -9.191   6.470  66.145  1.00  0.00    -0.096 C  
HETATM   27  N   UNL     1     -10.325   7.128  66.612  1.00  0.00    -0.473 N  
HETATM   28  O   UNL     1      -8.092   7.010  66.002  1.00  0.00    -0.110 OA 
HETATM   29  H   UNL     1     -11.191   6.597  66.702  1.00  0.00     0.000 HD 
BRANCH  27  30
HETATM   30  C   UNL     1     -10.337   8.495  66.965  1.00  0.00    -0.309 A  
HETATM   31  C   UNL     1     -10.152   9.445  65.965  1.00  0.00    -0.302 A  
HETATM   32  C   UNL     1     -10.297  11.176  67.633  1.00  0.00    -0.192 A  
HETATM   33  N   UNL     1     -10.514   8.860  68.250  1.00  0.00    -0.213 NA 
HETATM   34  C   UNL     1     -10.495  10.176  68.562  1.00  0.00    -0.195 A  
HETATM   35 CL   UNL     1     -10.258  12.825  68.107  1.00  0.00    -0.235 Cl 
HETATM   36  C   UNL     1     -10.125  10.805  66.307  1.00  0.00    -0.285 A  
ENDBRANCH  27  30
ENDBRANCH   8  26
ENDBRANCH   2   3
TORSDOF 7
ENDMDL
MODEL       91
REMARK 921   NORMALIZED FREE ENERGY PREDICTED BY IDOCK:   -3.40 KCAL/MOL
REMARK 922        TOTAL FREE ENERGY PREDICTED BY IDOCK:   -5.53 KCAL/MOL
REMARK 923 INTER-LIGAND FREE ENERGY PREDICTED BY IDOCK:   -5.32 KCAL/MOL
REMARK 924 INTRA-LIGAND FREE ENERGY PREDICTED BY IDOCK:   -0.21 KCAL/MOL
REMARK 927      BINDING AFFINITY PREDICTED BY RF-SCORE:    0.00 PKD
ROOT
HETATM    1  C   UNL     1      -5.499   4.826  71.781  1.00  0.00    -0.004 C  
HETATM    2  O   UNL     1      -5.516   4.865  70.353  1.00  0.00    -0.007 OA 
ENDROOT
BRANCH   2   3
HETATM    3  C   UNL     1      -6.299   5.836  69.784  1.00  0.00    -0.034 A  
HETATM    4  C   UNL     1      -7.258   5.608  68.809  1.00  0.00    -0.081 A  
HETATM    5  C   UNL     1      -7.988   6.670  68.282  1.00  0.00    -0.111 A  
HETATM    6  C   UNL     1      -7.783   7.987  68.708  1.00  0.00    -0.108 A  
HETATM    7  C   UNL     1      -6.080   7.144  70.242  1.00  0.00    -0.024 A  
HETATM    8  C   UNL     1      -6.807   8.238  69.716  1.00  0.00    -0.044 A  
BRANCH   6   9
HETATM    9  N   UNL     1      -8.525   9.059  68.121  1.00  0.00    -0.128 N  
HETATM   10  C   UNL     1      -8.876   9.224  66.798  1.00  0.00    -0.127 C  
HETATM   11  H   UNL     1      -8.834   9.791  68.760  1.00  0.00     0.000 HD 
HETATM   12  O   UNL     1      -8.675   8.431  65.883  1.00  0.00    -0.151 OA 
BRANCH  10  13
HETATM   13  C   UNL     1      -9.507  10.527  66.430  1.00  0.00    -0.208 A  
HETATM   14  C   UNL     1      -8.911  11.689  66.935  1.00  0.00    -0.190 A  
HETATM   15  C   UNL     1     -10.630  10.641  65.606  1.00  0.00    -0.175 A  
HETATM   16  C   UNL     1      -9.480  12.944  66.698  1.00  0.00    -0.255 A  
HETATM   17  C   UNL     1     -11.165  11.910  65.323  1.00  0.00    -0.351 A  
HETATM   18  C   UNL     1     -10.634  13.068  65.910  1.00  0.00    -0.288 A  
BRANCH  18  19
HETATM   19  C   UNL     1     -11.248  14.443  65.733  1.00  0.00    -0.326 C  
HETATM   20  N   UNL     1     -12.189  14.587  64.842  1.00  0.00    -0.416 NA 
HETATM   21  H1  UNL     1     -12.602  15.512  64.722  1.00  0.00     0.000 HD 
HETATM   22  H2  UNL     1     -12.504  13.796  64.279  1.00  0.00     0.000 HD 
BRANCH  19  23
HETATM   23  N   UNL     1     -10.832  15.571  66.435  1.00  0.00    -0.302 NA 
HETATM   24  C   UNL     1     -11.023  15.818  67.854  1.00  0.00    -0.324 C  
HETATM   25  C   UNL     1     -10.233  16.706  65.726  1.00  0.00    -0.307 C  
ENDBRANCH  19  23
ENDBRANCH  18  19
ENDBRANCH  10  13
ENDBRANCH   6   9
BRANCH   8  26
HETATM   26  C   UNL     1      -6.569   9.657  70.191  1.00  0.00    -0.081 C  
HETATM   27  N   UNL     1      -6.196  10.632  69.270  1.00  0.00    -0.046 N  
HETATM   28  O   UNL     1      -6.720   9.870  71.395  1.00  0.00    -0.323 OA 
HETATM   29  H   UNL     1      -6.101  10.363  68.291  1.00  0.00     0.000 HD 
BRANCH  27  30
HETATM   30  C   UNL     1      -5.943  11.975  69.623  1.00  0.00    -0.120 A  
HETATM   31  C   UNL     1      -5.384  12.243  70.870  1.00  0.00    -0.157 A  
HETATM   32  C   UNL     1      -5.488  14.597  70.369  1.00  0.00    -0.126 A  
HETATM   33  N   UNL     1      -6.250  12.970  68.768  1.00  0.00    -0.074 NA 
HETATM   34  C   UNL     1      -6.019  14.248  69.145  1.00  0.00    -0.092 A  
HETATM   35 CL   UNL     1      -5.249  16.244  70.790  1.00  0.00    -0.186 Cl 
HETATM   36  C   UNL     1      -5.160  13.575  71.249  1.00  0.00    -0.156 A  
ENDBRANCH  27  30
ENDBRANCH   8  26
ENDBRANCH   2   3
TORSDOF 7
ENDMDL
MODEL       92
REMARK 921   NORMALIZED FREE ENERGY PREDICTED BY IDOCK:   -3.33 KCAL/MOL
REMARK 922        TOTAL FREE ENERGY PREDICTED BY IDOCK:   -5.43 KCAL/MOL
REMARK 923 INTER-LIGAND FREE ENERGY PREDICTED BY IDOCK:   -4.34 KCAL/MOL
REMARK 924 INTRA-LIGAND FREE ENERGY PREDICTED BY IDOCK:   -1.08 KCAL/MOL
REMARK 927      BINDING AFFINITY PREDICTED BY RF-SCORE:    0.00 PKD
ROOT
HETATM    1  C   UNL     1      -9.310  19.555  69.611  1.00  0.00     0.294 C  
HETATM    2  O   UNL     1      -8.013  19.230  69.108  1.00  0.00    -0.307 OA 
ENDROOT
BRANCH   2   3
HETATM    3  C   UNL     1      -7.723  17.894  69.001  1.00  0.00    -0.116 A  
HETATM    4  C   UNL     1      -6.558  17.299  69.459  1.00  0.00    -0.178 A  
HETATM    5  C   UNL     1      -6.353  15.933  69.284  1.00  0.00    -0.153 A  
HETATM    6  C   UNL     1      -7.298  15.122  68.647  1.00  0.00    -0.121 A  
HETATM    7  C   UNL     1      -8.698  17.105  68.372  1.00  0.00    -0.246 A  
HETATM    8  C   UNL     1      -8.507  15.717  68.178  1.00  0.00    -0.147 A  
BRANCH   6   9
HETATM    9  N   UNL     1      -7.041  13.730  68.452  1.00  0.00    -0.095 N  
HETATM   10  C   UNL     1      -6.046  13.148  67.697  1.00  0.00    -0.146 C  
HETATM   11  H   UNL     1      -7.672  13.088  68.931  1.00  0.00     0.000 HD 
HETATM   12  O   UNL     1      -5.140  13.730  67.107  1.00  0.00    -0.190 OA 
BRANCH  10  13
HETATM   13  C   UNL     1      -6.112  11.665  67.529  1.00  0.00    -0.079 A  
HETATM   14  C   UNL     1      -5.170  11.077  66.675  1.00  0.00    -0.088 A  
HETATM   15  C   UNL     1      -7.036  10.850  68.186  1.00  0.00    -0.077 A  
HETATM   16  C   UNL     1      -5.207   9.706  66.407  1.00  0.00    -0.043 A  
HETATM   17  C   UNL     1      -7.033   9.462  67.957  1.00  0.00    -0.079 A  
HETATM   18  C   UNL     1      -6.160   8.883  67.025  1.00  0.00    -0.058 A  
BRANCH  18  19
HETATM   19  C   UNL     1      -6.200   7.413  66.655  1.00  0.00    -0.044 C  
HETATM   20  N   UNL     1      -5.162   6.901  66.054  1.00  0.00    -0.022 NA 
HETATM   21  H1  UNL     1      -5.188   5.912  65.804  1.00  0.00     0.000 HD 
HETATM   22  H2  UNL     1      -4.345   7.474  65.838  1.00  0.00     0.000 HD 
BRANCH  19  23
HETATM   23  N   UNL     1      -7.300   6.589  66.880  1.00  0.00    -0.078 NA 
HETATM   24  C   UNL     1      -7.396   5.539  67.880  1.00  0.00    -0.073 C  
HETATM   25  C   UNL     1      -8.468   6.656  65.996  1.00  0.00    -0.142 C  
ENDBRANCH  19  23
ENDBRANCH  18  19
ENDBRANCH  10  13
ENDBRANCH   6   9
BRANCH   8  26
HETATM   26  C   UNL     1      -9.544  14.857  67.486  1.00  0.00    -0.204 C  
HETATM   27  N   UNL     1      -9.473  14.678  66.107  1.00  0.00    -0.410 N  
HETATM   28  O   UNL     1     -10.414  14.356  68.200  1.00  0.00    -0.230 OA 
HETATM   29  H   UNL     1      -8.713  15.128  65.598  1.00  0.00     0.000 HD 
BRANCH  27  30
HETATM   30  C   UNL     1     -10.402  13.905  65.377  1.00  0.00    -0.348 A  
HETATM   31  C   UNL     1     -10.544  12.557  65.695  1.00  0.00    -0.298 A  
HETATM   32  C   UNL     1     -12.169  12.350  63.929  1.00  0.00    -0.513 A  
HETATM   33  N   UNL     1     -11.122  14.468  64.388  1.00  0.00    -0.245 NA 
HETATM   34  C   UNL     1     -11.985  13.695  63.689  1.00  0.00    -0.321 A  
HETATM   35 CL   UNL     1     -13.262  11.426  62.982  1.00  0.00     0.681 Cl 
HETATM   36  C   UNL     1     -11.436  11.768  64.955  1.00  0.00    -0.269 A  
ENDBRANCH  27  30
ENDBRANCH   8  26
ENDBRANCH   2   3
TORSDOF 7
ENDMDL
MODEL       93
REMARK 921   NORMALIZED FREE ENERGY PREDICTED BY IDOCK:   -2.88 KCAL/MOL
REMARK 922        TOTAL FREE ENERGY PREDICTED BY IDOCK:   -4.79 KCAL/MOL
REMARK 923 INTER-LIGAND FREE ENERGY PREDICTED BY IDOCK:   -3.96 KCAL/MOL
REMARK 924 INTRA-LIGAND FREE ENERGY PREDICTED BY IDOCK:   -0.83 KCAL/MOL
REMARK 927      BINDING AFFINITY PREDICTED BY RF-SCORE:    0.00 PKD
ROOT
HETATM    1  C   UNL     1     -10.497   3.038  63.072  1.00  0.00    -0.179 C  
HETATM    2  O   UNL     1      -9.183   3.556  62.856  1.00  0.00    -0.093 OA 
ENDROOT
BRANCH   2   3
HETATM    3  C   UNL     1      -8.889   4.739  63.483  1.00  0.00    -0.104 A  
HETATM    4  C   UNL     1      -8.339   5.848  62.859  1.00  0.00    -0.029 A  
HETATM    5  C   UNL     1      -8.060   6.999  63.593  1.00  0.00     0.006 A  
HETATM    6  C   UNL     1      -8.319   7.077  64.965  1.00  0.00    -0.046 A  
HETATM    7  C   UNL     1      -9.174   4.792  64.855  1.00  0.00    -0.120 A  
HETATM    8  C   UNL     1      -8.893   5.948  65.621  1.00  0.00    -0.126 A  
BRANCH   6   9
HETATM    9  N   UNL     1      -7.989   8.260  65.696  1.00  0.00    -0.106 N  
HETATM   10  C   UNL     1      -6.823   8.540  66.377  1.00  0.00    -0.074 C  
HETATM   11  H   UNL     1      -8.704   8.987  65.716  1.00  0.00     0.000 HD 
HETATM   12  O   UNL     1      -5.813   7.843  66.416  1.00  0.00    -0.039 OA 
BRANCH  10  13
HETATM   13  C   UNL     1      -6.811   9.787  67.199  1.00  0.00    -0.083 A  
HETATM   14  C   UNL     1      -6.886  11.005  66.512  1.00  0.00    -0.132 A  
HETATM   15  C   UNL     1      -6.750   9.796  68.595  1.00  0.00    -0.051 A  
HETATM   16  C   UNL     1      -6.808  12.219  67.200  1.00  0.00    -0.101 A  
HETATM   17  C   UNL     1      -6.730  11.021  69.287  1.00  0.00    -0.099 A  
HETATM   18  C   UNL     1      -6.700  12.242  68.599  1.00  0.00    -0.083 A  
BRANCH  18  19
HETATM   19  C   UNL     1      -6.557  13.581  69.295  1.00  0.00    -0.103 C  
HETATM   20  N   UNL     1      -7.169  14.611  68.780  1.00  0.00    -0.116 NA 
HETATM   21  H1  UNL     1      -7.073  15.513  69.248  1.00  0.00     0.000 HD 
HETATM   22  H2  UNL     1      -7.729  14.519  67.932  1.00  0.00     0.000 HD 
BRANCH  19  23
HETATM   23  N   UNL     1      -5.772  13.783  70.427  1.00  0.00    -0.139 NA 
HETATM   24  C   UNL     1      -5.244  12.750  71.301  1.00  0.00    -0.163 C  
HETATM   25  C   UNL     1      -5.500  15.142  70.908  1.00  0.00    -0.105 C  
ENDBRANCH  19  23
ENDBRANCH  18  19
ENDBRANCH  10  13
ENDBRANCH   6   9
BRANCH   8  26
HETATM   26  C   UNL     1      -9.181   6.011  67.106  1.00  0.00    -0.117 C  
HETATM   27  N   UNL     1     -10.229   6.804  67.567  1.00  0.00    -0.170 N  
HETATM   28  O   UNL     1      -8.451   5.343  67.841  1.00  0.00    -0.099 OA 
HETATM   29  H   UNL     1     -10.784   7.318  66.883  1.00  0.00     0.000 HD 
BRANCH  27  30
HETATM   30  C   UNL     1     -10.562   6.932  68.932  1.00  0.00    -0.221 A  
HETATM   31  C   UNL     1     -10.026   7.997  69.653  1.00  0.00    -0.188 A  
HETATM   32  C   UNL     1     -11.146   7.179  71.622  1.00  0.00    -0.235 A  
HETATM   33  N   UNL     1     -11.372   6.031  69.519  1.00  0.00    -0.360 NA 
HETATM   34  C   UNL     1     -11.652   6.165  70.836  1.00  0.00    -0.189 A  
HETATM   35 CL   UNL     1     -11.523   7.270  73.294  1.00  0.00    -0.068 Cl 
HETATM   36  C   UNL     1     -10.319   8.116  71.019  1.00  0.00    -0.229 A  
ENDBRANCH  27  30
ENDBRANCH   8  26
ENDBRANCH   2   3
TORSDOF 7
ENDMDL
MODEL       94
REMARK 921   NORMALIZED FREE ENERGY PREDICTED BY IDOCK:   -2.85 KCAL/MOL
REMARK 922        TOTAL FREE ENERGY PREDICTED BY IDOCK:   -4.74 KCAL/MOL
REMARK 923 INTER-LIGAND FREE ENERGY PREDICTED BY IDOCK:   -4.17 KCAL/MOL
REMARK 924 INTRA-LIGAND FREE ENERGY PREDICTED BY IDOCK:   -0.57 KCAL/MOL
REMARK 927      BINDING AFFINITY PREDICTED BY RF-SCORE:    0.00 PKD
ROOT
HETATM    1  C   UNL     1      -8.767  15.607  69.490  1.00  0.00    -0.199 C  
HETATM    2  O   UNL     1      -9.533  15.261  68.335  1.00  0.00    -0.196 OA 
ENDROOT
BRANCH   2   3
HETATM    3  C   UNL     1      -9.288  14.025  67.795  1.00  0.00    -0.205 A  
HETATM    4  C   UNL     1      -9.495  13.688  66.466  1.00  0.00    -0.270 A  
HETATM    5  C   UNL     1      -9.231  12.394  66.022  1.00  0.00    -0.055 A  
HETATM    6  C   UNL     1      -8.758  11.402  66.886  1.00  0.00    -0.165 A  
HETATM    7  C   UNL     1      -8.800  13.055  68.683  1.00  0.00     0.060 A  
HETATM    8  C   UNL     1      -8.531  11.734  68.254  1.00  0.00    -0.161 A  
BRANCH   6   9
HETATM    9  N   UNL     1      -8.530  10.075  66.406  1.00  0.00    -0.128 N  
HETATM   10  C   UNL     1      -9.157   9.431  65.360  1.00  0.00    -0.226 C  
HETATM   11  H   UNL     1      -7.817   9.537  66.898  1.00  0.00     0.000 HD 
HETATM   12  O   UNL     1      -9.983   9.916  64.592  1.00  0.00    -0.254 OA 
BRANCH  10  13
HETATM   13  C   UNL     1      -8.845   7.982  65.181  1.00  0.00     0.063 A  
HETATM   14  C   UNL     1      -8.146   7.618  64.023  1.00  0.00    -0.045 A  
HETATM   15  C   UNL     1      -9.191   6.993  66.105  1.00  0.00    -0.119 A  
HETATM   16  C   UNL     1      -7.877   6.275  63.744  1.00  0.00    -0.111 A  
HETATM   17  C   UNL     1      -8.867   5.649  65.847  1.00  0.00    -0.154 A  
HETATM   18  C   UNL     1      -8.260   5.268  64.642  1.00  0.00    -0.134 A  
BRANCH  18  19
HETATM   19  C   UNL     1      -8.000   3.822  64.266  1.00  0.00    -0.086 C  
HETATM   20  N   UNL     1      -8.945   3.166  63.652  1.00  0.00    -0.092 NA 
HETATM   21  H1  UNL     1      -8.770   2.193  63.399  1.00  0.00     0.000 HD 
HETATM   22  H2  UNL     1      -9.835   3.613  63.430  1.00  0.00     0.000 HD 
BRANCH  19  23
HETATM   23  N   UNL     1      -6.826   3.142  64.580  1.00  0.00    -0.040 NA 
HETATM   24  C   UNL     1      -6.732   1.852  65.243  1.00  0.00    -0.031 C  
HETATM   25  C   UNL     1      -5.521   3.770  64.349  1.00  0.00    -0.009 C  
ENDBRANCH  19  23
ENDBRANCH  18  19
ENDBRANCH  10  13
ENDBRANCH   6   9
BRANCH   8  26
HETATM   26  C   UNL     1      -8.020  10.674  69.208  1.00  0.00    -0.135 C  
HETATM   27  N   UNL     1      -8.928   9.932  69.957  1.00  0.00    -0.331 N  
HETATM   28  O   UNL     1      -6.797  10.527  69.269  1.00  0.00    -0.061 OA 
HETATM   29  H   UNL     1      -9.923  10.119  69.835  1.00  0.00     0.000 HD 
BRANCH  27  30
HETATM   30  C   UNL     1      -8.542   8.933  70.877  1.00  0.00    -0.199 A  
HETATM   31  C   UNL     1      -9.121   7.671  70.775  1.00  0.00    -0.153 A  
HETATM   32  C   UNL     1      -7.851   6.974  72.699  1.00  0.00    -0.093 A  
HETATM   33  N   UNL     1      -7.639   9.211  71.837  1.00  0.00    -0.316 NA 
HETATM   34  C   UNL     1      -7.308   8.241  72.720  1.00  0.00    -0.104 A  
HETATM   35 CL   UNL     1      -7.403   5.802  73.870  1.00  0.00    -0.089 Cl 
HETATM   36  C   UNL     1      -8.774   6.680  71.704  1.00  0.00    -0.130 A  
ENDBRANCH  27  30
ENDBRANCH   8  26
ENDBRANCH   2   3
TORSDOF 7
ENDMDL
MODEL       95
REMARK 921   NORMALIZED FREE ENERGY PREDICTED BY IDOCK:   -2.48 KCAL/MOL
REMARK 922        TOTAL FREE ENERGY PREDICTED BY IDOCK:   -4.22 KCAL/MOL
REMARK 923 INTER-LIGAND FREE ENERGY PREDICTED BY IDOCK:   -4.64 KCAL/MOL
REMARK 924 INTRA-LIGAND FREE ENERGY PREDICTED BY IDOCK:    0.42 KCAL/MOL
REMARK 927      BINDING AFFINITY PREDICTED BY RF-SCORE:    0.00 PKD
ROOT
HETATM    1  C   UNL     1      -6.151   3.889  71.487  1.00  0.00    -0.014 C  
HETATM    2  O   UNL     1      -6.897   4.927  72.124  1.00  0.00    -0.052 OA 
ENDROOT
BRANCH   2   3
HETATM    3  C   UNL     1      -6.703   6.195  71.641  1.00  0.00    -0.059 A  
HETATM    4  C   UNL     1      -5.747   7.082  72.112  1.00  0.00    -0.037 A  
HETATM    5  C   UNL     1      -5.644   8.358  71.563  1.00  0.00    -0.036 A  
HETATM    6  C   UNL     1      -6.490   8.787  70.536  1.00  0.00    -0.040 A  
HETATM    7  C   UNL     1      -7.556   6.591  70.601  1.00  0.00    -0.102 A  
HETATM    8  C   UNL     1      -7.473   7.885  70.034  1.00  0.00    -0.079 A  
BRANCH   6   9
HETATM    9  N   UNL     1      -6.381  10.115  70.019  1.00  0.00    -0.074 N  
HETATM   10  C   UNL     1      -5.828  11.221  70.629  1.00  0.00    -0.097 C  
HETATM   11  H   UNL     1      -6.759  10.264  69.083  1.00  0.00     0.000 HD 
HETATM   12  O   UNL     1      -5.253  11.248  71.713  1.00  0.00    -0.314 OA 
BRANCH  10  13
HETATM   13  C   UNL     1      -6.001  12.529  69.929  1.00  0.00    -0.144 A  
HETATM   14  C   UNL     1      -6.004  13.683  70.724  1.00  0.00    -0.130 A  
HETATM   15  C   UNL     1      -6.136  12.658  68.544  1.00  0.00    -0.062 A  
HETATM   16  C   UNL     1      -6.232  14.940  70.157  1.00  0.00    -0.165 A  
HETATM   17  C   UNL     1      -6.308  13.931  67.972  1.00  0.00    -0.144 A  
HETATM   18  C   UNL     1      -6.415  15.077  68.773  1.00  0.00    -0.082 A  
BRANCH  18  19
HETATM   19  C   UNL     1      -6.720  16.453  68.214  1.00  0.00    -0.132 C  
HETATM   20  N   UNL     1      -6.000  17.459  68.626  1.00  0.00    -0.164 NA 
HETATM   21  H1  UNL     1      -6.205  18.385  68.251  1.00  0.00     0.000 HD 
HETATM   22  H2  UNL     1      -5.252  17.324  69.307  1.00  0.00     0.000 HD 
BRANCH  19  23
HETATM   23  N   UNL     1      -7.756  16.711  67.319  1.00  0.00    -0.158 NA 
HETATM   24  C   UNL     1      -8.294  18.017  66.981  1.00  0.00    -0.236 C  
HETATM   25  C   UNL     1      -8.493  15.604  66.701  1.00  0.00    -0.288 C  
ENDBRANCH  19  23
ENDBRANCH  18  19
ENDBRANCH  10  13
ENDBRANCH   6   9
BRANCH   8  26
HETATM   26  C   UNL     1      -8.400   8.330  68.921  1.00  0.00    -0.127 C  
HETATM   27  N   UNL     1      -8.219   9.582  68.341  1.00  0.00    -0.112 N  
HETATM   28  O   UNL     1      -9.284   7.539  68.587  1.00  0.00    -0.144 OA 
HETATM   29  H   UNL     1      -7.455  10.167  68.679  1.00  0.00     0.000 HD 
BRANCH  27  30
HETATM   30  C   UNL     1      -9.040  10.084  67.308  1.00  0.00    -0.138 A  
HETATM   31  C   UNL     1      -8.608   9.958  65.991  1.00  0.00    -0.147 A  
HETATM   32  C   UNL     1     -10.598  11.108  65.268  1.00  0.00    -0.238 A  
HETATM   33  N   UNL     1     -10.211  10.680  67.604  1.00  0.00    -0.186 NA 
HETATM   34  C   UNL     1     -10.964  11.174  66.595  1.00  0.00    -0.228 A  
HETATM   35 CL   UNL     1     -11.592  11.782  64.043  1.00  0.00    -0.443 Cl 
HETATM   36  C   UNL     1      -9.397  10.484  64.957  1.00  0.00    -0.268 A  
ENDBRANCH  27  30
ENDBRANCH   8  26
ENDBRANCH   2   3
TORSDOF 7
ENDMDL
MODEL       96
REMARK 921   NORMALIZED FREE ENERGY PREDICTED BY IDOCK:   -2.44 KCAL/MOL
REMARK 922        TOTAL FREE ENERGY PREDICTED BY IDOCK:   -4.17 KCAL/MOL
REMARK 923 INTER-LIGAND FREE ENERGY PREDICTED BY IDOCK:   -4.73 KCAL/MOL
REMARK 924 INTRA-LIGAND FREE ENERGY PREDICTED BY IDOCK:    0.56 KCAL/MOL
REMARK 927      BINDING AFFINITY PREDICTED BY RF-SCORE:    0.00 PKD
ROOT
HETATM    1  C   UNL     1      -7.588   5.632  65.743  1.00  0.00    -0.086 C  
HETATM    2  O   UNL     1      -8.508   6.491  66.418  1.00  0.00    -0.115 OA 
ENDROOT
BRANCH   2   3
HETATM    3  C   UNL     1      -8.161   7.815  66.485  1.00  0.00    -0.124 A  
HETATM    4  C   UNL     1      -6.903   8.318  66.192  1.00  0.00    -0.058 A  
HETATM    5  C   UNL     1      -6.649   9.683  66.310  1.00  0.00    -0.071 A  
HETATM    6  C   UNL     1      -7.637  10.582  66.726  1.00  0.00    -0.115 A  
HETATM    7  C   UNL     1      -9.177   8.694  66.889  1.00  0.00    -0.198 A  
HETATM    8  C   UNL     1      -8.939  10.082  67.023  1.00  0.00    -0.152 A  
BRANCH   6   9
HETATM    9  N   UNL     1      -7.333  11.971  66.871  1.00  0.00    -0.332 N  
HETATM   10  C   UNL     1      -7.126  12.678  68.037  1.00  0.00    -0.103 C  
HETATM   11  H   UNL     1      -7.260  12.506  66.006  1.00  0.00     0.000 HD 
HETATM   12  O   UNL     1      -7.090  12.218  69.174  1.00  0.00    -0.086 OA 
BRANCH  10  13
HETATM   13  C   UNL     1      -6.993  14.160  67.907  1.00  0.00    -0.173 A  
HETATM   14  C   UNL     1      -8.165  14.917  68.028  1.00  0.00    -0.140 A  
HETATM   15  C   UNL     1      -5.778  14.816  67.697  1.00  0.00    -0.012 A  
HETATM   16  C   UNL     1      -8.141  16.303  67.848  1.00  0.00    -0.153 A  
HETATM   17  C   UNL     1      -5.750  16.217  67.575  1.00  0.00    -0.179 A  
HETATM   18  C   UNL     1      -6.934  16.969  67.590  1.00  0.00    -0.161 A  
BRANCH  18  19
HETATM   19  C   UNL     1      -6.967  18.465  67.343  1.00  0.00    -0.203 C  
HETATM   20  N   UNL     1      -5.849  19.065  67.043  1.00  0.00    -0.156 NA 
HETATM   21  H1  UNL     1      -5.872  20.071  66.877  1.00  0.00     0.000 HD 
HETATM   22  H2  UNL     1      -4.975  18.543  66.977  1.00  0.00     0.000 HD 
BRANCH  19  23
HETATM   23  N   UNL     1      -8.117  19.241  67.462  1.00  0.00    -0.272 NA 
HETATM   24  C   UNL     1      -9.186  19.051  68.429  1.00  0.00    -0.352 C  
HETATM   25  C   UNL     1      -8.399  20.302  66.489  1.00  0.00    -0.198 C  
ENDBRANCH  19  23
ENDBRANCH  18  19
ENDBRANCH  10  13
ENDBRANCH   6   9
BRANCH   8  26
HETATM   26  C   UNL     1     -10.023  11.039  67.474  1.00  0.00    -0.174 C  
HETATM   27  N   UNL     1      -9.839  11.781  68.638  1.00  0.00    -0.317 N  
HETATM   28  O   UNL     1     -11.032  11.105  66.770  1.00  0.00    -0.275 OA 
HETATM   29  H   UNL     1      -8.967  11.664  69.154  1.00  0.00     0.000 HD 
BRANCH  27  30
HETATM   30  C   UNL     1     -10.798  12.686  69.140  1.00  0.00    -0.077 A  
HETATM   31  C   UNL     1     -10.430  14.016  69.325  1.00  0.00    -0.038 A  
HETATM   32  C   UNL     1     -12.636  14.470  70.177  1.00  0.00    -0.288 A  
HETATM   33  N   UNL     1     -12.039  12.258  69.442  1.00  0.00    -0.226 NA 
HETATM   34  C   UNL     1     -12.929  13.143  69.946  1.00  0.00     0.725 A  
HETATM   35 CL   UNL     1     -13.809  15.530  70.845  1.00  0.00    -0.310 Cl 
HETATM   36  C   UNL     1     -11.361  14.918  69.857  1.00  0.00    -0.311 A  
ENDBRANCH  27  30
ENDBRANCH   8  26
ENDBRANCH   2   3
TORSDOF 7
ENDMDL
MODEL       97
REMARK 921   NORMALIZED FREE ENERGY PREDICTED BY IDOCK:   -2.24 KCAL/MOL
REMARK 922        TOTAL FREE ENERGY PREDICTED BY IDOCK:   -3.90 KCAL/MOL
REMARK 923 INTER-LIGAND FREE ENERGY PREDICTED BY IDOCK:   -3.38 KCAL/MOL
REMARK 924 INTRA-LIGAND FREE ENERGY PREDICTED BY IDOCK:   -0.52 KCAL/MOL
REMARK 927      BINDING AFFINITY PREDICTED BY RF-SCORE:    0.00 PKD
ROOT
HETATM    1  C   UNL     1     -10.843  14.464  64.585  1.00  0.00    -0.346 C  
HETATM    2  O   UNL     1     -10.407  13.291  63.897  1.00  0.00    -0.326 OA 
ENDROOT
BRANCH   2   3
HETATM    3  C   UNL     1      -9.938  12.270  64.682  1.00  0.00    -0.186 A  
HETATM    4  C   UNL     1      -8.934  11.387  64.314  1.00  0.00     0.197 A  
HETATM    5  C   UNL     1      -8.543  10.369  65.181  1.00  0.00    -0.189 A  
HETATM    6  C   UNL     1      -9.140  10.200  66.435  1.00  0.00    -0.152 A  
HETATM    7  C   UNL     1     -10.546  12.135  65.940  1.00  0.00    -0.293 A  
HETATM    8  C   UNL     1     -10.168  11.105  66.833  1.00  0.00    -0.260 A  
BRANCH   6   9
HETATM    9  N   UNL     1      -8.739   9.124  67.286  1.00  0.00    -0.117 N  
HETATM   10  C   UNL     1      -9.360   7.906  67.465  1.00  0.00    -0.143 C  
HETATM   11  H   UNL     1      -7.889   9.276  67.828  1.00  0.00     0.000 HD 
HETATM   12  O   UNL     1     -10.344   7.491  66.859  1.00  0.00    -0.284 OA 
BRANCH  10  13
HETATM   13  C   UNL     1      -8.820   7.031  68.547  1.00  0.00    -0.124 A  
HETATM   14  C   UNL     1      -9.115   5.664  68.469  1.00  0.00    -0.118 A  
HETATM   15  C   UNL     1      -8.032   7.497  69.602  1.00  0.00    -0.125 A  
HETATM   16  C   UNL     1      -8.709   4.787  69.479  1.00  0.00    -0.111 A  
HETATM   17  C   UNL     1      -7.576   6.600  70.586  1.00  0.00    -0.095 A  
HETATM   18  C   UNL     1      -7.956   5.251  70.568  1.00  0.00    -0.099 A  
BRANCH  18  19
HETATM   19  C   UNL     1      -7.591   4.273  71.667  1.00  0.00    -0.073 C  
HETATM   20  N   UNL     1      -6.660   3.393  71.425  1.00  0.00    -0.025 NA 
HETATM   21  H1  UNL     1      -6.415   2.734  72.165  1.00  0.00     0.000 HD 
HETATM   22  H2  UNL     1      -6.189   3.362  70.521  1.00  0.00     0.000 HD 
BRANCH  19  23
HETATM   23  N   UNL     1      -8.226   4.233  72.907  1.00  0.00    -0.093 NA 
HETATM   24  C   UNL     1      -7.582   4.328  74.205  1.00  0.00    -0.076 C  
HETATM   25  C   UNL     1      -9.665   3.964  72.993  1.00  0.00    -0.126 C  
ENDBRANCH  19  23
ENDBRANCH  18  19
ENDBRANCH  10  13
ENDBRANCH   6   9
BRANCH   8  26
HETATM   26  C   UNL     1     -10.828  10.939  68.186  1.00  0.00    -0.234 C  
HETATM   27  N   UNL     1     -11.471   9.743  68.491  1.00  0.00    -0.496 N  
HETATM   28  O   UNL     1     -10.759  11.899  68.957  1.00  0.00    -0.214 OA 
HETATM   29  H   UNL     1     -11.472   9.002  67.791  1.00  0.00     0.000 HD 
BRANCH  27  30
HETATM   30  C   UNL     1     -12.122   9.505  69.721  1.00  0.00     0.493 A  
HETATM   31  C   UNL     1     -12.885  10.526  70.282  1.00  0.00    -0.192 A  
HETATM   32  C   UNL     1     -13.362   9.090  72.156  1.00  0.00    -0.455 A  
HETATM   33  N   UNL     1     -11.992   8.314  70.336  1.00  0.00     0.073 NA 
HETATM   34  C   UNL     1     -12.606   8.124  71.526  1.00  0.00    -0.304 A  
HETATM   35 CL   UNL     1     -14.090   8.787  73.680  1.00  0.00     1.454 Cl 
HETATM   36  C   UNL     1     -13.507  10.316  71.520  1.00  0.00    -0.336 A  
ENDBRANCH  27  30
ENDBRANCH   8  26
ENDBRANCH   2   3
TORSDOF 7
ENDMDL
MODEL       98
REMARK 921   NORMALIZED FREE ENERGY PREDICTED BY IDOCK:   -2.23 KCAL/MOL
REMARK 922        TOTAL FREE ENERGY PREDICTED BY IDOCK:   -3.88 KCAL/MOL
REMARK 923 INTER-LIGAND FREE ENERGY PREDICTED BY IDOCK:   -4.27 KCAL/MOL
REMARK 924 INTRA-LIGAND FREE ENERGY PREDICTED BY IDOCK:    0.39 KCAL/MOL
REMARK 927      BINDING AFFINITY PREDICTED BY RF-SCORE:    0.00 PKD
ROOT
HETATM    1  C   UNL     1      -6.913  17.385  66.696  1.00  0.00    -0.233 C  
HETATM    2  O   UNL     1      -7.696  16.706  67.680  1.00  0.00    -0.159 OA 
ENDROOT
BRANCH   2   3
HETATM    3  C   UNL     1      -7.895  15.365  67.474  1.00  0.00    -0.170 A  
HETATM    4  C   UNL     1      -8.670  14.829  66.457  1.00  0.00    -0.160 A  
HETATM    5  C   UNL     1      -8.823  13.448  66.346  1.00  0.00     0.105 A  
HETATM    6  C   UNL     1      -8.214  12.566  67.245  1.00  0.00    -0.184 A  
HETATM    7  C   UNL     1      -7.259  14.505  68.381  1.00  0.00    -0.116 A  
HETATM    8  C   UNL     1      -7.406  13.101  68.291  1.00  0.00    -0.116 A  
BRANCH   6   9
HETATM    9  N   UNL     1      -8.420  11.157  67.124  1.00  0.00    -0.134 N  
HETATM   10  C   UNL     1      -7.488  10.184  66.831  1.00  0.00    -0.096 C  
HETATM   11  H   UNL     1      -9.375  10.830  67.275  1.00  0.00     0.000 HD 
HETATM   12  O   UNL     1      -6.280  10.348  66.691  1.00  0.00    -0.064 OA 
BRANCH  10  13
HETATM   13  C   UNL     1      -8.010   8.805  66.597  1.00  0.00    -0.100 A  
HETATM   14  C   UNL     1      -8.230   8.422  65.268  1.00  0.00    -0.151 A  
HETATM   15  C   UNL     1      -8.265   7.887  67.620  1.00  0.00    -0.124 A  
HETATM   16  C   UNL     1      -8.785   7.175  64.966  1.00  0.00     0.199 A  
HETATM   17  C   UNL     1      -8.768   6.612  67.307  1.00  0.00    -0.118 A  
HETATM   18  C   UNL     1      -9.088   6.262  65.987  1.00  0.00    -0.126 A  
BRANCH  18  19
HETATM   19  C   UNL     1      -9.744   4.947  65.614  1.00  0.00    -0.145 C  
HETATM   20  N   UNL     1     -11.031   4.829  65.791  1.00  0.00    -0.852 NA 
HETATM   21  H1  UNL     1     -11.472   3.944  65.540  1.00  0.00     0.000 HD 
HETATM   22  H2  UNL     1     -11.581   5.600  66.169  1.00  0.00     0.000 HD 
BRANCH  19  23
HETATM   23  N   UNL     1      -9.043   3.843  65.137  1.00  0.00    -0.134 NA 
HETATM   24  C   UNL     1      -8.312   3.766  63.884  1.00  0.00    -0.091 C  
HETATM   25  C   UNL     1      -9.090   2.567  65.859  1.00  0.00    -0.098 C  
ENDBRANCH  19  23
ENDBRANCH  18  19
ENDBRANCH  10  13
ENDBRANCH   6   9
BRANCH   8  26
HETATM   26  C   UNL     1      -6.738  12.163  69.275  1.00  0.00    -0.084 C  
HETATM   27  N   UNL     1      -7.440  11.061  69.754  1.00  0.00    -0.359 N  
HETATM   28  O   UNL     1      -5.582  12.438  69.605  1.00  0.00    -0.077 OA 
HETATM   29  H   UNL     1      -8.392  10.910  69.420  1.00  0.00     0.000 HD 
BRANCH  27  30
HETATM   30  C   UNL     1      -6.902  10.142  70.680  1.00  0.00    -0.005 A  
HETATM   31  C   UNL     1      -7.631   8.995  70.984  1.00  0.00    -0.138 A  
HETATM   32  C   UNL     1      -5.903   8.352  72.534  1.00  0.00    -0.062 A  
HETATM   33  N   UNL     1      -5.711  10.385  71.262  1.00  0.00    -0.279 NA 
HETATM   34  C   UNL     1      -5.234   9.499  72.165  1.00  0.00    -0.076 A  
HETATM   35 CL   UNL     1      -5.247   7.286  73.709  1.00  0.00    -0.042 Cl 
HETATM   36  C   UNL     1      -7.126   8.092  71.930  1.00  0.00    -0.080 A  
ENDBRANCH  27  30
ENDBRANCH   8  26
ENDBRANCH   2   3
TORSDOF 7
ENDMDL
MODEL       99
REMARK 921   NORMALIZED FREE ENERGY PREDICTED BY IDOCK:   -2.22 KCAL/MOL
REMARK 922        TOTAL FREE ENERGY PREDICTED BY IDOCK:   -3.86 KCAL/MOL
REMARK 923 INTER-LIGAND FREE ENERGY PREDICTED BY IDOCK:   -4.32 KCAL/MOL
REMARK 924 INTRA-LIGAND FREE ENERGY PREDICTED BY IDOCK:    0.47 KCAL/MOL
REMARK 927      BINDING AFFINITY PREDICTED BY RF-SCORE:    0.00 PKD
ROOT
HETATM    1  C   UNL     1     -10.070   1.567  63.576  1.00  0.00    -0.130 C  
HETATM    2  O   UNL     1     -10.740   2.668  64.190  1.00  0.00     0.018 OA 
ENDROOT
BRANCH   2   3
HETATM    3  C   UNL     1     -10.011   3.387  65.101  1.00  0.00     0.027 A  
HETATM    4  C   UNL     1      -8.892   2.914  65.769  1.00  0.00    -0.140 A  
HETATM    5  C   UNL     1      -8.232   3.722  66.692  1.00  0.00    -0.096 A  
HETATM    6  C   UNL     1      -8.669   5.020  66.978  1.00  0.00    -0.103 A  
HETATM    7  C   UNL     1     -10.464   4.691  65.356  1.00  0.00    -0.174 A  
HETATM    8  C   UNL     1      -9.813   5.525  66.294  1.00  0.00    -0.173 A  
BRANCH   6   9
HETATM    9  N   UNL     1      -7.990   5.810  67.957  1.00  0.00    -0.100 N  
HETATM   10  C   UNL     1      -7.208   5.375  69.006  1.00  0.00    -0.062 C  
HETATM   11  H   UNL     1      -8.097   6.820  67.868  1.00  0.00     0.000 HD 
HETATM   12  O   UNL     1      -6.888   4.215  69.248  1.00  0.00    -0.044 OA 
BRANCH  10  13
HETATM   13  C   UNL     1      -6.757   6.413  69.981  1.00  0.00    -0.053 A  
HETATM   14  C   UNL     1      -7.239   7.715  69.794  1.00  0.00    -0.079 A  
HETATM   15  C   UNL     1      -5.912   6.149  71.061  1.00  0.00    -0.030 A  
HETATM   16  C   UNL     1      -6.810   8.759  70.618  1.00  0.00    -0.050 A  
HETATM   17  C   UNL     1      -5.529   7.193  71.923  1.00  0.00    -0.036 A  
HETATM   18  C   UNL     1      -5.925   8.516  71.679  1.00  0.00    -0.048 A  
BRANCH  18  19
HETATM   19  C   UNL     1      -5.442   9.691  72.506  1.00  0.00     0.057 C  
HETATM   20  N   UNL     1      -5.162   9.486  73.763  1.00  0.00    -0.196 NA 
HETATM   21  H1  UNL     1      -4.837  10.277  74.320  1.00  0.00     0.000 HD 
HETATM   22  H2  UNL     1      -5.265   8.560  74.179  1.00  0.00     0.000 HD 
BRANCH  19  23
HETATM   23  N   UNL     1      -5.323  10.987  72.010  1.00  0.00    -0.321 NA 
HETATM   24  C   UNL     1      -5.131  12.193  72.797  1.00  0.00     0.386 C  
HETATM   25  C   UNL     1      -5.505  11.253  70.579  1.00  0.00    -0.129 C  
ENDBRANCH  19  23
ENDBRANCH  18  19
ENDBRANCH  10  13
ENDBRANCH   6   9
BRANCH   8  26
HETATM   26  C   UNL     1     -10.303   6.928  66.590  1.00  0.00    -0.144 C  
HETATM   27  N   UNL     1      -9.784   8.000  65.868  1.00  0.00    -0.430 N  
HETATM   28  O   UNL     1     -11.151   7.043  67.476  1.00  0.00    -0.241 OA 
HETATM   29  H   UNL     1      -9.088   7.807  65.148  1.00  0.00     0.000 HD 
BRANCH  27  30
HETATM   30  C   UNL     1     -10.172   9.340  66.083  1.00  0.00    -0.159 A  
HETATM   31  C   UNL     1      -9.959  10.268  65.068  1.00  0.00    -0.393 A  
HETATM   32  C   UNL     1     -10.867  11.982  66.495  1.00  0.00    -0.277 A  
HETATM   33  N   UNL     1     -10.725   9.704  67.256  1.00  0.00    -0.250 NA 
HETATM   34  C   UNL     1     -11.063  11.000  67.443  1.00  0.00    -0.305 A  
HETATM   35 CL   UNL     1     -11.295  13.614  66.813  1.00  0.00    -0.330 Cl 
HETATM   36  C   UNL     1     -10.306  11.610  65.281  1.00  0.00    -0.316 A  
ENDBRANCH  27  30
ENDBRANCH   8  26
ENDBRANCH   2   3
TORSDOF 7
ENDMDL
MODEL      100
REMARK 921   NORMALIZED FREE ENERGY PREDICTED BY IDOCK:   -2.18 KCAL/MOL
REMARK 922        TOTAL FREE ENERGY PREDICTED BY IDOCK:   -3.81 KCAL/MOL
REMARK 923 INTER-LIGAND FREE ENERGY PREDICTED BY IDOCK:   -3.27 KCAL/MOL
REMARK 924 INTRA-LIGAND FREE ENERGY PREDICTED BY IDOCK:   -0.53 KCAL/MOL
REMARK 927      BINDING AFFINITY PREDICTED BY RF-SCORE:    0.00 PKD
ROOT
HETATM    1  C   UNL     1     -10.262   2.316  63.296  1.00  0.00    -0.134 C  
HETATM    2  O   UNL     1      -9.160   3.097  62.832  1.00  0.00    -0.092 OA 
ENDROOT
BRANCH   2   3
HETATM    3  C   UNL     1      -8.899   4.248  63.528  1.00  0.00    -0.128 A  
HETATM    4  C   UNL     1      -8.445   5.429  62.961  1.00  0.00    -0.079 A  
HETATM    5  C   UNL     1      -8.192   6.540  63.762  1.00  0.00     0.065 A  
HETATM    6  C   UNL     1      -8.380   6.506  65.148  1.00  0.00    -0.100 A  
HETATM    7  C   UNL     1      -9.112   4.187  64.913  1.00  0.00    -0.144 A  
HETATM    8  C   UNL     1      -8.855   5.302  65.746  1.00  0.00    -0.149 A  
BRANCH   6   9
HETATM    9  N   UNL     1      -8.078   7.652  65.946  1.00  0.00    -0.115 N  
HETATM   10  C   UNL     1      -6.890   7.959  66.576  1.00  0.00    -0.070 C  
HETATM   11  H   UNL     1      -8.833   8.327  66.064  1.00  0.00     0.000 HD 
HETATM   12  O   UNL     1      -5.839   7.330  66.501  1.00  0.00    -0.033 OA 
BRANCH  10  13
HETATM   13  C   UNL     1      -6.902   9.140  67.489  1.00  0.00    -0.077 A  
HETATM   14  C   UNL     1      -6.644  10.392  66.916  1.00  0.00    -0.078 A  
HETATM   15  C   UNL     1      -7.173   9.062  68.858  1.00  0.00    -0.073 A  
HETATM   16  C   UNL     1      -6.566  11.539  67.711  1.00  0.00    -0.068 A  
HETATM   17  C   UNL     1      -7.150  10.228  69.644  1.00  0.00    -0.125 A  
HETATM   18  C   UNL     1      -6.790  11.466  69.094  1.00  0.00    -0.111 A  
BRANCH  18  19
HETATM   19  C   UNL     1      -6.634  12.727  69.922  1.00  0.00     0.138 C  
HETATM   20  N   UNL     1      -7.206  13.819  69.497  1.00  0.00    -0.325 NA 
HETATM   21  H1  UNL     1      -7.100  14.667  70.054  1.00  0.00     0.000 HD 
HETATM   22  H2  UNL     1      -7.744  13.825  68.630  1.00  0.00     0.000 HD 
BRANCH  19  23
HETATM   23  N   UNL     1      -5.875  12.795  71.089  1.00  0.00    -0.298 NA 
HETATM   24  C   UNL     1      -5.128  11.705  71.692  1.00  0.00     0.015 C  
HETATM   25  C   UNL     1      -5.868  14.019  71.897  1.00  0.00    -0.039 C  
ENDBRANCH  19  23
ENDBRANCH  18  19
ENDBRANCH  10  13
ENDBRANCH   6   9
BRANCH   8  26
HETATM   26  C   UNL     1      -9.066   5.243  67.245  1.00  0.00    -0.112 C  
HETATM   27  N   UNL     1      -8.794   4.061  67.928  1.00  0.00    -0.105 N  
HETATM   28  O   UNL     1      -9.479   6.270  67.787  1.00  0.00    -0.120 OA 
HETATM   29  H   UNL     1      -8.449   3.262  67.396  1.00  0.00     0.000 HD 
BRANCH  27  30
HETATM   30  C   UNL     1      -8.972   3.912  69.321  1.00  0.00    -0.116 A  
HETATM   31  C   UNL     1      -9.532   2.731  69.800  1.00  0.00    -0.155 A  
HETATM   32  C   UNL     1      -9.387   3.612  72.036  1.00  0.00    -0.122 A  
HETATM   33  N   UNL     1      -8.614   4.904  70.159  1.00  0.00    -0.090 NA 
HETATM   34  C   UNL     1      -8.820   4.742  71.486  1.00  0.00    -0.129 A  
HETATM   35 CL   UNL     1      -9.645   3.489  73.729  1.00  0.00    -0.125 Cl 
HETATM   36  C   UNL     1      -9.748   2.583  71.177  1.00  0.00    -0.180 A  
ENDBRANCH  27  30
ENDBRANCH   8  26
ENDBRANCH   2   3
TORSDOF 7
ENDMDL
MODEL      101
REMARK 921   NORMALIZED FREE ENERGY PREDICTED BY IDOCK:   -2.16 KCAL/MOL
REMARK 922        TOTAL FREE ENERGY PREDICTED BY IDOCK:   -3.77 KCAL/MOL
REMARK 923 INTER-LIGAND FREE ENERGY PREDICTED BY IDOCK:   -3.03 KCAL/MOL
REMARK 924 INTRA-LIGAND FREE ENERGY PREDICTED BY IDOCK:   -0.74 KCAL/MOL
REMARK 927      BINDING AFFINITY PREDICTED BY RF-SCORE:    0.00 PKD
ROOT
HETATM    1  C   UNL     1      -5.830   5.657  72.606  1.00  0.00    -0.031 C  
HETATM    2  O   UNL     1      -5.866   6.873  73.355  1.00  0.00    -0.053 OA 
ENDROOT
BRANCH   2   3
HETATM    3  C   UNL     1      -6.018   8.026  72.629  1.00  0.00    -0.051 A  
HETATM    4  C   UNL     1      -5.681   9.293  73.078  1.00  0.00     0.033 A  
HETATM    5  C   UNL     1      -5.894  10.405  72.266  1.00  0.00     0.741 A  
HETATM    6  C   UNL     1      -6.451  10.286  70.989  1.00  0.00     0.192 A  
HETATM    7  C   UNL     1      -6.565   7.873  71.346  1.00  0.00    -0.042 A  
HETATM    8  C   UNL     1      -6.796   8.989  70.508  1.00  0.00    -0.061 A  
BRANCH   6   9
HETATM    9  N   UNL     1      -6.689  11.450  70.194  1.00  0.00    -0.317 N  
HETATM   10  C   UNL     1      -6.105  12.694  70.314  1.00  0.00    -0.066 C  
HETATM   11  H   UNL     1      -7.376  11.349  69.447  1.00  0.00     0.000 HD 
HETATM   12  O   UNL     1      -5.206  13.008  71.088  1.00  0.00    -0.149 OA 
BRANCH  10  13
HETATM   13  C   UNL     1      -6.665  13.782  69.458  1.00  0.00    -0.044 A  
HETATM   14  C   UNL     1      -6.062  15.042  69.553  1.00  0.00    -0.117 A  
HETATM   15  C   UNL     1      -7.728  13.603  68.569  1.00  0.00    -0.129 A  
HETATM   16  C   UNL     1      -6.569  16.132  68.841  1.00  0.00    -0.138 A  
HETATM   17  C   UNL     1      -8.199  14.690  67.811  1.00  0.00    -0.169 A  
HETATM   18  C   UNL     1      -7.666  15.976  67.980  1.00  0.00    -0.140 A  
BRANCH  18  19
HETATM   19  C   UNL     1      -8.218  17.200  67.276  1.00  0.00    -0.187 C  
HETATM   20  N   UNL     1      -7.457  17.809  66.410  1.00  0.00    -0.254 NA 
HETATM   21  H1  UNL     1      -7.828  18.633  65.937  1.00  0.00     0.000 HD 
HETATM   22  H2  UNL     1      -6.515  17.470  66.210  1.00  0.00     0.000 HD 
BRANCH  19  23
HETATM   23  N   UNL     1      -9.476  17.738  67.537  1.00  0.00    -0.255 NA 
HETATM   24  C   UNL     1     -10.284  18.518  66.616  1.00  0.00    -0.399 C  
HETATM   25  C   UNL     1     -10.059  17.643  68.879  1.00  0.00    -0.351 C  
ENDBRANCH  19  23
ENDBRANCH  18  19
ENDBRANCH  10  13
ENDBRANCH   6   9
BRANCH   8  26
HETATM   26  C   UNL     1      -7.401   8.838  69.127  1.00  0.00    -0.072 C  
HETATM   27  N   UNL     1      -6.566   8.822  68.013  1.00  0.00    -0.060 N  
HETATM   28  O   UNL     1      -8.628   8.740  69.068  1.00  0.00    -0.129 OA 
HETATM   29  H   UNL     1      -5.560   8.904  68.160  1.00  0.00     0.000 HD 
BRANCH  27  30
HETATM   30  C   UNL     1      -7.042   8.698  66.690  1.00  0.00    -0.080 A  
HETATM   31  C   UNL     1      -7.021   7.443  66.087  1.00  0.00    -0.065 A  
HETATM   32  C   UNL     1      -7.911   8.433  64.080  1.00  0.00    -0.151 A  
HETATM   33  N   UNL     1      -7.493   9.782  66.029  1.00  0.00    -0.099 NA 
HETATM   34  C   UNL     1      -7.919   9.636  64.753  1.00  0.00    -0.129 A  
HETATM   35 CL   UNL     1      -8.440   8.330  62.451  1.00  0.00    -0.165 Cl 
HETATM   36  C   UNL     1      -7.456   7.312  64.761  1.00  0.00    -0.093 A  
ENDBRANCH  27  30
ENDBRANCH   8  26
ENDBRANCH   2   3
TORSDOF 7
ENDMDL
MODEL      102
REMARK 921   NORMALIZED FREE ENERGY PREDICTED BY IDOCK:   -2.13 KCAL/MOL
REMARK 922        TOTAL FREE ENERGY PREDICTED BY IDOCK:   -3.73 KCAL/MOL
REMARK 923 INTER-LIGAND FREE ENERGY PREDICTED BY IDOCK:   -4.34 KCAL/MOL
REMARK 924 INTRA-LIGAND FREE ENERGY PREDICTED BY IDOCK:    0.60 KCAL/MOL
REMARK 927      BINDING AFFINITY PREDICTED BY RF-SCORE:    0.00 PKD
ROOT
HETATM    1  C   UNL     1      -9.289  19.919  69.798  1.00  0.00     0.549 C  
HETATM    2  O   UNL     1      -7.956  19.656  69.357  1.00  0.00    -0.208 OA 
ENDROOT
BRANCH   2   3
HETATM    3  C   UNL     1      -7.714  18.391  68.888  1.00  0.00    -0.211 A  
HETATM    4  C   UNL     1      -6.554  17.669  69.123  1.00  0.00    -0.251 A  
HETATM    5  C   UNL     1      -6.400  16.395  68.583  1.00  0.00    -0.133 A  
HETATM    6  C   UNL     1      -7.392  15.805  67.793  1.00  0.00    -0.148 A  
HETATM    7  C   UNL     1      -8.735  17.820  68.113  1.00  0.00    -0.266 A  
HETATM    8  C   UNL     1      -8.596  16.530  67.549  1.00  0.00    -0.188 A  
BRANCH   6   9
HETATM    9  N   UNL     1      -7.188  14.510  67.225  1.00  0.00    -0.269 N  
HETATM   10  C   UNL     1      -7.191  13.290  67.868  1.00  0.00    -0.137 C  
HETATM   11  H   UNL     1      -7.018  14.484  66.220  1.00  0.00     0.000 HD 
HETATM   12  O   UNL     1      -7.450  13.088  69.051  1.00  0.00    -0.035 OA 
BRANCH  10  13
HETATM   13  C   UNL     1      -6.780  12.104  67.059  1.00  0.00    -0.072 A  
HETATM   14  C   UNL     1      -7.793  11.403  66.394  1.00  0.00    -0.067 A  
HETATM   15  C   UNL     1      -5.456  11.681  66.919  1.00  0.00    -0.129 A  
HETATM   16  C   UNL     1      -7.503  10.240  65.675  1.00  0.00    -0.149 A  
HETATM   17  C   UNL     1      -5.161  10.544  66.145  1.00  0.00    -0.069 A  
HETATM   18  C   UNL     1      -6.183   9.779  65.564  1.00  0.00    -0.074 A  
BRANCH  18  19
HETATM   19  C   UNL     1      -5.926   8.481  64.825  1.00  0.00    -0.063 C  
HETATM   20  N   UNL     1      -5.470   7.464  65.503  1.00  0.00    -0.028 NA 
HETATM   21  H1  UNL     1      -5.297   6.591  65.005  1.00  0.00     0.000 HD 
HETATM   22  H2  UNL     1      -5.291   7.541  66.505  1.00  0.00     0.000 HD 
BRANCH  19  23
HETATM   23  N   UNL     1      -6.107   8.325  63.452  1.00  0.00    -0.072 NA 
HETATM   24  C   UNL     1      -6.165   7.066  62.731  1.00  0.00    -0.048 C  
HETATM   25  C   UNL     1      -6.144   9.498  62.572  1.00  0.00    -0.097 C  
ENDBRANCH  19  23
ENDBRANCH  18  19
ENDBRANCH  10  13
ENDBRANCH   6   9
BRANCH   8  26
HETATM   26  C   UNL     1      -9.683  15.910  66.696  1.00  0.00    -0.253 C  
HETATM   27  N   UNL     1      -9.559  14.585  66.287  1.00  0.00    -0.304 N  
HETATM   28  O   UNL     1     -10.638  16.632  66.405  1.00  0.00    -0.284 OA 
HETATM   29  H   UNL     1      -8.735  14.062  66.582  1.00  0.00     0.000 HD 
BRANCH  27  30
HETATM   30  C   UNL     1     -10.516  13.929  65.482  1.00  0.00    -0.323 A  
HETATM   31  C   UNL     1     -10.484  12.540  65.405  1.00  0.00    -0.308 A  
HETATM   32  C   UNL     1     -12.338  12.620  63.870  1.00  0.00    -0.459 A  
HETATM   33  N   UNL     1     -11.429  14.645  64.798  1.00  0.00    -0.402 NA 
HETATM   34  C   UNL     1     -12.317  13.991  64.015  1.00  0.00    -0.298 A  
HETATM   35 CL   UNL     1     -13.477  11.859  62.836  1.00  0.00     0.813 Cl 
HETATM   36  C   UNL     1     -11.405  11.877  64.581  1.00  0.00    -0.355 A  
ENDBRANCH  27  30
ENDBRANCH   8  26
ENDBRANCH   2   3
TORSDOF 7
ENDMDL
MODEL      103
REMARK 921   NORMALIZED FREE ENERGY PREDICTED BY IDOCK:   -2.09 KCAL/MOL
REMARK 922        TOTAL FREE ENERGY PREDICTED BY IDOCK:   -3.68 KCAL/MOL
REMARK 923 INTER-LIGAND FREE ENERGY PREDICTED BY IDOCK:   -2.73 KCAL/MOL
REMARK 924 INTRA-LIGAND FREE ENERGY PREDICTED BY IDOCK:   -0.95 KCAL/MOL
REMARK 927      BINDING AFFINITY PREDICTED BY RF-SCORE:    0.00 PKD
ROOT
HETATM    1  C   UNL     1      -5.125  15.404  71.775  1.00  0.00    -0.086 C  
HETATM    2  O   UNL     1      -6.376  15.017  71.204  1.00  0.00     0.200 OA 
ENDROOT
BRANCH   2   3
HETATM    3  C   UNL     1      -6.406  13.791  70.591  1.00  0.00     0.071 A  
HETATM    4  C   UNL     1      -5.719  12.670  71.030  1.00  0.00    -0.000 A  
HETATM    5  C   UNL     1      -5.803  11.474  70.322  1.00  0.00    -0.158 A  
HETATM    6  C   UNL     1      -6.568  11.361  69.156  1.00  0.00    -0.095 A  
HETATM    7  C   UNL     1      -7.195  13.705  69.434  1.00  0.00     0.149 A  
HETATM    8  C   UNL     1      -7.288  12.502  68.695  1.00  0.00    -0.099 A  
BRANCH   6   9
HETATM    9  N   UNL     1      -6.605  10.129  68.433  1.00  0.00    -0.053 N  
HETATM   10  C   UNL     1      -7.574   9.148  68.475  1.00  0.00    -0.085 C  
HETATM   11  H   UNL     1      -5.818   9.952  67.810  1.00  0.00     0.000 HD 
HETATM   12  O   UNL     1      -8.633   9.192  69.093  1.00  0.00    -0.128 OA 
BRANCH  10  13
HETATM   13  C   UNL     1      -7.276   7.881  67.743  1.00  0.00    -0.091 A  
HETATM   14  C   UNL     1      -6.007   7.763  67.162  1.00  0.00    -0.048 A  
HETATM   15  C   UNL     1      -8.176   6.818  67.631  1.00  0.00    -0.119 A  
HETATM   16  C   UNL     1      -5.673   6.641  66.399  1.00  0.00    -0.018 A  
HETATM   17  C   UNL     1      -7.814   5.665  66.912  1.00  0.00    -0.101 A  
HETATM   18  C   UNL     1      -6.585   5.587  66.241  1.00  0.00    -0.055 A  
BRANCH  18  19
HETATM   19  C   UNL     1      -6.199   4.419  65.355  1.00  0.00    -0.027 C  
HETATM   20  N   UNL     1      -5.308   3.576  65.800  1.00  0.00    -0.009 NA 
HETATM   21  H1  UNL     1      -5.048   2.790  65.203  1.00  0.00     0.000 HD 
HETATM   22  H2  UNL     1      -4.883   3.699  66.719  1.00  0.00     0.000 HD 
BRANCH  19  23
HETATM   23  N   UNL     1      -6.707   4.220  64.073  1.00  0.00    -0.043 NA 
HETATM   24  C   UNL     1      -7.393   3.032  63.596  1.00  0.00    -0.057 C  
HETATM   25  C   UNL     1      -6.473   5.215  63.021  1.00  0.00    -0.026 C  
ENDBRANCH  19  23
ENDBRANCH  18  19
ENDBRANCH  10  13
ENDBRANCH   6   9
BRANCH   8  26
HETATM   26  C   UNL     1      -8.123  12.401  67.435  1.00  0.00    -0.177 C  
HETATM   27  N   UNL     1      -9.511  12.460  67.528  1.00  0.00    -0.182 N  
HETATM   28  O   UNL     1      -7.511  12.267  66.374  1.00  0.00     0.275 OA 
HETATM   29  H   UNL     1      -9.930  12.579  68.450  1.00  0.00     0.000 HD 
BRANCH  27  30
HETATM   30  C   UNL     1     -10.368  12.363  66.411  1.00  0.00    -0.234 A  
HETATM   31  C   UNL     1     -10.069  11.432  65.419  1.00  0.00    -0.308 A  
HETATM   32  C   UNL     1     -11.992  12.189  64.181  1.00  0.00    -0.408 A  
HETATM   33  N   UNL     1     -11.443  13.169  66.310  1.00  0.00    -0.320 NA 
HETATM   34  C   UNL     1     -12.230  13.070  65.215  1.00  0.00    -0.466 A  
HETATM   35 CL   UNL     1     -13.020  12.140  62.808  1.00  0.00     0.385 Cl 
HETATM   36  C   UNL     1     -10.890  11.350  64.286  1.00  0.00    -0.416 A  
ENDBRANCH  27  30
ENDBRANCH   8  26
ENDBRANCH   2   3
TORSDOF 7
ENDMDL
MODEL      104
REMARK 921   NORMALIZED FREE ENERGY PREDICTED BY IDOCK:   -1.83 KCAL/MOL
REMARK 922        TOTAL FREE ENERGY PREDICTED BY IDOCK:   -3.32 KCAL/MOL
REMARK 923 INTER-LIGAND FREE ENERGY PREDICTED BY IDOCK:   -3.51 KCAL/MOL
REMARK 924 INTRA-LIGAND FREE ENERGY PREDICTED BY IDOCK:    0.19 KCAL/MOL
REMARK 927      BINDING AFFINITY PREDICTED BY RF-SCORE:    0.00 PKD
ROOT
HETATM    1  C   UNL     1     -10.454   2.048  62.622  1.00  0.00    -0.115 C  
HETATM    2  O   UNL     1     -11.098   2.959  63.513  1.00  0.00    -0.284 OA 
ENDROOT
BRANCH   2   3
HETATM    3  C   UNL     1     -10.346   3.406  64.569  1.00  0.00    -0.049 A  
HETATM    4  C   UNL     1      -9.145   2.846  64.976  1.00  0.00    -0.147 A  
HETATM    5  C   UNL     1      -8.467   3.366  66.076  1.00  0.00    -0.110 A  
HETATM    6  C   UNL     1      -8.966   4.451  66.803  1.00  0.00    -0.118 A  
HETATM    7  C   UNL     1     -10.866   4.505  65.268  1.00  0.00    -0.095 A  
HETATM    8  C   UNL     1     -10.197   5.044  66.393  1.00  0.00    -0.307 A  
BRANCH   6   9
HETATM    9  N   UNL     1      -8.264   4.938  67.949  1.00  0.00    -0.100 N  
HETATM   10  C   UNL     1      -7.355   4.264  68.737  1.00  0.00    -0.056 C  
HETATM   11  H   UNL     1      -8.458   5.902  68.216  1.00  0.00     0.000 HD 
HETATM   12  O   UNL     1      -6.922   3.131  68.548  1.00  0.00    -0.047 OA 
BRANCH  10  13
HETATM   13  C   UNL     1      -6.898   4.959  69.977  1.00  0.00    -0.048 A  
HETATM   14  C   UNL     1      -7.590   6.119  70.349  1.00  0.00    -0.096 A  
HETATM   15  C   UNL     1      -5.849   4.506  70.780  1.00  0.00    -0.017 A  
HETATM   16  C   UNL     1      -7.182   6.869  71.455  1.00  0.00    -0.079 A  
HETATM   17  C   UNL     1      -5.479   5.233  71.926  1.00  0.00    -0.012 A  
HETATM   18  C   UNL     1      -6.100   6.450  72.244  1.00  0.00    -0.038 A  
BRANCH  18  19
HETATM   19  C   UNL     1      -5.657   7.329  73.397  1.00  0.00    -0.045 C  
HETATM   20  N   UNL     1      -5.184   6.751  74.466  1.00  0.00    -0.045 NA 
HETATM   21  H1  UNL     1      -4.887   7.343  75.242  1.00  0.00     0.000 HD 
HETATM   22  H2  UNL     1      -5.114   5.735  74.526  1.00  0.00     0.000 HD 
BRANCH  19  23
HETATM   23  N   UNL     1      -5.769   8.717  73.396  1.00  0.00    -0.101 NA 
HETATM   24  C   UNL     1      -6.224   9.542  74.502  1.00  0.00     0.243 C  
HETATM   25  C   UNL     1      -5.526   9.480  72.167  1.00  0.00    -0.039 C  
ENDBRANCH  19  23
ENDBRANCH  18  19
ENDBRANCH  10  13
ENDBRANCH   6   9
BRANCH   8  26
HETATM   26  C   UNL     1     -10.755   6.221  67.166  1.00  0.00    -0.359 C  
HETATM   27  N   UNL     1     -10.241   6.518  68.425  1.00  0.00    -0.159 N  
HETATM   28  O   UNL     1     -11.657   6.862  66.623  1.00  0.00     0.412 OA 
HETATM   29  H   UNL     1      -9.490   5.934  68.791  1.00  0.00     0.000 HD 
BRANCH  27  30
HETATM   30  C   UNL     1     -10.708   7.586  69.220  1.00  0.00    -0.176 A  
HETATM   31  C   UNL     1     -11.523   7.300  70.312  1.00  0.00    -0.242 A  
HETATM   32  C   UNL     1     -11.686   9.660  70.763  1.00  0.00    -0.314 A  
HETATM   33  N   UNL     1     -10.375   8.855  68.913  1.00  0.00    -0.210 NA 
HETATM   34  C   UNL     1     -10.858   9.860  69.678  1.00  0.00    -0.253 A  
HETATM   35 CL   UNL     1     -12.285  10.987  71.672  1.00  0.00    -0.198 Cl 
HETATM   36  C   UNL     1     -12.023   8.354  71.090  1.00  0.00    -0.301 A  
ENDBRANCH  27  30
ENDBRANCH   8  26
ENDBRANCH   2   3
TORSDOF 7
ENDMDL
MODEL      105
REMARK 921   NORMALIZED FREE ENERGY PREDICTED BY IDOCK:   -1.61 KCAL/MOL
REMARK 922        TOTAL FREE ENERGY PREDICTED BY IDOCK:   -3.00 KCAL/MOL
REMARK 923 INTER-LIGAND FREE ENERGY PREDICTED BY IDOCK:   -2.60 KCAL/MOL
REMARK 924 INTRA-LIGAND FREE ENERGY PREDICTED BY IDOCK:   -0.40 KCAL/MOL
REMARK 927      BINDING AFFINITY PREDICTED BY RF-SCORE:    0.00 PKD
ROOT
HETATM    1  C   UNL     1     -10.828  14.500  64.561  1.00  0.00    -0.219 C  
HETATM    2  O   UNL     1     -10.508  13.323  63.819  1.00  0.00    -0.232 OA 
ENDROOT
BRANCH   2   3
HETATM    3  C   UNL     1     -10.080  12.245  64.550  1.00  0.00    -0.254 A  
HETATM    4  C   UNL     1      -9.207  11.272  64.088  1.00  0.00    -0.058 A  
HETATM    5  C   UNL     1      -8.850  10.204  64.908  1.00  0.00    -0.214 A  
HETATM    6  C   UNL     1      -9.353  10.073  66.206  1.00  0.00    -0.168 A  
HETATM    7  C   UNL     1     -10.590  12.149  65.854  1.00  0.00    -0.293 A  
HETATM    8  C   UNL     1     -10.245  11.070  66.701  1.00  0.00    -0.280 A  
BRANCH   6   9
HETATM    9  N   UNL     1      -8.993   8.947  67.009  1.00  0.00    -0.125 N  
HETATM   10  C   UNL     1      -7.842   8.191  66.945  1.00  0.00    -0.096 C  
HETATM   11  H   UNL     1      -9.672   8.667  67.717  1.00  0.00     0.000 HD 
HETATM   12  O   UNL     1      -6.870   8.399  66.225  1.00  0.00    -0.070 OA 
BRANCH  10  13
HETATM   13  C   UNL     1      -7.800   6.961  67.790  1.00  0.00    -0.113 A  
HETATM   14  C   UNL     1      -7.945   7.132  69.173  1.00  0.00    -0.119 A  
HETATM   15  C   UNL     1      -7.646   5.670  67.278  1.00  0.00    -0.089 A  
HETATM   16  C   UNL     1      -7.846   6.042  70.042  1.00  0.00    -0.105 A  
HETATM   17  C   UNL     1      -7.605   4.569  68.152  1.00  0.00    -0.076 A  
HETATM   18  C   UNL     1      -7.646   4.746  69.542  1.00  0.00    -0.059 A  
BRANCH  18  19
HETATM   19  C   UNL     1      -7.484   3.605  70.528  1.00  0.00    -0.041 C  
HETATM   20  N   UNL     1      -8.514   3.265  71.251  1.00  0.00    -0.066 NA 
HETATM   21  H1  UNL     1      -8.405   2.497  71.914  1.00  0.00     0.000 HD 
HETATM   22  H2  UNL     1      -9.405   3.753  71.157  1.00  0.00     0.000 HD 
BRANCH  19  23
HETATM   23  N   UNL     1      -6.284   2.930  70.736  1.00  0.00    -0.019 NA 
HETATM   24  C   UNL     1      -5.387   2.434  69.706  1.00  0.00    -0.012 C  
HETATM   25  C   UNL     1      -5.872   2.552  72.092  1.00  0.00    -0.009 C  
ENDBRANCH  19  23
ENDBRANCH  18  19
ENDBRANCH  10  13
ENDBRANCH   6   9
BRANCH   8  26
HETATM   26  C   UNL     1     -10.801  10.947  68.104  1.00  0.00    -0.234 C  
HETATM   27  N   UNL     1     -11.518   9.807  68.458  1.00  0.00    -0.496 N  
HETATM   28  O   UNL     1     -10.584  11.888  68.870  1.00  0.00    -0.217 OA 
HETATM   29  H   UNL     1     -11.642   9.076  67.758  1.00  0.00     0.000 HD 
BRANCH  27  30
HETATM   30  C   UNL     1     -12.082   9.612  69.737  1.00  0.00     0.395 A  
HETATM   31  C   UNL     1     -11.695   8.496  70.475  1.00  0.00    -0.082 A  
HETATM   32  C   UNL     1     -13.211   9.170  72.221  1.00  0.00    -0.461 A  
HETATM   33  N   UNL     1     -12.984  10.488  70.220  1.00  0.00    -0.178 NA 
HETATM   34  C   UNL     1     -13.526  10.261  71.438  1.00  0.00    -0.218 A  
HETATM   35 CL   UNL     1     -13.961   8.932  73.746  1.00  0.00     1.972 Cl 
HETATM   36  C   UNL     1     -12.274   8.270  71.732  1.00  0.00    -0.367 A  
ENDBRANCH  27  30
ENDBRANCH   8  26
ENDBRANCH   2   3
TORSDOF 7
ENDMDL
MODEL      106
REMARK 921   NORMALIZED FREE ENERGY PREDICTED BY IDOCK:   -1.58 KCAL/MOL
REMARK 922        TOTAL FREE ENERGY PREDICTED BY IDOCK:   -2.96 KCAL/MOL
REMARK 923 INTER-LIGAND FREE ENERGY PREDICTED BY IDOCK:   -3.35 KCAL/MOL
REMARK 924 INTRA-LIGAND FREE ENERGY PREDICTED BY IDOCK:    0.38 KCAL/MOL
REMARK 927      BINDING AFFINITY PREDICTED BY RF-SCORE:    0.00 PKD
ROOT
HETATM    1  C   UNL     1      -8.949   2.859  64.101  1.00  0.00    -0.105 C  
HETATM    2  O   UNL     1      -9.501   4.173  64.012  1.00  0.00    -0.153 OA 
ENDROOT
BRANCH   2   3
HETATM    3  C   UNL     1      -8.933   5.124  64.820  1.00  0.00    -0.056 A  
HETATM    4  C   UNL     1      -8.121   4.851  65.911  1.00  0.00    -0.108 A  
HETATM    5  C   UNL     1      -7.608   5.893  66.680  1.00  0.00    -0.095 A  
HETATM    6  C   UNL     1      -7.890   7.232  66.388  1.00  0.00    -0.106 A  
HETATM    7  C   UNL     1      -9.221   6.457  64.492  1.00  0.00     1.085 A  
HETATM    8  C   UNL     1      -8.715   7.530  65.264  1.00  0.00     0.043 A  
BRANCH   6   9
HETATM    9  N   UNL     1      -7.376   8.275  67.218  1.00  0.00    -0.087 N  
HETATM   10  C   UNL     1      -6.550   8.158  68.316  1.00  0.00    -0.060 C  
HETATM   11  H   UNL     1      -7.654   9.224  66.968  1.00  0.00     0.000 HD 
HETATM   12  O   UNL     1      -6.039   7.125  68.740  1.00  0.00    -0.028 OA 
BRANCH  10  13
HETATM   13  C   UNL     1      -6.303   9.402  69.105  1.00  0.00    -0.042 A  
HETATM   14  C   UNL     1      -6.242  10.606  68.393  1.00  0.00    -0.050 A  
HETATM   15  C   UNL     1      -6.154   9.424  70.494  1.00  0.00    -0.059 A  
HETATM   16  C   UNL     1      -5.944  11.806  69.045  1.00  0.00    -0.061 A  
HETATM   17  C   UNL     1      -5.912  10.643  71.153  1.00  0.00     0.147 A  
HETATM   18  C   UNL     1      -5.746  11.835  70.434  1.00  0.00    -0.161 A  
BRANCH  18  19
HETATM   19  C   UNL     1      -5.365  13.150  71.086  1.00  0.00    -0.193 C  
HETATM   20  N   UNL     1      -5.138  13.158  72.370  1.00  0.00    -0.341 NA 
HETATM   21  H1  UNL     1      -4.882  14.042  72.809  1.00  0.00     0.000 HD 
HETATM   22  H2  UNL     1      -5.214  12.302  72.921  1.00  0.00     0.000 HD 
BRANCH  19  23
HETATM   23  N   UNL     1      -5.289  14.359  70.399  1.00  0.00    -0.102 NA 
HETATM   24  C   UNL     1      -5.300  15.685  70.991  1.00  0.00    -0.071 C  
HETATM   25  C   UNL     1      -5.304  14.380  68.932  1.00  0.00    -0.087 C  
ENDBRANCH  19  23
ENDBRANCH  18  19
ENDBRANCH  10  13
ENDBRANCH   6   9
BRANCH   8  26
HETATM   26  C   UNL     1      -9.033   8.973  64.930  1.00  0.00    -0.118 C  
HETATM   27  N   UNL     1     -10.034   9.634  65.637  1.00  0.00    -0.314 N  
HETATM   28  O   UNL     1      -8.372   9.491  64.028  1.00  0.00    -0.147 OA 
HETATM   29  H   UNL     1     -10.524   9.125  66.372  1.00  0.00     0.000 HD 
BRANCH  27  30
HETATM   30  C   UNL     1     -10.405  10.972  65.386  1.00  0.00    -0.268 A  
HETATM   31  C   UNL     1     -11.401  11.225  64.447  1.00  0.00    -0.109 A  
HETATM   32  C   UNL     1     -11.113  13.585  64.830  1.00  0.00    -0.346 A  
HETATM   33  N   UNL     1      -9.793  11.978  66.041  1.00  0.00    -0.233 NA 
HETATM   34  C   UNL     1     -10.151  13.251  65.761  1.00  0.00    -0.286 A  
HETATM   35 CL   UNL     1     -11.497  15.226  64.507  1.00  0.00    -0.362 Cl 
HETATM   36  C   UNL     1     -11.754  12.551  64.161  1.00  0.00    -0.471 A  
ENDBRANCH  27  30
ENDBRANCH   8  26
ENDBRANCH   2   3
TORSDOF 7
ENDMDL
MODEL      107
REMARK 921   NORMALIZED FREE ENERGY PREDICTED BY IDOCK:   -1.57 KCAL/MOL
REMARK 922        TOTAL FREE ENERGY PREDICTED BY IDOCK:   -2.95 KCAL/MOL
REMARK 923 INTER-LIGAND FREE ENERGY PREDICTED BY IDOCK:   -2.64 KCAL/MOL
REMARK 924 INTRA-LIGAND FREE ENERGY PREDICTED BY IDOCK:   -0.31 KCAL/MOL
REMARK 927      BINDING AFFINITY PREDICTED BY RF-SCORE:    0.00 PKD
ROOT
HETATM    1  C   UNL     1      -6.704  21.336  65.765  1.00  0.00     0.225 C  
HETATM    2  O   UNL     1      -5.930  20.325  65.116  1.00  0.00    -0.193 OA 
ENDROOT
BRANCH   2   3
HETATM    3  C   UNL     1      -5.978  19.075  65.676  1.00  0.00    -0.191 A  
HETATM    4  C   UNL     1      -5.130  18.029  65.347  1.00  0.00    -0.186 A  
HETATM    5  C   UNL     1      -5.275  16.788  65.963  1.00  0.00     0.825 A  
HETATM    6  C   UNL     1      -6.268  16.554  66.920  1.00  0.00    -0.108 A  
HETATM    7  C   UNL     1      -6.974  18.875  66.644  1.00  0.00    -0.224 A  
HETATM    8  C   UNL     1      -7.142  17.622  67.277  1.00  0.00    -0.199 A  
BRANCH   6   9
HETATM    9  N   UNL     1      -6.412  15.259  67.509  1.00  0.00    -0.162 N  
HETATM   10  C   UNL     1      -7.351  14.293  67.216  1.00  0.00    -0.024 C  
HETATM   11  H   UNL     1      -5.736  15.020  68.234  1.00  0.00     0.000 HD 
HETATM   12  O   UNL     1      -8.200  14.343  66.330  1.00  0.00     0.296 OA 
BRANCH  10  13
HETATM   13  C   UNL     1      -7.378  13.094  68.105  1.00  0.00    -0.119 A  
HETATM   14  C   UNL     1      -8.215  12.037  67.724  1.00  0.00    -0.151 A  
HETATM   15  C   UNL     1      -6.609  12.968  69.264  1.00  0.00    -0.089 A  
HETATM   16  C   UNL     1      -8.354  10.908  68.536  1.00  0.00    -0.142 A  
HETATM   17  C   UNL     1      -6.709  11.805  70.048  1.00  0.00     0.193 A  
HETATM   18  C   UNL     1      -7.622  10.790  69.727  1.00  0.00     0.020 A  
BRANCH  18  19
HETATM   19  C   UNL     1      -7.852   9.575  70.604  1.00  0.00    -0.117 C  
HETATM   20  N   UNL     1      -6.818   9.023  71.177  1.00  0.00    -0.088 NA 
HETATM   21  H1  UNL     1      -6.973   8.205  71.767  1.00  0.00     0.000 HD 
HETATM   22  H2  UNL     1      -5.880   9.399  71.038  1.00  0.00     0.000 HD 
BRANCH  19  23
HETATM   23  N   UNL     1      -9.100   8.988  70.797  1.00  0.00    -0.224 NA 
HETATM   24  C   UNL     1     -10.377   9.680  70.847  1.00  0.00    -0.264 C  
HETATM   25  C   UNL     1      -9.207   7.555  71.091  1.00  0.00    -0.147 C  
ENDBRANCH  19  23
ENDBRANCH  18  19
ENDBRANCH  10  13
ENDBRANCH   6   9
BRANCH   8  26
HETATM   26  C   UNL     1      -8.225  17.389  68.311  1.00  0.00    -0.247 C  
HETATM   27  N   UNL     1      -9.287  16.541  68.010  1.00  0.00    -0.216 N  
HETATM   28  O   UNL     1      -8.101  17.981  69.386  1.00  0.00     0.132 OA 
HETATM   29  H   UNL     1      -9.302  16.090  67.096  1.00  0.00     0.000 HD 
BRANCH  27  30
HETATM   30  C   UNL     1     -10.344  16.276  68.907  1.00  0.00    -0.263 A  
HETATM   31  C   UNL     1     -11.558  15.824  68.394  1.00  0.00    -0.343 A  
HETATM   32  C   UNL     1     -12.453  15.802  70.630  1.00  0.00    -0.354 A  
HETATM   33  N   UNL     1     -10.176  16.470  70.229  1.00  0.00     0.302 NA 
HETATM   34  C   UNL     1     -11.215  16.231  71.061  1.00  0.00    -0.184 A  
HETATM   35 CL   UNL     1     -13.735  15.547  71.742  1.00  0.00    -0.577 Cl 
HETATM   36  C   UNL     1     -12.628  15.591  69.269  1.00  0.00     0.180 A  
ENDBRANCH  27  30
ENDBRANCH   8  26
ENDBRANCH   2   3
TORSDOF 7
ENDMDL
MODEL      108
REMARK 921   NORMALIZED FREE ENERGY PREDICTED BY IDOCK:   -1.33 KCAL/MOL
REMARK 922        TOTAL FREE ENERGY PREDICTED BY IDOCK:   -2.61 KCAL/MOL
REMARK 923 INTER-LIGAND FREE ENERGY PREDICTED BY IDOCK:   -2.75 KCAL/MOL
REMARK 924 INTRA-LIGAND FREE ENERGY PREDICTED BY IDOCK:    0.14 KCAL/MOL
REMARK 927      BINDING AFFINITY PREDICTED BY RF-SCORE:    0.00 PKD
ROOT
HETATM    1  C   UNL     1      -7.248  18.380  66.687  1.00  0.00    -0.214 C  
HETATM    2  O   UNL     1      -7.004  16.992  66.460  1.00  0.00    -0.219 OA 
ENDROOT
BRANCH   2   3
HETATM    3  C   UNL     1      -7.793  16.116  67.160  1.00  0.00    -0.200 A  
HETATM    4  C   UNL     1      -8.679  16.479  68.163  1.00  0.00    -0.194 A  
HETATM    5  C   UNL     1      -9.423  15.506  68.827  1.00  0.00    -0.210 A  
HETATM    6  C   UNL     1      -9.305  14.148  68.514  1.00  0.00    -0.191 A  
HETATM    7  C   UNL     1      -7.663  14.763  66.812  1.00  0.00     0.321 A  
HETATM    8  C   UNL     1      -8.405  13.759  67.478  1.00  0.00    -0.197 A  
BRANCH   6   9
HETATM    9  N   UNL     1     -10.057  13.173  69.238  1.00  0.00    -0.256 N  
HETATM   10  C   UNL     1     -11.392  13.212  69.579  1.00  0.00    -0.160 C  
HETATM   11  H   UNL     1      -9.543  12.345  69.539  1.00  0.00     0.000 HD 
HETATM   12  O   UNL     1     -12.206  14.071  69.252  1.00  0.00    -0.344 OA 
BRANCH  10  13
HETATM   13  C   UNL     1     -11.883  12.134  70.489  1.00  0.00    -0.185 A  
HETATM   14  C   UNL     1     -11.008  11.071  70.749  1.00  0.00     0.840 A  
HETATM   15  C   UNL     1     -13.140  12.144  71.098  1.00  0.00    -0.113 A  
HETATM   16  C   UNL     1     -11.415   9.987  71.531  1.00  0.00    -0.219 A  
HETATM   17  C   UNL     1     -13.523  11.078  71.932  1.00  0.00    -0.299 A  
HETATM   18  C   UNL     1     -12.692   9.963  72.111  1.00  0.00    -0.387 A  
BRANCH  18  19
HETATM   19  C   UNL     1     -13.108   8.738  72.901  1.00  0.00     0.077 C  
HETATM   20  N   UNL     1     -14.073   8.863  73.770  1.00  0.00    -0.330 NA 
HETATM   21  H1  UNL     1     -14.353   8.039  74.302  1.00  0.00     0.000 HD 
HETATM   22  H2  UNL     1     -14.535   9.762  73.915  1.00  0.00     0.000 HD 
BRANCH  19  23
HETATM   23  N   UNL     1     -12.489   7.496  72.783  1.00  0.00     0.207 NA 
HETATM   24  C   UNL     1     -12.875   6.425  71.881  1.00  0.00     0.057 C  
HETATM   25  C   UNL     1     -11.405   7.120  73.697  1.00  0.00     0.637 C  
ENDBRANCH  19  23
ENDBRANCH  18  19
ENDBRANCH  10  13
ENDBRANCH   6   9
BRANCH   8  26
HETATM   26  C   UNL     1      -8.261  12.293  67.123  1.00  0.00    -0.179 C  
HETATM   27  N   UNL     1      -9.182  11.376  67.623  1.00  0.00    -0.156 N  
HETATM   28  O   UNL     1      -7.313  11.989  66.397  1.00  0.00     0.146 OA 
HETATM   29  H   UNL     1      -9.938  11.721  68.212  1.00  0.00     0.000 HD 
BRANCH  27  30
HETATM   30  C   UNL     1      -9.119   9.991  67.355  1.00  0.00    -0.134 A  
HETATM   31  C   UNL     1      -9.767   9.113  68.220  1.00  0.00    -0.171 A  
HETATM   32  C   UNL     1      -8.967   7.271  66.890  1.00  0.00    -0.135 A  
HETATM   33  N   UNL     1      -8.434   9.539  66.287  1.00  0.00    -0.115 NA 
HETATM   34  C   UNL     1      -8.370   8.206  66.070  1.00  0.00    -0.131 A  
HETATM   35 CL   UNL     1      -8.820   5.592  66.568  1.00  0.00    -0.118 Cl 
HETATM   36  C   UNL     1      -9.683   7.733  67.986  1.00  0.00    -0.176 A  
ENDBRANCH  27  30
ENDBRANCH   8  26
ENDBRANCH   2   3
TORSDOF 7
ENDMDL
MODEL      109
REMARK 921   NORMALIZED FREE ENERGY PREDICTED BY IDOCK:   -1.12 KCAL/MOL
REMARK 922        TOTAL FREE ENERGY PREDICTED BY IDOCK:   -2.31 KCAL/MOL
REMARK 923 INTER-LIGAND FREE ENERGY PREDICTED BY IDOCK:   -2.04 KCAL/MOL
REMARK 924 INTRA-LIGAND FREE ENERGY PREDICTED BY IDOCK:   -0.28 KCAL/MOL
REMARK 927      BINDING AFFINITY PREDICTED BY RF-SCORE:    0.00 PKD
ROOT
HETATM    1  C   UNL     1     -11.406  16.836  68.793  1.00  0.00    -0.038 C  
HETATM    2  O   UNL     1     -11.758  16.456  70.124  1.00  0.00    -0.150 OA 
ENDROOT
BRANCH   2   3
HETATM    3  C   UNL     1     -11.806  15.109  70.375  1.00  0.00    -0.307 A  
HETATM    4  C   UNL     1     -12.626  14.510  71.319  1.00  0.00    -0.415 A  
HETATM    5  C   UNL     1     -12.584  13.131  71.510  1.00  0.00    -0.292 A  
HETATM    6  C   UNL     1     -11.725  12.311  70.770  1.00  0.00     0.455 A  
HETATM    7  C   UNL     1     -10.944  14.312  69.607  1.00  0.00    -0.159 A  
HETATM    8  C   UNL     1     -10.881  12.910  69.789  1.00  0.00     0.430 A  
BRANCH   6   9
HETATM    9  N   UNL     1     -11.682  10.904  71.015  1.00  0.00    -0.291 N  
HETATM   10  C   UNL     1     -12.540   9.933  70.544  1.00  0.00    -0.085 C  
HETATM   11  H   UNL     1     -10.922  10.577  71.611  1.00  0.00     0.000 HD 
HETATM   12  O   UNL     1     -13.468  10.097  69.756  1.00  0.00     0.357 OA 
BRANCH  10  13
HETATM   13  C   UNL     1     -12.363   8.557  71.095  1.00  0.00    -0.230 A  
HETATM   14  C   UNL     1     -13.461   7.987  71.753  1.00  0.00    -0.378 A  
HETATM   15  C   UNL     1     -11.185   7.816  70.971  1.00  0.00    -0.282 A  
HETATM   16  C   UNL     1     -13.357   6.733  72.360  1.00  0.00     0.309 A  
HETATM   17  C   UNL     1     -11.104   6.529  71.535  1.00  0.00    -0.310 A  
HETATM   18  C   UNL     1     -12.164   5.998  72.283  1.00  0.00    -0.125 A  
BRANCH  18  19
HETATM   19  C   UNL     1     -12.081   4.670  73.009  1.00  0.00     0.263 C  
HETATM   20  N   UNL     1     -13.180   3.986  73.172  1.00  0.00     0.934 NA 
HETATM   21  H1  UNL     1     -13.124   3.093  73.661  1.00  0.00     0.000 HD 
HETATM   22  H2  UNL     1     -14.071   4.335  72.819  1.00  0.00     0.000 HD 
BRANCH  19  23
HETATM   23  N   UNL     1     -10.904   4.160  73.554  1.00  0.00    -0.229 NA 
HETATM   24  C   UNL     1      -9.678   4.901  73.796  1.00  0.00    -0.135 C  
HETATM   25  C   UNL     1     -10.779   2.726  73.834  1.00  0.00    -0.187 C  
ENDBRANCH  19  23
ENDBRANCH  18  19
ENDBRANCH  10  13
ENDBRANCH   6   9
BRANCH   8  26
HETATM   26  C   UNL     1      -9.943  12.041  68.977  1.00  0.00     0.137 C  
HETATM   27  N   UNL     1      -9.280  12.588  67.882  1.00  0.00    -0.193 N  
HETATM   28  O   UNL     1      -9.820  10.870  69.340  1.00  0.00    -0.154 OA 
HETATM   29  H   UNL     1      -9.440  13.571  67.660  1.00  0.00     0.000 HD 
BRANCH  27  30
HETATM   30  C   UNL     1      -8.398  11.851  67.063  1.00  0.00    -0.178 A  
HETATM   31  C   UNL     1      -8.932  10.939  66.157  1.00  0.00    -0.196 A  
HETATM   32  C   UNL     1      -6.695  10.351  65.486  1.00  0.00    -0.121 A  
HETATM   33  N   UNL     1      -7.067  12.027  67.172  1.00  0.00    -0.142 NA 
HETATM   34  C   UNL     1      -6.246  11.288  66.392  1.00  0.00    -0.106 A  
HETATM   35 CL   UNL     1      -5.592   9.429  64.549  1.00  0.00    -0.066 Cl 
HETATM   36  C   UNL     1      -8.067  10.174  65.363  1.00  0.00    -0.149 A  
ENDBRANCH  27  30
ENDBRANCH   8  26
ENDBRANCH   2   3
TORSDOF 7
ENDMDL
MODEL      110
REMARK 921   NORMALIZED FREE ENERGY PREDICTED BY IDOCK:   -0.74 KCAL/MOL
REMARK 922        TOTAL FREE ENERGY PREDICTED BY IDOCK:   -1.78 KCAL/MOL
REMARK 923 INTER-LIGAND FREE ENERGY PREDICTED BY IDOCK:   -1.85 KCAL/MOL
REMARK 924 INTRA-LIGAND FREE ENERGY PREDICTED BY IDOCK:    0.07 KCAL/MOL
REMARK 927      BINDING AFFINITY PREDICTED BY RF-SCORE:    0.00 PKD
ROOT
HETATM    1  C   UNL     1      -7.800  12.259  62.330  1.00  0.00     3.182 C  
HETATM    2  O   UNL     1      -8.858  11.460  62.863  1.00  0.00    -0.204 OA 
ENDROOT
BRANCH   2   3
HETATM    3  C   UNL     1      -8.548  10.704  63.964  1.00  0.00    -0.098 A  
HETATM    4  C   UNL     1      -7.590   9.702  63.990  1.00  0.00    -0.128 A  
HETATM    5  C   UNL     1      -7.365   8.978  65.159  1.00  0.00    -0.096 A  
HETATM    6  C   UNL     1      -8.089   9.227  66.330  1.00  0.00    -0.107 A  
HETATM    7  C   UNL     1      -9.280  10.988  65.127  1.00  0.00    -0.227 A  
HETATM    8  C   UNL     1      -9.072  10.260  66.322  1.00  0.00    -0.178 A  
BRANCH   6   9
HETATM    9  N   UNL     1      -7.858   8.442  67.501  1.00  0.00    -0.098 N  
HETATM   10  C   UNL     1      -7.039   7.342  67.639  1.00  0.00    -0.085 C  
HETATM   11  H   UNL     1      -8.361   8.731  68.340  1.00  0.00     0.000 HD 
HETATM   12  O   UNL     1      -6.290   6.876  66.784  1.00  0.00    -0.042 OA 
BRANCH  10  13
HETATM   13  C   UNL     1      -7.116   6.606  68.936  1.00  0.00    -0.085 A  
HETATM   14  C   UNL     1      -6.338   5.448  69.060  1.00  0.00    -0.034 A  
HETATM   15  C   UNL     1      -7.896   7.020  70.019  1.00  0.00    -0.113 A  
HETATM   16  C   UNL     1      -6.407   4.661  70.213  1.00  0.00    -0.026 A  
HETATM   17  C   UNL     1      -7.917   6.256  71.200  1.00  0.00    -0.116 A  
HETATM   18  C   UNL     1      -7.222   5.042  71.290  1.00  0.00    -0.068 A  
BRANCH  18  19
HETATM   19  C   UNL     1      -7.310   4.125  72.494  1.00  0.00    -0.068 C  
HETATM   20  N   UNL     1      -8.421   3.472  72.691  1.00  0.00    -0.084 NA 
HETATM   21  H1  UNL     1      -8.481   2.855  73.501  1.00  0.00     0.000 HD 
HETATM   22  H2  UNL     1      -9.211   3.575  72.053  1.00  0.00     0.000 HD 
BRANCH  19  23
HETATM   23  N   UNL     1      -6.286   3.975  73.426  1.00  0.00    -0.030 NA 
HETATM   24  C   UNL     1      -5.673   2.723  73.835  1.00  0.00     0.000 C  
HETATM   25  C   UNL     1      -5.804   5.131  74.189  1.00  0.00    -0.039 C  
ENDBRANCH  19  23
ENDBRANCH  18  19
ENDBRANCH  10  13
ENDBRANCH   6   9
BRANCH   8  26
HETATM   26  C   UNL     1      -9.867  10.546  67.580  1.00  0.00    -0.168 C  
HETATM   27  N   UNL     1     -10.445  11.800  67.752  1.00  0.00    -0.190 N  
HETATM   28  O   UNL     1      -9.955   9.630  68.399  1.00  0.00    -0.150 OA 
HETATM   29  H   UNL     1     -10.324  12.495  67.016  1.00  0.00     0.000 HD 
BRANCH  27  30
HETATM   30  C   UNL     1     -11.192  12.159  68.895  1.00  0.00    -0.269 A  
HETATM   31  C   UNL     1     -11.399  13.510  69.161  1.00  0.00    -0.333 A  
HETATM   32  C   UNL     1     -12.599  12.895  71.157  1.00  0.00    -0.281 A  
HETATM   33  N   UNL     1     -11.679  11.205  69.712  1.00  0.00    -0.312 NA 
HETATM   34  C   UNL     1     -12.368  11.580  70.814  1.00  0.00    -0.375 A  
HETATM   35 CL   UNL     1     -13.459  13.297  72.587  1.00  0.00    -0.604 Cl 
HETATM   36  C   UNL     1     -12.107  13.882  70.312  1.00  0.00    -0.423 A  
ENDBRANCH  27  30
ENDBRANCH   8  26
ENDBRANCH   2   3
TORSDOF 7
ENDMDL
MODEL      111
REMARK 921   NORMALIZED FREE ENERGY PREDICTED BY IDOCK:   -0.63 KCAL/MOL
REMARK 922        TOTAL FREE ENERGY PREDICTED BY IDOCK:   -1.62 KCAL/MOL
REMARK 923 INTER-LIGAND FREE ENERGY PREDICTED BY IDOCK:   -2.72 KCAL/MOL
REMARK 924 INTRA-LIGAND FREE ENERGY PREDICTED BY IDOCK:    1.11 KCAL/MOL
REMARK 927      BINDING AFFINITY PREDICTED BY RF-SCORE:    0.00 PKD
ROOT
HETATM    1  C   UNL     1      -6.224   7.097  65.206  1.00  0.00    -0.037 C  
HETATM    2  O   UNL     1      -7.317   7.896  64.750  1.00  0.00    -0.074 OA 
ENDROOT
BRANCH   2   3
HETATM    3  C   UNL     1      -8.026   8.559  65.719  1.00  0.00    -0.107 A  
HETATM    4  C   UNL     1      -8.794   7.945  66.696  1.00  0.00    -0.166 A  
HETATM    5  C   UNL     1      -9.493   8.713  67.624  1.00  0.00    -0.169 A  
HETATM    6  C   UNL     1      -9.449  10.111  67.604  1.00  0.00    -0.148 A  
HETATM    7  C   UNL     1      -7.949   9.959  65.682  1.00  0.00    -0.130 A  
HETATM    8  C   UNL     1      -8.656  10.759  66.611  1.00  0.00    -0.143 A  
BRANCH   6   9
HETATM    9  N   UNL     1     -10.205  10.871  68.549  1.00  0.00    -0.177 N  
HETATM   10  C   UNL     1     -11.260  11.724  68.303  1.00  0.00    -0.255 C  
HETATM   11  H   UNL     1      -9.931  10.770  69.526  1.00  0.00     0.000 HD 
HETATM   12  O   UNL     1     -11.797  11.929  67.219  1.00  0.00    -0.576 OA 
BRANCH  10  13
HETATM   13  C   UNL     1     -11.759  12.523  69.462  1.00  0.00    -0.375 A  
HETATM   14  C   UNL     1     -12.086  11.820  70.628  1.00  0.00    -0.407 A  
HETATM   15  C   UNL     1     -11.893  13.914  69.446  1.00  0.00    -0.384 A  
HETATM   16  C   UNL     1     -12.628  12.483  71.733  1.00  0.00    -0.119 A  
HETATM   17  C   UNL     1     -12.384  14.584  70.581  1.00  0.00    -0.407 A  
HETATM   18  C   UNL     1     -12.811  13.874  71.713  1.00  0.00    -0.421 A  
BRANCH  18  19
HETATM   19  C   UNL     1     -13.458  14.539  72.912  1.00  0.00    -0.425 C  
HETATM   20  N   UNL     1     -14.403  13.895  73.539  1.00  0.00     2.340 NA 
HETATM   21  H1  UNL     1     -14.839  14.343  74.345  1.00  0.00     0.000 HD 
HETATM   22  H2  UNL     1     -14.699  12.968  73.231  1.00  0.00     0.000 HD 
BRANCH  19  23
HETATM   23  N   UNL     1     -13.131  15.819  73.355  1.00  0.00    -0.558 NA 
HETATM   24  C   UNL     1     -11.816  16.274  73.771  1.00  0.00    -0.111 C  
HETATM   25  C   UNL     1     -14.180  16.826  73.548  1.00  0.00     2.081 C  
ENDBRANCH  19  23
ENDBRANCH  18  19
ENDBRANCH  10  13
ENDBRANCH   6   9
BRANCH   8  26
HETATM   26  C   UNL     1      -8.594  12.272  66.572  1.00  0.00    -0.038 C  
HETATM   27  N   UNL     1      -9.778  13.004  66.574  1.00  0.00    -0.262 N  
HETATM   28  O   UNL     1      -7.472  12.780  66.535  1.00  0.00     0.441 OA 
HETATM   29  H   UNL     1     -10.662  12.497  66.612  1.00  0.00     0.000 HD 
BRANCH  27  30
HETATM   30  C   UNL     1      -9.817  14.415  66.527  1.00  0.00    -0.287 A  
HETATM   31  C   UNL     1     -10.622  15.029  65.572  1.00  0.00    -0.380 A  
HETATM   32  C   UNL     1      -9.870  17.173  66.371  1.00  0.00    -0.300 A  
HETATM   33  N   UNL     1      -9.076  15.141  67.387  1.00  0.00    -0.186 NA 
HETATM   34  C   UNL     1      -9.114  16.490  67.301  1.00  0.00    -0.204 A  
HETATM   35 CL   UNL     1      -9.846  18.888  66.303  1.00  0.00    -0.394 Cl 
HETATM   36  C   UNL     1     -10.642  16.429  65.490  1.00  0.00    -0.346 A  
ENDBRANCH  27  30
ENDBRANCH   8  26
ENDBRANCH   2   3
TORSDOF 7
ENDMDL
MODEL      112
REMARK 921   NORMALIZED FREE ENERGY PREDICTED BY IDOCK:   -0.62 KCAL/MOL
REMARK 922        TOTAL FREE ENERGY PREDICTED BY IDOCK:   -1.61 KCAL/MOL
REMARK 923 INTER-LIGAND FREE ENERGY PREDICTED BY IDOCK:   -2.65 KCAL/MOL
REMARK 924 INTRA-LIGAND FREE ENERGY PREDICTED BY IDOCK:    1.04 KCAL/MOL
REMARK 927      BINDING AFFINITY PREDICTED BY RF-SCORE:    0.00 PKD
ROOT
HETATM    1  C   UNL     1      -9.740   2.995  64.836  1.00  0.00    -0.046 C  
HETATM    2  O   UNL     1     -10.378   4.235  65.145  1.00  0.00    -0.241 OA 
ENDROOT
BRANCH   2   3
HETATM    3  C   UNL     1      -9.703   5.066  66.001  1.00  0.00    -0.180 A  
HETATM    4  C   UNL     1      -8.554   4.721  66.695  1.00  0.00    -0.108 A  
HETATM    5  C   UNL     1      -7.954   5.636  67.558  1.00  0.00    -0.102 A  
HETATM    6  C   UNL     1      -8.483   6.916  67.755  1.00  0.00    -0.123 A  
HETATM    7  C   UNL     1     -10.249   6.348  66.166  1.00  0.00     0.191 A  
HETATM    8  C   UNL     1      -9.659   7.290  67.042  1.00  0.00    -0.213 A  
BRANCH   6   9
HETATM    9  N   UNL     1      -7.863   7.819  68.674  1.00  0.00    -0.118 N  
HETATM   10  C   UNL     1      -6.863   7.550  69.584  1.00  0.00    -0.044 C  
HETATM   11  H   UNL     1      -8.202   8.780  68.654  1.00  0.00     0.000 HD 
HETATM   12  O   UNL     1      -6.263   6.488  69.719  1.00  0.00    -0.034 OA 
BRANCH  10  13
HETATM   13  C   UNL     1      -6.518   8.642  70.543  1.00  0.00    -0.038 A  
HETATM   14  C   UNL     1      -6.690   9.959  70.098  1.00  0.00    -0.112 A  
HETATM   15  C   UNL     1      -6.062   8.418  71.844  1.00  0.00    -0.055 A  
HETATM   16  C   UNL     1      -6.324  11.039  70.906  1.00  0.00     0.439 A  
HETATM   17  C   UNL     1      -5.749   9.510  72.675  1.00  0.00     0.140 A  
HETATM   18  C   UNL     1      -5.821  10.826  72.198  1.00  0.00     0.969 A  
BRANCH  18  19
HETATM   19  C   UNL     1      -5.381  12.027  73.013  1.00  0.00     0.880 C  
HETATM   20  N   UNL     1      -5.135  11.854  74.282  1.00  0.00    -0.365 NA 
HETATM   21  H1  UNL     1      -4.839  12.662  74.830  1.00  0.00     0.000 HD 
HETATM   22  H2  UNL     1      -5.236  10.936  74.715  1.00  0.00     0.000 HD 
BRANCH  19  23
HETATM   23  N   UNL     1      -5.268  13.314  72.492  1.00  0.00    -0.379 NA 
HETATM   24  C   UNL     1      -5.132  13.664  71.089  1.00  0.00    -0.141 C  
HETATM   25  C   UNL     1      -5.160  14.469  73.389  1.00  0.00    -0.250 C  
ENDBRANCH  19  23
ENDBRANCH  18  19
ENDBRANCH  10  13
ENDBRANCH   6   9
BRANCH   8  26
HETATM   26  C   UNL     1     -10.248   8.672  67.242  1.00  0.00    -0.268 C  
HETATM   27  N   UNL     1     -10.434   9.155  68.534  1.00  0.00    -0.238 N  
HETATM   28  O   UNL     1     -10.538   9.303  66.223  1.00  0.00    -0.105 OA 
HETATM   29  H   UNL     1     -10.159   8.563  69.317  1.00  0.00     0.000 HD 
BRANCH  27  30
HETATM   30  C   UNL     1     -10.986  10.424  68.815  1.00  0.00    -0.245 A  
HETATM   31  C   UNL     1     -11.051  11.366  67.791  1.00  0.00    -0.323 A  
HETATM   32  C   UNL     1     -12.007  12.936  69.347  1.00  0.00    -0.269 A  
HETATM   33  N   UNL     1     -11.428  10.711  70.055  1.00  0.00    -0.299 NA 
HETATM   34  C   UNL     1     -11.928  11.943  70.300  1.00  0.00    -0.330 A  
HETATM   35 CL   UNL     1     -12.628  14.488  69.738  1.00  0.00    -0.248 Cl 
HETATM   36  C   UNL     1     -11.563  12.642  68.065  1.00  0.00    -0.394 A  
ENDBRANCH  27  30
ENDBRANCH   8  26
ENDBRANCH   2   3
TORSDOF 7
ENDMDL
MODEL      113
REMARK 921   NORMALIZED FREE ENERGY PREDICTED BY IDOCK:   -0.28 KCAL/MOL
REMARK 922        TOTAL FREE ENERGY PREDICTED BY IDOCK:   -1.13 KCAL/MOL
REMARK 923 INTER-LIGAND FREE ENERGY PREDICTED BY IDOCK:   -0.33 KCAL/MOL
REMARK 924 INTRA-LIGAND FREE ENERGY PREDICTED BY IDOCK:   -0.81 KCAL/MOL
REMARK 927      BINDING AFFINITY PREDICTED BY RF-SCORE:    0.00 PKD
ROOT
HETATM    1  C   UNL     1     -10.203   3.396  65.996  1.00  0.00     0.709 C  
HETATM    2  O   UNL     1      -9.312   4.204  65.226  1.00  0.00    -0.143 OA 
ENDROOT
BRANCH   2   3
HETATM    3  C   UNL     1      -8.841   5.336  65.839  1.00  0.00    -0.145 A  
HETATM    4  C   UNL     1      -7.626   5.431  66.500  1.00  0.00    -0.088 A  
HETATM    5  C   UNL     1      -7.250   6.626  67.108  1.00  0.00    -0.081 A  
HETATM    6  C   UNL     1      -8.071   7.758  67.077  1.00  0.00    -0.117 A  
HETATM    7  C   UNL     1      -9.681   6.459  65.778  1.00  0.00     0.328 A  
HETATM    8  C   UNL     1      -9.320   7.681  66.394  1.00  0.00    -0.228 A  
BRANCH   6   9
HETATM    9  N   UNL     1      -7.670   8.959  67.741  1.00  0.00    -0.100 N  
HETATM   10  C   UNL     1      -6.521   9.695  67.543  1.00  0.00    -0.069 C  
HETATM   11  H   UNL     1      -8.314   9.316  68.447  1.00  0.00     0.000 HD 
HETATM   12  O   UNL     1      -5.657   9.489  66.696  1.00  0.00    -0.045 OA 
BRANCH  10  13
HETATM   13  C   UNL     1      -6.273  10.818  68.496  1.00  0.00    -0.046 A  
HETATM   14  C   UNL     1      -7.068  11.962  68.355  1.00  0.00    -0.086 A  
HETATM   15  C   UNL     1      -5.319  10.775  69.516  1.00  0.00    -0.038 A  
HETATM   16  C   UNL     1      -6.853  13.085  69.159  1.00  0.00    -0.058 A  
HETATM   17  C   UNL     1      -5.145  11.887  70.360  1.00  0.00    -0.101 A  
HETATM   18  C   UNL     1      -5.866  13.071  70.156  1.00  0.00    -0.153 A  
BRANCH  18  19
HETATM   19  C   UNL     1      -5.630  14.334  70.961  1.00  0.00    -0.190 C  
HETATM   20  N   UNL     1      -5.349  15.433  70.316  1.00  0.00    -0.122 NA 
HETATM   21  H1  UNL     1      -5.190  16.282  70.857  1.00  0.00     0.000 HD 
HETATM   22  H2  UNL     1      -5.291  15.442  69.297  1.00  0.00     0.000 HD 
BRANCH  19  23
HETATM   23  N   UNL     1      -5.650  14.378  72.353  1.00  0.00    -0.097 NA 
HETATM   24  C   UNL     1      -5.825  13.245  73.245  1.00  0.00     1.041 C  
HETATM   25  C   UNL     1      -5.604  15.665  73.054  1.00  0.00     1.202 C  
ENDBRANCH  19  23
ENDBRANCH  18  19
ENDBRANCH  10  13
ENDBRANCH   6   9
BRANCH   8  26
HETATM   26  C   UNL     1     -10.225   8.895  66.349  1.00  0.00    -0.203 C  
HETATM   27  N   UNL     1      -9.928   9.937  65.475  1.00  0.00    -0.312 N  
HETATM   28  O   UNL     1     -11.195   8.891  67.110  1.00  0.00     0.233 OA 
HETATM   29  H   UNL     1      -9.106   9.849  64.878  1.00  0.00     0.000 HD 
BRANCH  27  30
HETATM   30  C   UNL     1     -10.707  11.110  65.374  1.00  0.00    -0.192 A  
HETATM   31  C   UNL     1     -10.617  12.060  66.387  1.00  0.00    -0.278 A  
HETATM   32  C   UNL     1     -12.263  13.390  65.235  1.00  0.00    -0.440 A  
HETATM   33  N   UNL     1     -11.526  11.290  64.320  1.00  0.00    -0.094 NA 
HETATM   34  C   UNL     1     -12.279  12.411  64.264  1.00  0.00    -0.452 A  
HETATM   35 CL   UNL     1     -13.268  14.775  65.111  1.00  0.00     0.407 Cl 
HETATM   36  C   UNL     1     -11.412  13.213  66.319  1.00  0.00    -0.372 A  
ENDBRANCH  27  30
ENDBRANCH   8  26
ENDBRANCH   2   3
TORSDOF 7
ENDMDL
MODEL      114
REMARK 921   NORMALIZED FREE ENERGY PREDICTED BY IDOCK:    0.41 KCAL/MOL
REMARK 922        TOTAL FREE ENERGY PREDICTED BY IDOCK:   -0.16 KCAL/MOL
REMARK 923 INTER-LIGAND FREE ENERGY PREDICTED BY IDOCK:    0.35 KCAL/MOL
REMARK 924 INTRA-LIGAND FREE ENERGY PREDICTED BY IDOCK:   -0.51 KCAL/MOL
REMARK 927      BINDING AFFINITY PREDICTED BY RF-SCORE:    0.00 PKD
ROOT
HETATM    1  C   UNL     1      -7.468   7.769  73.995  1.00  0.00    -0.141 C  
HETATM    2  O   UNL     1      -6.128   8.212  73.772  1.00  0.00    -0.084 OA 
ENDROOT
BRANCH   2   3
HETATM    3  C   UNL     1      -5.986   9.366  73.046  1.00  0.00     0.264 A  
HETATM    4  C   UNL     1      -5.882  10.636  73.593  1.00  0.00     1.374 A  
HETATM    5  C   UNL     1      -5.759  11.748  72.764  1.00  0.00     1.763 A  
HETATM    6  C   UNL     1      -5.740  11.629  71.371  1.00  0.00     0.379 A  
HETATM    7  C   UNL     1      -5.954   9.212  71.652  1.00  0.00    -0.072 A  
HETATM    8  C   UNL     1      -5.836  10.329  70.792  1.00  0.00    -0.094 A  
BRANCH   6   9
HETATM    9  N   UNL     1      -5.648  12.794  70.548  1.00  0.00    -0.162 N  
HETATM   10  C   UNL     1      -5.401  14.093  70.939  1.00  0.00    -0.144 C  
HETATM   11  H   UNL     1      -5.780  12.646  69.548  1.00  0.00     0.000 HD 
HETATM   12  O   UNL     1      -5.138  14.477  72.075  1.00  0.00    -0.151 OA 
BRANCH  10  13
HETATM   13  C   UNL     1      -5.529  15.145  69.888  1.00  0.00    -0.109 A  
HETATM   14  C   UNL     1      -5.769  16.455  70.322  1.00  0.00    -0.155 A  
HETATM   15  C   UNL     1      -5.402  14.896  68.519  1.00  0.00    -0.102 A  
HETATM   16  C   UNL     1      -5.973  17.487  69.401  1.00  0.00    -0.234 A  
HETATM   17  C   UNL     1      -5.550  15.948  67.598  1.00  0.00    -0.155 A  
HETATM   18  C   UNL     1      -5.893  17.240  68.022  1.00  0.00    -0.126 A  
BRANCH  18  19
HETATM   19  C   UNL     1      -6.182  18.377  67.063  1.00  0.00    -0.169 C  
HETATM   20  N   UNL     1      -5.297  18.648  66.144  1.00  0.00    -0.141 NA 
HETATM   21  H1  UNL     1      -5.491  19.414  65.498  1.00  0.00     0.000 HD 
HETATM   22  H2  UNL     1      -4.434  18.108  66.072  1.00  0.00     0.000 HD 
BRANCH  19  23
HETATM   23  N   UNL     1      -7.318  19.180  67.136  1.00  0.00    -0.212 NA 
HETATM   24  C   UNL     1      -7.344  20.610  67.390  1.00  0.00    -0.336 C  
HETATM   25  C   UNL     1      -8.654  18.580  67.067  1.00  0.00    -0.272 C  
ENDBRANCH  19  23
ENDBRANCH  18  19
ENDBRANCH  10  13
ENDBRANCH   6   9
BRANCH   8  26
HETATM   26  C   UNL     1      -5.817  10.178  69.285  1.00  0.00    -0.037 C  
HETATM   27  N   UNL     1      -6.313   9.012  68.708  1.00  0.00    -0.048 N  
HETATM   28  O   UNL     1      -5.349  11.118  68.640  1.00  0.00    -0.044 OA 
HETATM   29  H   UNL     1      -6.686   8.289  69.323  1.00  0.00     0.000 HD 
BRANCH  27  30
HETATM   30  C   UNL     1      -6.324   8.779  67.316  1.00  0.00    -0.057 A  
HETATM   31  C   UNL     1      -5.195   8.221  66.723  1.00  0.00    -0.032 A  
HETATM   32  C   UNL     1      -6.292   8.366  64.584  1.00  0.00    -0.065 A  
HETATM   33  N   UNL     1      -7.407   9.106  66.584  1.00  0.00    -0.085 NA 
HETATM   34  C   UNL     1      -7.378   8.895  65.249  1.00  0.00    -0.088 A  
HETATM   35 CL   UNL     1      -6.317   8.153  62.881  1.00  0.00    -0.084 Cl 
HETATM   36  C   UNL     1      -5.178   8.019  65.336  1.00  0.00    -0.028 A  
ENDBRANCH  27  30
ENDBRANCH   8  26
ENDBRANCH   2   3
TORSDOF 7
ENDMDL
MODEL      115
REMARK 921   NORMALIZED FREE ENERGY PREDICTED BY IDOCK:    1.97 KCAL/MOL
REMARK 922        TOTAL FREE ENERGY PREDICTED BY IDOCK:    2.04 KCAL/MOL
REMARK 923 INTER-LIGAND FREE ENERGY PREDICTED BY IDOCK:   -0.99 KCAL/MOL
REMARK 924 INTRA-LIGAND FREE ENERGY PREDICTED BY IDOCK:    3.03 KCAL/MOL
REMARK 927      BINDING AFFINITY PREDICTED BY RF-SCORE:    0.00 PKD
ROOT
HETATM    1  C   UNL     1     -12.321  13.958  72.909  1.00  0.00     0.331 C  
HETATM    2  O   UNL     1     -12.910  13.643  71.646  1.00  0.00    -0.343 OA 
ENDROOT
BRANCH   2   3
HETATM    3  C   UNL     1     -12.449  12.508  71.031  1.00  0.00    -0.258 A  
HETATM    4  C   UNL     1     -12.825  11.217  71.368  1.00  0.00    -0.515 A  
HETATM    5  C   UNL     1     -12.281  10.129  70.690  1.00  0.00    -0.394 A  
HETATM    6  C   UNL     1     -11.347  10.294  69.662  1.00  0.00    -0.257 A  
HETATM    7  C   UNL     1     -11.526  12.707  69.993  1.00  0.00    -0.090 A  
HETATM    8  C   UNL     1     -10.956  11.616  69.296  1.00  0.00    -0.246 A  
BRANCH   6   9
HETATM    9  N   UNL     1     -10.782   9.155  69.010  1.00  0.00    -0.349 N  
HETATM   10  C   UNL     1     -10.860   8.814  67.676  1.00  0.00    -0.022 C  
HETATM   11  H   UNL     1     -10.256   8.515  69.604  1.00  0.00     0.000 HD 
HETATM   12  O   UNL     1     -11.374   9.478  66.780  1.00  0.00     0.437 OA 
BRANCH  10  13
HETATM   13  C   UNL     1     -10.320   7.475  67.294  1.00  0.00    -0.366 A  
HETATM   14  C   UNL     1     -10.926   6.830  66.208  1.00  0.00     0.824 A  
HETATM   15  C   UNL     1      -9.248   6.856  67.941  1.00  0.00    -0.124 A  
HETATM   16  C   UNL     1     -10.529   5.544  65.830  1.00  0.00     0.190 A  
HETATM   17  C   UNL     1      -8.815   5.586  67.520  1.00  0.00    -0.105 A  
HETATM   18  C   UNL     1      -9.484   4.892  66.502  1.00  0.00    -0.153 A  
BRANCH  18  19
HETATM   19  C   UNL     1      -9.131   3.475  66.095  1.00  0.00    -0.157 C  
HETATM   20  N   UNL     1      -9.398   2.510  66.930  1.00  0.00    -0.373 NA 
HETATM   21  H1  UNL     1      -9.160   1.556  66.656  1.00  0.00     0.000 HD 
HETATM   22  H2  UNL     1      -9.832   2.702  67.833  1.00  0.00     0.000 HD 
BRANCH  19  23
HETATM   23  N   UNL     1      -8.497   3.151  64.898  1.00  0.00    -0.094 NA 
HETATM   24  C   UNL     1      -9.099   2.473  63.763  1.00  0.00    -0.096 C  
HETATM   25  C   UNL     1      -7.058   3.388  64.734  1.00  0.00    -0.061 C  
ENDBRANCH  19  23
ENDBRANCH  18  19
ENDBRANCH  10  13
ENDBRANCH   6   9
BRANCH   8  26
HETATM   26  C   UNL     1      -9.946  11.817  68.185  1.00  0.00    -0.194 C  
HETATM   27  N   UNL     1      -9.965  10.968  67.082  1.00  0.00    -0.184 N  
HETATM   28  O   UNL     1      -9.145  12.743  68.327  1.00  0.00    -0.199 OA 
HETATM   29  H   UNL     1     -10.670  10.232  67.049  1.00  0.00     0.000 HD 
BRANCH  27  30
HETATM   30  C   UNL     1      -9.056  11.074  66.008  1.00  0.00    -0.195 A  
HETATM   31  C   UNL     1      -9.538  11.461  64.760  1.00  0.00    -0.239 A  
HETATM   32  C   UNL     1      -7.312  11.234  63.870  1.00  0.00     1.380 A  
HETATM   33  N   UNL     1      -7.751  10.792  66.194  1.00  0.00    -0.151 NA 
HETATM   34  C   UNL     1      -6.909  10.877  65.139  1.00  0.00     0.290 A  
HETATM   35 CL   UNL     1      -6.190  11.293  62.572  1.00  0.00     0.170 Cl 
HETATM   36  C   UNL     1      -8.653  11.535  63.675  1.00  0.00     0.559 A  
ENDBRANCH  27  30
ENDBRANCH   8  26
ENDBRANCH   2   3
TORSDOF 7
ENDMDL
MODEL      116
REMARK 921   NORMALIZED FREE ENERGY PREDICTED BY IDOCK:    2.86 KCAL/MOL
REMARK 922        TOTAL FREE ENERGY PREDICTED BY IDOCK:    3.30 KCAL/MOL
REMARK 923 INTER-LIGAND FREE ENERGY PREDICTED BY IDOCK:    3.56 KCAL/MOL
REMARK 924 INTRA-LIGAND FREE ENERGY PREDICTED BY IDOCK:   -0.25 KCAL/MOL
REMARK 927      BINDING AFFINITY PREDICTED BY RF-SCORE:    0.00 PKD
ROOT
HETATM    1  C   UNL     1     -14.121  10.756  63.184  1.00  0.00     6.147 C  
HETATM    2  O   UNL     1     -13.182  11.668  62.612  1.00  0.00     0.096 OA 
ENDROOT
BRANCH   2   3
HETATM    3  C   UNL     1     -12.184  12.108  63.442  1.00  0.00    -0.530 A  
HETATM    4  C   UNL     1     -11.064  11.370  63.792  1.00  0.00    -0.417 A  
HETATM    5  C   UNL     1     -10.115  11.904  64.661  1.00  0.00    -0.301 A  
HETATM    6  C   UNL     1     -10.256  13.184  65.207  1.00  0.00    -0.286 A  
HETATM    7  C   UNL     1     -12.346  13.401  63.962  1.00  0.00    -0.402 A  
HETATM    8  C   UNL     1     -11.398  13.960  64.851  1.00  0.00    -0.349 A  
BRANCH   6   9
HETATM    9  N   UNL     1      -9.282  13.689  66.123  1.00  0.00    -0.490 N  
HETATM   10  C   UNL     1      -8.961  13.204  67.374  1.00  0.00    -0.201 C  
HETATM   11  H   UNL     1      -8.760  14.508  65.814  1.00  0.00     0.000 HD 
HETATM   12  O   UNL     1      -9.409  12.191  67.903  1.00  0.00    -0.179 OA 
BRANCH  10  13
HETATM   13  C   UNL     1      -8.021  14.029  68.191  1.00  0.00    -0.149 A  
HETATM   14  C   UNL     1      -8.228  14.047  69.576  1.00  0.00     0.618 A  
HETATM   15  C   UNL     1      -6.954  14.752  67.653  1.00  0.00    -0.204 A  
HETATM   16  C   UNL     1      -7.439  14.850  70.405  1.00  0.00     0.589 A  
HETATM   17  C   UNL     1      -6.126  15.513  68.499  1.00  0.00    -0.096 A  
HETATM   18  C   UNL     1      -6.393  15.617  69.872  1.00  0.00    -0.150 A  
BRANCH  18  19
HETATM   19  C   UNL     1      -5.605  16.517  70.802  1.00  0.00     0.015 C  
HETATM   20  N   UNL     1      -5.151  16.009  71.914  1.00  0.00    -0.200 NA 
HETATM   21  H1  UNL     1      -4.621  16.615  72.541  1.00  0.00     0.000 HD 
HETATM   22  H2  UNL     1      -5.321  15.031  72.151  1.00  0.00     0.000 HD 
BRANCH  19  23
HETATM   23  N   UNL     1      -5.378  17.870  70.559  1.00  0.00    -0.264 NA 
HETATM   24  C   UNL     1      -5.158  18.484  69.261  1.00  0.00    -0.194 C  
HETATM   25  C   UNL     1      -5.225  18.808  71.676  1.00  0.00    -0.246 C  
ENDBRANCH  19  23
ENDBRANCH  18  19
ENDBRANCH  10  13
ENDBRANCH   6   9
BRANCH   8  26
HETATM   26  C   UNL     1     -11.570  15.349  65.432  1.00  0.00    -0.024 C  
HETATM   27  N   UNL     1     -10.487  15.973  66.044  1.00  0.00    -0.334 N  
HETATM   28  O   UNL     1     -12.689  15.857  65.330  1.00  0.00     1.447 OA 
HETATM   29  H   UNL     1      -9.597  15.477  66.076  1.00  0.00     0.000 HD 
BRANCH  27  30
HETATM   30  C   UNL     1     -10.558  17.259  66.622  1.00  0.00    -0.179 A  
HETATM   31  C   UNL     1     -10.410  17.380  68.001  1.00  0.00    -0.362 A  
HETATM   32  C   UNL     1     -10.751  19.755  67.791  1.00  0.00    -0.281 A  
HETATM   33  N   UNL     1     -10.777  18.338  65.846  1.00  0.00    -0.370 NA 
HETATM   34  C   UNL     1     -10.866  19.554  66.432  1.00  0.00    -0.340 A  
HETATM   35 CL   UNL     1     -10.903  21.326  68.467  1.00  0.00     1.311 Cl 
HETATM   36  C   UNL     1     -10.515  18.647  68.593  1.00  0.00    -0.119 A  
ENDBRANCH  27  30
ENDBRANCH   8  26
ENDBRANCH   2   3
TORSDOF 7
ENDMDL
MODEL      117
REMARK 921   NORMALIZED FREE ENERGY PREDICTED BY IDOCK:    3.94 KCAL/MOL
REMARK 922        TOTAL FREE ENERGY PREDICTED BY IDOCK:    4.81 KCAL/MOL
REMARK 923 INTER-LIGAND FREE ENERGY PREDICTED BY IDOCK:    1.66 KCAL/MOL
REMARK 924 INTRA-LIGAND FREE ENERGY PREDICTED BY IDOCK:    3.16 KCAL/MOL
REMARK 927      BINDING AFFINITY PREDICTED BY RF-SCORE:    0.00 PKD
ROOT
HETATM    1  C   UNL     1      -6.288  17.304  66.242  1.00  0.00    -0.183 C  
HETATM    2  O   UNL     1      -7.033  16.187  65.755  1.00  0.00     1.134 OA 
ENDROOT
BRANCH   2   3
HETATM    3  C   UNL     1      -6.961  15.040  66.502  1.00  0.00     1.834 A  
HETATM    4  C   UNL     1      -5.798  14.326  66.745  1.00  0.00     2.212 A  
HETATM    5  C   UNL     1      -5.837  13.159  67.504  1.00  0.00    -0.075 A  
HETATM    6  C   UNL     1      -7.033  12.670  68.040  1.00  0.00    -0.099 A  
HETATM    7  C   UNL     1      -8.174  14.583  67.039  1.00  0.00    -0.164 A  
HETATM    8  C   UNL     1      -8.237  13.397  67.808  1.00  0.00    -0.172 A  
BRANCH   6   9
HETATM    9  N   UNL     1      -7.044  11.451  68.786  1.00  0.00    -0.094 N  
HETATM   10  C   UNL     1      -7.631  10.251  68.443  1.00  0.00    -0.092 C  
HETATM   11  H   UNL     1      -6.558  11.470  69.682  1.00  0.00     0.000 HD 
HETATM   12  O   UNL     1      -8.195   9.988  67.385  1.00  0.00    -0.117 OA 
BRANCH  10  13
HETATM   13  C   UNL     1      -7.636   9.184  69.489  1.00  0.00    -0.079 A  
HETATM   14  C   UNL     1      -6.432   8.504  69.711  1.00  0.00    -0.035 A  
HETATM   15  C   UNL     1      -8.756   8.853  70.255  1.00  0.00    -0.183 A  
HETATM   16  C   UNL     1      -6.368   7.445  70.620  1.00  0.00    -0.039 A  
HETATM   17  C   UNL     1      -8.671   7.824  71.210  1.00  0.00    -0.140 A  
HETATM   18  C   UNL     1      -7.498   7.071  71.363  1.00  0.00    -0.081 A  
BRANCH  18  19
HETATM   19  C   UNL     1      -7.395   5.877  72.291  1.00  0.00    -0.094 C  
HETATM   20  N   UNL     1      -7.571   4.687  71.786  1.00  0.00    -0.088 NA 
HETATM   21  H1  UNL     1      -7.502   3.883  72.411  1.00  0.00     0.000 HD 
HETATM   22  H2  UNL     1      -7.772   4.563  70.794  1.00  0.00     0.000 HD 
BRANCH  19  23
HETATM   23  N   UNL     1      -7.169   5.981  73.661  1.00  0.00    -0.088 NA 
HETATM   24  C   UNL     1      -6.987   7.213  74.411  1.00  0.00    -0.092 C  
HETATM   25  C   UNL     1      -6.976   4.776  74.474  1.00  0.00    -0.072 C  
ENDBRANCH  19  23
ENDBRANCH  18  19
ENDBRANCH  10  13
ENDBRANCH   6   9
BRANCH   8  26
HETATM   26  C   UNL     1      -9.543  12.885  68.380  1.00  0.00    -0.176 C  
HETATM   27  N   UNL     1      -9.537  11.757  69.196  1.00  0.00    -0.386 N  
HETATM   28  O   UNL     1     -10.562  13.510  68.080  1.00  0.00    -0.229 OA 
HETATM   29  H   UNL     1      -8.643  11.308  69.394  1.00  0.00     0.000 HD 
BRANCH  27  30
HETATM   30  C   UNL     1     -10.705  11.203  69.761  1.00  0.00    -0.010 A  
HETATM   31  C   UNL     1     -11.545  12.030  70.502  1.00  0.00     0.142 A  
HETATM   32  C   UNL     1     -12.970  10.136  70.931  1.00  0.00    -0.351 A  
HETATM   33  N   UNL     1     -10.986   9.896  69.591  1.00  0.00    -0.243 NA 
HETATM   34  C   UNL     1     -12.099   9.388  70.167  1.00  0.00     0.241 A  
HETATM   35 CL   UNL     1     -14.350   9.416  71.655  1.00  0.00    -0.067 Cl 
HETATM   36  C   UNL     1     -12.690  11.485  71.101  1.00  0.00    -0.458 A  
ENDBRANCH  27  30
ENDBRANCH   8  26
ENDBRANCH   2   3
TORSDOF 7
ENDMDL
MODEL      118
REMARK 921   NORMALIZED FREE ENERGY PREDICTED BY IDOCK:    4.53 KCAL/MOL
REMARK 922        TOTAL FREE ENERGY PREDICTED BY IDOCK:    5.65 KCAL/MOL
REMARK 923 INTER-LIGAND FREE ENERGY PREDICTED BY IDOCK:    6.53 KCAL/MOL
REMARK 924 INTRA-LIGAND FREE ENERGY PREDICTED BY IDOCK:   -0.87 KCAL/MOL
REMARK 927      BINDING AFFINITY PREDICTED BY RF-SCORE:    0.00 PKD
ROOT
HETATM    1  C   UNL     1     -11.135  17.496  71.262  1.00  0.00     1.913 C  
HETATM    2  O   UNL     1      -9.832  17.614  70.688  1.00  0.00     2.135 OA 
ENDROOT
BRANCH   2   3
HETATM    3  C   UNL     1      -9.273  16.456  70.215  1.00  0.00     1.603 A  
HETATM    4  C   UNL     1      -8.014  15.988  70.561  1.00  0.00     2.113 A  
HETATM    5  C   UNL     1      -7.530  14.805  70.008  1.00  0.00     0.171 A  
HETATM    6  C   UNL     1      -8.281  14.058  69.095  1.00  0.00     0.226 A  
HETATM    7  C   UNL     1     -10.057  15.721  69.314  1.00  0.00    -0.255 A  
HETATM    8  C   UNL     1      -9.581  14.520  68.735  1.00  0.00    -0.193 A  
BRANCH   6   9
HETATM    9  N   UNL     1      -7.741  12.866  68.519  1.00  0.00    -0.179 N  
HETATM   10  C   UNL     1      -6.664  12.748  67.666  1.00  0.00    -0.147 C  
HETATM   11  H   UNL     1      -8.209  11.996  68.770  1.00  0.00     0.000 HD 
HETATM   12  O   UNL     1      -5.918  13.652  67.301  1.00  0.00    -0.332 OA 
BRANCH  10  13
HETATM   13  C   UNL     1      -6.420  11.397  67.078  1.00  0.00    -0.120 A  
HETATM   14  C   UNL     1      -7.385  10.904  66.191  1.00  0.00    -0.103 A  
HETATM   15  C   UNL     1      -5.287  10.626  67.349  1.00  0.00    -0.040 A  
HETATM   16  C   UNL     1      -7.269   9.619  65.653  1.00  0.00    -0.097 A  
HETATM   17  C   UNL     1      -5.146   9.357  66.759  1.00  0.00    -0.034 A  
HETATM   18  C   UNL     1      -6.158   8.816  65.954  1.00  0.00    -0.052 A  
BRANCH  18  19
HETATM   19  C   UNL     1      -6.108   7.408  65.394  1.00  0.00    -0.038 C  
HETATM   20  N   UNL     1      -5.976   6.416  66.231  1.00  0.00    -0.028 NA 
HETATM   21  H1  UNL     1      -5.942   5.469  65.855  1.00  0.00     0.000 HD 
HETATM   22  H2  UNL     1      -5.909   6.584  67.236  1.00  0.00     0.000 HD 
BRANCH  19  23
HETATM   23  N   UNL     1      -6.149   7.116  64.033  1.00  0.00    -0.040 NA 
HETATM   24  C   UNL     1      -6.173   8.081  62.948  1.00  0.00    -0.080 C  
HETATM   25  C   UNL     1      -6.290   5.729  63.577  1.00  0.00    -0.025 C  
ENDBRANCH  19  23
ENDBRANCH  18  19
ENDBRANCH  10  13
ENDBRANCH   6   9
BRANCH   8  26
HETATM   26  C   UNL     1     -10.412  13.726  67.748  1.00  0.00    -0.240 C  
HETATM   27  N   UNL     1     -10.357  14.046  66.395  1.00  0.00    -0.283 N  
HETATM   28  O   UNL     1     -11.109  12.821  68.213  1.00  0.00    -0.230 OA 
HETATM   29  H   UNL     1      -9.746  14.809  66.102  1.00  0.00     0.000 HD 
BRANCH  27  30
HETATM   30  C   UNL     1     -11.104  13.369  65.407  1.00  0.00    -0.287 A  
HETATM   31  C   UNL     1     -12.492  13.353  65.513  1.00  0.00    -0.534 A  
HETATM   32  C   UNL     1     -12.592  12.003  63.522  1.00  0.00    -0.507 A  
HETATM   33  N   UNL     1     -10.475  12.744  64.393  1.00  0.00    -0.368 NA 
HETATM   34  C   UNL     1     -11.216  12.082  63.476  1.00  0.00    -0.445 A  
HETATM   35 CL   UNL     1     -13.465  11.120  62.337  1.00  0.00     2.852 Cl 
HETATM   36  C   UNL     1     -13.245  12.653  64.560  1.00  0.00     0.173 A  
ENDBRANCH  27  30
ENDBRANCH   8  26
ENDBRANCH   2   3
TORSDOF 7
ENDMDL
MODEL      119
REMARK 921   NORMALIZED FREE ENERGY PREDICTED BY IDOCK:    5.03 KCAL/MOL
REMARK 922        TOTAL FREE ENERGY PREDICTED BY IDOCK:    6.35 KCAL/MOL
REMARK 923 INTER-LIGAND FREE ENERGY PREDICTED BY IDOCK:    6.43 KCAL/MOL
REMARK 924 INTRA-LIGAND FREE ENERGY PREDICTED BY IDOCK:   -0.07 KCAL/MOL
REMARK 927      BINDING AFFINITY PREDICTED BY RF-SCORE:    0.00 PKD
ROOT
HETATM    1  C   UNL     1      -8.511  20.135  71.509  1.00  0.00     2.262 C  
HETATM    2  O   UNL     1      -7.188  19.597  71.528  1.00  0.00     1.174 OA 
ENDROOT
BRANCH   2   3
HETATM    3  C   UNL     1      -7.002  18.423  70.845  1.00  0.00     2.614 A  
HETATM    4  C   UNL     1      -5.850  17.654  70.893  1.00  0.00     0.442 A  
HETATM    5  C   UNL     1      -5.756  16.484  70.144  1.00  0.00    -0.194 A  
HETATM    6  C   UNL     1      -6.804  16.049  69.324  1.00  0.00    -0.201 A  
HETATM    7  C   UNL     1      -8.076  18.006  70.044  1.00  0.00     1.920 A  
HETATM    8  C   UNL     1      -7.999  16.824  69.270  1.00  0.00    -0.024 A  
BRANCH   6   9
HETATM    9  N   UNL     1      -6.662  14.862  68.541  1.00  0.00    -0.088 N  
HETATM   10  C   UNL     1      -7.103  13.590  68.840  1.00  0.00    -0.093 C  
HETATM   11  H   UNL     1      -6.175  14.969  67.651  1.00  0.00     0.000 HD 
HETATM   12  O   UNL     1      -7.773  13.258  69.813  1.00  0.00     0.768 OA 
BRANCH  10  13
HETATM   13  C   UNL     1      -6.669  12.497  67.919  1.00  0.00    -0.103 A  
HETATM   14  C   UNL     1      -7.542  12.156  66.878  1.00  0.00    -0.029 A  
HETATM   15  C   UNL     1      -5.449  11.826  68.030  1.00  0.00    -0.047 A  
HETATM   16  C   UNL     1      -7.245  11.097  66.015  1.00  0.00     0.057 A  
HETATM   17  C   UNL     1      -5.129  10.799  67.124  1.00  0.00    -0.039 A  
HETATM   18  C   UNL     1      -6.044  10.385  66.146  1.00  0.00    -0.096 A  
BRANCH  18  19
HETATM   19  C   UNL     1      -5.795   9.206  65.225  1.00  0.00    -0.055 C  
HETATM   20  N   UNL     1      -5.374   9.447  64.015  1.00  0.00    -0.060 NA 
HETATM   21  H1  UNL     1      -5.207   8.654  63.395  1.00  0.00     0.000 HD 
HETATM   22  H2  UNL     1      -5.215  10.403  63.696  1.00  0.00     0.000 HD 
BRANCH  19  23
HETATM   23  N   UNL     1      -6.035   7.882  65.585  1.00  0.00    -0.038 NA 
HETATM   24  C   UNL     1      -6.883   7.427  66.673  1.00  0.00    -0.062 C  
HETATM   25  C   UNL     1      -5.316   6.791  64.917  1.00  0.00    -0.027 C  
ENDBRANCH  19  23
ENDBRANCH  18  19
ENDBRANCH  10  13
ENDBRANCH   6   9
BRANCH   8  26
HETATM   26  C   UNL     1      -9.145  16.371  68.389  1.00  0.00    -0.214 C  
HETATM   27  N   UNL     1      -9.274  15.021  68.075  1.00  0.00    -0.181 N  
HETATM   28  O   UNL     1      -9.915  17.246  67.988  1.00  0.00    -0.278 OA 
HETATM   29  H   UNL     1      -8.592  14.367  68.458  1.00  0.00     0.000 HD 
BRANCH  27  30
HETATM   30  C   UNL     1     -10.302  14.511  67.253  1.00  0.00    -0.260 A  
HETATM   31  C   UNL     1     -10.172  14.626  65.872  1.00  0.00    -0.344 A  
HETATM   32  C   UNL     1     -12.324  13.575  65.618  1.00  0.00    -0.476 A  
HETATM   33  N   UNL     1     -11.389  13.937  67.806  1.00  0.00    -0.293 NA 
HETATM   34  C   UNL     1     -12.369  13.481  66.993  1.00  0.00    -0.211 A  
HETATM   35 CL   UNL     1     -13.620  12.999  64.652  1.00  0.00     0.959 Cl 
HETATM   36  C   UNL     1     -11.202  14.157  65.044  1.00  0.00    -0.356 A  
ENDBRANCH  27  30
ENDBRANCH   8  26
ENDBRANCH   2   3
TORSDOF 7
ENDMDL
MODEL      120
REMARK 921   NORMALIZED FREE ENERGY PREDICTED BY IDOCK:    6.85 KCAL/MOL
REMARK 922        TOTAL FREE ENERGY PREDICTED BY IDOCK:    8.92 KCAL/MOL
REMARK 923 INTER-LIGAND FREE ENERGY PREDICTED BY IDOCK:    9.53 KCAL/MOL
REMARK 924 INTRA-LIGAND FREE ENERGY PREDICTED BY IDOCK:   -0.61 KCAL/MOL
REMARK 927      BINDING AFFINITY PREDICTED BY RF-SCORE:    0.00 PKD
ROOT
HETATM    1  C   UNL     1      -6.220  17.319  66.042  1.00  0.00     0.031 C  
HETATM    2  O   UNL     1      -7.037  16.268  65.524  1.00  0.00     1.658 OA 
ENDROOT
BRANCH   2   3
HETATM    3  C   UNL     1      -7.037  15.096  66.235  1.00  0.00     2.556 A  
HETATM    4  C   UNL     1      -6.006  14.170  66.233  1.00  0.00     4.958 A  
HETATM    5  C   UNL     1      -6.114  12.998  66.978  1.00  0.00     0.529 A  
HETATM    6  C   UNL     1      -7.250  12.714  67.742  1.00  0.00    -0.127 A  
HETATM    7  C   UNL     1      -8.184  14.847  67.004  1.00  0.00    -0.228 A  
HETATM    8  C   UNL     1      -8.317  13.660  67.763  1.00  0.00    -0.181 A  
BRANCH   6   9
HETATM    9  N   UNL     1      -7.344  11.486  68.467  1.00  0.00    -0.097 N  
HETATM   10  C   UNL     1      -8.055  10.353  68.131  1.00  0.00    -0.111 C  
HETATM   11  H   UNL     1      -6.821  11.442  69.342  1.00  0.00     0.000 HD 
HETATM   12  O   UNL     1      -8.684  10.166  67.094  1.00  0.00    -0.129 OA 
BRANCH  10  13
HETATM   13  C   UNL     1      -8.116   9.271  69.158  1.00  0.00    -0.106 A  
HETATM   14  C   UNL     1      -8.523   9.637  70.447  1.00  0.00    -0.187 A  
HETATM   15  C   UNL     1      -7.812   7.933  68.895  1.00  0.00    -0.117 A  
HETATM   16  C   UNL     1      -8.538   8.700  71.484  1.00  0.00    -0.256 A  
HETATM   17  C   UNL     1      -7.885   6.982  69.929  1.00  0.00    -0.114 A  
HETATM   18  C   UNL     1      -8.191   7.363  71.244  1.00  0.00    -0.105 A  
BRANCH  18  19
HETATM   19  C   UNL     1      -8.164   6.398  72.413  1.00  0.00    -0.106 C  
HETATM   20  N   UNL     1      -7.285   6.595  73.355  1.00  0.00    -0.080 NA 
HETATM   21  H1  UNL     1      -7.266   5.946  74.142  1.00  0.00     0.000 HD 
HETATM   22  H2  UNL     1      -6.632   7.378  73.307  1.00  0.00     0.000 HD 
BRANCH  19  23
HETATM   23  N   UNL     1      -8.996   5.285  72.515  1.00  0.00    -0.130 NA 
HETATM   24  C   UNL     1      -8.572   3.896  72.543  1.00  0.00    -0.098 C  
HETATM   25  C   UNL     1     -10.454   5.445  72.488  1.00  0.00    -0.214 C  
ENDBRANCH  19  23
ENDBRANCH  18  19
ENDBRANCH  10  13
ENDBRANCH   6   9
BRANCH   8  26
HETATM   26  C   UNL     1      -9.557  13.373  68.584  1.00  0.00    -0.060 C  
HETATM   27  N   UNL     1      -9.803  14.116  69.735  1.00  0.00     0.016 N  
HETATM   28  O   UNL     1     -10.294  12.472  68.178  1.00  0.00    -0.218 OA 
HETATM   29  H   UNL     1      -9.139  14.847  69.990  1.00  0.00     0.000 HD 
BRANCH  27  30
HETATM   30  C   UNL     1     -10.924  13.910  70.566  1.00  0.00     0.796 A  
HETATM   31  C   UNL     1     -11.469  15.002  71.237  1.00  0.00    -0.359 A  
HETATM   32  C   UNL     1     -13.085  13.529  72.247  1.00  0.00    -0.389 A  
HETATM   33  N   UNL     1     -11.442  12.675  70.710  1.00  0.00     0.761 NA 
HETATM   34  C   UNL     1     -12.501  12.504  71.534  1.00  0.00    -0.017 A  
HETATM   35 CL   UNL     1     -14.410  13.232  73.296  1.00  0.00     2.066 Cl 
HETATM   36  C   UNL     1     -12.561  14.806  72.094  1.00  0.00    -0.410 A  
ENDBRANCH  27  30
ENDBRANCH   8  26
ENDBRANCH   2   3
TORSDOF 7
ENDMDL
MODEL      121
REMARK 921   NORMALIZED FREE ENERGY PREDICTED BY IDOCK:    7.42 KCAL/MOL
REMARK 922        TOTAL FREE ENERGY PREDICTED BY IDOCK:    9.72 KCAL/MOL
REMARK 923 INTER-LIGAND FREE ENERGY PREDICTED BY IDOCK:    9.32 KCAL/MOL
REMARK 924 INTRA-LIGAND FREE ENERGY PREDICTED BY IDOCK:    0.40 KCAL/MOL
REMARK 927      BINDING AFFINITY PREDICTED BY RF-SCORE:    0.00 PKD
ROOT
HETATM    1  C   UNL     1      -8.147   6.818  66.557  1.00  0.00    -0.108 C  
HETATM    2  O   UNL     1      -8.969   7.804  67.182  1.00  0.00    -0.122 OA 
ENDROOT
BRANCH   2   3
HETATM    3  C   UNL     1      -8.526   9.098  67.104  1.00  0.00    -0.120 A  
HETATM    4  C   UNL     1      -7.212   9.471  66.865  1.00  0.00    -0.087 A  
HETATM    5  C   UNL     1      -6.862  10.819  66.824  1.00  0.00    -0.115 A  
HETATM    6  C   UNL     1      -7.807  11.831  67.021  1.00  0.00    -0.161 A  
HETATM    7  C   UNL     1      -9.499  10.091  67.291  1.00  0.00    -0.179 A  
HETATM    8  C   UNL     1      -9.164  11.465  67.259  1.00  0.00    -0.167 A  
BRANCH   6   9
HETATM    9  N   UNL     1      -7.408  13.203  67.007  1.00  0.00    -0.351 N  
HETATM   10  C   UNL     1      -7.097  14.008  68.083  1.00  0.00    -0.125 C  
HETATM   11  H   UNL     1      -7.345  13.641  66.088  1.00  0.00     0.000 HD 
HETATM   12  O   UNL     1      -7.034  13.665  69.259  1.00  0.00    -0.098 OA 
BRANCH  10  13
HETATM   13  C   UNL     1      -6.877  15.457  67.794  1.00  0.00    -0.188 A  
HETATM   14  C   UNL     1      -7.379  15.949  66.582  1.00  0.00    -0.015 A  
HETATM   15  C   UNL     1      -6.226  16.333  68.666  1.00  0.00    -0.122 A  
HETATM   16  C   UNL     1      -7.153  17.275  66.202  1.00  0.00    -0.284 A  
HETATM   17  C   UNL     1      -6.053  17.681  68.304  1.00  0.00    -0.165 A  
HETATM   18  C   UNL     1      -6.461  18.153  67.048  1.00  0.00    -0.196 A  
BRANCH  18  19
HETATM   19  C   UNL     1      -6.189  19.564  66.565  1.00  0.00    -0.168 C  
HETATM   20  N   UNL     1      -5.176  20.206  67.078  1.00  0.00    -0.157 NA 
HETATM   21  H1  UNL     1      -4.993  21.156  66.753  1.00  0.00     0.000 HD 
HETATM   22  H2  UNL     1      -4.583  19.771  67.785  1.00  0.00     0.000 HD 
BRANCH  19  23
HETATM   23  N   UNL     1      -6.986  20.230  65.638  1.00  0.00    -0.281 NA 
HETATM   24  C   UNL     1      -8.435  20.334  65.669  1.00  0.00     0.278 C  
HETATM   25  C   UNL     1      -6.390  20.814  64.432  1.00  0.00    -0.306 C  
ENDBRANCH  19  23
ENDBRANCH  18  19
ENDBRANCH  10  13
ENDBRANCH   6   9
BRANCH   8  26
HETATM   26  C   UNL     1     -10.204  12.546  67.476  1.00  0.00    -0.217 C  
HETATM   27  N   UNL     1      -9.847  13.881  67.308  1.00  0.00    -0.239 N  
HETATM   28  O   UNL     1     -11.333  12.171  67.800  1.00  0.00    -0.264 OA 
HETATM   29  H   UNL     1      -8.889  14.095  67.033  1.00  0.00     0.000 HD 
BRANCH  27  30
HETATM   30  C   UNL     1     -10.745  14.953  67.500  1.00  0.00    -0.276 A  
HETATM   31  C   UNL     1     -10.901  15.885  66.477  1.00  0.00    -0.198 A  
HETATM   32  C   UNL     1     -12.451  17.096  67.868  1.00  0.00     3.149 A  
HETATM   33  N   UNL     1     -11.423  15.069  68.658  1.00  0.00    -0.295 NA 
HETATM   34  C   UNL     1     -12.257  16.121  68.823  1.00  0.00     0.414 A  
HETATM   35 CL   UNL     1     -13.505  18.419  68.158  1.00  0.00     8.754 Cl 
HETATM   36  C   UNL     1     -11.762  16.975  66.668  1.00  0.00     1.730 A  
ENDBRANCH  27  30
ENDBRANCH   8  26
ENDBRANCH   2   3
TORSDOF 7
ENDMDL
MODEL      122
REMARK 921   NORMALIZED FREE ENERGY PREDICTED BY IDOCK:    7.49 KCAL/MOL
REMARK 922        TOTAL FREE ENERGY PREDICTED BY IDOCK:    9.82 KCAL/MOL
REMARK 923 INTER-LIGAND FREE ENERGY PREDICTED BY IDOCK:    9.42 KCAL/MOL
REMARK 924 INTRA-LIGAND FREE ENERGY PREDICTED BY IDOCK:    0.40 KCAL/MOL
REMARK 927      BINDING AFFINITY PREDICTED BY RF-SCORE:    0.00 PKD
ROOT
HETATM    1  C   UNL     1      -7.353   9.301  74.211  1.00  0.00     0.748 C  
HETATM    2  O   UNL     1      -6.044   9.799  73.931  1.00  0.00    -0.201 OA 
ENDROOT
BRANCH   2   3
HETATM    3  C   UNL     1      -5.980  10.924  73.151  1.00  0.00     2.147 A  
HETATM    4  C   UNL     1      -6.007  12.223  73.634  1.00  0.00     2.449 A  
HETATM    5  C   UNL     1      -5.955  13.301  72.752  1.00  0.00     1.315 A  
HETATM    6  C   UNL     1      -5.878  13.115  71.368  1.00  0.00     0.250 A  
HETATM    7  C   UNL     1      -5.888  10.706  71.768  1.00  0.00     0.534 A  
HETATM    8  C   UNL     1      -5.840  11.785  70.855  1.00  0.00     0.085 A  
BRANCH   6   9
HETATM    9  N   UNL     1      -5.862  14.242  70.489  1.00  0.00    -0.159 N  
HETATM   10  C   UNL     1      -5.748  15.576  70.820  1.00  0.00     0.003 C  
HETATM   11  H   UNL     1      -5.945  14.034  69.494  1.00  0.00     0.000 HD 
HETATM   12  O   UNL     1      -5.562  16.038  71.942  1.00  0.00     0.395 OA 
BRANCH  10  13
HETATM   13  C   UNL     1      -5.932  16.559  69.711  1.00  0.00    -0.208 A  
HETATM   14  C   UNL     1      -6.983  16.322  68.816  1.00  0.00    -0.159 A  
HETATM   15  C   UNL     1      -5.135  17.694  69.539  1.00  0.00    -0.173 A  
HETATM   16  C   UNL     1      -7.179  17.153  67.710  1.00  0.00    -0.169 A  
HETATM   17  C   UNL     1      -5.374  18.560  68.457  1.00  0.00    -0.177 A  
HETATM   18  C   UNL     1      -6.357  18.270  67.500  1.00  0.00    -0.186 A  
BRANCH  18  19
HETATM   19  C   UNL     1      -6.571  19.106  66.253  1.00  0.00    -0.203 C  
HETATM   20  N   UNL     1      -6.999  20.330  66.398  1.00  0.00    -0.251 NA 
HETATM   21  H1  UNL     1      -7.144  20.892  65.559  1.00  0.00     0.000 HD 
HETATM   22  H2  UNL     1      -7.185  20.714  67.324  1.00  0.00     0.000 HD 
BRANCH  19  23
HETATM   23  N   UNL     1      -6.381  18.626  64.960  1.00  0.00    -0.455 NA 
HETATM   24  C   UNL     1      -6.422  17.234  64.545  1.00  0.00     4.709 C  
HETATM   25  C   UNL     1      -5.992  19.540  63.880  1.00  0.00    -0.155 C  
ENDBRANCH  19  23
ENDBRANCH  18  19
ENDBRANCH  10  13
ENDBRANCH   6   9
BRANCH   8  26
HETATM   26  C   UNL     1      -5.757  11.563  69.359  1.00  0.00    -0.060 C  
HETATM   27  N   UNL     1      -6.132  10.331  68.829  1.00  0.00    -0.047 N  
HETATM   28  O   UNL     1      -5.350  12.507  68.680  1.00  0.00    -0.057 OA 
HETATM   29  H   UNL     1      -6.463   9.609  69.469  1.00  0.00     0.000 HD 
BRANCH  27  30
HETATM   30  C   UNL     1      -6.076  10.031  67.451  1.00  0.00    -0.058 A  
HETATM   31  C   UNL     1      -6.402   8.743  67.034  1.00  0.00    -0.060 A  
HETATM   32  C   UNL     1      -5.921   9.394  64.766  1.00  0.00    -0.071 A  
HETATM   33  N   UNL     1      -5.703  10.976  66.567  1.00  0.00    -0.103 NA 
HETATM   34  C   UNL     1      -5.634  10.651  65.256  1.00  0.00    -0.137 A  
HETATM   35 CL   UNL     1      -5.784   9.047  63.091  1.00  0.00    -0.080 Cl 
HETATM   36  C   UNL     1      -6.316   8.420  65.672  1.00  0.00    -0.052 A  
ENDBRANCH  27  30
ENDBRANCH   8  26
ENDBRANCH   2   3
TORSDOF 7
ENDMDL
MODEL      123
REMARK 921   NORMALIZED FREE ENERGY PREDICTED BY IDOCK:    8.73 KCAL/MOL
REMARK 922        TOTAL FREE ENERGY PREDICTED BY IDOCK:   11.57 KCAL/MOL
REMARK 923 INTER-LIGAND FREE ENERGY PREDICTED BY IDOCK:   11.32 KCAL/MOL
REMARK 924 INTRA-LIGAND FREE ENERGY PREDICTED BY IDOCK:    0.25 KCAL/MOL
REMARK 927      BINDING AFFINITY PREDICTED BY RF-SCORE:    0.00 PKD
ROOT
HETATM    1  C   UNL     1      -6.343  19.719  72.186  1.00  0.00     0.436 C  
HETATM    2  O   UNL     1      -5.522  19.312  71.090  1.00  0.00    -0.245 OA 
ENDROOT
BRANCH   2   3
HETATM    3  C   UNL     1      -6.148  18.603  70.098  1.00  0.00    -0.102 A  
HETATM    4  C   UNL     1      -6.011  18.851  68.741  1.00  0.00    -0.226 A  
HETATM    5  C   UNL     1      -6.708  18.081  67.813  1.00  0.00    -0.200 A  
HETATM    6  C   UNL     1      -7.561  17.045  68.209  1.00  0.00    -0.213 A  
HETATM    7  C   UNL     1      -6.984  17.561  70.526  1.00  0.00     2.083 A  
HETATM    8  C   UNL     1      -7.706  16.770  69.601  1.00  0.00     0.453 A  
BRANCH   6   9
HETATM    9  N   UNL     1      -8.288  16.296  67.233  1.00  0.00    -0.171 N  
HETATM   10  C   UNL     1      -9.385  16.697  66.500  1.00  0.00    -0.265 C  
HETATM   11  H   UNL     1      -7.955  15.349  67.057  1.00  0.00     0.000 HD 
HETATM   12  O   UNL     1      -9.896  17.813  66.499  1.00  0.00    -0.300 OA 
BRANCH  10  13
HETATM   13  C   UNL     1     -10.055  15.650  65.671  1.00  0.00    -0.395 A  
HETATM   14  C   UNL     1      -9.892  14.318  66.071  1.00  0.00    -0.336 A  
HETATM   15  C   UNL     1     -10.839  15.932  64.549  1.00  0.00    -0.072 A  
HETATM   16  C   UNL     1     -10.425  13.274  65.311  1.00  0.00    -0.324 A  
HETATM   17  C   UNL     1     -11.423  14.880  63.820  1.00  0.00     0.718 A  
HETATM   18  C   UNL     1     -11.176  13.541  64.157  1.00  0.00    -0.341 A  
BRANCH  18  19
HETATM   19  C   UNL     1     -11.682  12.374  63.333  1.00  0.00    -0.472 C  
HETATM   20  N   UNL     1     -10.819  11.697  62.627  1.00  0.00    -0.199 NA 
HETATM   21  H1  UNL     1     -11.159  10.912  62.072  1.00  0.00     0.000 HD 
HETATM   22  H2  UNL     1      -9.829  11.947  62.629  1.00  0.00     0.000 HD 
BRANCH  19  23
HETATM   23  N   UNL     1     -13.024  12.010  63.251  1.00  0.00    -0.665 NA 
HETATM   24  C   UNL     1     -13.590  10.724  63.619  1.00  0.00     4.873 C  
HETATM   25  C   UNL     1     -14.003  12.920  62.647  1.00  0.00     5.665 C  
ENDBRANCH  19  23
ENDBRANCH  18  19
ENDBRANCH  10  13
ENDBRANCH   6   9
BRANCH   8  26
HETATM   26  C   UNL     1      -8.625  15.653  70.051  1.00  0.00     0.464 C  
HETATM   27  N   UNL     1      -9.474  15.051  69.126  1.00  0.00    -0.272 N  
HETATM   28  O   UNL     1      -8.568  15.335  71.240  1.00  0.00     2.467 OA 
HETATM   29  H   UNL     1      -9.447  15.377  68.160  1.00  0.00     0.000 HD 
BRANCH  27  30
HETATM   30  C   UNL     1     -10.371  14.013  69.458  1.00  0.00     0.251 A  
HETATM   31  C   UNL     1     -11.502  14.322  70.208  1.00  0.00    -0.226 A  
HETATM   32  C   UNL     1     -12.116  11.993  70.175  1.00  0.00    -0.298 A  
HETATM   33  N   UNL     1     -10.121  12.750  69.062  1.00  0.00     0.082 NA 
HETATM   34  C   UNL     1     -10.985  11.772  69.417  1.00  0.00    -0.125 A  
HETATM   35 CL   UNL     1     -13.153  10.698  70.612  1.00  0.00    -0.333 Cl 
HETATM   36  C   UNL     1     -12.383  13.295  70.577  1.00  0.00    -0.389 A  
ENDBRANCH  27  30
ENDBRANCH   8  26
ENDBRANCH   2   3
TORSDOF 7
ENDMDL
MODEL      124
REMARK 921   NORMALIZED FREE ENERGY PREDICTED BY IDOCK:    9.39 KCAL/MOL
REMARK 922        TOTAL FREE ENERGY PREDICTED BY IDOCK:   12.49 KCAL/MOL
REMARK 923 INTER-LIGAND FREE ENERGY PREDICTED BY IDOCK:   12.53 KCAL/MOL
REMARK 924 INTRA-LIGAND FREE ENERGY PREDICTED BY IDOCK:   -0.03 KCAL/MOL
REMARK 927      BINDING AFFINITY PREDICTED BY RF-SCORE:    0.00 PKD
ROOT
HETATM    1  C   UNL     1     -13.117  11.480  71.402  1.00  0.00    -0.258 C  
HETATM    2  O   UNL     1     -13.396  12.871  71.235  1.00  0.00    -0.165 OA 
ENDROOT
BRANCH   2   3
HETATM    3  C   UNL     1     -12.620  13.537  70.322  1.00  0.00    -0.152 A  
HETATM    4  C   UNL     1     -12.574  13.252  68.966  1.00  0.00     0.514 A  
HETATM    5  C   UNL     1     -11.735  13.979  68.125  1.00  0.00    -0.387 A  
HETATM    6  C   UNL     1     -10.918  15.007  68.609  1.00  0.00    -0.257 A  
HETATM    7  C   UNL     1     -11.824  14.572  70.835  1.00  0.00    -0.362 A  
HETATM    8  C   UNL     1     -10.960  15.319  70.000  1.00  0.00    -0.306 A  
BRANCH   6   9
HETATM    9  N   UNL     1     -10.043  15.710  67.725  1.00  0.00    -0.225 N  
HETATM   10  C   UNL     1      -8.734  15.413  67.412  1.00  0.00    -0.179 C  
HETATM   11  H   UNL     1     -10.436  16.534  67.269  1.00  0.00     0.000 HD 
HETATM   12  O   UNL     1      -8.097  14.432  67.784  1.00  0.00    -0.142 OA 
BRANCH  10  13
HETATM   13  C   UNL     1      -7.997  16.417  66.588  1.00  0.00    -0.323 A  
HETATM   14  C   UNL     1      -6.626  16.563  66.835  1.00  0.00    -0.212 A  
HETATM   15  C   UNL     1      -8.593  17.189  65.587  1.00  0.00     0.500 A  
HETATM   16  C   UNL     1      -5.878  17.530  66.159  1.00  0.00    -0.225 A  
HETATM   17  C   UNL     1      -7.823  18.121  64.868  1.00  0.00     3.146 A  
HETATM   18  C   UNL     1      -6.475  18.343  65.184  1.00  0.00    -0.080 A  
BRANCH  18  19
HETATM   19  C   UNL     1      -5.636  19.418  64.521  1.00  0.00    -0.247 C  
HETATM   20  N   UNL     1      -5.187  20.394  65.262  1.00  0.00    -0.162 NA 
HETATM   21  H1  UNL     1      -4.623  21.117  64.817  1.00  0.00     0.000 HD 
HETATM   22  H2  UNL     1      -5.395  20.432  66.260  1.00  0.00     0.000 HD 
BRANCH  19  23
HETATM   23  N   UNL     1      -5.356  19.448  63.157  1.00  0.00    -0.292 NA 
HETATM   24  C   UNL     1      -5.230  20.637  62.332  1.00  0.00    -0.195 C  
HETATM   25  C   UNL     1      -5.272  18.201  62.391  1.00  0.00     0.991 C  
ENDBRANCH  19  23
ENDBRANCH  18  19
ENDBRANCH  10  13
ENDBRANCH   6   9
BRANCH   8  26
HETATM   26  C   UNL     1     -10.084  16.428  70.544  1.00  0.00     0.998 C  
HETATM   27  N   UNL     1      -9.078  16.961  69.743  1.00  0.00     0.629 N  
HETATM   28  O   UNL     1     -10.316  16.802  71.696  1.00  0.00     2.357 OA 
HETATM   29  H   UNL     1      -8.964  16.591  68.800  1.00  0.00     0.000 HD 
BRANCH  27  30
HETATM   30  C   UNL     1      -8.208  17.986  70.171  1.00  0.00     2.474 A  
HETATM   31  C   UNL     1      -6.866  17.678  70.384  1.00  0.00     1.473 A  
HETATM   32  C   UNL     1      -6.490  19.957  71.066  1.00  0.00     0.047 A  
HETATM   33  N   UNL     1      -8.678  19.231  70.378  1.00  0.00     1.634 NA 
HETATM   34  C   UNL     1      -7.826  20.186  70.813  1.00  0.00     1.473 A  
HETATM   35 CL   UNL     1      -5.472  21.213  71.643  1.00  0.00     0.199 Cl 
HETATM   36  C   UNL     1      -5.998  18.678  70.844  1.00  0.00     0.259 A  
ENDBRANCH  27  30
ENDBRANCH   8  26
ENDBRANCH   2   3
TORSDOF 7
ENDMDL
MODEL      125
REMARK 921   NORMALIZED FREE ENERGY PREDICTED BY IDOCK:    9.71 KCAL/MOL
REMARK 922        TOTAL FREE ENERGY PREDICTED BY IDOCK:   12.94 KCAL/MOL
REMARK 923 INTER-LIGAND FREE ENERGY PREDICTED BY IDOCK:   13.00 KCAL/MOL
REMARK 924 INTRA-LIGAND FREE ENERGY PREDICTED BY IDOCK:   -0.06 KCAL/MOL
REMARK 927      BINDING AFFINITY PREDICTED BY RF-SCORE:    0.00 PKD
ROOT
HETATM    1  C   UNL     1     -10.510  21.368  63.320  1.00  0.00     5.625 C  
HETATM    2  O   UNL     1     -11.336  20.912  64.393  1.00  0.00     1.047 OA 
ENDROOT
BRANCH   2   3
HETATM    3  C   UNL     1     -10.843  19.868  65.133  1.00  0.00     0.393 A  
HETATM    4  C   UNL     1     -10.149  20.004  66.326  1.00  0.00    -0.603 A  
HETATM    5  C   UNL     1      -9.673  18.876  66.991  1.00  0.00    -0.349 A  
HETATM    6  C   UNL     1      -9.872  17.586  66.488  1.00  0.00    -0.310 A  
HETATM    7  C   UNL     1     -11.071  18.586  64.611  1.00  0.00     2.895 A  
HETATM    8  C   UNL     1     -10.591  17.429  65.268  1.00  0.00     0.061 A  
BRANCH   6   9
HETATM    9  N   UNL     1      -9.340  16.453  67.178  1.00  0.00    -0.216 N  
HETATM   10  C   UNL     1      -8.330  16.427  68.117  1.00  0.00    -0.186 C  
HETATM   11  H   UNL     1      -9.759  15.552  66.949  1.00  0.00     0.000 HD 
HETATM   12  O   UNL     1      -7.747  17.398  68.591  1.00  0.00    -0.256 OA 
BRANCH  10  13
HETATM   13  C   UNL     1      -7.855  15.080  68.553  1.00  0.00    -0.137 A  
HETATM   14  C   UNL     1      -6.982  14.402  67.693  1.00  0.00    -0.203 A  
HETATM   15  C   UNL     1      -8.215  14.484  69.764  1.00  0.00     0.438 A  
HETATM   16  C   UNL     1      -6.547  13.108  67.991  1.00  0.00    -0.124 A  
HETATM   17  C   UNL     1      -7.729  13.204  70.087  1.00  0.00     2.292 A  
HETATM   18  C   UNL     1      -6.940  12.480  69.182  1.00  0.00    -0.025 A  
BRANCH  18  19
HETATM   19  C   UNL     1      -6.492  11.053  69.433  1.00  0.00    -0.095 C  
HETATM   20  N   UNL     1      -5.218  10.826  69.596  1.00  0.00    -0.038 NA 
HETATM   21  H1  UNL     1      -4.916   9.867  69.764  1.00  0.00     0.000 HD 
HETATM   22  H2  UNL     1      -4.541  11.589  69.557  1.00  0.00     0.000 HD 
BRANCH  19  23
HETATM   23  N   UNL     1      -7.359   9.963  69.452  1.00  0.00    -0.080 NA 
HETATM   24  C   UNL     1      -8.112   9.444  68.323  1.00  0.00    -0.109 C  
HETATM   25  C   UNL     1      -7.677   9.293  70.717  1.00  0.00    -0.139 C  
ENDBRANCH  19  23
ENDBRANCH  18  19
ENDBRANCH  10  13
ENDBRANCH   6   9
BRANCH   8  26
HETATM   26  C   UNL     1     -10.817  16.040  64.705  1.00  0.00    -0.294 C  
HETATM   27  N   UNL     1      -9.969  15.003  65.085  1.00  0.00    -0.350 N  
HETATM   28  O   UNL     1     -11.760  15.906  63.923  1.00  0.00    -0.571 OA 
HETATM   29  H   UNL     1      -9.218  15.208  65.743  1.00  0.00     0.000 HD 
BRANCH  27  30
HETATM   30  C   UNL     1     -10.097  13.683  64.603  1.00  0.00    -0.197 A  
HETATM   31  C   UNL     1     -11.199  12.930  65.000  1.00  0.00    -0.324 A  
HETATM   32  C   UNL     1     -10.346  11.074  63.724  1.00  0.00    -0.364 A  
HETATM   33  N   UNL     1      -9.159  13.167  63.785  1.00  0.00     2.122 NA 
HETATM   34  C   UNL     1      -9.296  11.890  63.360  1.00  0.00     0.066 A  
HETATM   35 CL   UNL     1     -10.438   9.453  63.168  1.00  0.00     3.345 Cl 
HETATM   36  C   UNL     1     -11.320  11.605  64.559  1.00  0.00    -0.310 A  
ENDBRANCH  27  30
ENDBRANCH   8  26
ENDBRANCH   2   3
TORSDOF 7
ENDMDL
MODEL      126
REMARK 921   NORMALIZED FREE ENERGY PREDICTED BY IDOCK:   10.56 KCAL/MOL
REMARK 922        TOTAL FREE ENERGY PREDICTED BY IDOCK:   14.15 KCAL/MOL
REMARK 923 INTER-LIGAND FREE ENERGY PREDICTED BY IDOCK:   11.56 KCAL/MOL
REMARK 924 INTRA-LIGAND FREE ENERGY PREDICTED BY IDOCK:    2.59 KCAL/MOL
REMARK 927      BINDING AFFINITY PREDICTED BY RF-SCORE:    0.00 PKD
ROOT
HETATM    1  C   UNL     1     -10.780  19.681  72.941  1.00  0.00     4.637 C  
HETATM    2  O   UNL     1     -10.828  20.049  71.561  1.00  0.00     3.128 OA 
ENDROOT
BRANCH   2   3
HETATM    3  C   UNL     1     -10.489  19.071  70.663  1.00  0.00     2.086 A  
HETATM    4  C   UNL     1      -9.926  19.303  69.417  1.00  0.00    -0.154 A  
HETATM    5  C   UNL     1      -9.636  18.236  68.569  1.00  0.00    -0.358 A  
HETATM    6  C   UNL     1      -9.900  16.912  68.936  1.00  0.00    -0.267 A  
HETATM    7  C   UNL     1     -10.752  17.753  71.065  1.00  0.00     2.192 A  
HETATM    8  C   UNL     1     -10.470  16.656  70.217  1.00  0.00     0.240 A  
BRANCH   6   9
HETATM    9  N   UNL     1      -9.622  15.843  68.029  1.00  0.00    -0.210 N  
HETATM   10  C   UNL     1     -10.499  15.201  67.179  1.00  0.00    -0.280 C  
HETATM   11  H   UNL     1      -8.657  15.515  68.006  1.00  0.00     0.000 HD 
HETATM   12  O   UNL     1     -11.678  15.487  66.992  1.00  0.00    -0.050 OA 
BRANCH  10  13
HETATM   13  C   UNL     1      -9.977  13.999  66.462  1.00  0.00    -0.289 A  
HETATM   14  C   UNL     1      -9.650  14.156  65.109  1.00  0.00     0.227 A  
HETATM   15  C   UNL     1      -9.784  12.756  67.069  1.00  0.00    -0.224 A  
HETATM   16  C   UNL     1      -9.224  13.065  64.347  1.00  0.00     1.410 A  
HETATM   17  C   UNL     1      -9.299  11.674  66.311  1.00  0.00    -0.228 A  
HETATM   18  C   UNL     1      -9.070  11.800  64.933  1.00  0.00     0.246 A  
BRANCH  18  19
HETATM   19  C   UNL     1      -8.664  10.636  64.052  1.00  0.00    -0.131 C  
HETATM   20  N   UNL     1      -7.431  10.213  64.118  1.00  0.00    -0.184 NA 
HETATM   21  H1  UNL     1      -7.158   9.430  63.524  1.00  0.00     0.000 HD 
HETATM   22  H2  UNL     1      -6.759  10.654  64.745  1.00  0.00     0.000 HD 
BRANCH  19  23
HETATM   23  N   UNL     1      -9.520  10.020  63.142  1.00  0.00    -0.269 NA 
HETATM   24  C   UNL     1     -10.897  10.395  62.870  1.00  0.00     1.664 C  
HETATM   25  C   UNL     1      -9.100   8.807  62.432  1.00  0.00     0.236 C  
ENDBRANCH  19  23
ENDBRANCH  18  19
ENDBRANCH  10  13
ENDBRANCH   6   9
BRANCH   8  26
HETATM   26  C   UNL     1     -10.764  15.229  70.634  1.00  0.00    -0.176 C  
HETATM   27  N   UNL     1     -10.956  14.257  69.656  1.00  0.00    -0.419 N  
HETATM   28  O   UNL     1     -10.821  15.006  71.845  1.00  0.00    -0.007 OA 
HETATM   29  H   UNL     1     -10.884  14.534  68.677  1.00  0.00     0.000 HD 
BRANCH  27  30
HETATM   30  C   UNL     1     -11.245  12.907  69.951  1.00  0.00     0.164 A  
HETATM   31  C   UNL     1     -10.560  11.911  69.260  1.00  0.00    -0.021 A  
HETATM   32  C   UNL     1     -11.831  10.256  70.463  1.00  0.00    -0.329 A  
HETATM   33  N   UNL     1     -12.176  12.601  70.875  1.00  0.00    -0.290 NA 
HETATM   34  C   UNL     1     -12.450  11.299  71.118  1.00  0.00    -0.373 A  
HETATM   35 CL   UNL     1     -12.250   8.627  70.803  1.00  0.00    -0.110 Cl 
HETATM   36  C   UNL     1     -10.863  10.566  69.517  1.00  0.00    -0.298 A  
ENDBRANCH  27  30
ENDBRANCH   8  26
ENDBRANCH   2   3
TORSDOF 7
ENDMDL
MODEL      127
REMARK 921   NORMALIZED FREE ENERGY PREDICTED BY IDOCK:   10.80 KCAL/MOL
REMARK 922        TOTAL FREE ENERGY PREDICTED BY IDOCK:   14.49 KCAL/MOL
REMARK 923 INTER-LIGAND FREE ENERGY PREDICTED BY IDOCK:   15.46 KCAL/MOL
REMARK 924 INTRA-LIGAND FREE ENERGY PREDICTED BY IDOCK:   -0.96 KCAL/MOL
REMARK 927      BINDING AFFINITY PREDICTED BY RF-SCORE:    0.00 PKD
ROOT
HETATM    1  C   UNL     1     -12.498   5.452  67.409  1.00  0.00     8.796 C  
HETATM    2  O   UNL     1     -12.033   6.097  66.223  1.00  0.00     1.461 OA 
ENDROOT
BRANCH   2   3
HETATM    3  C   UNL     1     -11.368   7.282  66.400  1.00  0.00     1.970 A  
HETATM    4  C   UNL     1     -11.228   8.263  65.431  1.00  0.00     6.789 A  
HETATM    5  C   UNL     1     -10.515   9.427  65.709  1.00  0.00     0.391 A  
HETATM    6  C   UNL     1      -9.920   9.645  66.956  1.00  0.00    -0.206 A  
HETATM    7  C   UNL     1     -10.796   7.479  67.666  1.00  0.00    -0.197 A  
HETATM    8  C   UNL     1     -10.062   8.651  67.967  1.00  0.00    -0.241 A  
BRANCH   6   9
HETATM    9  N   UNL     1      -9.165  10.835  67.197  1.00  0.00    -0.147 N  
HETATM   10  C   UNL     1      -9.616  12.041  67.691  1.00  0.00    -0.188 C  
HETATM   11  H   UNL     1      -8.171  10.786  66.977  1.00  0.00     0.000 HD 
HETATM   12  O   UNL     1     -10.750  12.290  68.089  1.00  0.00    -0.201 OA 
BRANCH  10  13
HETATM   13  C   UNL     1      -8.643  13.174  67.682  1.00  0.00    -0.193 A  
HETATM   14  C   UNL     1      -9.138  14.442  68.012  1.00  0.00    -0.188 A  
HETATM   15  C   UNL     1      -7.285  13.030  67.387  1.00  0.00    -0.123 A  
HETATM   16  C   UNL     1      -8.311  15.567  67.958  1.00  0.00    -0.142 A  
HETATM   17  C   UNL     1      -6.444  14.157  67.391  1.00  0.00     0.100 A  
HETATM   18  C   UNL     1      -6.956  15.443  67.618  1.00  0.00    -0.209 A  
BRANCH  18  19
HETATM   19  C   UNL     1      -6.115  16.700  67.514  1.00  0.00    -0.154 C  
HETATM   20  N   UNL     1      -5.294  16.810  66.506  1.00  0.00    -0.355 NA 
HETATM   21  H1  UNL     1      -4.727  17.655  66.437  1.00  0.00     0.000 HD 
HETATM   22  H2  UNL     1      -5.219  16.071  65.807  1.00  0.00     0.000 HD 
BRANCH  19  23
HETATM   23  N   UNL     1      -6.136  17.723  68.458  1.00  0.00    -0.177 NA 
HETATM   24  C   UNL     1      -6.541  19.099  68.225  1.00  0.00    -0.244 C  
HETATM   25  C   UNL     1      -5.613  17.495  69.809  1.00  0.00    -0.227 C  
ENDBRANCH  19  23
ENDBRANCH  18  19
ENDBRANCH  10  13
ENDBRANCH   6   9
BRANCH   8  26
HETATM   26  C   UNL     1      -9.425   8.867  69.324  1.00  0.00    -0.161 C  
HETATM   27  N   UNL     1      -8.048   8.716  69.466  1.00  0.00    -0.108 N  
HETATM   28  O   UNL     1     -10.182   9.169  70.250  1.00  0.00    -0.189 OA 
HETATM   29  H   UNL     1      -7.501   8.470  68.641  1.00  0.00     0.000 HD 
BRANCH  27  30
HETATM   30  C   UNL     1      -7.372   8.887  70.693  1.00  0.00    -0.080 A  
HETATM   31  C   UNL     1      -6.235   9.690  70.723  1.00  0.00    -0.092 A  
HETATM   32  C   UNL     1      -5.991   9.193  73.067  1.00  0.00     0.083 A  
HETATM   33  N   UNL     1      -7.819   8.270  71.804  1.00  0.00    -0.108 NA 
HETATM   34  C   UNL     1      -7.135   8.431  72.959  1.00  0.00    -0.072 A  
HETATM   35 CL   UNL     1      -5.159   9.329  74.562  1.00  0.00    -0.114 Cl 
HETATM   36  C   UNL     1      -5.532   9.839  71.927  1.00  0.00    -0.018 A  
ENDBRANCH  27  30
ENDBRANCH   8  26
ENDBRANCH   2   3
TORSDOF 7
ENDMDL
MODEL      128
REMARK 921   NORMALIZED FREE ENERGY PREDICTED BY IDOCK:   13.27 KCAL/MOL
REMARK 922        TOTAL FREE ENERGY PREDICTED BY IDOCK:   17.97 KCAL/MOL
REMARK 923 INTER-LIGAND FREE ENERGY PREDICTED BY IDOCK:   17.84 KCAL/MOL
REMARK 924 INTRA-LIGAND FREE ENERGY PREDICTED BY IDOCK:    0.14 KCAL/MOL
REMARK 927      BINDING AFFINITY PREDICTED BY RF-SCORE:    0.00 PKD
ROOT
HETATM    1  C   UNL     1     -10.269  19.788  73.140  1.00  0.00     3.761 C  
HETATM    2  O   UNL     1     -10.941  19.334  71.964  1.00  0.00     3.067 OA 
ENDROOT
BRANCH   2   3
HETATM    3  C   UNL     1     -10.970  17.978  71.770  1.00  0.00     2.885 A  
HETATM    4  C   UNL     1     -11.164  17.039  72.772  1.00  0.00     1.358 A  
HETATM    5  C   UNL     1     -11.157  15.679  72.470  1.00  0.00     0.247 A  
HETATM    6  C   UNL     1     -10.953  15.216  71.166  1.00  0.00    -0.136 A  
HETATM    7  C   UNL     1     -10.777  17.545  70.449  1.00  0.00     1.157 A  
HETATM    8  C   UNL     1     -10.760  16.168  70.122  1.00  0.00    -0.289 A  
BRANCH   6   9
HETATM    9  N   UNL     1     -10.916  13.813  70.896  1.00  0.00     0.714 N  
HETATM   10  C   UNL     1      -9.927  13.098  70.255  1.00  0.00     3.369 C  
HETATM   11  H   UNL     1     -11.720  13.275  71.216  1.00  0.00     0.000 HD 
HETATM   12  O   UNL     1      -8.848  13.532  69.862  1.00  0.00     1.718 OA 
BRANCH  10  13
HETATM   13  C   UNL     1     -10.224  11.665  69.954  1.00  0.00     1.059 A  
HETATM   14  C   UNL     1      -9.454  11.050  68.959  1.00  0.00    -0.123 A  
HETATM   15  C   UNL     1     -11.199  10.918  70.620  1.00  0.00     0.058 A  
HETATM   16  C   UNL     1      -9.715   9.734  68.566  1.00  0.00    -0.164 A  
HETATM   17  C   UNL     1     -11.418   9.576  70.261  1.00  0.00    -0.256 A  
HETATM   18  C   UNL     1     -10.723   8.987  69.195  1.00  0.00    -0.176 A  
BRANCH  18  19
HETATM   19  C   UNL     1     -11.009   7.586  68.693  1.00  0.00     0.102 C  
HETATM   20  N   UNL     1     -12.175   7.064  68.953  1.00  0.00     1.045 NA 
HETATM   21  H1  UNL     1     -12.367   6.120  68.615  1.00  0.00     0.000 HD 
HETATM   22  H2  UNL     1     -12.877   7.584  69.480  1.00  0.00     0.000 HD 
BRANCH  19  23
HETATM   23  N   UNL     1     -10.079   6.806  68.009  1.00  0.00    -0.151 NA 
HETATM   24  C   UNL     1     -10.311   6.081  66.771  1.00  0.00    -0.238 C  
HETATM   25  C   UNL     1      -8.753   6.559  68.584  1.00  0.00    -0.123 C  
ENDBRANCH  19  23
ENDBRANCH  18  19
ENDBRANCH  10  13
ENDBRANCH   6   9
BRANCH   8  26
HETATM   26  C   UNL     1     -10.537  15.688  68.703  1.00  0.00    -0.243 C  
HETATM   27  N   UNL     1     -11.444  14.801  68.131  1.00  0.00    -0.309 N  
HETATM   28  O   UNL     1      -9.538  16.119  68.122  1.00  0.00    -0.213 OA 
HETATM   29  H   UNL     1     -12.246  14.503  68.686  1.00  0.00     0.000 HD 
BRANCH  27  30
HETATM   30  C   UNL     1     -11.310  14.292  66.821  1.00  0.00    -0.348 A  
HETATM   31  C   UNL     1     -11.613  15.125  65.747  1.00  0.00    -0.097 A  
HETATM   32  C   UNL     1     -11.115  13.309  64.246  1.00  0.00    -0.388 A  
HETATM   33  N   UNL     1     -10.908  13.022  66.626  1.00  0.00    -0.273 NA 
HETATM   34  C   UNL     1     -10.814  12.554  65.360  1.00  0.00    -0.282 A  
HETATM   35 CL   UNL     1     -10.999  12.639  62.669  1.00  0.00     1.377 Cl 
HETATM   36  C   UNL     1     -11.520  14.622  64.441  1.00  0.00    -0.272 A  
ENDBRANCH  27  30
ENDBRANCH   8  26
ENDBRANCH   2   3
TORSDOF 7
ENDMDL
MODEL      129
REMARK 921   NORMALIZED FREE ENERGY PREDICTED BY IDOCK:   14.52 KCAL/MOL
REMARK 922        TOTAL FREE ENERGY PREDICTED BY IDOCK:   19.73 KCAL/MOL
REMARK 923 INTER-LIGAND FREE ENERGY PREDICTED BY IDOCK:   17.45 KCAL/MOL
REMARK 924 INTRA-LIGAND FREE ENERGY PREDICTED BY IDOCK:    2.29 KCAL/MOL
REMARK 927      BINDING AFFINITY PREDICTED BY RF-SCORE:    0.00 PKD
ROOT
HETATM    1  C   UNL     1     -11.595  15.090  63.535  1.00  0.00     1.344 C  
HETATM    2  O   UNL     1     -11.045  13.891  62.987  1.00  0.00     1.439 OA 
ENDROOT
BRANCH   2   3
HETATM    3  C   UNL     1     -10.990  12.812  63.830  1.00  0.00    -0.402 A  
HETATM    4  C   UNL     1     -10.808  11.499  63.422  1.00  0.00    -0.423 A  
HETATM    5  C   UNL     1     -10.785  10.470  64.361  1.00  0.00     0.249 A  
HETATM    6  C   UNL     1     -10.946  10.718  65.729  1.00  0.00     0.091 A  
HETATM    7  C   UNL     1     -11.139  13.094  65.196  1.00  0.00    -0.308 A  
HETATM    8  C   UNL     1     -11.126  12.064  66.165  1.00  0.00    -0.367 A  
BRANCH   6   9
HETATM    9  N   UNL     1     -10.953   9.636  66.662  1.00  0.00     0.087 N  
HETATM   10  C   UNL     1     -11.704   9.512  67.812  1.00  0.00     1.814 C  
HETATM   11  H   UNL     1     -10.325   8.861  66.453  1.00  0.00     0.000 HD 
HETATM   12  O   UNL     1     -12.571  10.286  68.207  1.00  0.00     1.264 OA 
BRANCH  10  13
HETATM   13  C   UNL     1     -11.388   8.351  68.696  1.00  0.00     0.728 A  
HETATM   14  C   UNL     1     -10.285   8.482  69.551  1.00  0.00    -0.206 A  
HETATM   15  C   UNL     1     -12.136   7.171  68.728  1.00  0.00     1.847 A  
HETATM   16  C   UNL     1      -9.878   7.416  70.358  1.00  0.00    -0.183 A  
HETATM   17  C   UNL     1     -11.756   6.123  69.586  1.00  0.00     0.084 A  
HETATM   18  C   UNL     1     -10.594   6.210  70.365  1.00  0.00    -0.317 A  
BRANCH  18  19
HETATM   19  C   UNL     1     -10.077   5.063  71.212  1.00  0.00    -0.206 C  
HETATM   20  N   UNL     1      -8.791   4.974  71.409  1.00  0.00    -0.133 NA 
HETATM   21  H1  UNL     1      -8.443   4.202  71.979  1.00  0.00     0.000 HD 
HETATM   22  H2  UNL     1      -8.150   5.657  71.005  1.00  0.00     0.000 HD 
BRANCH  19  23
HETATM   23  N   UNL     1     -10.894   4.074  71.753  1.00  0.00     0.420 NA 
HETATM   24  C   UNL     1     -10.897   3.623  73.134  1.00  0.00    -0.154 C  
HETATM   25  C   UNL     1     -11.787   3.295  70.888  1.00  0.00     8.655 C  
ENDBRANCH  19  23
ENDBRANCH  18  19
ENDBRANCH  10  13
ENDBRANCH   6   9
BRANCH   8  26
HETATM   26  C   UNL     1     -11.302  12.354  67.642  1.00  0.00    -0.312 C  
HETATM   27  N   UNL     1     -12.513  12.866  68.098  1.00  0.00     0.305 N  
HETATM   28  O   UNL     1     -10.337  12.117  68.372  1.00  0.00    -0.219 OA 
HETATM   29  H   UNL     1     -13.258  13.025  67.420  1.00  0.00     0.000 HD 
BRANCH  27  30
HETATM   30  C   UNL     1     -12.763  13.177  69.452  1.00  0.00     0.635 A  
HETATM   31  C   UNL     1     -13.464  14.342  69.752  1.00  0.00     1.495 A  
HETATM   32  C   UNL     1     -13.216  13.845  72.095  1.00  0.00    -0.444 A  
HETATM   33  N   UNL     1     -12.316  12.362  70.427  1.00  0.00    -0.274 NA 
HETATM   34  C   UNL     1     -12.548  12.700  71.716  1.00  0.00    -0.016 A  
HETATM   35 CL   UNL     1     -13.449  14.223  73.753  1.00  0.00     1.330 Cl 
HETATM   36  C   UNL     1     -13.687  14.683  71.093  1.00  0.00    -0.374 A  
ENDBRANCH  27  30
ENDBRANCH   8  26
ENDBRANCH   2   3
TORSDOF 7
ENDMDL
MODEL      130
REMARK 921   NORMALIZED FREE ENERGY PREDICTED BY IDOCK:   18.31 KCAL/MOL
REMARK 922        TOTAL FREE ENERGY PREDICTED BY IDOCK:   25.06 KCAL/MOL
REMARK 923 INTER-LIGAND FREE ENERGY PREDICTED BY IDOCK:   25.85 KCAL/MOL
REMARK 924 INTRA-LIGAND FREE ENERGY PREDICTED BY IDOCK:   -0.78 KCAL/MOL
REMARK 927      BINDING AFFINITY PREDICTED BY RF-SCORE:    0.00 PKD
ROOT
HETATM    1  C   UNL     1     -12.370   3.123  66.046  1.00  0.00    13.673 C  
HETATM    2  O   UNL     1     -10.998   3.497  66.185  1.00  0.00     1.910 OA 
ENDROOT
BRANCH   2   3
HETATM    3  C   UNL     1     -10.759   4.699  66.799  1.00  0.00     0.345 A  
HETATM    4  C   UNL     1     -11.392   5.137  67.952  1.00  0.00     1.982 A  
HETATM    5  C   UNL     1     -11.089   6.388  68.486  1.00  0.00    -0.385 A  
HETATM    6  C   UNL     1     -10.151   7.235  67.888  1.00  0.00    -0.177 A  
HETATM    7  C   UNL     1      -9.802   5.520  66.185  1.00  0.00    -0.137 A  
HETATM    8  C   UNL     1      -9.484   6.796  66.707  1.00  0.00    -0.199 A  
BRANCH   6   9
HETATM    9  N   UNL     1      -9.889   8.527  68.441  1.00  0.00    -0.167 N  
HETATM   10  C   UNL     1     -10.704   9.639  68.427  1.00  0.00    -0.209 C  
HETATM   11  H   UNL     1      -8.987   8.639  68.905  1.00  0.00     0.000 HD 
HETATM   12  O   UNL     1     -11.851   9.699  67.994  1.00  0.00     0.605 OA 
BRANCH  10  13
HETATM   13  C   UNL     1     -10.109  10.912  68.931  1.00  0.00    -0.211 A  
HETATM   14  C   UNL     1     -10.963  11.790  69.611  1.00  0.00    -0.056 A  
HETATM   15  C   UNL     1      -8.763  11.255  68.780  1.00  0.00    -0.105 A  
HETATM   16  C   UNL     1     -10.504  13.034  70.052  1.00  0.00     1.495 A  
HETATM   17  C   UNL     1      -8.292  12.483  69.277  1.00  0.00     0.804 A  
HETATM   18  C   UNL     1      -9.166  13.409  69.865  1.00  0.00     2.474 A  
BRANCH  18  19
HETATM   19  C   UNL     1      -8.731  14.793  70.307  1.00  0.00     1.133 C  
HETATM   20  N   UNL     1      -9.503  15.449  71.127  1.00  0.00     1.256 NA 
HETATM   21  H1  UNL     1      -9.211  16.381  71.424  1.00  0.00     0.000 HD 
HETATM   22  H2  UNL     1     -10.377  15.043  71.463  1.00  0.00     0.000 HD 
BRANCH  19  23
HETATM   23  N   UNL     1      -7.575  15.422  69.849  1.00  0.00    -0.094 NA 
HETATM   24  C   UNL     1      -7.271  15.764  68.471  1.00  0.00    -0.122 C  
HETATM   25  C   UNL     1      -6.468  15.698  70.771  1.00  0.00     0.590 C  
ENDBRANCH  19  23
ENDBRANCH  18  19
ENDBRANCH  10  13
ENDBRANCH   6   9
BRANCH   8  26
HETATM   26  C   UNL     1      -8.464   7.699  66.043  1.00  0.00    -0.144 C  
HETATM   27  N   UNL     1      -8.900   8.729  65.214  1.00  0.00    -0.294 N  
HETATM   28  O   UNL     1      -7.278   7.461  66.278  1.00  0.00    -0.074 OA 
HETATM   29  H   UNL     1      -9.904   8.853  65.083  1.00  0.00     0.000 HD 
BRANCH  27  30
HETATM   30  C   UNL     1      -8.023   9.610  64.546  1.00  0.00    -0.140 A  
HETATM   31  C   UNL     1      -8.379  10.077  63.284  1.00  0.00    -0.168 A  
HETATM   32  C   UNL     1      -6.300  11.289  63.187  1.00  0.00     0.983 A  
HETATM   33  N   UNL     1      -6.862   9.975  65.123  1.00  0.00    -0.124 NA 
HETATM   34  C   UNL     1      -6.030  10.800  64.447  1.00  0.00     0.147 A  
HETATM   35 CL   UNL     1      -5.183  12.311  62.378  1.00  0.00     1.217 Cl 
HETATM   36  C   UNL     1      -7.500  10.923  62.593  1.00  0.00     0.036 A  
ENDBRANCH  27  30
ENDBRANCH   8  26
ENDBRANCH   2   3
TORSDOF 7
ENDMDL
MODEL      131
REMARK 921   NORMALIZED FREE ENERGY PREDICTED BY IDOCK:   20.33 KCAL/MOL
REMARK 922        TOTAL FREE ENERGY PREDICTED BY IDOCK:   27.92 KCAL/MOL
REMARK 923 INTER-LIGAND FREE ENERGY PREDICTED BY IDOCK:   22.92 KCAL/MOL
REMARK 924 INTRA-LIGAND FREE ENERGY PREDICTED BY IDOCK:    5.00 KCAL/MOL
REMARK 927      BINDING AFFINITY PREDICTED BY RF-SCORE:    0.00 PKD
ROOT
HETATM    1  C   UNL     1     -12.641  21.005  64.429  1.00  0.00     7.847 C  
HETATM    2  O   UNL     1     -12.540  20.364  65.701  1.00  0.00     3.792 OA 
ENDROOT
BRANCH   2   3
HETATM    3  C   UNL     1     -11.801  19.210  65.740  1.00  0.00     3.222 A  
HETATM    4  C   UNL     1     -10.934  18.793  64.742  1.00  0.00     2.313 A  
HETATM    5  C   UNL     1     -10.242  17.591  64.871  1.00  0.00     1.488 A  
HETATM    6  C   UNL     1     -10.395  16.771  65.994  1.00  0.00    -0.335 A  
HETATM    7  C   UNL     1     -11.964  18.417  66.885  1.00  0.00     3.026 A  
HETATM    8  C   UNL     1     -11.276  17.189  67.034  1.00  0.00     0.414 A  
BRANCH   6   9
HETATM    9  N   UNL     1      -9.697  15.527  66.079  1.00  0.00    -0.318 N  
HETATM   10  C   UNL     1     -10.186  14.306  66.492  1.00  0.00    -0.276 C  
HETATM   11  H   UNL     1      -8.716  15.545  65.801  1.00  0.00     0.000 HD 
HETATM   12  O   UNL     1     -11.347  14.046  66.793  1.00  0.00    -0.312 OA 
BRANCH  10  13
HETATM   13  C   UNL     1      -9.190  13.203  66.647  1.00  0.00    -0.220 A  
HETATM   14  C   UNL     1      -9.062  12.305  65.579  1.00  0.00     0.269 A  
HETATM   15  C   UNL     1      -8.381  13.039  67.774  1.00  0.00    -0.175 A  
HETATM   16  C   UNL     1      -8.206  11.204  65.672  1.00  0.00     0.047 A  
HETATM   17  C   UNL     1      -7.479  11.962  67.838  1.00  0.00    -0.114 A  
HETATM   18  C   UNL     1      -7.422  11.003  66.818  1.00  0.00    -0.139 A  
BRANCH  18  19
HETATM   19  C   UNL     1      -6.555   9.762  66.896  1.00  0.00    -0.067 C  
HETATM   20  N   UNL     1      -5.583   9.742  67.766  1.00  0.00    -0.040 NA 
HETATM   21  H1  UNL     1      -5.000   8.907  67.818  1.00  0.00     0.000 HD 
HETATM   22  H2  UNL     1      -5.412  10.540  68.378  1.00  0.00     0.000 HD 
BRANCH  19  23
HETATM   23  N   UNL     1      -6.708   8.659  66.059  1.00  0.00    -0.061 NA 
HETATM   24  C   UNL     1      -7.940   7.926  65.821  1.00  0.00    -0.109 C  
HETATM   25  C   UNL     1      -5.541   8.057  65.406  1.00  0.00    -0.036 C  
ENDBRANCH  19  23
ENDBRANCH  18  19
ENDBRANCH  10  13
ENDBRANCH   6   9
BRANCH   8  26
HETATM   26  C   UNL     1     -11.457  16.316  68.258  1.00  0.00    -0.207 C  
HETATM   27  N   UNL     1     -11.706  16.911  69.492  1.00  0.00     0.166 N  
HETATM   28  O   UNL     1     -11.367  15.098  68.088  1.00  0.00    -0.308 OA 
HETATM   29  H   UNL     1     -11.769  17.927  69.535  1.00  0.00     0.000 HD 
BRANCH  27  30
HETATM   30  C   UNL     1     -11.876  16.177  70.686  1.00  0.00    -0.214 A  
HETATM   31  C   UNL     1     -13.152  16.079  71.234  1.00  0.00     0.173 A  
HETATM   32  C   UNL     1     -12.232  14.798  73.054  1.00  0.00    -0.242 A  
HETATM   33  N   UNL     1     -10.815  15.597  71.280  1.00  0.00    -0.133 NA 
HETATM   34  C   UNL     1     -11.005  14.923  72.437  1.00  0.00     0.905 A  
HETATM   35 CL   UNL     1     -12.392  13.949  74.537  1.00  0.00     3.121 Cl 
HETATM   36  C   UNL     1     -13.329  15.385  72.439  1.00  0.00    -0.557 A  
ENDBRANCH  27  30
ENDBRANCH   8  26
ENDBRANCH   2   3
TORSDOF 7
ENDMDL
MODEL      132
REMARK 921   NORMALIZED FREE ENERGY PREDICTED BY IDOCK:   31.57 KCAL/MOL
REMARK 922        TOTAL FREE ENERGY PREDICTED BY IDOCK:   43.75 KCAL/MOL
REMARK 923 INTER-LIGAND FREE ENERGY PREDICTED BY IDOCK:   38.88 KCAL/MOL
REMARK 924 INTRA-LIGAND FREE ENERGY PREDICTED BY IDOCK:    4.88 KCAL/MOL
REMARK 927      BINDING AFFINITY PREDICTED BY RF-SCORE:    0.00 PKD
ROOT
HETATM    1  C   UNL     1     -10.936  16.844  70.670  1.00  0.00     0.478 C  
HETATM    2  O   UNL     1     -10.617  16.080  71.834  1.00  0.00     0.900 OA 
ENDROOT
BRANCH   2   3
HETATM    3  C   UNL     1     -10.452  14.733  71.647  1.00  0.00     1.709 A  
HETATM    4  C   UNL     1     -10.787  13.758  72.574  1.00  0.00     5.421 A  
HETATM    5  C   UNL     1     -10.561  12.413  72.291  1.00  0.00    12.226 A  
HETATM    6  C   UNL     1      -9.993  12.001  71.081  1.00  0.00     8.530 A  
HETATM    7  C   UNL     1      -9.895  14.350  70.417  1.00  0.00     1.443 A  
HETATM    8  C   UNL     1      -9.651  12.990  70.112  1.00  0.00     3.575 A  
BRANCH   6   9
HETATM    9  N   UNL     1      -9.742  10.616  70.836  1.00  0.00     1.442 N  
HETATM   10  C   UNL     1      -9.679   9.966  69.622  1.00  0.00    -0.229 C  
HETATM   11  H   UNL     1      -9.591  10.036  71.662  1.00  0.00     0.000 HD 
HETATM   12  O   UNL     1      -9.754  10.483  68.511  1.00  0.00    -0.153 OA 
BRANCH  10  13
HETATM   13  C   UNL     1      -9.571   8.477  69.664  1.00  0.00    -0.170 A  
HETATM   14  C   UNL     1     -10.740   7.761  69.952  1.00  0.00    -0.245 A  
HETATM   15  C   UNL     1      -8.389   7.776  69.413  1.00  0.00    -0.133 A  
HETATM   16  C   UNL     1     -10.711   6.369  70.081  1.00  0.00    -0.328 A  
HETATM   17  C   UNL     1      -8.377   6.372  69.487  1.00  0.00    -0.126 A  
HETATM   18  C   UNL     1      -9.519   5.658  69.877  1.00  0.00    -0.197 A  
BRANCH  18  19
HETATM   19  C   UNL     1      -9.525   4.156  70.088  1.00  0.00    -0.184 C  
HETATM   20  N   UNL     1     -10.675   3.557  70.226  1.00  0.00     2.039 NA 
HETATM   21  H1  UNL     1     -10.679   2.547  70.368  1.00  0.00     0.000 HD 
HETATM   22  H2  UNL     1     -11.548   4.085  70.192  1.00  0.00     0.000 HD 
BRANCH  19  23
HETATM   23  N   UNL     1      -8.368   3.386  70.190  1.00  0.00    -0.051 NA 
HETATM   24  C   UNL     1      -7.009   3.844  69.959  1.00  0.00    -0.041 C  
HETATM   25  C   UNL     1      -8.458   1.944  70.444  1.00  0.00    -0.042 C  
ENDBRANCH  19  23
ENDBRANCH  18  19
ENDBRANCH  10  13
ENDBRANCH   6   9
BRANCH   8  26
HETATM   26  C   UNL     1      -9.035  12.565  68.795  1.00  0.00     0.167 C  
HETATM   27  N   UNL     1      -7.801  11.921  68.793  1.00  0.00    -0.276 N  
HETATM   28  O   UNL     1      -9.677  12.823  67.775  1.00  0.00    -0.195 OA 
HETATM   29  H   UNL     1      -7.346  11.744  69.688  1.00  0.00     0.000 HD 
BRANCH  27  30
HETATM   30  C   UNL     1      -7.148  11.501  67.615  1.00  0.00    -0.098 A  
HETATM   31  C   UNL     1      -7.048  12.394  66.551  1.00  0.00     0.679 A  
HETATM   32  C   UNL     1      -5.926  10.689  65.272  1.00  0.00    -0.090 A  
HETATM   33  N   UNL     1      -6.645  10.254  67.527  1.00  0.00    -0.066 NA 
HETATM   34  C   UNL     1      -6.047   9.872  66.376  1.00  0.00    -0.065 A  
HETATM   35 CL   UNL     1      -5.179  10.126  63.834  1.00  0.00    -0.097 Cl 
HETATM   36  C   UNL     1      -6.434  11.978  65.361  1.00  0.00     3.056 A  
ENDBRANCH  27  30
ENDBRANCH   8  26
ENDBRANCH   2   3
TORSDOF 7
ENDMDL
MODEL      133
REMARK 921   NORMALIZED FREE ENERGY PREDICTED BY IDOCK:   32.02 KCAL/MOL
REMARK 922        TOTAL FREE ENERGY PREDICTED BY IDOCK:   44.39 KCAL/MOL
REMARK 923 INTER-LIGAND FREE ENERGY PREDICTED BY IDOCK:   39.62 KCAL/MOL
REMARK 924 INTRA-LIGAND FREE ENERGY PREDICTED BY IDOCK:    4.77 KCAL/MOL
REMARK 927      BINDING AFFINITY PREDICTED BY RF-SCORE:    0.00 PKD
ROOT
HETATM    1  C   UNL     1     -10.263  20.062  73.197  1.00  0.00     4.228 C  
HETATM    2  O   UNL     1     -10.550  19.697  71.847  1.00  0.00     2.574 OA 
ENDROOT
BRANCH   2   3
HETATM    3  C   UNL     1     -10.672  18.355  71.596  1.00  0.00     3.251 A  
HETATM    4  C   UNL     1     -11.489  17.489  72.307  1.00  0.00     1.759 A  
HETATM    5  C   UNL     1     -11.525  16.135  71.982  1.00  0.00    -0.334 A  
HETATM    6  C   UNL     1     -10.749  15.605  70.946  1.00  0.00    -0.058 A  
HETATM    7  C   UNL     1      -9.893  17.857  70.541  1.00  0.00     2.518 A  
HETATM    8  C   UNL     1      -9.910  16.484  70.199  1.00  0.00     0.746 A  
BRANCH   6   9
HETATM    9  N   UNL     1     -10.783  14.205  70.662  1.00  0.00     0.210 N  
HETATM   10  C   UNL     1      -9.721  13.329  70.577  1.00  0.00     4.926 C  
HETATM   11  H   UNL     1     -11.707  13.803  70.502  1.00  0.00     0.000 HD 
HETATM   12  O   UNL     1      -8.543  13.584  70.809  1.00  0.00     4.612 OA 
BRANCH  10  13
HETATM   13  C   UNL     1     -10.027  11.949  70.096  1.00  0.00     2.501 A  
HETATM   14  C   UNL     1      -9.003  11.265  69.429  1.00  0.00     0.412 A  
HETATM   15  C   UNL     1     -11.254  11.312  70.293  1.00  0.00    -0.049 A  
HETATM   16  C   UNL     1      -9.229   9.998  68.884  1.00  0.00    -0.169 A  
HETATM   17  C   UNL     1     -11.458  10.013  69.793  1.00  0.00    -0.240 A  
HETATM   18  C   UNL     1     -10.472   9.366  69.035  1.00  0.00    -0.233 A  
BRANCH  18  19
HETATM   19  C   UNL     1     -10.687   8.019  68.373  1.00  0.00    -0.016 C  
HETATM   20  N   UNL     1     -11.912   7.617  68.178  1.00  0.00     1.636 NA 
HETATM   21  H1  UNL     1     -12.057   6.710  67.733  1.00  0.00     0.000 HD 
HETATM   22  H2  UNL     1     -12.705   8.194  68.461  1.00  0.00     0.000 HD 
BRANCH  19  23
HETATM   23  N   UNL     1      -9.650   7.165  68.004  1.00  0.00    -0.133 NA 
HETATM   24  C   UNL     1      -8.678   6.559  68.898  1.00  0.00    -0.127 C  
HETATM   25  C   UNL     1      -9.385   6.891  66.588  1.00  0.00    -0.163 C  
ENDBRANCH  19  23
ENDBRANCH  18  19
ENDBRANCH  10  13
ENDBRANCH   6   9
BRANCH   8  26
HETATM   26  C   UNL     1      -9.061  15.931  69.073  1.00  0.00    -0.240 C  
HETATM   27  N   UNL     1      -9.072  14.562  68.817  1.00  0.00    -0.261 N  
HETATM   28  O   UNL     1      -8.391  16.744  68.434  1.00  0.00    -0.204 OA 
HETATM   29  H   UNL     1      -9.664  13.966  69.395  1.00  0.00     0.000 HD 
BRANCH  27  30
HETATM   30  C   UNL     1      -8.306  13.959  67.797  1.00  0.00    -0.174 A  
HETATM   31  C   UNL     1      -8.696  14.137  66.473  1.00  0.00     0.019 A  
HETATM   32  C   UNL     1      -6.859  12.741  65.781  1.00  0.00     4.420 A  
HETATM   33  N   UNL     1      -7.226  13.217  68.111  1.00  0.00    -0.103 NA 
HETATM   34  C   UNL     1      -6.526  12.629  67.114  1.00  0.00     0.004 A  
HETATM   35 CL   UNL     1      -5.940  11.944  64.571  1.00  0.00     3.427 Cl 
HETATM   36  C   UNL     1      -7.965  13.513  65.452  1.00  0.00     4.879 A  
ENDBRANCH  27  30
ENDBRANCH   8  26
ENDBRANCH   2   3
TORSDOF 7
ENDMDL
MODEL      134
REMARK 921   NORMALIZED FREE ENERGY PREDICTED BY IDOCK:   34.53 KCAL/MOL
REMARK 922        TOTAL FREE ENERGY PREDICTED BY IDOCK:   47.93 KCAL/MOL
REMARK 923 INTER-LIGAND FREE ENERGY PREDICTED BY IDOCK:   46.37 KCAL/MOL
REMARK 924 INTRA-LIGAND FREE ENERGY PREDICTED BY IDOCK:    1.56 KCAL/MOL
REMARK 927      BINDING AFFINITY PREDICTED BY RF-SCORE:    0.00 PKD
ROOT
HETATM    1  C   UNL     1      -6.465  17.862  64.922  1.00  0.00     1.039 C  
HETATM    2  O   UNL     1      -6.343  16.512  64.474  1.00  0.00     5.850 OA 
ENDROOT
BRANCH   2   3
HETATM    3  C   UNL     1      -7.023  15.569  65.202  1.00  0.00     9.606 A  
HETATM    4  C   UNL     1      -7.710  15.824  66.379  1.00  0.00     0.179 A  
HETATM    5  C   UNL     1      -8.353  14.789  67.053  1.00  0.00    -0.228 A  
HETATM    6  C   UNL     1      -8.328  13.474  66.578  1.00  0.00     0.456 A  
HETATM    7  C   UNL     1      -6.992  14.263  64.692  1.00  0.00    18.163 A  
HETATM    8  C   UNL     1      -7.633  13.196  65.364  1.00  0.00     5.617 A  
BRANCH   6   9
HETATM    9  N   UNL     1      -8.969  12.428  67.312  1.00  0.00    -0.182 N  
HETATM   10  C   UNL     1     -10.319  12.164  67.411  1.00  0.00    -0.205 C  
HETATM   11  H   UNL     1      -8.353  11.800  67.826  1.00  0.00     0.000 HD 
HETATM   12  O   UNL     1     -11.223  12.744  66.816  1.00  0.00    -0.271 OA 
BRANCH  10  13
HETATM   13  C   UNL     1     -10.726  11.110  68.386  1.00  0.00    -0.234 A  
HETATM   14  C   UNL     1     -11.638  11.480  69.383  1.00  0.00    -0.388 A  
HETATM   15  C   UNL     1     -10.267   9.791  68.342  1.00  0.00    -0.210 A  
HETATM   16  C   UNL     1     -12.015  10.574  70.378  1.00  0.00    -0.425 A  
HETATM   17  C   UNL     1     -10.695   8.866  69.312  1.00  0.00    -0.177 A  
HETATM   18  C   UNL     1     -11.525   9.260  70.371  1.00  0.00    -0.255 A  
BRANCH  18  19
HETATM   19  C   UNL     1     -11.915   8.333  71.505  1.00  0.00    -0.296 C  
HETATM   20  N   UNL     1     -11.800   7.047  71.318  1.00  0.00    -0.311 NA 
HETATM   21  H1  UNL     1     -12.063   6.423  72.081  1.00  0.00     0.000 HD 
HETATM   22  H2  UNL     1     -11.456   6.675  70.432  1.00  0.00     0.000 HD 
BRANCH  19  23
HETATM   23  N   UNL     1     -12.433   8.775  72.720  1.00  0.00    -0.240 NA 
HETATM   24  C   UNL     1     -12.545   7.995  73.941  1.00  0.00     4.921 C  
HETATM   25  C   UNL     1     -13.041  10.106  72.826  1.00  0.00     0.778 C  
ENDBRANCH  19  23
ENDBRANCH  18  19
ENDBRANCH  10  13
ENDBRANCH   6   9
BRANCH   8  26
HETATM   26  C   UNL     1      -7.594  11.778  64.832  1.00  0.00     2.234 C  
HETATM   27  N   UNL     1      -8.239  10.765  65.536  1.00  0.00    -0.267 N  
HETATM   28  O   UNL     1      -6.975  11.598  63.781  1.00  0.00     1.998 OA 
HETATM   29  H   UNL     1      -8.731  11.010  66.394  1.00  0.00     0.000 HD 
BRANCH  27  30
HETATM   30  C   UNL     1      -8.244   9.416  65.122  1.00  0.00    -0.135 A  
HETATM   31  C   UNL     1      -8.554   8.431  66.056  1.00  0.00    -0.164 A  
HETATM   32  C   UNL     1      -8.206   6.760  64.357  1.00  0.00     0.015 A  
HETATM   33  N   UNL     1      -7.943   9.097  63.848  1.00  0.00    -0.134 NA 
HETATM   34  C   UNL     1      -7.931   7.794  63.487  1.00  0.00    -0.104 A  
HETATM   35 CL   UNL     1      -8.145   5.127  63.835  1.00  0.00    -0.112 Cl 
HETATM   36  C   UNL     1      -8.528   7.084  65.668  1.00  0.00    -0.144 A  
ENDBRANCH  27  30
ENDBRANCH   8  26
ENDBRANCH   2   3
TORSDOF 7
ENDMDL
MODEL      135
REMARK 921   NORMALIZED FREE ENERGY PREDICTED BY IDOCK:   38.19 KCAL/MOL
REMARK 922        TOTAL FREE ENERGY PREDICTED BY IDOCK:   53.09 KCAL/MOL
REMARK 923 INTER-LIGAND FREE ENERGY PREDICTED BY IDOCK:   51.47 KCAL/MOL
REMARK 924 INTRA-LIGAND FREE ENERGY PREDICTED BY IDOCK:    1.62 KCAL/MOL
REMARK 927      BINDING AFFINITY PREDICTED BY RF-SCORE:    0.00 PKD
ROOT
HETATM    1  C   UNL     1      -8.189  19.495  63.968  1.00  0.00     6.319 C  
HETATM    2  O   UNL     1      -7.679  18.217  63.586  1.00  0.00     8.352 OA 
ENDROOT
BRANCH   2   3
HETATM    3  C   UNL     1      -8.168  17.140  64.278  1.00  0.00     9.709 A  
HETATM    4  C   UNL     1      -8.980  16.155  63.737  1.00  0.00    12.429 A  
HETATM    5  C   UNL     1      -9.440  15.109  64.534  1.00  0.00     2.600 A  
HETATM    6  C   UNL     1      -9.108  15.016  65.889  1.00  0.00     0.011 A  
HETATM    7  C   UNL     1      -7.805  17.066  65.631  1.00  0.00     0.704 A  
HETATM    8  C   UNL     1      -8.266  16.016  66.460  1.00  0.00    -0.334 A  
BRANCH   6   9
HETATM    9  N   UNL     1      -9.625  13.949  66.687  1.00  0.00    -0.280 N  
HETATM   10  C   UNL     1      -8.919  13.002  67.399  1.00  0.00    -0.204 C  
HETATM   11  H   UNL     1     -10.641  13.880  66.737  1.00  0.00     0.000 HD 
HETATM   12  O   UNL     1      -7.701  12.949  67.538  1.00  0.00    -0.151 OA 
BRANCH  10  13
HETATM   13  C   UNL     1      -9.713  11.894  68.010  1.00  0.00    -0.191 A  
HETATM   14  C   UNL     1     -11.106  11.960  67.878  1.00  0.00    -0.297 A  
HETATM   15  C   UNL     1      -9.144  10.806  68.675  1.00  0.00    -0.173 A  
HETATM   16  C   UNL     1     -11.926  11.003  68.482  1.00  0.00    -0.206 A  
HETATM   17  C   UNL     1      -9.971   9.814  69.232  1.00  0.00    -0.201 A  
HETATM   18  C   UNL     1     -11.368   9.930  69.193  1.00  0.00    -0.088 A  
BRANCH  18  19
HETATM   19  C   UNL     1     -12.300   8.952  69.881  1.00  0.00     1.134 C  
HETATM   20  N   UNL     1     -12.671   7.888  69.224  1.00  0.00     2.815 NA 
HETATM   21  H1  UNL     1     -13.298   7.230  69.686  1.00  0.00     0.000 HD 
HETATM   22  H2  UNL     1     -12.343   7.718  68.273  1.00  0.00     0.000 HD 
BRANCH  19  23
HETATM   23  N   UNL     1     -12.818   9.148  71.158  1.00  0.00    -0.249 NA 
HETATM   24  C   UNL     1     -13.024  10.427  71.815  1.00  0.00    -0.475 C  
HETATM   25  C   UNL     1     -13.108   8.000  72.025  1.00  0.00    -0.265 C  
ENDBRANCH  19  23
ENDBRANCH  18  19
ENDBRANCH  10  13
ENDBRANCH   6   9
BRANCH   8  26
HETATM   26  C   UNL     1      -7.894  15.934  67.926  1.00  0.00    -0.138 C  
HETATM   27  N   UNL     1      -6.849  16.715  68.411  1.00  0.00    -0.146 N  
HETATM   28  O   UNL     1      -8.553  15.159  68.622  1.00  0.00    -0.155 OA 
HETATM   29  H   UNL     1      -6.363  17.332  67.761  1.00  0.00     0.000 HD 
BRANCH  27  30
HETATM   30  C   UNL     1      -6.426  16.694  69.758  1.00  0.00    -0.128 A  
HETATM   31  C   UNL     1      -6.054  15.477  70.323  1.00  0.00    -0.085 A  
HETATM   32  C   UNL     1      -5.650  16.611  72.409  1.00  0.00     1.600 A  
HETATM   33  N   UNL     1      -6.399  17.834  70.476  1.00  0.00     0.527 NA 
HETATM   34  C   UNL     1      -6.014  17.779  71.771  1.00  0.00     1.650 A  
HETATM   35 CL   UNL     1      -5.200  16.614  74.065  1.00  0.00     6.948 Cl 
HETATM   36  C   UNL     1      -5.667  15.436  71.670  1.00  0.00     0.443 A  
ENDBRANCH  27  30
ENDBRANCH   8  26
ENDBRANCH   2   3
TORSDOF 7
ENDMDL
MODEL      136
REMARK 921   NORMALIZED FREE ENERGY PREDICTED BY IDOCK:   39.37 KCAL/MOL
REMARK 922        TOTAL FREE ENERGY PREDICTED BY IDOCK:   54.75 KCAL/MOL
REMARK 923 INTER-LIGAND FREE ENERGY PREDICTED BY IDOCK:   54.54 KCAL/MOL
REMARK 924 INTRA-LIGAND FREE ENERGY PREDICTED BY IDOCK:    0.21 KCAL/MOL
REMARK 927      BINDING AFFINITY PREDICTED BY RF-SCORE:    0.00 PKD
ROOT
HETATM    1  C   UNL     1     -10.025  20.982  63.459  1.00  0.00     6.003 C  
HETATM    2  O   UNL     1      -9.021  20.582  64.394  1.00  0.00     1.610 OA 
ENDROOT
BRANCH   2   3
HETATM    3  C   UNL     1      -9.374  19.590  65.272  1.00  0.00     1.284 A  
HETATM    4  C   UNL     1      -9.868  19.805  66.550  1.00  0.00    -0.546 A  
HETATM    5  C   UNL     1     -10.178  18.724  67.371  1.00  0.00    -0.444 A  
HETATM    6  C   UNL     1     -10.003  17.402  66.947  1.00  0.00    -0.300 A  
HETATM    7  C   UNL     1      -9.201  18.276  64.812  1.00  0.00     4.634 A  
HETATM    8  C   UNL     1      -9.504  17.164  65.633  1.00  0.00     0.208 A  
BRANCH   6   9
HETATM    9  N   UNL     1     -10.299  16.316  67.828  1.00  0.00    -0.279 N  
HETATM   10  C   UNL     1     -11.429  15.527  67.853  1.00  0.00    -0.272 C  
HETATM   11  H   UNL     1      -9.585  16.098  68.523  1.00  0.00     0.000 HD 
HETATM   12  O   UNL     1     -12.367  15.567  67.063  1.00  0.00     0.653 OA 
BRANCH  10  13
HETATM   13  C   UNL     1     -11.552  14.570  68.993  1.00  0.00    -0.330 A  
HETATM   14  C   UNL     1     -11.553  15.112  70.284  1.00  0.00    -0.325 A  
HETATM   15  C   UNL     1     -11.685  13.188  68.836  1.00  0.00    -0.368 A  
HETATM   16  C   UNL     1     -11.592  14.281  71.407  1.00  0.00     0.151 A  
HETATM   17  C   UNL     1     -11.782  12.360  69.969  1.00  0.00    -0.307 A  
HETATM   18  C   UNL     1     -11.679  12.889  71.264  1.00  0.00     1.194 A  
BRANCH  18  19
HETATM   19  C   UNL     1     -11.657  12.027  72.511  1.00  0.00     6.233 C  
HETATM   20  N   UNL     1     -11.824  12.609  73.666  1.00  0.00     7.118 NA 
HETATM   21  H1  UNL     1     -11.809  12.030  74.505  1.00  0.00     0.000 HD 
HETATM   22  H2  UNL     1     -11.967  13.618  73.728  1.00  0.00     0.000 HD 
BRANCH  19  23
HETATM   23  N   UNL     1     -11.422  10.654  72.497  1.00  0.00     3.514 NA 
HETATM   24  C   UNL     1     -11.850   9.720  71.469  1.00  0.00    -0.399 C  
HETATM   25  C   UNL     1     -10.783  10.000  73.643  1.00  0.00    10.799 C  
ENDBRANCH  19  23
ENDBRANCH  18  19
ENDBRANCH  10  13
ENDBRANCH   6   9
BRANCH   8  26
HETATM   26  C   UNL     1      -9.307  15.741  65.154  1.00  0.00     0.793 C  
HETATM   27  N   UNL     1      -8.950  14.754  66.069  1.00  0.00    -0.473 N  
HETATM   28  O   UNL     1      -9.475  15.533  63.950  1.00  0.00     3.772 OA 
HETATM   29  H   UNL     1      -8.839  15.019  67.047  1.00  0.00     0.000 HD 
BRANCH  27  30
HETATM   30  C   UNL     1      -8.734  13.406  65.711  1.00  0.00     1.182 A  
HETATM   31  C   UNL     1      -7.598  13.085  64.973  1.00  0.00     7.082 A  
HETATM   32  C   UNL     1      -8.312  10.785  64.943  1.00  0.00    -0.018 A  
HETATM   33  N   UNL     1      -9.622  12.460  66.071  1.00  0.00    -0.235 NA 
HETATM   34  C   UNL     1      -9.401  11.181  65.691  1.00  0.00    -0.219 A  
HETATM   35 CL   UNL     1      -8.112   9.147  64.474  1.00  0.00    -0.131 Cl 
HETATM   36  C   UNL     1      -7.389  11.756  64.579  1.00  0.00     2.955 A  
ENDBRANCH  27  30
ENDBRANCH   8  26
ENDBRANCH   2   3
TORSDOF 7
ENDMDL
MODEL      137
REMARK 921   NORMALIZED FREE ENERGY PREDICTED BY IDOCK:   39.58 KCAL/MOL
REMARK 922        TOTAL FREE ENERGY PREDICTED BY IDOCK:   55.04 KCAL/MOL
REMARK 923 INTER-LIGAND FREE ENERGY PREDICTED BY IDOCK:   55.77 KCAL/MOL
REMARK 924 INTRA-LIGAND FREE ENERGY PREDICTED BY IDOCK:   -0.73 KCAL/MOL
REMARK 927      BINDING AFFINITY PREDICTED BY RF-SCORE:    0.00 PKD
ROOT
HETATM    1  C   UNL     1      -7.791  19.915  68.877  1.00  0.00    -0.110 C  
HETATM    2  O   UNL     1      -8.750  19.199  68.096  1.00  0.00    -0.301 OA 
ENDROOT
BRANCH   2   3
HETATM    3  C   UNL     1      -9.188  18.010  68.619  1.00  0.00    -0.267 A  
HETATM    4  C   UNL     1      -9.975  17.888  69.754  1.00  0.00     0.543 A  
HETATM    5  C   UNL     1     -10.351  16.627  70.214  1.00  0.00     0.416 A  
HETATM    6  C   UNL     1      -9.953  15.457  69.560  1.00  0.00    -0.264 A  
HETATM    7  C   UNL     1      -8.786  16.855  67.932  1.00  0.00    -0.218 A  
HETATM    8  C   UNL     1      -9.152  15.565  68.385  1.00  0.00    -0.190 A  
BRANCH   6   9
HETATM    9  N   UNL     1     -10.327  14.178  70.077  1.00  0.00    -0.070 N  
HETATM   10  C   UNL     1     -10.304  13.753  71.389  1.00  0.00     5.193 C  
HETATM   11  H   UNL     1     -10.651  13.496  69.393  1.00  0.00     0.000 HD 
HETATM   12  O   UNL     1     -10.025  14.432  72.373  1.00  0.00     4.050 OA 
BRANCH  10  13
HETATM   13  C   UNL     1     -10.587  12.307  71.630  1.00  0.00     8.440 A  
HETATM   14  C   UNL     1     -11.128  11.577  70.564  1.00  0.00     0.772 A  
HETATM   15  C   UNL     1     -10.324  11.654  72.837  1.00  0.00    17.761 A  
HETATM   16  C   UNL     1     -11.488  10.236  70.727  1.00  0.00    -0.438 A  
HETATM   17  C   UNL     1     -10.635  10.289  72.978  1.00  0.00     8.348 A  
HETATM   18  C   UNL     1     -11.272   9.582  71.948  1.00  0.00    -0.101 A  
BRANCH  18  19
HETATM   19  C   UNL     1     -11.735   8.146  72.095  1.00  0.00    -0.359 C  
HETATM   20  N   UNL     1     -13.017   7.907  72.079  1.00  0.00    -0.449 NA 
HETATM   21  H1  UNL     1     -13.330   6.941  72.178  1.00  0.00     0.000 HD 
HETATM   22  H2  UNL     1     -13.691   8.666  71.970  1.00  0.00     0.000 HD 
BRANCH  19  23
HETATM   23  N   UNL     1     -10.871   7.071  72.292  1.00  0.00    -0.223 NA 
HETATM   24  C   UNL     1     -10.450   6.112  71.285  1.00  0.00    -0.224 C  
HETATM   25  C   UNL     1     -10.383   6.750  73.637  1.00  0.00    -0.344 C  
ENDBRANCH  19  23
ENDBRANCH  18  19
ENDBRANCH  10  13
ENDBRANCH   6   9
BRANCH   8  26
HETATM   26  C   UNL     1      -8.710  14.310  67.662  1.00  0.00    -0.191 C  
HETATM   27  N   UNL     1      -7.638  14.373  66.776  1.00  0.00    -0.101 N  
HETATM   28  O   UNL     1      -9.343  13.280  67.903  1.00  0.00    -0.198 OA 
HETATM   29  H   UNL     1      -7.171  15.269  66.644  1.00  0.00     0.000 HD 
BRANCH  27  30
HETATM   30  C   UNL     1      -7.166  13.258  66.050  1.00  0.00     3.817 A  
HETATM   31  C   UNL     1      -6.042  12.584  66.518  1.00  0.00     1.175 A  
HETATM   32  C   UNL     1      -6.183  11.107  64.620  1.00  0.00     0.900 A  
HETATM   33  N   UNL     1      -7.793  12.870  64.922  1.00  0.00     4.875 NA 
HETATM   34  C   UNL     1      -7.302  11.814  64.234  1.00  0.00     3.137 A  
HETATM   35 CL   UNL     1      -5.601   9.794  63.681  1.00  0.00    -0.088 Cl 
HETATM   36  C   UNL     1      -5.540  11.497  65.788  1.00  0.00     0.479 A  
ENDBRANCH  27  30
ENDBRANCH   8  26
ENDBRANCH   2   3
TORSDOF 7
ENDMDL
MODEL      138
REMARK 921   NORMALIZED FREE ENERGY PREDICTED BY IDOCK:   41.62 KCAL/MOL
REMARK 922        TOTAL FREE ENERGY PREDICTED BY IDOCK:   57.91 KCAL/MOL
REMARK 923 INTER-LIGAND FREE ENERGY PREDICTED BY IDOCK:   58.09 KCAL/MOL
REMARK 924 INTRA-LIGAND FREE ENERGY PREDICTED BY IDOCK:   -0.18 KCAL/MOL
REMARK 927      BINDING AFFINITY PREDICTED BY RF-SCORE:    0.00 PKD
ROOT
HETATM    1  C   UNL     1      -6.572  18.125  73.595  1.00  0.00     8.097 C  
HETATM    2  O   UNL     1      -5.715  17.263  72.845  1.00  0.00     1.237 OA 
ENDROOT
BRANCH   2   3
HETATM    3  C   UNL     1      -6.299  16.584  71.807  1.00  0.00     3.001 A  
HETATM    4  C   UNL     1      -5.958  16.736  70.471  1.00  0.00     0.204 A  
HETATM    5  C   UNL     1      -6.628  16.009  69.490  1.00  0.00    -0.201 A  
HETATM    6  C   UNL     1      -7.655  15.115  69.809  1.00  0.00    -0.094 A  
HETATM    7  C   UNL     1      -7.315  15.683  72.160  1.00  0.00     5.733 A  
HETATM    8  C   UNL     1      -8.012  14.940  71.178  1.00  0.00     2.772 A  
BRANCH   6   9
HETATM    9  N   UNL     1      -8.346  14.411  68.774  1.00  0.00    -0.227 N  
HETATM   10  C   UNL     1      -8.963  14.934  67.657  1.00  0.00    -0.180 C  
HETATM   11  H   UNL     1      -8.387  13.397  68.874  1.00  0.00     0.000 HD 
HETATM   12  O   UNL     1      -8.966  16.110  67.306  1.00  0.00    -0.191 OA 
BRANCH  10  13
HETATM   13  C   UNL     1      -9.760  13.983  66.826  1.00  0.00    -0.283 A  
HETATM   14  C   UNL     1     -10.719  14.536  65.967  1.00  0.00    -0.306 A  
HETATM   15  C   UNL     1      -9.585  12.598  66.847  1.00  0.00    -0.232 A  
HETATM   16  C   UNL     1     -11.556  13.714  65.208  1.00  0.00    -0.334 A  
HETATM   17  C   UNL     1     -10.391  11.777  66.037  1.00  0.00    -0.276 A  
HETATM   18  C   UNL     1     -11.422  12.319  65.255  1.00  0.00    -0.399 A  
BRANCH  18  19
HETATM   19  C   UNL     1     -12.393  11.468  64.461  1.00  0.00     0.439 C  
HETATM   20  N   UNL     1     -13.554  11.200  64.991  1.00  0.00     4.871 NA 
HETATM   21  H1  UNL     1     -14.208  10.627  64.457  1.00  0.00     0.000 HD 
HETATM   22  H2  UNL     1     -13.802  11.554  65.915  1.00  0.00     0.000 HD 
BRANCH  19  23
HETATM   23  N   UNL     1     -12.098  10.918  63.215  1.00  0.00     1.283 NA 
HETATM   24  C   UNL     1     -12.870   9.902  62.521  1.00  0.00     9.389 C  
HETATM   25  C   UNL     1     -10.851  11.269  62.527  1.00  0.00     1.076 C  
ENDBRANCH  19  23
ENDBRANCH  18  19
ENDBRANCH  10  13
ENDBRANCH   6   9
BRANCH   8  26
HETATM   26  C   UNL     1      -9.122  13.976  71.545  1.00  0.00     7.846 C  
HETATM   27  N   UNL     1      -9.987  13.521  70.554  1.00  0.00     2.662 N  
HETATM   28  O   UNL     1      -9.198  13.645  72.730  1.00  0.00    10.333 OA 
HETATM   29  H   UNL     1      -9.843  13.846  69.598  1.00  0.00     0.000 HD 
BRANCH  27  30
HETATM   30  C   UNL     1     -11.055  12.633  70.806  1.00  0.00     2.233 A  
HETATM   31  C   UNL     1     -12.179  13.112  71.474  1.00  0.00     0.154 A  
HETATM   32  C   UNL     1     -13.138  10.905  71.366  1.00  0.00    -0.356 A  
HETATM   33  N   UNL     1     -10.972  11.347  70.414  1.00  0.00     0.437 NA 
HETATM   34  C   UNL     1     -12.000  10.513  70.692  1.00  0.00    -0.357 A  
HETATM   35 CL   UNL     1     -14.391   9.784  71.709  1.00  0.00     0.190 Cl 
HETATM   36  C   UNL     1     -13.232  12.232  71.763  1.00  0.00    -0.428 A  
ENDBRANCH  27  30
ENDBRANCH   8  26
ENDBRANCH   2   3
TORSDOF 7
ENDMDL
MODEL      139
REMARK 921   NORMALIZED FREE ENERGY PREDICTED BY IDOCK:   54.53 KCAL/MOL
REMARK 922        TOTAL FREE ENERGY PREDICTED BY IDOCK:   76.11 KCAL/MOL
REMARK 923 INTER-LIGAND FREE ENERGY PREDICTED BY IDOCK:   67.31 KCAL/MOL
REMARK 924 INTRA-LIGAND FREE ENERGY PREDICTED BY IDOCK:    8.80 KCAL/MOL
REMARK 927      BINDING AFFINITY PREDICTED BY RF-SCORE:    0.00 PKD
ROOT
HETATM    1  C   UNL     1      -8.179  19.486  63.892  1.00  0.00     7.059 C  
HETATM    2  O   UNL     1      -7.496  18.264  63.608  1.00  0.00     7.042 OA 
ENDROOT
BRANCH   2   3
HETATM    3  C   UNL     1      -7.867  17.177  64.356  1.00  0.00     8.479 A  
HETATM    4  C   UNL     1      -8.375  15.996  63.836  1.00  0.00    14.642 A  
HETATM    5  C   UNL     1      -8.740  14.955  64.686  1.00  0.00     5.528 A  
HETATM    6  C   UNL     1      -8.613  15.061  66.075  1.00  0.00     0.504 A  
HETATM    7  C   UNL     1      -7.713  17.307  65.744  1.00  0.00     0.178 A  
HETATM    8  C   UNL     1      -8.083  16.265  66.626  1.00  0.00    -0.323 A  
BRANCH   6   9
HETATM    9  N   UNL     1      -9.030  13.987  66.922  1.00  0.00    -0.292 N  
HETATM   10  C   UNL     1      -8.727  13.789  68.253  1.00  0.00    -0.179 C  
HETATM   11  H   UNL     1      -9.624  13.281  66.489  1.00  0.00     0.000 HD 
HETATM   12  O   UNL     1      -8.097  14.550  68.981  1.00  0.00    -0.143 OA 
BRANCH  10  13
HETATM   13  C   UNL     1      -9.156  12.489  68.850  1.00  0.00     0.305 A  
HETATM   14  C   UNL     1      -8.148  11.569  69.166  1.00  0.00     0.128 A  
HETATM   15  C   UNL     1     -10.486  12.161  69.124  1.00  0.00     0.019 A  
HETATM   16  C   UNL     1      -8.468  10.302  69.661  1.00  0.00    -0.132 A  
HETATM   17  C   UNL     1     -10.798  10.906  69.678  1.00  0.00    -0.271 A  
HETATM   18  C   UNL     1      -9.803   9.944  69.898  1.00  0.00    -0.285 A  
BRANCH  18  19
HETATM   19  C   UNL     1     -10.103   8.537  70.378  1.00  0.00    -0.189 C  
HETATM   20  N   UNL     1     -11.270   8.304  70.913  1.00  0.00    -0.262 NA 
HETATM   21  H1  UNL     1     -11.472   7.358  71.237  1.00  0.00     0.000 HD 
HETATM   22  H2  UNL     1     -11.962   9.048  71.005  1.00  0.00     0.000 HD 
BRANCH  19  23
HETATM   23  N   UNL     1      -9.186   7.490  70.322  1.00  0.00    -0.157 NA 
HETATM   24  C   UNL     1      -9.322   6.194  70.965  1.00  0.00    -0.164 C  
HETATM   25  C   UNL     1      -7.890   7.675  69.661  1.00  0.00    -0.108 C  
ENDBRANCH  19  23
ENDBRANCH  18  19
ENDBRANCH  10  13
ENDBRANCH   6   9
BRANCH   8  26
HETATM   26  C   UNL     1      -7.937  16.400  68.128  1.00  0.00    -0.160 C  
HETATM   27  N   UNL     1      -6.811  17.028  68.652  1.00  0.00    -0.177 N  
HETATM   28  O   UNL     1      -8.846  15.931  68.817  1.00  0.00    -0.187 OA 
HETATM   29  H   UNL     1      -6.113  17.391  68.003  1.00  0.00     0.000 HD 
BRANCH  27  30
HETATM   30  C   UNL     1      -6.586  17.188  70.036  1.00  0.00     0.325 A  
HETATM   31  C   UNL     1      -7.301  16.391  70.925  1.00  0.00     3.325 A  
HETATM   32  C   UNL     1      -6.211  17.518  72.754  1.00  0.00     4.255 A  
HETATM   33  N   UNL     1      -5.702  18.105  70.476  1.00  0.00    -0.178 NA 
HETATM   34  C   UNL     1      -5.527  18.253  71.809  1.00  0.00     0.218 A  
HETATM   35 CL   UNL     1      -5.956  17.780  74.431  1.00  0.00    10.435 Cl 
HETATM   36  C   UNL     1      -7.115  16.564  72.304  1.00  0.00     8.077 A  
ENDBRANCH  27  30
ENDBRANCH   8  26
ENDBRANCH   2   3
TORSDOF 7
ENDMDL
MODEL      140
REMARK 921   NORMALIZED FREE ENERGY PREDICTED BY IDOCK:   73.65 KCAL/MOL
REMARK 922        TOTAL FREE ENERGY PREDICTED BY IDOCK:  103.06 KCAL/MOL
REMARK 923 INTER-LIGAND FREE ENERGY PREDICTED BY IDOCK:  101.64 KCAL/MOL
REMARK 924 INTRA-LIGAND FREE ENERGY PREDICTED BY IDOCK:    1.42 KCAL/MOL
REMARK 927      BINDING AFFINITY PREDICTED BY RF-SCORE:    0.00 PKD
ROOT
HETATM    1  C   UNL     1     -14.126   8.073  62.992  1.00  0.00    14.451 C  
HETATM    2  O   UNL     1     -12.749   8.436  62.884  1.00  0.00    17.543 OA 
ENDROOT
BRANCH   2   3
HETATM    3  C   UNL     1     -12.244   9.202  63.903  1.00  0.00    16.142 A  
HETATM    4  C   UNL     1     -11.934   8.728  65.169  1.00  0.00    12.549 A  
HETATM    5  C   UNL     1     -11.442   9.596  66.141  1.00  0.00     2.445 A  
HETATM    6  C   UNL     1     -11.249  10.957  65.883  1.00  0.00     0.233 A  
HETATM    7  C   UNL     1     -12.047  10.559  63.609  1.00  0.00     3.677 A  
HETATM    8  C   UNL     1     -11.555  11.459  64.584  1.00  0.00    -0.014 A  
BRANCH   6   9
HETATM    9  N   UNL     1     -10.776  11.827  66.913  1.00  0.00    -0.238 N  
HETATM   10  C   UNL     1     -11.489  12.364  67.965  1.00  0.00    -0.322 C  
HETATM   11  H   UNL     1      -9.790  12.082  66.866  1.00  0.00     0.000 HD 
HETATM   12  O   UNL     1     -12.659  12.127  68.252  1.00  0.00     0.181 OA 
BRANCH  10  13
HETATM   13  C   UNL     1     -10.785  13.382  68.800  1.00  0.00    -0.257 A  
HETATM   14  C   UNL     1      -9.668  14.010  68.234  1.00  0.00    -0.225 A  
HETATM   15  C   UNL     1     -11.191  13.747  70.086  1.00  0.00     0.093 A  
HETATM   16  C   UNL     1      -8.910  14.921  68.974  1.00  0.00    -0.179 A  
HETATM   17  C   UNL     1     -10.459  14.709  70.806  1.00  0.00     0.688 A  
HETATM   18  C   UNL     1      -9.281  15.262  70.284  1.00  0.00     0.623 A  
BRANCH  18  19
HETATM   19  C   UNL     1      -8.393  16.209  71.067  1.00  0.00     4.421 C  
HETATM   20  N   UNL     1      -8.737  16.507  72.289  1.00  0.00    11.771 NA 
HETATM   21  H1  UNL     1      -8.140  17.144  72.816  1.00  0.00     0.000 HD 
HETATM   22  H2  UNL     1      -9.580  16.113  72.708  1.00  0.00     0.000 HD 
BRANCH  19  23
HETATM   23  N   UNL     1      -7.256  16.816  70.539  1.00  0.00     1.889 NA 
HETATM   24  C   UNL     1      -6.295  17.624  71.270  1.00  0.00     2.257 C  
HETATM   25  C   UNL     1      -6.994  16.770  69.096  1.00  0.00    -0.231 C  
ENDBRANCH  19  23
ENDBRANCH  18  19
ENDBRANCH  10  13
ENDBRANCH   6   9
BRANCH   8  26
HETATM   26  C   UNL     1     -11.353  12.930  64.283  1.00  0.00    -0.371 C  
HETATM   27  N   UNL     1     -11.203  13.828  65.336  1.00  0.00    -0.298 N  
HETATM   28  O   UNL     1     -11.337  13.255  63.094  1.00  0.00     0.021 OA 
HETATM   29  H   UNL     1     -11.224  13.466  66.289  1.00  0.00     0.000 HD 
BRANCH  27  30
HETATM   30  C   UNL     1     -11.022  15.216  65.150  1.00  0.00    -0.417 A  
HETATM   31  C   UNL     1     -10.208  15.650  64.108  1.00  0.00     2.406 A  
HETATM   32  C   UNL     1     -10.601  17.924  64.797  1.00  0.00     1.780 A  
HETATM   33  N   UNL     1     -11.621  16.093  65.979  1.00  0.00     0.558 NA 
HETATM   34  C   UNL     1     -11.409  17.415  65.792  1.00  0.00     0.995 A  
HETATM   35 CL   UNL     1     -10.356  19.615  64.638  1.00  0.00     2.159 Cl 
HETATM   36  C   UNL     1      -9.990  17.024  63.934  1.00  0.00     7.311 A  
ENDBRANCH  27  30
ENDBRANCH   8  26
ENDBRANCH   2   3
TORSDOF 7
ENDMDL
