MODEL        1
REMARK 921   NORMALIZED FREE ENERGY PREDICTED BY IDOCK:   -8.73 KCAL/MOL
REMARK 922        TOTAL FREE ENERGY PREDICTED BY IDOCK:   -9.89 KCAL/MOL
REMARK 923 INTER-LIGAND FREE ENERGY PREDICTED BY IDOCK:   -9.75 KCAL/MOL
REMARK 924 INTRA-LIGAND FREE ENERGY PREDICTED BY IDOCK:   -0.15 KCAL/MOL
REMARK 927      BINDING AFFINITY PREDICTED BY RF-SCORE:    0.00 PKD
ROOT
HETATM    1  C   UNL     1     -11.460  15.526  72.139  1.00  0.00    -0.512 C  
HETATM    2  C   UNL     1     -11.444  15.172  70.678  1.00  0.00    -0.345 A  
HETATM    3  C   UNL     1     -10.717  16.018  69.818  1.00  0.00    -0.331 A  
HETATM    4  C   UNL     1     -10.587  15.791  68.433  1.00  0.00    -0.264 A  
HETATM    5  C   UNL     1     -11.237  14.669  67.880  1.00  0.00    -0.318 A  
HETATM    6  C   UNL     1     -11.927  13.792  68.759  1.00  0.00    -0.400 A  
HETATM    7  C   UNL     1     -11.196  14.374  66.371  1.00  0.00    -0.345 C  
HETATM    8  C   UNL     1     -12.056  14.029  70.147  1.00  0.00    -0.419 A  
HETATM    9  C   UNL     1     -10.231  13.194  66.105  1.00  0.00    -0.291 C  
HETATM   10  C   UNL     1     -12.587  14.002  65.818  1.00  0.00    -0.512 C  
HETATM   11  C   UNL     1     -10.725  15.608  65.559  1.00  0.00    -0.403 C  
HETATM   12  C   UNL     1     -10.588  18.115  67.499  1.00  0.00    -0.419 C  
HETATM   13  C   UNL     1      -9.500  16.264  66.171  1.00  0.00    -0.373 C  
HETATM   14  C   UNL     1      -8.410  17.112  68.225  1.00  0.00    -0.232 C  
HETATM   15  C   UNL     1      -9.786  16.797  67.591  1.00  0.00    -0.261 C  
ENDROOT
BRANCH   8  16
HETATM   16  C   UNL     1     -12.785  13.017  70.980  1.00  0.00    -0.347 C  
HETATM   17  C   UNL     1     -13.673  13.539  71.851  1.00  0.00    -0.478 C  
BRANCH  16  18
HETATM   18  C   UNL     1     -12.472  11.551  71.077  1.00  0.00    -0.458 A  
HETATM   19  C   UNL     1     -11.422  10.938  70.361  1.00  0.00    -0.367 A  
HETATM   20  C   UNL     1     -11.243   9.543  70.363  1.00  0.00    -0.323 A  
HETATM   21  C   UNL     1     -12.120   8.730  71.082  1.00  0.00    -0.310 A  
HETATM   22  C   UNL     1     -13.110   9.329  71.866  1.00  0.00    -0.490 A  
HETATM   23  C   UNL     1     -12.035   7.244  71.090  1.00  0.00    -0.328 C  
HETATM   24  C   UNL     1     -13.275  10.720  71.870  1.00  0.00    -0.524 A  
HETATM   25  O   UNL     1     -11.543   6.706  69.952  1.00  0.00    -0.371 OA 
HETATM   26  O   UNL     1     -12.428   6.564  72.021  1.00  0.00    -0.327 OA 
ENDBRANCH  16  18
ENDBRANCH   8  16
TORSDOF 2
ENDMDL
MODEL        2
REMARK 921   NORMALIZED FREE ENERGY PREDICTED BY IDOCK:   -8.31 KCAL/MOL
REMARK 922        TOTAL FREE ENERGY PREDICTED BY IDOCK:   -9.43 KCAL/MOL
REMARK 923 INTER-LIGAND FREE ENERGY PREDICTED BY IDOCK:   -8.68 KCAL/MOL
REMARK 924 INTRA-LIGAND FREE ENERGY PREDICTED BY IDOCK:   -0.75 KCAL/MOL
REMARK 927      BINDING AFFINITY PREDICTED BY RF-SCORE:    0.00 PKD
ROOT
HETATM    1  C   UNL     1     -11.146   9.615  69.051  1.00  0.00    -0.104 C  
HETATM    2  C   UNL     1     -11.612  10.832  69.801  1.00  0.00    -0.393 A  
HETATM    3  C   UNL     1     -11.349  12.087  69.218  1.00  0.00    -0.330 A  
HETATM    4  C   UNL     1     -11.756  13.309  69.791  1.00  0.00    -0.354 A  
HETATM    5  C   UNL     1     -12.445  13.270  71.020  1.00  0.00    -0.422 A  
HETATM    6  C   UNL     1     -12.750  12.001  71.578  1.00  0.00    -0.360 A  
HETATM    7  C   UNL     1     -12.877  14.555  71.745  1.00  0.00    -0.415 C  
HETATM    8  C   UNL     1     -12.335  10.779  71.000  1.00  0.00    -0.509 A  
HETATM    9  C   UNL     1     -14.404  14.746  71.583  1.00  0.00    -0.645 C  
HETATM   10  C   UNL     1     -12.548  14.508  73.251  1.00  0.00    -0.433 C  
HETATM   11  C   UNL     1     -12.148  15.803  71.184  1.00  0.00    -0.475 C  
HETATM   12  C   UNL     1      -9.868  14.843  69.197  1.00  0.00    -0.200 C  
HETATM   13  C   UNL     1     -12.143  15.831  69.666  1.00  0.00    -0.282 C  
HETATM   14  C   UNL     1     -11.754  14.573  67.570  1.00  0.00    -0.413 C  
HETATM   15  C   UNL     1     -11.391  14.620  69.074  1.00  0.00    -0.299 C  
ENDROOT
BRANCH   8  16
HETATM   16  C   UNL     1     -12.742   9.498  71.666  1.00  0.00    -0.478 C  
HETATM   17  C   UNL     1     -13.981   9.509  72.198  1.00  0.00    -0.287 C  
BRANCH  16  18
HETATM   18  C   UNL     1     -11.850   8.328  71.967  1.00  0.00    -0.408 A  
HETATM   19  C   UNL     1     -12.240   6.988  71.762  1.00  0.00    -0.387 A  
HETATM   20  C   UNL     1     -11.438   5.912  72.186  1.00  0.00    -0.333 A  
HETATM   21  C   UNL     1     -10.225   6.160  72.830  1.00  0.00    -0.206 A  
HETATM   22  C   UNL     1      -9.785   7.480  72.960  1.00  0.00    -0.278 A  
HETATM   23  C   UNL     1      -9.347   5.081  73.360  1.00  0.00    -0.136 C  
HETATM   24  C   UNL     1     -10.582   8.547  72.525  1.00  0.00    -0.308 A  
HETATM   25  O   UNL     1     -10.005   3.972  73.763  1.00  0.00    -0.119 OA 
HETATM   26  O   UNL     1      -8.141   5.207  73.473  1.00  0.00    -0.109 OA 
ENDBRANCH  16  18
ENDBRANCH   8  16
TORSDOF 2
ENDMDL
MODEL        3
REMARK 921   NORMALIZED FREE ENERGY PREDICTED BY IDOCK:   -8.26 KCAL/MOL
REMARK 922        TOTAL FREE ENERGY PREDICTED BY IDOCK:   -9.38 KCAL/MOL
REMARK 923 INTER-LIGAND FREE ENERGY PREDICTED BY IDOCK:   -8.73 KCAL/MOL
REMARK 924 INTRA-LIGAND FREE ENERGY PREDICTED BY IDOCK:   -0.65 KCAL/MOL
REMARK 927      BINDING AFFINITY PREDICTED BY RF-SCORE:    0.00 PKD
ROOT
HETATM    1  C   UNL     1      -7.677  13.995  67.211  1.00  0.00    -0.120 C  
HETATM    2  C   UNL     1      -8.175  15.414  67.198  1.00  0.00    -0.250 A  
HETATM    3  C   UNL     1      -7.223  16.428  66.977  1.00  0.00    -0.257 A  
HETATM    4  C   UNL     1      -7.550  17.798  66.907  1.00  0.00    -0.238 A  
HETATM    5  C   UNL     1      -8.898  18.169  67.086  1.00  0.00    -0.259 A  
HETATM    6  C   UNL     1      -9.861  17.139  67.260  1.00  0.00    -0.265 A  
HETATM    7  C   UNL     1      -9.338  19.643  67.081  1.00  0.00    -0.432 C  
HETATM    8  C   UNL     1      -9.525  15.768  67.334  1.00  0.00    -0.213 A  
HETATM    9  C   UNL     1     -10.056  19.959  65.747  1.00  0.00    -0.442 C  
HETATM   10  C   UNL     1     -10.302  19.962  68.242  1.00  0.00    -0.526 C  
HETATM   11  C   UNL     1      -8.131  20.601  67.247  1.00  0.00    -0.315 C  
HETATM   12  C   UNL     1      -5.558  18.887  67.963  1.00  0.00    -0.188 C  
HETATM   13  C   UNL     1      -6.968  20.221  66.348  1.00  0.00    -0.296 C  
HETATM   14  C   UNL     1      -5.505  18.412  65.503  1.00  0.00    -0.221 C  
HETATM   15  C   UNL     1      -6.421  18.817  66.683  1.00  0.00    -0.209 C  
ENDROOT
BRANCH   8  16
HETATM   16  C   UNL     1     -10.631  14.768  67.491  1.00  0.00    -0.259 C  
HETATM   17  C   UNL     1     -10.986  14.137  66.352  1.00  0.00    -0.311 C  
BRANCH  16  18
HETATM   18  C   UNL     1     -11.488  14.571  68.708  1.00  0.00    -0.322 A  
HETATM   19  C   UNL     1     -12.028  15.643  69.452  1.00  0.00    -0.349 A  
HETATM   20  C   UNL     1     -12.707  15.430  70.666  1.00  0.00    -0.490 A  
HETATM   21  C   UNL     1     -12.855  14.135  71.162  1.00  0.00    -0.431 A  
HETATM   22  C   UNL     1     -12.404  13.059  70.393  1.00  0.00    -0.351 A  
HETATM   23  C   UNL     1     -13.508  13.829  72.465  1.00  0.00    -0.578 C  
HETATM   24  C   UNL     1     -11.740  13.275  69.179  1.00  0.00    -0.379 A  
HETATM   25  O   UNL     1     -13.377  14.799  73.397  1.00  0.00    -0.555 OA 
HETATM   26  O   UNL     1     -14.066  12.771  72.692  1.00  0.00    -0.470 OA 
ENDBRANCH  16  18
ENDBRANCH   8  16
TORSDOF 2
ENDMDL
MODEL        4
REMARK 921   NORMALIZED FREE ENERGY PREDICTED BY IDOCK:   -8.13 KCAL/MOL
REMARK 922        TOTAL FREE ENERGY PREDICTED BY IDOCK:   -9.23 KCAL/MOL
REMARK 923 INTER-LIGAND FREE ENERGY PREDICTED BY IDOCK:   -8.40 KCAL/MOL
REMARK 924 INTRA-LIGAND FREE ENERGY PREDICTED BY IDOCK:   -0.82 KCAL/MOL
REMARK 927      BINDING AFFINITY PREDICTED BY RF-SCORE:    0.00 PKD
ROOT
HETATM    1  C   UNL     1      -7.800  14.151  67.243  1.00  0.00    -0.154 C  
HETATM    2  C   UNL     1      -8.230  15.591  67.183  1.00  0.00    -0.246 A  
HETATM    3  C   UNL     1      -7.244  16.543  66.861  1.00  0.00    -0.263 A  
HETATM    4  C   UNL     1      -7.509  17.923  66.737  1.00  0.00    -0.239 A  
HETATM    5  C   UNL     1      -8.826  18.370  66.967  1.00  0.00    -0.271 A  
HETATM    6  C   UNL     1      -9.826  17.399  67.242  1.00  0.00    -0.278 A  
HETATM    7  C   UNL     1      -9.195  19.861  66.908  1.00  0.00    -0.475 C  
HETATM    8  C   UNL     1      -9.552  16.017  67.370  1.00  0.00    -0.225 A  
HETATM    9  C   UNL     1      -9.968  20.147  65.599  1.00  0.00    -0.223 C  
HETATM   10  C   UNL     1     -10.079  20.285  68.100  1.00  0.00    -0.418 C  
HETATM   11  C   UNL     1      -7.936  20.765  66.962  1.00  0.00    -0.230 C  
HETATM   12  C   UNL     1      -5.414  18.961  67.632  1.00  0.00    -0.171 C  
HETATM   13  C   UNL     1      -6.843  20.283  66.025  1.00  0.00    -0.281 C  
HETATM   14  C   UNL     1      -5.516  18.364  65.200  1.00  0.00    -0.203 C  
HETATM   15  C   UNL     1      -6.347  18.872  66.403  1.00  0.00    -0.214 C  
ENDROOT
BRANCH   8  16
HETATM   16  C   UNL     1     -10.695  15.083  67.635  1.00  0.00    -0.274 C  
HETATM   17  C   UNL     1     -11.318  14.628  66.528  1.00  0.00    -0.353 C  
BRANCH  16  18
HETATM   18  C   UNL     1     -11.316  14.793  68.970  1.00  0.00    -0.295 A  
HETATM   19  C   UNL     1     -11.652  13.490  69.397  1.00  0.00    -0.369 A  
HETATM   20  C   UNL     1     -12.361  13.265  70.592  1.00  0.00    -0.416 A  
HETATM   21  C   UNL     1     -12.752  14.346  71.383  1.00  0.00    -0.413 A  
HETATM   22  C   UNL     1     -12.348  15.633  71.018  1.00  0.00    -0.481 A  
HETATM   23  C   UNL     1     -13.553  14.198  72.629  1.00  0.00    -0.515 C  
HETATM   24  C   UNL     1     -11.632  15.851  69.835  1.00  0.00    -0.337 A  
HETATM   25  O   UNL     1     -14.394  13.140  72.631  1.00  0.00    -0.636 OA 
HETATM   26  O   UNL     1     -13.497  14.994  73.549  1.00  0.00    -0.422 OA 
ENDBRANCH  16  18
ENDBRANCH   8  16
TORSDOF 2
ENDMDL
MODEL        5
REMARK 921   NORMALIZED FREE ENERGY PREDICTED BY IDOCK:   -7.96 KCAL/MOL
REMARK 922        TOTAL FREE ENERGY PREDICTED BY IDOCK:   -9.04 KCAL/MOL
REMARK 923 INTER-LIGAND FREE ENERGY PREDICTED BY IDOCK:   -9.12 KCAL/MOL
REMARK 924 INTRA-LIGAND FREE ENERGY PREDICTED BY IDOCK:    0.08 KCAL/MOL
REMARK 927      BINDING AFFINITY PREDICTED BY RF-SCORE:    0.00 PKD
ROOT
HETATM    1  C   UNL     1     -13.512  12.366  71.899  1.00  0.00    -0.366 C  
HETATM    2  C   UNL     1     -12.598  11.413  71.180  1.00  0.00    -0.490 A  
HETATM    3  C   UNL     1     -12.663  10.055  71.551  1.00  0.00    -0.532 A  
HETATM    4  C   UNL     1     -11.889   9.047  70.941  1.00  0.00    -0.302 A  
HETATM    5  C   UNL     1     -10.992   9.423  69.920  1.00  0.00    -0.251 A  
HETATM    6  C   UNL     1     -10.966  10.784  69.517  1.00  0.00    -0.317 A  
HETATM    7  C   UNL     1     -10.069   8.399  69.238  1.00  0.00    -0.202 C  
HETATM    8  C   UNL     1     -11.742  11.792  70.137  1.00  0.00    -0.354 A  
HETATM    9  C   UNL     1     -10.608   8.088  67.821  1.00  0.00    -0.239 C  
HETATM   10  C   UNL     1      -8.624   8.921  69.108  1.00  0.00    -0.134 C  
HETATM   11  C   UNL     1      -9.980   7.080  70.048  1.00  0.00    -0.188 C  
HETATM   12  C   UNL     1     -11.400   7.507  72.853  1.00  0.00    -0.355 C  
HETATM   13  C   UNL     1     -11.344   6.591  70.501  1.00  0.00    -0.426 C  
HETATM   14  C   UNL     1     -13.512   7.168  71.548  1.00  0.00    -0.411 C  
HETATM   15  C   UNL     1     -12.029   7.601  71.445  1.00  0.00    -0.336 C  
ENDROOT
BRANCH   8  16
HETATM   16  C   UNL     1     -11.652  13.191  69.605  1.00  0.00    -0.321 C  
HETATM   17  C   UNL     1     -11.798  14.157  70.536  1.00  0.00    -0.352 C  
BRANCH  16  18
HETATM   18  C   UNL     1     -11.631  13.595  68.159  1.00  0.00    -0.367 A  
HETATM   19  C   UNL     1     -11.021  14.782  67.699  1.00  0.00    -0.292 A  
HETATM   20  C   UNL     1     -11.141  15.202  66.361  1.00  0.00    -0.312 A  
HETATM   21  C   UNL     1     -11.880  14.440  65.456  1.00  0.00    -0.357 A  
HETATM   22  C   UNL     1     -12.414  13.219  65.876  1.00  0.00    -0.433 A  
HETATM   23  C   UNL     1     -12.103  14.844  64.040  1.00  0.00    -0.126 C  
HETATM   24  C   UNL     1     -12.282  12.799  67.206  1.00  0.00    -0.042 A  
HETATM   25  O   UNL     1     -12.132  16.180  63.838  1.00  0.00    -0.956 OA 
HETATM   26  O   UNL     1     -12.299  14.040  63.147  1.00  0.00    -0.657 OA 
ENDBRANCH  16  18
ENDBRANCH   8  16
TORSDOF 2
ENDMDL
MODEL        6
REMARK 921   NORMALIZED FREE ENERGY PREDICTED BY IDOCK:   -7.94 KCAL/MOL
REMARK 922        TOTAL FREE ENERGY PREDICTED BY IDOCK:   -9.02 KCAL/MOL
REMARK 923 INTER-LIGAND FREE ENERGY PREDICTED BY IDOCK:   -8.89 KCAL/MOL
REMARK 924 INTRA-LIGAND FREE ENERGY PREDICTED BY IDOCK:   -0.13 KCAL/MOL
REMARK 927      BINDING AFFINITY PREDICTED BY RF-SCORE:    0.00 PKD
ROOT
HETATM    1  C   UNL     1     -11.704  12.117  68.889  1.00  0.00    -0.381 C  
HETATM    2  C   UNL     1     -11.182  10.707  68.871  1.00  0.00    -0.333 A  
HETATM    3  C   UNL     1     -11.302   9.962  70.060  1.00  0.00    -0.303 A  
HETATM    4  C   UNL     1     -10.886   8.620  70.179  1.00  0.00    -0.242 A  
HETATM    5  C   UNL     1     -10.303   8.002  69.055  1.00  0.00    -0.228 A  
HETATM    6  C   UNL     1     -10.229   8.743  67.845  1.00  0.00    -0.272 A  
HETATM    7  C   UNL     1      -9.770   6.561  69.110  1.00  0.00    -0.143 C  
HETATM    8  C   UNL     1     -10.644  10.090  67.734  1.00  0.00    -0.311 A  
HETATM    9  C   UNL     1     -10.750   5.623  68.365  1.00  0.00    -0.229 C  
HETATM   10  C   UNL     1      -8.379   6.433  68.455  1.00  0.00    -0.113 C  
HETATM   11  C   UNL     1      -9.606   6.066  70.570  1.00  0.00    -0.198 C  
HETATM   12  C   UNL     1     -10.035   8.522  72.533  1.00  0.00    -0.322 C  
HETATM   13  C   UNL     1     -10.817   6.392  71.426  1.00  0.00    -0.301 C  
HETATM   14  C   UNL     1     -12.470   8.100  72.116  1.00  0.00    -0.364 C  
HETATM   15  C   UNL     1     -11.047   7.914  71.536  1.00  0.00    -0.278 C  
ENDROOT
BRANCH   8  16
HETATM   16  C   UNL     1     -10.544  10.761  66.396  1.00  0.00    -0.266 C  
HETATM   17  C   UNL     1     -10.035   9.987  65.415  1.00  0.00    -0.364 C  
BRANCH  16  18
HETATM   18  C   UNL     1     -10.750  12.221  66.114  1.00  0.00    -0.296 A  
HETATM   19  C   UNL     1     -11.945  12.740  65.573  1.00  0.00    -0.497 A  
HETATM   20  C   UNL     1     -12.056  14.090  65.189  1.00  0.00    -0.418 A  
HETATM   21  C   UNL     1     -10.966  14.947  65.337  1.00  0.00    -0.371 A  
HETATM   22  C   UNL     1      -9.807  14.468  65.954  1.00  0.00    -0.347 A  
HETATM   23  C   UNL     1     -10.982  16.371  64.903  1.00  0.00    -0.263 C  
HETATM   24  C   UNL     1      -9.706  13.128  66.345  1.00  0.00    -0.269 A  
HETATM   25  O   UNL     1     -11.782  16.624  63.843  1.00  0.00    -1.153 OA 
HETATM   26  O   UNL     1     -10.291  17.228  65.423  1.00  0.00    -0.626 OA 
ENDBRANCH  16  18
ENDBRANCH   8  16
TORSDOF 2
ENDMDL
MODEL        7
REMARK 921   NORMALIZED FREE ENERGY PREDICTED BY IDOCK:   -7.89 KCAL/MOL
REMARK 922        TOTAL FREE ENERGY PREDICTED BY IDOCK:   -8.96 KCAL/MOL
REMARK 923 INTER-LIGAND FREE ENERGY PREDICTED BY IDOCK:   -7.99 KCAL/MOL
REMARK 924 INTRA-LIGAND FREE ENERGY PREDICTED BY IDOCK:   -0.96 KCAL/MOL
REMARK 927      BINDING AFFINITY PREDICTED BY RF-SCORE:    0.00 PKD
ROOT
HETATM    1  C   UNL     1     -11.935  13.096  69.711  1.00  0.00    -0.382 C  
HETATM    2  C   UNL     1     -11.415  11.773  69.221  1.00  0.00    -0.369 A  
HETATM    3  C   UNL     1     -11.420  10.701  70.134  1.00  0.00    -0.411 A  
HETATM    4  C   UNL     1     -10.993   9.398  69.804  1.00  0.00    -0.234 A  
HETATM    5  C   UNL     1     -10.519   9.165  68.496  1.00  0.00    -0.238 A  
HETATM    6  C   UNL     1     -10.563  10.237  67.566  1.00  0.00    -0.320 A  
HETATM    7  C   UNL     1      -9.983   7.791  68.064  1.00  0.00    -0.210 C  
HETATM    8  C   UNL     1     -10.988  11.543  67.906  1.00  0.00    -0.287 A  
HETATM    9  C   UNL     1     -11.029   7.092  67.163  1.00  0.00    -0.393 C  
HETATM   10  C   UNL     1      -8.661   7.908  67.278  1.00  0.00    -0.131 C  
HETATM   11  C   UNL     1      -9.679   6.885  69.286  1.00  0.00    -0.156 C  
HETATM   12  C   UNL     1      -9.921   8.622  71.930  1.00  0.00    -0.392 C  
HETATM   13  C   UNL     1     -10.803   6.901  70.306  1.00  0.00    -0.294 C  
HETATM   14  C   UNL     1     -12.384   8.272  71.628  1.00  0.00    -0.349 C  
HETATM   15  C   UNL     1     -11.023   8.312  70.892  1.00  0.00    -0.275 C  
ENDROOT
BRANCH   8  16
HETATM   16  C   UNL     1     -11.017  12.588  66.830  1.00  0.00    -0.296 C  
HETATM   17  C   UNL     1     -11.905  12.353  65.842  1.00  0.00    -0.467 C  
BRANCH  16  18
HETATM   18  C   UNL     1     -10.037  13.711  66.654  1.00  0.00    -0.277 A  
HETATM   19  C   UNL     1      -8.764  13.727  67.263  1.00  0.00    -0.226 A  
HETATM   20  C   UNL     1      -7.926  14.856  67.194  1.00  0.00    -0.227 A  
HETATM   21  C   UNL     1      -8.352  15.997  66.514  1.00  0.00    -0.348 A  
HETATM   22  C   UNL     1      -9.571  15.964  65.831  1.00  0.00    -0.378 A  
HETATM   23  C   UNL     1      -7.552  17.251  66.443  1.00  0.00    -0.314 C  
HETATM   24  C   UNL     1     -10.395  14.833  65.893  1.00  0.00    -0.335 A  
HETATM   25  O   UNL     1      -6.764  17.473  67.519  1.00  0.00    -0.153 OA 
HETATM   26  O   UNL     1      -7.640  18.040  65.520  1.00  0.00    -0.530 OA 
ENDBRANCH  16  18
ENDBRANCH   8  16
TORSDOF 2
ENDMDL
MODEL        8
REMARK 921   NORMALIZED FREE ENERGY PREDICTED BY IDOCK:   -7.65 KCAL/MOL
REMARK 922        TOTAL FREE ENERGY PREDICTED BY IDOCK:   -8.70 KCAL/MOL
REMARK 923 INTER-LIGAND FREE ENERGY PREDICTED BY IDOCK:   -7.75 KCAL/MOL
REMARK 924 INTRA-LIGAND FREE ENERGY PREDICTED BY IDOCK:   -0.95 KCAL/MOL
REMARK 927      BINDING AFFINITY PREDICTED BY RF-SCORE:    0.00 PKD
ROOT
HETATM    1  C   UNL     1     -12.223  13.236  69.805  1.00  0.00    -0.285 C  
HETATM    2  C   UNL     1     -11.579  11.974  69.301  1.00  0.00    -0.380 A  
HETATM    3  C   UNL     1     -11.573  10.864  70.168  1.00  0.00    -0.425 A  
HETATM    4  C   UNL     1     -11.034   9.609  69.817  1.00  0.00    -0.266 A  
HETATM    5  C   UNL     1     -10.456   9.467  68.540  1.00  0.00    -0.247 A  
HETATM    6  C   UNL     1     -10.509  10.575  67.652  1.00  0.00    -0.276 A  
HETATM    7  C   UNL     1      -9.796   8.153  68.093  1.00  0.00    -0.194 C  
HETATM    8  C   UNL     1     -11.047  11.833  68.012  1.00  0.00    -0.297 A  
HETATM    9  C   UNL     1     -10.725   7.426  67.091  1.00  0.00    -0.400 C  
HETATM   10  C   UNL     1      -8.434   8.393  67.410  1.00  0.00    -0.124 C  
HETATM   11  C   UNL     1      -9.515   7.215  69.296  1.00  0.00    -0.152 C  
HETATM   12  C   UNL     1     -10.061   8.812  71.983  1.00  0.00    -0.397 C  
HETATM   13  C   UNL     1     -10.706   7.111  70.232  1.00  0.00    -0.258 C  
HETATM   14  C   UNL     1     -12.467   8.313  71.490  1.00  0.00    -0.340 C  
HETATM   15  C   UNL     1     -11.064   8.476  70.856  1.00  0.00    -0.295 C  
ENDROOT
BRANCH   8  16
HETATM   16  C   UNL     1     -11.074  12.920  66.980  1.00  0.00    -0.309 C  
HETATM   17  C   UNL     1     -11.856  12.663  65.911  1.00  0.00    -0.499 C  
BRANCH  16  18
HETATM   18  C   UNL     1     -10.178  14.125  66.932  1.00  0.00    -0.267 A  
HETATM   19  C   UNL     1     -10.584  15.367  66.399  1.00  0.00    -0.307 A  
HETATM   20  C   UNL     1      -9.679  16.432  66.238  1.00  0.00    -0.332 A  
HETATM   21  C   UNL     1      -8.343  16.272  66.606  1.00  0.00    -0.315 A  
HETATM   22  C   UNL     1      -7.948  15.079  67.218  1.00  0.00    -0.234 A  
HETATM   23  C   UNL     1      -7.311  17.328  66.416  1.00  0.00    -0.301 C  
HETATM   24  C   UNL     1      -8.855  14.026  67.386  1.00  0.00    -0.210 A  
HETATM   25  O   UNL     1      -7.531  18.140  65.358  1.00  0.00    -0.499 OA 
HETATM   26  O   UNL     1      -6.322  17.420  67.121  1.00  0.00    -0.136 OA 
ENDBRANCH  16  18
ENDBRANCH   8  16
TORSDOF 2
ENDMDL
MODEL        9
REMARK 921   NORMALIZED FREE ENERGY PREDICTED BY IDOCK:   -7.62 KCAL/MOL
REMARK 922        TOTAL FREE ENERGY PREDICTED BY IDOCK:   -8.66 KCAL/MOL
REMARK 923 INTER-LIGAND FREE ENERGY PREDICTED BY IDOCK:   -8.53 KCAL/MOL
REMARK 924 INTRA-LIGAND FREE ENERGY PREDICTED BY IDOCK:   -0.13 KCAL/MOL
REMARK 927      BINDING AFFINITY PREDICTED BY RF-SCORE:    0.00 PKD
ROOT
HETATM    1  C   UNL     1      -9.792  11.088  66.839  1.00  0.00    -0.222 C  
HETATM    2  C   UNL     1     -10.345  10.356  68.031  1.00  0.00    -0.212 A  
HETATM    3  C   UNL     1     -10.061   8.980  68.129  1.00  0.00    -0.229 A  
HETATM    4  C   UNL     1     -10.485   8.175  69.206  1.00  0.00    -0.221 A  
HETATM    5  C   UNL     1     -11.249   8.778  70.226  1.00  0.00    -0.212 A  
HETATM    6  C   UNL     1     -11.490  10.175  70.146  1.00  0.00    -0.368 A  
HETATM    7  C   UNL     1     -11.801   7.967  71.409  1.00  0.00    -0.328 C  
HETATM    8  C   UNL     1     -11.065  10.976  69.061  1.00  0.00    -0.301 A  
HETATM    9  C   UNL     1     -10.970   8.278  72.677  1.00  0.00    -0.386 C  
HETATM   10  C   UNL     1     -13.279   8.301  71.700  1.00  0.00    -0.349 C  
HETATM   11  C   UNL     1     -11.750   6.442  71.131  1.00  0.00    -0.359 C  
HETATM   12  C   UNL     1     -10.965   5.985  68.091  1.00  0.00    -0.340 C  
HETATM   13  C   UNL     1     -10.414   6.008  70.555  1.00  0.00    -0.303 C  
HETATM   14  C   UNL     1      -8.634   6.441  68.890  1.00  0.00    -0.123 C  
HETATM   15  C   UNL     1     -10.134   6.678  69.193  1.00  0.00    -0.185 C  
ENDROOT
BRANCH   8  16
HETATM   16  C   UNL     1     -11.354  12.447  69.101  1.00  0.00    -0.327 C  
HETATM   17  C   UNL     1     -12.024  12.859  70.197  1.00  0.00    -0.373 C  
BRANCH  16  18
HETATM   18  C   UNL     1     -11.162  13.423  67.976  1.00  0.00    -0.298 A  
HETATM   19  C   UNL     1     -10.077  14.324  67.914  1.00  0.00    -0.233 A  
HETATM   20  C   UNL     1     -10.000  15.321  66.924  1.00  0.00    -0.243 A  
HETATM   21  C   UNL     1     -11.016  15.438  65.975  1.00  0.00    -0.286 A  
HETATM   22  C   UNL     1     -12.051  14.497  65.971  1.00  0.00    -0.298 A  
HETATM   23  C   UNL     1     -11.041  16.499  64.931  1.00  0.00    -0.190 C  
HETATM   24  C   UNL     1     -12.115  13.500  66.951  1.00  0.00    -0.417 A  
HETATM   25  O   UNL     1     -10.450  17.658  65.298  1.00  0.00    -0.630 OA 
HETATM   26  O   UNL     1     -11.594  16.356  63.856  1.00  0.00    -1.100 OA 
ENDBRANCH  16  18
ENDBRANCH   8  16
TORSDOF 2
ENDMDL
MODEL       10
REMARK 921   NORMALIZED FREE ENERGY PREDICTED BY IDOCK:   -7.53 KCAL/MOL
REMARK 922        TOTAL FREE ENERGY PREDICTED BY IDOCK:   -8.56 KCAL/MOL
REMARK 923 INTER-LIGAND FREE ENERGY PREDICTED BY IDOCK:   -7.71 KCAL/MOL
REMARK 924 INTRA-LIGAND FREE ENERGY PREDICTED BY IDOCK:   -0.84 KCAL/MOL
REMARK 927      BINDING AFFINITY PREDICTED BY RF-SCORE:    0.00 PKD
ROOT
HETATM    1  C   UNL     1     -12.617  13.390  70.315  1.00  0.00    -0.187 C  
HETATM    2  C   UNL     1     -11.872  12.238  69.698  1.00  0.00    -0.393 A  
HETATM    3  C   UNL     1     -11.791  11.049  70.448  1.00  0.00    -0.460 A  
HETATM    4  C   UNL     1     -11.154   9.880  69.983  1.00  0.00    -0.335 A  
HETATM    5  C   UNL     1     -10.551   9.914  68.709  1.00  0.00    -0.246 A  
HETATM    6  C   UNL     1     -10.678  11.100  67.938  1.00  0.00    -0.261 A  
HETATM    7  C   UNL     1      -9.786   8.705  68.145  1.00  0.00    -0.192 C  
HETATM    8  C   UNL     1     -11.315  12.270  68.413  1.00  0.00    -0.340 A  
HETATM    9  C   UNL     1     -10.645   8.018  67.056  1.00  0.00    -0.364 C  
HETATM   10  C   UNL     1      -8.439   9.116  67.517  1.00  0.00    -0.116 C  
HETATM   11  C   UNL     1      -9.449   7.673  69.252  1.00  0.00    -0.158 C  
HETATM   12  C   UNL     1     -10.149   8.940  72.075  1.00  0.00    -0.351 C  
HETATM   13  C   UNL     1     -10.640   7.384  70.149  1.00  0.00    -0.240 C  
HETATM   14  C   UNL     1     -12.503   8.315  71.486  1.00  0.00    -0.340 C  
HETATM   15  C   UNL     1     -11.110   8.647  70.901  1.00  0.00    -0.310 C  
ENDROOT
BRANCH   8  16
HETATM   16  C   UNL     1     -11.413  13.453  67.496  1.00  0.00    -0.357 C  
HETATM   17  C   UNL     1     -12.120  13.234  66.368  1.00  0.00    -0.454 C  
BRANCH  16  18
HETATM   18  C   UNL     1     -10.646  14.738  67.616  1.00  0.00    -0.262 A  
HETATM   19  C   UNL     1      -9.315  14.886  67.172  1.00  0.00    -0.227 A  
HETATM   20  C   UNL     1      -8.578  16.057  67.427  1.00  0.00    -0.194 A  
HETATM   21  C   UNL     1      -9.162  17.106  68.137  1.00  0.00    -0.261 A  
HETATM   22  C   UNL     1     -10.507  17.009  68.505  1.00  0.00    -0.373 A  
HETATM   23  C   UNL     1      -8.433  18.354  68.498  1.00  0.00    -0.325 C  
HETATM   24  C   UNL     1     -11.240  15.846  68.239  1.00  0.00    -0.354 A  
HETATM   25  O   UNL     1      -7.105  18.191  68.686  1.00  0.00    -0.250 OA 
HETATM   26  O   UNL     1      -8.994  19.422  68.664  1.00  0.00    -0.365 OA 
ENDBRANCH  16  18
ENDBRANCH   8  16
TORSDOF 2
ENDMDL
MODEL       11
REMARK 921   NORMALIZED FREE ENERGY PREDICTED BY IDOCK:   -7.53 KCAL/MOL
REMARK 922        TOTAL FREE ENERGY PREDICTED BY IDOCK:   -8.56 KCAL/MOL
REMARK 923 INTER-LIGAND FREE ENERGY PREDICTED BY IDOCK:   -7.71 KCAL/MOL
REMARK 924 INTRA-LIGAND FREE ENERGY PREDICTED BY IDOCK:   -0.85 KCAL/MOL
REMARK 927      BINDING AFFINITY PREDICTED BY RF-SCORE:    0.00 PKD
ROOT
HETATM    1  C   UNL     1      -7.629  14.391  69.323  1.00  0.00    -0.029 C  
HETATM    2  C   UNL     1      -8.142  15.737  68.892  1.00  0.00    -0.207 A  
HETATM    3  C   UNL     1      -7.200  16.776  68.769  1.00  0.00    -0.217 A  
HETATM    4  C   UNL     1      -7.532  18.078  68.343  1.00  0.00    -0.281 A  
HETATM    5  C   UNL     1      -8.881  18.357  68.046  1.00  0.00    -0.302 A  
HETATM    6  C   UNL     1      -9.819  17.293  68.124  1.00  0.00    -0.290 A  
HETATM    7  C   UNL     1      -9.344  19.763  67.628  1.00  0.00    -0.445 C  
HETATM    8  C   UNL     1      -9.479  15.990  68.556  1.00  0.00    -0.216 A  
HETATM    9  C   UNL     1      -9.631  19.778  66.108  1.00  0.00    -0.484 C  
HETATM   10  C   UNL     1     -10.624  20.194  68.372  1.00  0.00    -0.163 C  
HETATM   11  C   UNL     1      -8.274  20.837  67.953  1.00  0.00     0.059 C  
HETATM   12  C   UNL     1      -5.990  19.505  69.707  1.00  0.00    -0.311 C  
HETATM   13  C   UNL     1      -6.882  20.409  67.524  1.00  0.00    -0.327 C  
HETATM   14  C   UNL     1      -5.176  18.614  67.510  1.00  0.00    -0.152 C  
HETATM   15  C   UNL     1      -6.420  19.138  68.269  1.00  0.00    -0.254 C  
ENDROOT
BRANCH   8  16
HETATM   16  C   UNL     1     -10.550  14.940  68.571  1.00  0.00    -0.245 C  
HETATM   17  C   UNL     1     -11.054  14.667  69.792  1.00  0.00    -0.268 C  
BRANCH  16  18
HETATM   18  C   UNL     1     -10.942  14.051  67.426  1.00  0.00    -0.302 A  
HETATM   19  C   UNL     1     -10.185  12.929  67.027  1.00  0.00    -0.243 A  
HETATM   20  C   UNL     1     -10.501  12.201  65.865  1.00  0.00    -0.288 A  
HETATM   21  C   UNL     1     -11.584  12.587  65.075  1.00  0.00    -0.392 A  
HETATM   22  C   UNL     1     -12.395  13.641  65.506  1.00  0.00    -0.519 A  
HETATM   23  C   UNL     1     -11.950  11.907  63.802  1.00  0.00    -0.445 C  
HETATM   24  C   UNL     1     -12.083  14.354  66.670  1.00  0.00    -0.392 A  
HETATM   25  O   UNL     1     -10.905  11.369  63.135  1.00  0.00    -0.284 OA 
HETATM   26  O   UNL     1     -13.087  11.884  63.368  1.00  0.00    -0.710 OA 
ENDBRANCH  16  18
ENDBRANCH   8  16
TORSDOF 2
ENDMDL
MODEL       12
REMARK 921   NORMALIZED FREE ENERGY PREDICTED BY IDOCK:   -7.50 KCAL/MOL
REMARK 922        TOTAL FREE ENERGY PREDICTED BY IDOCK:   -8.52 KCAL/MOL
REMARK 923 INTER-LIGAND FREE ENERGY PREDICTED BY IDOCK:   -7.62 KCAL/MOL
REMARK 924 INTRA-LIGAND FREE ENERGY PREDICTED BY IDOCK:   -0.90 KCAL/MOL
REMARK 927      BINDING AFFINITY PREDICTED BY RF-SCORE:    0.00 PKD
ROOT
HETATM    1  C   UNL     1     -12.660  13.219  70.605  1.00  0.00    -0.305 C  
HETATM    2  C   UNL     1     -11.903  12.096  69.949  1.00  0.00    -0.392 A  
HETATM    3  C   UNL     1     -11.871  10.861  70.625  1.00  0.00    -0.453 A  
HETATM    4  C   UNL     1     -11.228   9.715  70.115  1.00  0.00    -0.302 A  
HETATM    5  C   UNL     1     -10.569   9.819  68.873  1.00  0.00    -0.240 A  
HETATM    6  C   UNL     1     -10.648  11.053  68.174  1.00  0.00    -0.226 A  
HETATM    7  C   UNL     1      -9.796   8.637  68.266  1.00  0.00    -0.186 C  
HETATM    8  C   UNL     1     -11.290  12.200  68.694  1.00  0.00    -0.330 A  
HETATM    9  C   UNL     1     -10.615   8.032  67.101  1.00  0.00    -0.367 C  
HETATM   10  C   UNL     1      -8.417   9.065  67.725  1.00  0.00    -0.117 C  
HETATM   11  C   UNL     1      -9.521   7.532  69.319  1.00  0.00    -0.154 C  
HETATM   12  C   UNL     1     -10.328   8.630  72.185  1.00  0.00    -0.403 C  
HETATM   13  C   UNL     1     -10.753   7.205  70.144  1.00  0.00    -0.260 C  
HETATM   14  C   UNL     1     -12.662   8.079  71.457  1.00  0.00    -0.325 C  
HETATM   15  C   UNL     1     -11.240   8.426  70.954  1.00  0.00    -0.294 C  
ENDROOT
BRANCH   8  16
HETATM   16  C   UNL     1     -11.333  13.440  67.850  1.00  0.00    -0.322 C  
HETATM   17  C   UNL     1     -11.925  13.283  66.648  1.00  0.00    -0.446 C  
BRANCH  16  18
HETATM   18  C   UNL     1     -10.614  14.729  68.125  1.00  0.00    -0.241 A  
HETATM   19  C   UNL     1     -11.279  15.965  68.277  1.00  0.00    -0.354 A  
HETATM   20  C   UNL     1     -10.570  17.175  68.392  1.00  0.00    -0.371 A  
HETATM   21  C   UNL     1      -9.175  17.170  68.354  1.00  0.00    -0.266 A  
HETATM   22  C   UNL     1      -8.503  15.946  68.294  1.00  0.00    -0.170 A  
HETATM   23  C   UNL     1      -8.353  18.410  68.411  1.00  0.00    -0.308 C  
HETATM   24  C   UNL     1      -9.213  14.744  68.192  1.00  0.00    -0.195 A  
HETATM   25  O   UNL     1      -8.947  19.500  67.878  1.00  0.00    -0.308 OA 
HETATM   26  O   UNL     1      -7.217  18.430  68.852  1.00  0.00    -0.281 OA 
ENDBRANCH  16  18
ENDBRANCH   8  16
TORSDOF 2
ENDMDL
MODEL       13
REMARK 921   NORMALIZED FREE ENERGY PREDICTED BY IDOCK:   -7.46 KCAL/MOL
REMARK 922        TOTAL FREE ENERGY PREDICTED BY IDOCK:   -8.48 KCAL/MOL
REMARK 923 INTER-LIGAND FREE ENERGY PREDICTED BY IDOCK:   -8.42 KCAL/MOL
REMARK 924 INTRA-LIGAND FREE ENERGY PREDICTED BY IDOCK:   -0.07 KCAL/MOL
REMARK 927      BINDING AFFINITY PREDICTED BY RF-SCORE:    0.00 PKD
ROOT
HETATM    1  C   UNL     1     -10.145  10.433  65.459  1.00  0.00    -0.352 C  
HETATM    2  C   UNL     1     -10.257   9.559  66.678  1.00  0.00    -0.310 A  
HETATM    3  C   UNL     1      -9.817   8.227  66.557  1.00  0.00    -0.323 A  
HETATM    4  C   UNL     1      -9.832   7.305  67.623  1.00  0.00    -0.189 A  
HETATM    5  C   UNL     1     -10.333   7.737  68.868  1.00  0.00    -0.224 A  
HETATM    6  C   UNL     1     -10.730   9.094  68.997  1.00  0.00    -0.176 A  
HETATM    7  C   UNL     1     -10.439   6.785  70.071  1.00  0.00    -0.241 C  
HETATM    8  C   UNL     1     -10.716  10.012  67.922  1.00  0.00    -0.322 A  
HETATM    9  C   UNL     1      -9.319   7.114  71.086  1.00  0.00    -0.157 C  
HETATM   10  C   UNL     1     -11.800   6.908  70.787  1.00  0.00    -0.427 C  
HETATM   11  C   UNL     1     -10.312   5.301  69.640  1.00  0.00    -0.348 C  
HETATM   12  C   UNL     1     -10.380   5.150  66.471  1.00  0.00    -0.336 C  
HETATM   13  C   UNL     1      -9.157   5.079  68.679  1.00  0.00    -0.139 C  
HETATM   14  C   UNL     1      -7.978   5.845  66.641  1.00  0.00    -0.102 C  
HETATM   15  C   UNL     1      -9.346   5.869  67.366  1.00  0.00    -0.111 C  
ENDROOT
BRANCH   8  16
HETATM   16  C   UNL     1     -11.132  11.429  68.185  1.00  0.00    -0.306 C  
HETATM   17  C   UNL     1     -11.757  11.622  69.365  1.00  0.00    -0.405 C  
BRANCH  16  18
HETATM   18  C   UNL     1     -11.108  12.562  67.201  1.00  0.00    -0.321 A  
HETATM   19  C   UNL     1      -9.978  13.383  66.997  1.00  0.00    -0.246 A  
HETATM   20  C   UNL     1     -10.031  14.522  66.173  1.00  0.00    -0.330 A  
HETATM   21  C   UNL     1     -11.225  14.865  65.537  1.00  0.00    -0.348 A  
HETATM   22  C   UNL     1     -12.326  14.013  65.659  1.00  0.00    -0.502 A  
HETATM   23  C   UNL     1     -11.381  16.084  64.697  1.00  0.00    -0.306 C  
HETATM   24  C   UNL     1     -12.264  12.874  66.471  1.00  0.00    -0.258 A  
HETATM   25  O   UNL     1     -10.598  17.122  65.066  1.00  0.00    -0.704 OA 
HETATM   26  O   UNL     1     -12.187  16.160  63.787  1.00  0.00    -0.934 OA 
ENDBRANCH  16  18
ENDBRANCH   8  16
TORSDOF 2
ENDMDL
MODEL       14
REMARK 921   NORMALIZED FREE ENERGY PREDICTED BY IDOCK:   -7.35 KCAL/MOL
REMARK 922        TOTAL FREE ENERGY PREDICTED BY IDOCK:   -8.36 KCAL/MOL
REMARK 923 INTER-LIGAND FREE ENERGY PREDICTED BY IDOCK:   -7.85 KCAL/MOL
REMARK 924 INTRA-LIGAND FREE ENERGY PREDICTED BY IDOCK:   -0.51 KCAL/MOL
REMARK 927      BINDING AFFINITY PREDICTED BY RF-SCORE:    0.00 PKD
ROOT
HETATM    1  C   UNL     1     -12.767   9.767  71.782  1.00  0.00    -0.519 C  
HETATM    2  C   UNL     1     -12.316  11.009  71.063  1.00  0.00    -0.490 A  
HETATM    3  C   UNL     1     -12.715  12.247  71.605  1.00  0.00    -0.309 A  
HETATM    4  C   UNL     1     -12.340  13.490  71.056  1.00  0.00    -0.422 A  
HETATM    5  C   UNL     1     -11.540  13.491  69.895  1.00  0.00    -0.271 A  
HETATM    6  C   UNL     1     -11.100  12.241  69.383  1.00  0.00    -0.166 A  
HETATM    7  C   UNL     1     -11.129  14.798  69.198  1.00  0.00    -0.278 C  
HETATM    8  C   UNL     1     -11.485  10.997  69.936  1.00  0.00    -0.400 A  
HETATM    9  C   UNL     1      -9.639  15.092  69.496  1.00  0.00    -0.158 C  
HETATM   10  C   UNL     1     -11.315  14.719  67.669  1.00  0.00    -0.352 C  
HETATM   11  C   UNL     1     -11.989  15.997  69.675  1.00  0.00    -0.189 C  
HETATM   12  C   UNL     1     -14.372  14.896  71.457  1.00  0.00    -0.631 C  
HETATM   13  C   UNL     1     -12.134  16.033  71.187  1.00  0.00    -0.406 C  
HETATM   14  C   UNL     1     -12.630  14.763  73.253  1.00  0.00    -0.554 C  
HETATM   15  C   UNL     1     -12.855  14.777  71.722  1.00  0.00    -0.396 C  
ENDROOT
BRANCH   8  16
HETATM   16  C   UNL     1     -10.934   9.743  69.325  1.00  0.00    -0.222 C  
HETATM   17  C   UNL     1     -11.017   9.689  67.980  1.00  0.00    -0.197 C  
BRANCH  16  18
HETATM   18  C   UNL     1     -10.513   8.504  70.062  1.00  0.00    -0.226 A  
HETATM   19  C   UNL     1     -10.995   7.217  69.743  1.00  0.00    -0.256 A  
HETATM   20  C   UNL     1     -10.693   6.097  70.540  1.00  0.00    -0.340 A  
HETATM   21  C   UNL     1      -9.902   6.248  71.680  1.00  0.00    -0.184 A  
HETATM   22  C   UNL     1      -9.346   7.500  71.957  1.00  0.00    -0.165 A  
HETATM   23  C   UNL     1      -9.584   5.127  72.607  1.00  0.00    -0.147 C  
HETATM   24  C   UNL     1      -9.640   8.608  71.154  1.00  0.00    -0.281 A  
HETATM   25  O   UNL     1     -10.541   4.176  72.683  1.00  0.00    -0.177 OA 
HETATM   26  O   UNL     1      -8.572   5.096  73.283  1.00  0.00    -0.113 OA 
ENDBRANCH  16  18
ENDBRANCH   8  16
TORSDOF 2
ENDMDL
MODEL       15
REMARK 921   NORMALIZED FREE ENERGY PREDICTED BY IDOCK:   -7.30 KCAL/MOL
REMARK 922        TOTAL FREE ENERGY PREDICTED BY IDOCK:   -8.30 KCAL/MOL
REMARK 923 INTER-LIGAND FREE ENERGY PREDICTED BY IDOCK:   -7.42 KCAL/MOL
REMARK 924 INTRA-LIGAND FREE ENERGY PREDICTED BY IDOCK:   -0.88 KCAL/MOL
REMARK 927      BINDING AFFINITY PREDICTED BY RF-SCORE:    0.00 PKD
ROOT
HETATM    1  C   UNL     1      -7.955  13.437  67.256  1.00  0.00    -0.130 C  
HETATM    2  C   UNL     1      -8.340  14.891  67.300  1.00  0.00    -0.233 A  
HETATM    3  C   UNL     1      -7.295  15.835  67.261  1.00  0.00    -0.257 A  
HETATM    4  C   UNL     1      -7.509  17.228  67.262  1.00  0.00    -0.201 A  
HETATM    5  C   UNL     1      -8.837  17.697  67.325  1.00  0.00    -0.240 A  
HETATM    6  C   UNL     1      -9.887  16.741  67.314  1.00  0.00    -0.260 A  
HETATM    7  C   UNL     1      -9.162  19.199  67.386  1.00  0.00    -0.344 C  
HETATM    8  C   UNL     1      -9.666  15.344  67.317  1.00  0.00    -0.212 A  
HETATM    9  C   UNL     1      -9.699  19.664  66.011  1.00  0.00    -0.421 C  
HETATM   10  C   UNL     1     -10.224  19.517  68.459  1.00  0.00    -0.517 C  
HETATM   11  C   UNL     1      -7.912  20.040  67.754  1.00  0.00    -0.324 C  
HETATM   12  C   UNL     1      -5.573  18.074  68.606  1.00  0.00    -0.175 C  
HETATM   13  C   UNL     1      -6.688  19.627  66.957  1.00  0.00    -0.212 C  
HETATM   14  C   UNL     1      -5.278  17.765  66.136  1.00  0.00    -0.225 C  
HETATM   15  C   UNL     1      -6.289  18.163  67.239  1.00  0.00    -0.187 C  
ENDROOT
BRANCH   8  16
HETATM   16  C   UNL     1     -10.855  14.432  67.278  1.00  0.00    -0.290 C  
HETATM   17  C   UNL     1     -11.676  14.622  66.224  1.00  0.00    -0.325 C  
BRANCH  16  18
HETATM   18  C   UNL     1     -11.307  13.510  68.373  1.00  0.00    -0.327 A  
HETATM   19  C   UNL     1     -11.275  12.104  68.260  1.00  0.00    -0.319 A  
HETATM   20  C   UNL     1     -11.837  11.271  69.246  1.00  0.00    -0.423 A  
HETATM   21  C   UNL     1     -12.447  11.834  70.367  1.00  0.00    -0.280 A  
HETATM   22  C   UNL     1     -12.407  13.221  70.535  1.00  0.00    -0.389 A  
HETATM   23  C   UNL     1     -13.115  11.027  71.425  1.00  0.00    -0.341 C  
HETATM   24  C   UNL     1     -11.836  14.045  69.557  1.00  0.00    -0.378 A  
HETATM   25  O   UNL     1     -13.656   9.868  70.987  1.00  0.00    -0.329 OA 
HETATM   26  O   UNL     1     -13.214  11.403  72.579  1.00  0.00    -0.081 OA 
ENDBRANCH  16  18
ENDBRANCH   8  16
TORSDOF 2
ENDMDL
MODEL       16
REMARK 921   NORMALIZED FREE ENERGY PREDICTED BY IDOCK:   -7.30 KCAL/MOL
REMARK 922        TOTAL FREE ENERGY PREDICTED BY IDOCK:   -8.30 KCAL/MOL
REMARK 923 INTER-LIGAND FREE ENERGY PREDICTED BY IDOCK:   -7.85 KCAL/MOL
REMARK 924 INTRA-LIGAND FREE ENERGY PREDICTED BY IDOCK:   -0.45 KCAL/MOL
REMARK 927      BINDING AFFINITY PREDICTED BY RF-SCORE:    0.00 PKD
ROOT
HETATM    1  C   UNL     1      -9.849   9.111  69.814  1.00  0.00    -0.192 C  
HETATM    2  C   UNL     1     -10.239   9.981  68.651  1.00  0.00    -0.198 A  
HETATM    3  C   UNL     1      -9.539   9.793  67.444  1.00  0.00    -0.187 A  
HETATM    4  C   UNL     1      -9.819  10.514  66.264  1.00  0.00    -0.269 A  
HETATM    5  C   UNL     1     -10.840  11.485  66.305  1.00  0.00    -0.333 A  
HETATM    6  C   UNL     1     -11.575  11.635  67.511  1.00  0.00    -0.345 A  
HETATM    7  C   UNL     1     -11.176  12.356  65.084  1.00  0.00    -0.356 C  
HETATM    8  C   UNL     1     -11.286  10.912  68.692  1.00  0.00    -0.360 A  
HETATM    9  C   UNL     1     -12.499  11.862  64.450  1.00  0.00    -0.211 C  
HETATM   10  C   UNL     1     -11.340  13.842  65.462  1.00  0.00    -0.310 C  
HETATM   11  C   UNL     1     -10.052  12.304  64.017  1.00  0.00    -0.351 C  
HETATM   12  C   UNL     1      -7.548  10.791  65.246  1.00  0.00     0.079 C  
HETATM   13  C   UNL     1      -9.580  10.886  63.749  1.00  0.00    -0.331 C  
HETATM   14  C   UNL     1      -8.860   8.723  64.714  1.00  0.00    -0.089 C  
HETATM   15  C   UNL     1      -8.972  10.238  65.011  1.00  0.00    -0.225 C  
ENDROOT
BRANCH   8  16
HETATM   16  C   UNL     1     -12.150  11.136  69.897  1.00  0.00    -0.418 C  
HETATM   17  C   UNL     1     -12.898  10.073  70.258  1.00  0.00     0.008 C  
BRANCH  16  18
HETATM   18  C   UNL     1     -12.406  12.449  70.578  1.00  0.00    -0.346 A  
HETATM   19  C   UNL     1     -11.787  13.655  70.185  1.00  0.00    -0.351 A  
HETATM   20  C   UNL     1     -11.938  14.839  70.930  1.00  0.00    -0.384 A  
HETATM   21  C   UNL     1     -12.712  14.837  72.090  1.00  0.00    -0.401 A  
HETATM   22  C   UNL     1     -13.403  13.674  72.442  1.00  0.00    -0.641 A  
HETATM   23  C   UNL     1     -12.875  16.031  72.965  1.00  0.00    -0.488 C  
HETATM   24  C   UNL     1     -13.259  12.501  71.690  1.00  0.00    -0.381 A  
HETATM   25  O   UNL     1     -11.813  16.866  72.975  1.00  0.00    -0.361 OA 
HETATM   26  O   UNL     1     -13.861  16.213  73.657  1.00  0.00    -0.413 OA 
ENDBRANCH  16  18
ENDBRANCH   8  16
TORSDOF 2
ENDMDL
MODEL       17
REMARK 921   NORMALIZED FREE ENERGY PREDICTED BY IDOCK:   -7.28 KCAL/MOL
REMARK 922        TOTAL FREE ENERGY PREDICTED BY IDOCK:   -8.28 KCAL/MOL
REMARK 923 INTER-LIGAND FREE ENERGY PREDICTED BY IDOCK:   -7.49 KCAL/MOL
REMARK 924 INTRA-LIGAND FREE ENERGY PREDICTED BY IDOCK:   -0.78 KCAL/MOL
REMARK 927      BINDING AFFINITY PREDICTED BY RF-SCORE:    0.00 PKD
ROOT
HETATM    1  C   UNL     1      -9.858   8.332  72.948  1.00  0.00    -0.303 C  
HETATM    2  C   UNL     1      -9.917   8.182  71.452  1.00  0.00    -0.230 A  
HETATM    3  C   UNL     1      -8.889   7.439  70.839  1.00  0.00    -0.148 A  
HETATM    4  C   UNL     1      -8.833   7.190  69.453  1.00  0.00    -0.136 A  
HETATM    5  C   UNL     1      -9.849   7.729  68.639  1.00  0.00    -0.174 A  
HETATM    6  C   UNL     1     -10.909   8.436  69.268  1.00  0.00    -0.069 A  
HETATM    7  C   UNL     1      -9.839   7.555  67.111  1.00  0.00    -0.263 C  
HETATM    8  C   UNL     1     -10.956   8.686  70.659  1.00  0.00    -0.274 A  
HETATM    9  C   UNL     1     -10.904   6.507  66.707  1.00  0.00    -0.345 C  
HETATM   10  C   UNL     1     -10.150   8.876  66.377  1.00  0.00    -0.333 C  
HETATM   11  C   UNL     1      -8.452   7.093  66.597  1.00  0.00    -0.121 C  
HETATM   12  C   UNL     1      -6.373   7.249  68.989  1.00  0.00    -0.036 C  
HETATM   13  C   UNL     1      -7.880   5.958  67.428  1.00  0.00    -0.102 C  
HETATM   14  C   UNL     1      -7.411   5.080  69.695  1.00  0.00    -0.056 C  
HETATM   15  C   UNL     1      -7.649   6.383  68.894  1.00  0.00    -0.100 C  
ENDROOT
BRANCH   8  16
HETATM   16  C   UNL     1     -12.141   9.419  71.214  1.00  0.00    -0.424 C  
HETATM   17  C   UNL     1     -13.134   8.625  71.663  1.00  0.00    -0.381 C  
BRANCH  16  18
HETATM   18  C   UNL     1     -12.399  10.896  71.120  1.00  0.00    -0.479 A  
HETATM   19  C   UNL     1     -11.815  11.718  70.132  1.00  0.00    -0.408 A  
HETATM   20  C   UNL     1     -11.963  13.118  70.156  1.00  0.00    -0.381 A  
HETATM   21  C   UNL     1     -12.698  13.722  71.176  1.00  0.00    -0.438 A  
HETATM   22  C   UNL     1     -13.355  12.914  72.108  1.00  0.00    -0.615 A  
HETATM   23  C   UNL     1     -12.854  15.197  71.306  1.00  0.00    -0.391 C  
HETATM   24  C   UNL     1     -13.214  11.521  72.073  1.00  0.00    -0.443 A  
HETATM   25  O   UNL     1     -11.808  15.914  70.839  1.00  0.00    -0.373 OA 
HETATM   26  O   UNL     1     -13.819  15.715  71.839  1.00  0.00    -0.471 OA 
ENDBRANCH  16  18
ENDBRANCH   8  16
TORSDOF 2
ENDMDL
MODEL       18
REMARK 921   NORMALIZED FREE ENERGY PREDICTED BY IDOCK:   -7.26 KCAL/MOL
REMARK 922        TOTAL FREE ENERGY PREDICTED BY IDOCK:   -8.26 KCAL/MOL
REMARK 923 INTER-LIGAND FREE ENERGY PREDICTED BY IDOCK:   -7.33 KCAL/MOL
REMARK 924 INTRA-LIGAND FREE ENERGY PREDICTED BY IDOCK:   -0.93 KCAL/MOL
REMARK 927      BINDING AFFINITY PREDICTED BY RF-SCORE:    0.00 PKD
ROOT
HETATM    1  C   UNL     1     -10.416  11.232  64.684  1.00  0.00    -0.387 C  
HETATM    2  C   UNL     1     -10.499  10.732  66.100  1.00  0.00    -0.278 A  
HETATM    3  C   UNL     1     -10.232   9.366  66.317  1.00  0.00    -0.284 A  
HETATM    4  C   UNL     1     -10.240   8.768  67.594  1.00  0.00    -0.298 A  
HETATM    5  C   UNL     1     -10.552   9.577  68.705  1.00  0.00    -0.240 A  
HETATM    6  C   UNL     1     -10.773  10.963  68.486  1.00  0.00    -0.239 A  
HETATM    7  C   UNL     1     -10.640   8.998  70.127  1.00  0.00    -0.250 C  
HETATM    8  C   UNL     1     -10.767  11.556  67.202  1.00  0.00    -0.294 A  
HETATM    9  C   UNL     1      -9.387   9.421  70.931  1.00  0.00    -0.263 C  
HETATM   10  C   UNL     1     -11.892   9.495  70.877  1.00  0.00    -0.385 C  
HETATM   11  C   UNL     1     -10.733   7.450  70.110  1.00  0.00    -0.254 C  
HETATM   12  C   UNL     1     -11.155   6.486  67.117  1.00  0.00    -0.434 C  
HETATM   13  C   UNL     1      -9.721   6.824  69.167  1.00  0.00    -0.147 C  
HETATM   14  C   UNL     1      -8.685   6.856  66.919  1.00  0.00    -0.118 C  
HETATM   15  C   UNL     1      -9.955   7.261  67.705  1.00  0.00    -0.205 C  
ENDROOT
BRANCH   8  16
HETATM   16  C   UNL     1     -10.985  13.036  67.097  1.00  0.00    -0.293 C  
HETATM   17  C   UNL     1     -12.279  13.412  67.044  1.00  0.00    -0.321 C  
BRANCH  16  18
HETATM   18  C   UNL     1      -9.932  14.075  66.840  1.00  0.00    -0.263 A  
HETATM   19  C   UNL     1      -8.658  14.048  67.448  1.00  0.00    -0.211 A  
HETATM   20  C   UNL     1      -7.746  15.110  67.298  1.00  0.00    -0.241 A  
HETATM   21  C   UNL     1      -8.097  16.225  66.536  1.00  0.00    -0.337 A  
HETATM   22  C   UNL     1      -9.318  16.225  65.857  1.00  0.00    -0.299 A  
HETATM   23  C   UNL     1      -7.214  17.414  66.375  1.00  0.00    -0.298 C  
HETATM   24  C   UNL     1     -10.217  15.160  66.000  1.00  0.00    -0.325 A  
HETATM   25  O   UNL     1      -6.409  17.659  67.432  1.00  0.00    -0.141 OA 
HETATM   26  O   UNL     1      -7.253  18.137  65.396  1.00  0.00    -0.529 OA 
ENDBRANCH  16  18
ENDBRANCH   8  16
TORSDOF 2
ENDMDL
MODEL       19
REMARK 921   NORMALIZED FREE ENERGY PREDICTED BY IDOCK:   -7.16 KCAL/MOL
REMARK 922        TOTAL FREE ENERGY PREDICTED BY IDOCK:   -8.15 KCAL/MOL
REMARK 923 INTER-LIGAND FREE ENERGY PREDICTED BY IDOCK:   -7.43 KCAL/MOL
REMARK 924 INTRA-LIGAND FREE ENERGY PREDICTED BY IDOCK:   -0.72 KCAL/MOL
REMARK 927      BINDING AFFINITY PREDICTED BY RF-SCORE:    0.00 PKD
ROOT
HETATM    1  C   UNL     1     -10.831   7.822  73.291  1.00  0.00    -0.312 C  
HETATM    2  C   UNL     1     -10.638   7.747  71.801  1.00  0.00    -0.260 A  
HETATM    3  C   UNL     1      -9.650   6.863  71.324  1.00  0.00    -0.165 A  
HETATM    4  C   UNL     1      -9.383   6.665  69.954  1.00  0.00    -0.153 A  
HETATM    5  C   UNL     1     -10.131   7.406  69.016  1.00  0.00    -0.193 A  
HETATM    6  C   UNL     1     -11.159   8.258  69.501  1.00  0.00     0.039 A  
HETATM    7  C   UNL     1      -9.870   7.296  67.505  1.00  0.00    -0.198 C  
HETATM    8  C   UNL     1     -11.418   8.456  70.877  1.00  0.00    -0.295 A  
HETATM    9  C   UNL     1     -10.999   6.466  66.849  1.00  0.00    -0.413 C  
HETATM   10  C   UNL     1      -9.822   8.679  66.825  1.00  0.00    -0.322 C  
HETATM   11  C   UNL     1      -8.506   6.622  67.208  1.00  0.00    -0.120 C  
HETATM   12  C   UNL     1      -6.903   6.317  69.929  1.00  0.00    -0.058 C  
HETATM   13  C   UNL     1      -8.289   5.372  68.042  1.00  0.00    -0.098 C  
HETATM   14  C   UNL     1      -8.392   4.333  70.287  1.00  0.00    -0.081 C  
HETATM   15  C   UNL     1      -8.264   5.690  69.553  1.00  0.00    -0.103 C  
ENDROOT
BRANCH   8  16
HETATM   16  C   UNL     1     -12.549   9.360  71.269  1.00  0.00    -0.403 C  
HETATM   17  C   UNL     1     -13.721   8.730  71.493  1.00  0.00    -0.384 C  
BRANCH  16  18
HETATM   18  C   UNL     1     -12.545  10.861  71.227  1.00  0.00    -0.526 A  
HETATM   19  C   UNL     1     -13.260  11.660  72.145  1.00  0.00    -0.327 A  
HETATM   20  C   UNL     1     -13.351  13.056  71.993  1.00  0.00    -0.588 A  
HETATM   21  C   UNL     1     -12.727  13.680  70.912  1.00  0.00    -0.382 A  
HETATM   22  C   UNL     1     -11.943  12.913  70.047  1.00  0.00    -0.380 A  
HETATM   23  C   UNL     1     -12.823  15.142  70.648  1.00  0.00    -0.388 C  
HETATM   24  C   UNL     1     -11.846  11.525  70.209  1.00  0.00    -0.431 A  
HETATM   25  O   UNL     1     -13.975  15.712  71.065  1.00  0.00    -0.534 OA 
HETATM   26  O   UNL     1     -11.959  15.765  70.057  1.00  0.00    -0.353 OA 
ENDBRANCH  16  18
ENDBRANCH   8  16
TORSDOF 2
ENDMDL
MODEL       20
REMARK 921   NORMALIZED FREE ENERGY PREDICTED BY IDOCK:   -7.13 KCAL/MOL
REMARK 922        TOTAL FREE ENERGY PREDICTED BY IDOCK:   -8.12 KCAL/MOL
REMARK 923 INTER-LIGAND FREE ENERGY PREDICTED BY IDOCK:   -7.14 KCAL/MOL
REMARK 924 INTRA-LIGAND FREE ENERGY PREDICTED BY IDOCK:   -0.98 KCAL/MOL
REMARK 927      BINDING AFFINITY PREDICTED BY RF-SCORE:    0.00 PKD
ROOT
HETATM    1  C   UNL     1     -11.992  12.470  65.104  1.00  0.00    -0.484 C  
HETATM    2  C   UNL     1     -10.676  12.067  65.709  1.00  0.00    -0.319 A  
HETATM    3  C   UNL     1     -10.027  10.948  65.152  1.00  0.00    -0.341 A  
HETATM    4  C   UNL     1      -8.774  10.478  65.596  1.00  0.00    -0.191 A  
HETATM    5  C   UNL     1      -8.151  11.152  66.666  1.00  0.00    -0.159 A  
HETATM    6  C   UNL     1      -8.787  12.309  67.191  1.00  0.00    -0.194 A  
HETATM    7  C   UNL     1      -6.812  10.676  67.251  1.00  0.00    -0.079 C  
HETATM    8  C   UNL     1     -10.046  12.773  66.743  1.00  0.00    -0.239 A  
HETATM    9  C   UNL     1      -5.682  11.624  66.785  1.00  0.00    -0.139 C  
HETATM   10  C   UNL     1      -6.830  10.658  68.794  1.00  0.00    -0.062 C  
HETATM   11  C   UNL     1      -6.475   9.229  66.807  1.00  0.00    -0.067 C  
HETATM   12  C   UNL     1      -9.005   7.997  65.341  1.00  0.00     0.013 C  
HETATM   13  C   UNL     1      -6.696   9.019  65.320  1.00  0.00    -0.068 C  
HETATM   14  C   UNL     1      -8.203   9.338  63.382  1.00  0.00    -0.176 C  
HETATM   15  C   UNL     1      -8.173   9.231  64.926  1.00  0.00    -0.146 C  
ENDROOT
BRANCH   8  16
HETATM   16  C   UNL     1     -10.605  14.023  67.354  1.00  0.00    -0.278 C  
HETATM   17  C   UNL     1     -10.140  15.169  66.816  1.00  0.00    -0.261 C  
BRANCH  16  18
HETATM   18  C   UNL     1     -11.437  14.110  68.602  1.00  0.00    -0.332 A  
HETATM   19  C   UNL     1     -11.759  15.332  69.230  1.00  0.00    -0.359 A  
HETATM   20  C   UNL     1     -12.418  15.372  70.472  1.00  0.00    -0.468 A  
HETATM   21  C   UNL     1     -12.765  14.182  71.115  1.00  0.00    -0.431 A  
HETATM   22  C   UNL     1     -12.531  12.968  70.463  1.00  0.00    -0.306 A  
HETATM   23  C   UNL     1     -13.411  14.137  72.455  1.00  0.00    -0.518 C  
HETATM   24  C   UNL     1     -11.886  12.935  69.221  1.00  0.00    -0.363 A  
HETATM   25  O   UNL     1     -13.083  15.164  73.269  1.00  0.00    -0.477 OA 
HETATM   26  O   UNL     1     -14.131  13.221  72.810  1.00  0.00    -0.691 OA 
ENDBRANCH  16  18
ENDBRANCH   8  16
TORSDOF 2
ENDMDL
MODEL       21
REMARK 921   NORMALIZED FREE ENERGY PREDICTED BY IDOCK:   -7.08 KCAL/MOL
REMARK 922        TOTAL FREE ENERGY PREDICTED BY IDOCK:   -8.05 KCAL/MOL
REMARK 923 INTER-LIGAND FREE ENERGY PREDICTED BY IDOCK:   -8.40 KCAL/MOL
REMARK 924 INTRA-LIGAND FREE ENERGY PREDICTED BY IDOCK:    0.35 KCAL/MOL
REMARK 927      BINDING AFFINITY PREDICTED BY RF-SCORE:    0.00 PKD
ROOT
HETATM    1  C   UNL     1     -12.962   9.875  71.339  1.00  0.00    -0.504 C  
HETATM    2  C   UNL     1     -12.447  11.166  70.764  1.00  0.00    -0.479 A  
HETATM    3  C   UNL     1     -12.808  12.355  71.427  1.00  0.00    -0.360 A  
HETATM    4  C   UNL     1     -12.371  13.633  71.021  1.00  0.00    -0.436 A  
HETATM    5  C   UNL     1     -11.547  13.723  69.881  1.00  0.00    -0.298 A  
HETATM    6  C   UNL     1     -11.147  12.517  69.246  1.00  0.00    -0.203 A  
HETATM    7  C   UNL     1     -11.070  15.078  69.334  1.00  0.00    -0.290 C  
HETATM    8  C   UNL     1     -11.592  11.239  69.656  1.00  0.00    -0.401 A  
HETATM    9  C   UNL     1      -9.576  15.276  69.687  1.00  0.00    -0.188 C  
HETATM   10  C   UNL     1     -11.226  15.169  67.802  1.00  0.00    -0.327 C  
HETATM   11  C   UNL     1     -11.891  16.254  69.922  1.00  0.00     0.026 C  
HETATM   12  C   UNL     1     -14.354  15.072  71.535  1.00  0.00    -0.651 C  
HETATM   13  C   UNL     1     -12.067  16.136  71.425  1.00  0.00    -0.384 C  
HETATM   14  C   UNL     1     -12.657  14.677  73.336  1.00  0.00    -0.497 C  
HETATM   15  C   UNL     1     -12.849  14.862  71.811  1.00  0.00    -0.404 C  
ENDROOT
BRANCH   8  16
HETATM   16  C   UNL     1     -11.078  10.034  68.925  1.00  0.00    -0.219 C  
HETATM   17  C   UNL     1     -10.799   8.975  69.712  1.00  0.00    -0.215 C  
BRANCH  16  18
HETATM   18  C   UNL     1     -10.662   9.978  67.483  1.00  0.00    -0.339 A  
HETATM   19  C   UNL     1      -9.984   8.877  66.919  1.00  0.00    -0.315 A  
HETATM   20  C   UNL     1      -9.482   8.913  65.604  1.00  0.00    -0.230 A  
HETATM   21  C   UNL     1      -9.649  10.060  64.828  1.00  0.00    -0.374 A  
HETATM   22  C   UNL     1     -10.396  11.124  65.342  1.00  0.00    -0.331 A  
HETATM   23  C   UNL     1      -9.100  10.201  63.451  1.00  0.00    -0.276 C  
HETATM   24  C   UNL     1     -10.903  11.078  66.647  1.00  0.00    -0.284 A  
HETATM   25  O   UNL     1      -7.961   9.508  63.230  1.00  0.00    -0.129 OA 
HETATM   26  O   UNL     1      -9.603  10.924  62.610  1.00  0.00    -0.289 OA 
ENDBRANCH  16  18
ENDBRANCH   8  16
TORSDOF 2
ENDMDL
MODEL       22
REMARK 921   NORMALIZED FREE ENERGY PREDICTED BY IDOCK:   -7.03 KCAL/MOL
REMARK 922        TOTAL FREE ENERGY PREDICTED BY IDOCK:   -8.00 KCAL/MOL
REMARK 923 INTER-LIGAND FREE ENERGY PREDICTED BY IDOCK:   -7.19 KCAL/MOL
REMARK 924 INTRA-LIGAND FREE ENERGY PREDICTED BY IDOCK:   -0.80 KCAL/MOL
REMARK 927      BINDING AFFINITY PREDICTED BY RF-SCORE:    0.00 PKD
ROOT
HETATM    1  C   UNL     1     -12.110  14.564  66.760  1.00  0.00    -0.313 C  
HETATM    2  C   UNL     1     -10.722  14.990  67.153  1.00  0.00    -0.303 A  
HETATM    3  C   UNL     1     -10.475  16.374  67.243  1.00  0.00    -0.303 A  
HETATM    4  C   UNL     1      -9.233  16.917  67.631  1.00  0.00    -0.228 A  
HETATM    5  C   UNL     1      -8.181  16.026  67.926  1.00  0.00    -0.154 A  
HETATM    6  C   UNL     1      -8.450  14.632  67.882  1.00  0.00    -0.158 A  
HETATM    7  C   UNL     1      -6.778  16.529  68.304  1.00  0.00    -0.138 C  
HETATM    8  C   UNL     1      -9.697  14.094  67.487  1.00  0.00    -0.234 A  
HETATM    9  C   UNL     1      -6.558  16.342  69.824  1.00  0.00    -0.126 C  
HETATM   10  C   UNL     1      -5.669  15.764  67.552  1.00  0.00    -0.112 C  
HETATM   11  C   UNL     1      -6.590  18.025  67.944  1.00  0.00    -0.193 C  
HETATM   12  C   UNL     1      -9.078  18.980  66.222  1.00  0.00    -0.298 C  
HETATM   13  C   UNL     1      -7.772  18.873  68.380  1.00  0.00    -0.351 C  
HETATM   14  C   UNL     1     -10.234  19.124  68.440  1.00  0.00    -0.473 C  
HETATM   15  C   UNL     1      -9.075  18.445  67.671  1.00  0.00    -0.282 C  
ENDROOT
BRANCH   8  16
HETATM   16  C   UNL     1      -9.872  12.605  67.506  1.00  0.00    -0.203 C  
HETATM   17  C   UNL     1      -9.701  12.003  66.311  1.00  0.00    -0.251 C  
BRANCH  16  18
HETATM   18  C   UNL     1     -10.409  11.786  68.644  1.00  0.00    -0.228 A  
HETATM   19  C   UNL     1      -9.725  10.677  69.186  1.00  0.00    -0.205 A  
HETATM   20  C   UNL     1     -10.317   9.845  70.154  1.00  0.00    -0.336 A  
HETATM   21  C   UNL     1     -11.613  10.108  70.598  1.00  0.00    -0.429 A  
HETATM   22  C   UNL     1     -12.268  11.254  70.137  1.00  0.00    -0.410 A  
HETATM   23  C   UNL     1     -12.332   9.246  71.576  1.00  0.00    -0.360 C  
HETATM   24  C   UNL     1     -11.669  12.085  69.182  1.00  0.00    -0.389 A  
HETATM   25  O   UNL     1     -11.985   7.941  71.532  1.00  0.00    -0.284 OA 
HETATM   26  O   UNL     1     -13.201   9.670  72.317  1.00  0.00    -0.433 OA 
ENDBRANCH  16  18
ENDBRANCH   8  16
TORSDOF 2
ENDMDL
MODEL       23
REMARK 921   NORMALIZED FREE ENERGY PREDICTED BY IDOCK:   -6.98 KCAL/MOL
REMARK 922        TOTAL FREE ENERGY PREDICTED BY IDOCK:   -7.95 KCAL/MOL
REMARK 923 INTER-LIGAND FREE ENERGY PREDICTED BY IDOCK:   -8.54 KCAL/MOL
REMARK 924 INTRA-LIGAND FREE ENERGY PREDICTED BY IDOCK:    0.59 KCAL/MOL
REMARK 927      BINDING AFFINITY PREDICTED BY RF-SCORE:    0.00 PKD
ROOT
HETATM    1  C   UNL     1     -10.800  11.745  65.646  1.00  0.00    -0.342 C  
HETATM    2  C   UNL     1     -10.867  10.978  66.938  1.00  0.00    -0.324 A  
HETATM    3  C   UNL     1     -10.411   9.646  66.921  1.00  0.00    -0.282 A  
HETATM    4  C   UNL     1     -10.385   8.820  68.063  1.00  0.00    -0.273 A  
HETATM    5  C   UNL     1     -10.858   9.353  69.280  1.00  0.00    -0.190 A  
HETATM    6  C   UNL     1     -11.270  10.712  69.302  1.00  0.00    -0.332 A  
HETATM    7  C   UNL     1     -10.918   8.508  70.563  1.00  0.00    -0.263 C  
HETATM    8  C   UNL     1     -11.298  11.533  68.151  1.00  0.00    -0.367 A  
HETATM    9  C   UNL     1      -9.776   8.937  71.514  1.00  0.00    -0.372 C  
HETATM   10  C   UNL     1     -12.260   8.677  71.303  1.00  0.00    -0.320 C  
HETATM   11  C   UNL     1     -10.782   6.994  70.258  1.00  0.00    -0.266 C  
HETATM   12  C   UNL     1     -10.933   6.567  67.117  1.00  0.00    -0.480 C  
HETATM   13  C   UNL     1      -9.651   6.703  69.288  1.00  0.00    -0.145 C  
HETATM   14  C   UNL     1      -8.538   7.302  67.159  1.00  0.00    -0.121 C  
HETATM   15  C   UNL     1      -9.886   7.373  67.918  1.00  0.00    -0.177 C  
ENDROOT
BRANCH   8  16
HETATM   16  C   UNL     1     -11.727  12.962  68.303  1.00  0.00    -0.390 C  
HETATM   17  C   UNL     1     -11.826  13.646  67.144  1.00  0.00    -0.435 C  
BRANCH  16  18
HETATM   18  C   UNL     1     -11.842  13.725  69.591  1.00  0.00    -0.393 A  
HETATM   19  C   UNL     1     -12.582  13.260  70.699  1.00  0.00    -0.305 A  
HETATM   20  C   UNL     1     -12.788  14.061  71.837  1.00  0.00    -0.421 A  
HETATM   21  C   UNL     1     -12.257  15.350  71.886  1.00  0.00    -0.453 A  
HETATM   22  C   UNL     1     -11.448  15.790  70.835  1.00  0.00    -0.438 A  
HETATM   23  C   UNL     1     -12.477  16.281  73.027  1.00  0.00    -0.439 C  
HETATM   24  C   UNL     1     -11.237  14.984  69.709  1.00  0.00    -0.301 A  
HETATM   25  O   UNL     1     -13.654  16.111  73.669  1.00  0.00    -0.584 OA 
HETATM   26  O   UNL     1     -11.688  17.160  73.325  1.00  0.00    -0.120 OA 
ENDBRANCH  16  18
ENDBRANCH   8  16
TORSDOF 2
ENDMDL
MODEL       24
REMARK 921   NORMALIZED FREE ENERGY PREDICTED BY IDOCK:   -6.95 KCAL/MOL
REMARK 922        TOTAL FREE ENERGY PREDICTED BY IDOCK:   -7.91 KCAL/MOL
REMARK 923 INTER-LIGAND FREE ENERGY PREDICTED BY IDOCK:   -7.15 KCAL/MOL
REMARK 924 INTRA-LIGAND FREE ENERGY PREDICTED BY IDOCK:   -0.75 KCAL/MOL
REMARK 927      BINDING AFFINITY PREDICTED BY RF-SCORE:    0.00 PKD
ROOT
HETATM    1  C   UNL     1     -11.951  14.589  66.707  1.00  0.00    -0.364 C  
HETATM    2  C   UNL     1     -10.560  14.972  67.132  1.00  0.00    -0.295 A  
HETATM    3  C   UNL     1     -10.298  16.344  67.314  1.00  0.00    -0.287 A  
HETATM    4  C   UNL     1      -9.051  16.845  67.741  1.00  0.00    -0.229 A  
HETATM    5  C   UNL     1      -8.010  15.924  67.979  1.00  0.00    -0.141 A  
HETATM    6  C   UNL     1      -8.295  14.539  67.841  1.00  0.00    -0.159 A  
HETATM    7  C   UNL     1      -6.603  16.384  68.393  1.00  0.00    -0.136 C  
HETATM    8  C   UNL     1      -9.547  14.044  67.407  1.00  0.00    -0.227 A  
HETATM    9  C   UNL     1      -6.391  16.094  69.898  1.00  0.00    -0.138 C  
HETATM   10  C   UNL     1      -5.500  15.659  67.595  1.00  0.00    -0.108 C  
HETATM   11  C   UNL     1      -6.397  17.899  68.135  1.00  0.00    -0.184 C  
HETATM   12  C   UNL     1      -8.867  18.996  66.473  1.00  0.00    -0.334 C  
HETATM   13  C   UNL     1      -7.570  18.730  68.623  1.00  0.00    -0.357 C  
HETATM   14  C   UNL     1     -10.029  19.005  68.693  1.00  0.00    -0.482 C  
HETATM   15  C   UNL     1      -8.875  18.365  67.884  1.00  0.00    -0.293 C  
ENDROOT
BRANCH   8  16
HETATM   16  C   UNL     1      -9.739  12.559  67.327  1.00  0.00    -0.202 C  
HETATM   17  C   UNL     1      -9.411  12.013  66.137  1.00  0.00    -0.241 C  
BRANCH  16  18
HETATM   18  C   UNL     1     -10.436  11.695  68.338  1.00  0.00    -0.230 A  
HETATM   19  C   UNL     1     -11.795  11.856  68.683  1.00  0.00    -0.365 A  
HETATM   20  C   UNL     1     -12.381  11.126  69.734  1.00  0.00    -0.315 A  
HETATM   21  C   UNL     1     -11.612  10.219  70.464  1.00  0.00    -0.424 A  
HETATM   22  C   UNL     1     -10.291   9.984  70.075  1.00  0.00    -0.323 A  
HETATM   23  C   UNL     1     -12.140   9.451  71.626  1.00  0.00    -0.388 C  
HETATM   24  C   UNL     1      -9.716  10.705  69.021  1.00  0.00    -0.214 A  
HETATM   25  O   UNL     1     -13.110  10.084  72.321  1.00  0.00    -0.413 OA 
HETATM   26  O   UNL     1     -11.697   8.366  71.956  1.00  0.00    -0.304 OA 
ENDBRANCH  16  18
ENDBRANCH   8  16
TORSDOF 2
ENDMDL
MODEL       25
REMARK 921   NORMALIZED FREE ENERGY PREDICTED BY IDOCK:   -6.89 KCAL/MOL
REMARK 922        TOTAL FREE ENERGY PREDICTED BY IDOCK:   -7.84 KCAL/MOL
REMARK 923 INTER-LIGAND FREE ENERGY PREDICTED BY IDOCK:   -7.20 KCAL/MOL
REMARK 924 INTRA-LIGAND FREE ENERGY PREDICTED BY IDOCK:   -0.64 KCAL/MOL
REMARK 927      BINDING AFFINITY PREDICTED BY RF-SCORE:    0.00 PKD
ROOT
HETATM    1  C   UNL     1     -11.380  11.683  66.697  1.00  0.00    -0.338 C  
HETATM    2  C   UNL     1     -11.094  10.845  67.913  1.00  0.00    -0.362 A  
HETATM    3  C   UNL     1     -10.674   9.518  67.696  1.00  0.00    -0.314 A  
HETATM    4  C   UNL     1     -10.340   8.630  68.738  1.00  0.00    -0.228 A  
HETATM    5  C   UNL     1     -10.451   9.091  70.066  1.00  0.00    -0.233 A  
HETATM    6  C   UNL     1     -10.828  10.444  70.277  1.00  0.00    -0.308 A  
HETATM    7  C   UNL     1     -10.161   8.175  71.266  1.00  0.00    -0.240 C  
HETATM    8  C   UNL     1     -11.166  11.328  69.226  1.00  0.00    -0.336 A  
HETATM    9  C   UNL     1      -8.796   8.558  71.885  1.00  0.00    -0.284 C  
HETATM   10  C   UNL     1     -11.244   8.295  72.359  1.00  0.00    -0.451 C  
HETATM   11  C   UNL     1     -10.130   6.681  70.853  1.00  0.00    -0.208 C  
HETATM   12  C   UNL     1     -11.152   6.431  67.859  1.00  0.00    -0.370 C  
HETATM   13  C   UNL     1      -9.316   6.452  69.592  1.00  0.00    -0.148 C  
HETATM   14  C   UNL     1      -8.832   7.176  67.275  1.00  0.00    -0.120 C  
HETATM   15  C   UNL     1      -9.915   7.196  68.380  1.00  0.00    -0.166 C  
ENDROOT
BRANCH   8  16
HETATM   16  C   UNL     1     -11.521  12.744  69.570  1.00  0.00    -0.293 C  
HETATM   17  C   UNL     1     -12.524  12.872  70.463  1.00  0.00    -0.294 C  
BRANCH  16  18
HETATM   18  C   UNL     1     -11.026  13.980  68.876  1.00  0.00    -0.283 A  
HETATM   19  C   UNL     1     -11.871  15.048  68.506  1.00  0.00    -0.319 A  
HETATM   20  C   UNL     1     -11.403  16.126  67.732  1.00  0.00    -0.126 A  
HETATM   21  C   UNL     1     -10.073  16.154  67.310  1.00  0.00    -0.265 A  
HETATM   22  C   UNL     1      -9.204  15.149  67.744  1.00  0.00    -0.180 A  
HETATM   23  C   UNL     1      -9.514  17.227  66.442  1.00  0.00    -0.263 C  
HETATM   24  C   UNL     1      -9.673  14.084  68.524  1.00  0.00    -0.215 A  
HETATM   25  O   UNL     1     -10.407  17.781  65.592  1.00  0.00    -0.612 OA 
HETATM   26  O   UNL     1      -8.338  17.542  66.457  1.00  0.00    -0.243 OA 
ENDBRANCH  16  18
ENDBRANCH   8  16
TORSDOF 2
ENDMDL
MODEL       26
REMARK 921   NORMALIZED FREE ENERGY PREDICTED BY IDOCK:   -6.85 KCAL/MOL
REMARK 922        TOTAL FREE ENERGY PREDICTED BY IDOCK:   -7.80 KCAL/MOL
REMARK 923 INTER-LIGAND FREE ENERGY PREDICTED BY IDOCK:   -7.16 KCAL/MOL
REMARK 924 INTRA-LIGAND FREE ENERGY PREDICTED BY IDOCK:   -0.65 KCAL/MOL
REMARK 927      BINDING AFFINITY PREDICTED BY RF-SCORE:    0.00 PKD
ROOT
HETATM    1  C   UNL     1      -8.532  11.061  68.183  1.00  0.00    -0.135 C  
HETATM    2  C   UNL     1      -9.341  10.132  69.046  1.00  0.00    -0.192 A  
HETATM    3  C   UNL     1      -8.743   8.909  69.410  1.00  0.00    -0.142 A  
HETATM    4  C   UNL     1      -9.370   7.957  70.240  1.00  0.00    -0.159 A  
HETATM    5  C   UNL     1     -10.668   8.238  70.712  1.00  0.00    -0.244 A  
HETATM    6  C   UNL     1     -11.245   9.493  70.381  1.00  0.00    -0.323 A  
HETATM    7  C   UNL     1     -11.449   7.234  71.576  1.00  0.00    -0.292 C  
HETATM    8  C   UNL     1     -10.613  10.442  69.544  1.00  0.00    -0.274 A  
HETATM    9  C   UNL     1     -11.461   7.722  73.044  1.00  0.00    -0.263 C  
HETATM   10  C   UNL     1     -12.908   7.076  71.101  1.00  0.00    -0.328 C  
HETATM   11  C   UNL     1     -10.820   5.818  71.517  1.00  0.00    -0.316 C  
HETATM   12  C   UNL     1      -8.581   5.788  69.269  1.00  0.00    -0.111 C  
HETATM   13  C   UNL     1      -9.312   5.852  71.685  1.00  0.00    -0.162 C  
HETATM   14  C   UNL     1      -7.174   6.905  71.015  1.00  0.00    -0.076 C  
HETATM   15  C   UNL     1      -8.628   6.647  70.552  1.00  0.00    -0.143 C  
ENDROOT
BRANCH   8  16
HETATM   16  C   UNL     1     -11.309  11.745  69.288  1.00  0.00    -0.348 C  
HETATM   17  C   UNL     1     -12.032  12.210  70.327  1.00  0.00    -0.389 C  
BRANCH  16  18
HETATM   18  C   UNL     1     -11.439  12.440  67.964  1.00  0.00    -0.377 A  
HETATM   19  C   UNL     1     -11.333  13.839  67.813  1.00  0.00    -0.331 A  
HETATM   20  C   UNL     1     -11.601  14.472  66.585  1.00  0.00    -0.385 A  
HETATM   21  C   UNL     1     -11.985  13.712  65.480  1.00  0.00    -0.409 A  
HETATM   22  C   UNL     1     -12.008  12.318  65.591  1.00  0.00    -0.373 A  
HETATM   23  C   UNL     1     -12.341  14.307  64.163  1.00  0.00    -0.327 C  
HETATM   24  C   UNL     1     -11.729  11.693  66.813  1.00  0.00    -0.099 A  
HETATM   25  O   UNL     1     -12.882  15.544  64.236  1.00  0.00    -0.336 OA 
HETATM   26  O   UNL     1     -12.208  13.710  63.110  1.00  0.00    -0.622 OA 
ENDBRANCH  16  18
ENDBRANCH   8  16
TORSDOF 2
ENDMDL
MODEL       27
REMARK 921   NORMALIZED FREE ENERGY PREDICTED BY IDOCK:   -6.83 KCAL/MOL
REMARK 922        TOTAL FREE ENERGY PREDICTED BY IDOCK:   -7.78 KCAL/MOL
REMARK 923 INTER-LIGAND FREE ENERGY PREDICTED BY IDOCK:   -7.54 KCAL/MOL
REMARK 924 INTRA-LIGAND FREE ENERGY PREDICTED BY IDOCK:   -0.24 KCAL/MOL
REMARK 927      BINDING AFFINITY PREDICTED BY RF-SCORE:    0.00 PKD
ROOT
HETATM    1  C   UNL     1     -13.248  12.215  71.885  1.00  0.00    -0.474 C  
HETATM    2  C   UNL     1     -12.377  11.799  70.732  1.00  0.00    -0.433 A  
HETATM    3  C   UNL     1     -11.890  12.820  69.892  1.00  0.00    -0.371 A  
HETATM    4  C   UNL     1     -11.038  12.581  68.795  1.00  0.00    -0.314 A  
HETATM    5  C   UNL     1     -10.673  11.248  68.514  1.00  0.00    -0.235 A  
HETATM    6  C   UNL     1     -11.127  10.229  69.393  1.00  0.00    -0.299 A  
HETATM    7  C   UNL     1      -9.793  10.889  67.306  1.00  0.00    -0.202 C  
HETATM    8  C   UNL     1     -11.985  10.476  70.490  1.00  0.00    -0.436 A  
HETATM    9  C   UNL     1      -8.366  10.543  67.795  1.00  0.00    -0.111 C  
HETATM   10  C   UNL     1     -10.349   9.680  66.526  1.00  0.00    -0.264 C  
HETATM   11  C   UNL     1      -9.712  12.057  66.289  1.00  0.00    -0.251 C  
HETATM   12  C   UNL     1     -11.802  14.290  67.132  1.00  0.00    -0.454 C  
HETATM   13  C   UNL     1      -9.449  13.390  66.966  1.00  0.00    -0.247 C  
HETATM   14  C   UNL     1     -10.050  14.938  68.803  1.00  0.00    -0.241 C  
HETATM   15  C   UNL     1     -10.587  13.773  67.936  1.00  0.00    -0.257 C  
ENDROOT
BRANCH   8  16
HETATM   16  C   UNL     1     -12.376   9.322  71.365  1.00  0.00    -0.421 C  
HETATM   17  C   UNL     1     -13.676   9.305  71.726  1.00  0.00    -0.443 C  
BRANCH  16  18
HETATM   18  C   UNL     1     -11.443   8.346  72.022  1.00  0.00    -0.418 A  
HETATM   19  C   UNL     1     -10.140   8.690  72.443  1.00  0.00    -0.321 A  
HETATM   20  C   UNL     1      -9.241   7.720  72.925  1.00  0.00    -0.266 A  
HETATM   21  C   UNL     1      -9.630   6.382  72.991  1.00  0.00    -0.160 A  
HETATM   22  C   UNL     1     -10.945   6.042  72.661  1.00  0.00    -0.301 A  
HETATM   23  C   UNL     1      -8.721   5.288  73.433  1.00  0.00    -0.115 C  
HETATM   24  C   UNL     1     -11.840   7.013  72.194  1.00  0.00    -0.314 A  
HETATM   25  O   UNL     1      -7.415   5.503  73.162  1.00  0.00    -0.093 OA 
HETATM   26  O   UNL     1      -9.126   4.261  73.946  1.00  0.00    -0.098 OA 
ENDBRANCH  16  18
ENDBRANCH   8  16
TORSDOF 2
ENDMDL
MODEL       28
REMARK 921   NORMALIZED FREE ENERGY PREDICTED BY IDOCK:   -6.82 KCAL/MOL
REMARK 922        TOTAL FREE ENERGY PREDICTED BY IDOCK:   -7.76 KCAL/MOL
REMARK 923 INTER-LIGAND FREE ENERGY PREDICTED BY IDOCK:   -7.09 KCAL/MOL
REMARK 924 INTRA-LIGAND FREE ENERGY PREDICTED BY IDOCK:   -0.67 KCAL/MOL
REMARK 927      BINDING AFFINITY PREDICTED BY RF-SCORE:    0.00 PKD
ROOT
HETATM    1  C   UNL     1     -11.986  12.385  69.985  1.00  0.00    -0.372 C  
HETATM    2  C   UNL     1     -11.436  11.083  69.471  1.00  0.00    -0.370 A  
HETATM    3  C   UNL     1     -11.403   9.999  70.370  1.00  0.00    -0.392 A  
HETATM    4  C   UNL     1     -10.945   8.713  70.017  1.00  0.00    -0.208 A  
HETATM    5  C   UNL     1     -10.480   8.510  68.702  1.00  0.00    -0.200 A  
HETATM    6  C   UNL     1     -10.561   9.593  67.787  1.00  0.00    -0.320 A  
HETATM    7  C   UNL     1      -9.911   7.156  68.246  1.00  0.00    -0.171 C  
HETATM    8  C   UNL     1     -11.017  10.882  68.148  1.00  0.00    -0.302 A  
HETATM    9  C   UNL     1     -10.948   6.442  67.346  1.00  0.00    -0.463 C  
HETATM   10  C   UNL     1      -8.601   7.319  67.448  1.00  0.00    -0.121 C  
HETATM   11  C   UNL     1      -9.570   6.243  69.451  1.00  0.00    -0.157 C  
HETATM   12  C   UNL     1      -9.831   7.938  72.121  1.00  0.00    -0.264 C  
HETATM   13  C   UNL     1     -10.684   6.215  70.484  1.00  0.00    -0.340 C  
HETATM   14  C   UNL     1     -12.286   7.526  71.840  1.00  0.00    -0.342 C  
HETATM   15  C   UNL     1     -10.935   7.612  71.090  1.00  0.00    -0.263 C  
ENDROOT
BRANCH   8  16
HETATM   16  C   UNL     1     -11.085  11.940  67.088  1.00  0.00    -0.347 C  
HETATM   17  C   UNL     1     -11.356  11.479  65.849  1.00  0.00    -0.174 C  
BRANCH  16  18
HETATM   18  C   UNL     1     -10.684  13.379  67.238  1.00  0.00    -0.265 A  
HETATM   19  C   UNL     1      -9.365  13.784  67.535  1.00  0.00    -0.222 A  
HETATM   20  C   UNL     1      -9.050  15.128  67.810  1.00  0.00    -0.179 A  
HETATM   21  C   UNL     1     -10.055  16.095  67.795  1.00  0.00    -0.250 A  
HETATM   22  C   UNL     1     -11.348  15.723  67.415  1.00  0.00    -0.106 A  
HETATM   23  C   UNL     1      -9.816  17.526  68.130  1.00  0.00    -0.306 C  
HETATM   24  C   UNL     1     -11.653  14.386  67.131  1.00  0.00    -0.406 A  
HETATM   25  O   UNL     1      -8.821  17.733  69.021  1.00  0.00    -0.162 OA 
HETATM   26  O   UNL     1     -10.496  18.432  67.682  1.00  0.00    -0.388 OA 
ENDBRANCH  16  18
ENDBRANCH   8  16
TORSDOF 2
ENDMDL
MODEL       29
REMARK 921   NORMALIZED FREE ENERGY PREDICTED BY IDOCK:   -6.73 KCAL/MOL
REMARK 922        TOTAL FREE ENERGY PREDICTED BY IDOCK:   -7.67 KCAL/MOL
REMARK 923 INTER-LIGAND FREE ENERGY PREDICTED BY IDOCK:   -6.73 KCAL/MOL
REMARK 924 INTRA-LIGAND FREE ENERGY PREDICTED BY IDOCK:   -0.94 KCAL/MOL
REMARK 927      BINDING AFFINITY PREDICTED BY RF-SCORE:    0.00 PKD
ROOT
HETATM    1  C   UNL     1     -11.744  10.941  68.085  1.00  0.00    -0.231 C  
HETATM    2  C   UNL     1     -10.815  10.595  66.954  1.00  0.00    -0.267 A  
HETATM    3  C   UNL     1     -10.175   9.342  67.008  1.00  0.00    -0.322 A  
HETATM    4  C   UNL     1      -9.305   8.872  66.004  1.00  0.00    -0.306 A  
HETATM    5  C   UNL     1      -9.049   9.710  64.899  1.00  0.00    -0.284 A  
HETATM    6  C   UNL     1      -9.736  10.951  64.826  1.00  0.00    -0.323 A  
HETATM    7  C   UNL     1      -8.072   9.303  63.784  1.00  0.00    -0.155 C  
HETATM    8  C   UNL     1     -10.604  11.418  65.840  1.00  0.00    -0.317 A  
HETATM    9  C   UNL     1      -8.872   8.894  62.524  1.00  0.00    -0.100 C  
HETATM   10  C   UNL     1      -7.117  10.453  63.405  1.00  0.00    -0.027 C  
HETATM   11  C   UNL     1      -7.169   8.119  64.219  1.00  0.00    -0.089 C  
HETATM   12  C   UNL     1      -7.601   7.590  67.317  1.00  0.00    -0.108 C  
HETATM   13  C   UNL     1      -7.961   7.009  64.887  1.00  0.00    -0.127 C  
HETATM   14  C   UNL     1      -9.678   6.407  66.566  1.00  0.00    -0.177 C  
HETATM   15  C   UNL     1      -8.645   7.494  66.182  1.00  0.00    -0.159 C  
ENDROOT
BRANCH   8  16
HETATM   16  C   UNL     1     -11.296  12.734  65.638  1.00  0.00    -0.354 C  
HETATM   17  C   UNL     1     -12.374  12.685  64.829  1.00  0.00    -0.556 C  
BRANCH  16  18
HETATM   18  C   UNL     1     -10.789  14.081  66.067  1.00  0.00    -0.295 A  
HETATM   19  C   UNL     1     -10.677  14.468  67.419  1.00  0.00    -0.282 A  
HETATM   20  C   UNL     1     -10.335  15.783  67.784  1.00  0.00    -0.275 A  
HETATM   21  C   UNL     1     -10.101  16.741  66.797  1.00  0.00    -0.295 A  
HETATM   22  C   UNL     1     -10.120  16.349  65.456  1.00  0.00    -0.238 A  
HETATM   23  C   UNL     1      -9.790  18.165  67.099  1.00  0.00    -0.317 C  
HETATM   24  C   UNL     1     -10.450  15.036  65.098  1.00  0.00    -0.438 A  
HETATM   25  O   UNL     1     -10.346  18.629  68.240  1.00  0.00    -0.374 OA 
HETATM   26  O   UNL     1      -9.137  18.871  66.353  1.00  0.00    -0.317 OA 
ENDBRANCH  16  18
ENDBRANCH   8  16
TORSDOF 2
ENDMDL
MODEL       30
REMARK 921   NORMALIZED FREE ENERGY PREDICTED BY IDOCK:   -6.73 KCAL/MOL
REMARK 922        TOTAL FREE ENERGY PREDICTED BY IDOCK:   -7.66 KCAL/MOL
REMARK 923 INTER-LIGAND FREE ENERGY PREDICTED BY IDOCK:   -7.26 KCAL/MOL
REMARK 924 INTRA-LIGAND FREE ENERGY PREDICTED BY IDOCK:   -0.40 KCAL/MOL
REMARK 927      BINDING AFFINITY PREDICTED BY RF-SCORE:    0.00 PKD
ROOT
HETATM    1  C   UNL     1     -12.159  15.321  64.428  1.00  0.00    -0.263 C  
HETATM    2  C   UNL     1     -10.971  15.516  65.330  1.00  0.00    -0.391 A  
HETATM    3  C   UNL     1     -10.747  16.814  65.828  1.00  0.00    -0.185 A  
HETATM    4  C   UNL     1      -9.693  17.136  66.708  1.00  0.00    -0.277 A  
HETATM    5  C   UNL     1      -8.809  16.107  67.091  1.00  0.00    -0.218 A  
HETATM    6  C   UNL     1      -9.069  14.791  66.625  1.00  0.00    -0.300 A  
HETATM    7  C   UNL     1      -7.600  16.378  68.002  1.00  0.00    -0.158 C  
HETATM    8  C   UNL     1     -10.125  14.476  65.739  1.00  0.00    -0.365 A  
HETATM    9  C   UNL     1      -7.895  15.832  69.420  1.00  0.00    -0.210 C  
HETATM   10  C   UNL     1      -6.318  15.703  67.475  1.00  0.00    -0.181 C  
HETATM   11  C   UNL     1      -7.283  17.892  68.097  1.00  0.00    -0.231 C  
HETATM   12  C   UNL     1      -9.054  19.441  65.968  1.00  0.00    -0.194 C  
HETATM   13  C   UNL     1      -8.530  18.727  68.333  1.00  0.00    -0.374 C  
HETATM   14  C   UNL     1     -10.872  19.187  67.674  1.00  0.00    -0.467 C  
HETATM   15  C   UNL     1      -9.534  18.594  67.168  1.00  0.00    -0.308 C  
ENDROOT
BRANCH   8  16
HETATM   16  C   UNL     1     -10.318  13.044  65.337  1.00  0.00    -0.313 C  
HETATM   17  C   UNL     1     -10.472  12.847  64.012  1.00  0.00    -0.395 C  
BRANCH  16  18
HETATM   18  C   UNL     1     -10.560  11.885  66.261  1.00  0.00    -0.289 A  
HETATM   19  C   UNL     1     -11.365  11.975  67.416  1.00  0.00    -0.393 A  
HETATM   20  C   UNL     1     -11.457  10.913  68.336  1.00  0.00    -0.374 A  
HETATM   21  C   UNL     1     -10.738   9.738  68.117  1.00  0.00    -0.280 A  
HETATM   22  C   UNL     1     -10.008   9.602  66.933  1.00  0.00    -0.272 A  
HETATM   23  C   UNL     1     -10.736   8.593  69.068  1.00  0.00    -0.101 C  
HETATM   24  C   UNL     1      -9.930  10.657  66.015  1.00  0.00    -0.295 A  
HETATM   25  O   UNL     1     -10.901   8.941  70.363  1.00  0.00    -0.224 OA 
HETATM   26  O   UNL     1     -10.545   7.443  68.717  1.00  0.00    -0.206 OA 
ENDBRANCH  16  18
ENDBRANCH   8  16
TORSDOF 2
ENDMDL
MODEL       31
REMARK 921   NORMALIZED FREE ENERGY PREDICTED BY IDOCK:   -6.70 KCAL/MOL
REMARK 922        TOTAL FREE ENERGY PREDICTED BY IDOCK:   -7.63 KCAL/MOL
REMARK 923 INTER-LIGAND FREE ENERGY PREDICTED BY IDOCK:   -6.86 KCAL/MOL
REMARK 924 INTRA-LIGAND FREE ENERGY PREDICTED BY IDOCK:   -0.77 KCAL/MOL
REMARK 927      BINDING AFFINITY PREDICTED BY RF-SCORE:    0.00 PKD
ROOT
HETATM    1  C   UNL     1     -11.533  10.958  70.264  1.00  0.00    -0.391 C  
HETATM    2  C   UNL     1     -10.528   9.848  70.411  1.00  0.00    -0.347 A  
HETATM    3  C   UNL     1     -10.887   8.759  71.228  1.00  0.00    -0.347 A  
HETATM    4  C   UNL     1     -10.060   7.635  71.430  1.00  0.00    -0.204 A  
HETATM    5  C   UNL     1      -8.801   7.613  70.797  1.00  0.00    -0.144 A  
HETATM    6  C   UNL     1      -8.465   8.691  69.935  1.00  0.00    -0.129 A  
HETATM    7  C   UNL     1      -7.811   6.455  71.005  1.00  0.00    -0.110 C  
HETATM    8  C   UNL     1      -9.298   9.818  69.740  1.00  0.00    -0.249 A  
HETATM    9  C   UNL     1      -7.792   5.563  69.740  1.00  0.00    -0.082 C  
HETATM   10  C   UNL     1      -6.378   6.961  71.268  1.00  0.00    -0.041 C  
HETATM   11  C   UNL     1      -8.195   5.588  72.232  1.00  0.00    -0.111 C  
HETATM   12  C   UNL     1     -10.529   7.039  73.817  1.00  0.00    -0.392 C  
HETATM   13  C   UNL     1      -9.675   5.249  72.255  1.00  0.00    -0.192 C  
HETATM   14  C   UNL     1     -11.996   6.077  72.027  1.00  0.00    -0.237 C  
HETATM   15  C   UNL     1     -10.550   6.515  72.363  1.00  0.00    -0.242 C  
ENDROOT
BRANCH   8  16
HETATM   16  C   UNL     1      -8.849  10.882  68.783  1.00  0.00    -0.162 C  
HETATM   17  C   UNL     1      -7.653  11.434  69.076  1.00  0.00    -0.084 C  
BRANCH  16  18
HETATM   18  C   UNL     1      -9.675  11.510  67.698  1.00  0.00    -0.182 A  
HETATM   19  C   UNL     1      -9.956  12.892  67.645  1.00  0.00    -0.218 A  
HETATM   20  C   UNL     1     -10.848  13.428  66.698  1.00  0.00    -0.285 A  
HETATM   21  C   UNL     1     -11.482  12.586  65.785  1.00  0.00    -0.407 A  
HETATM   22  C   UNL     1     -11.145  11.229  65.768  1.00  0.00    -0.153 A  
HETATM   23  C   UNL     1     -12.481  13.064  64.790  1.00  0.00    -0.427 C  
HETATM   24  C   UNL     1     -10.247  10.703  66.705  1.00  0.00    -0.284 A  
HETATM   25  O   UNL     1     -13.201  14.135  65.191  1.00  0.00    -0.743 OA 
HETATM   26  O   UNL     1     -12.674  12.504  63.726  1.00  0.00    -0.696 OA 
ENDBRANCH  16  18
ENDBRANCH   8  16
TORSDOF 2
ENDMDL
MODEL       32
REMARK 921   NORMALIZED FREE ENERGY PREDICTED BY IDOCK:   -6.66 KCAL/MOL
REMARK 922        TOTAL FREE ENERGY PREDICTED BY IDOCK:   -7.58 KCAL/MOL
REMARK 923 INTER-LIGAND FREE ENERGY PREDICTED BY IDOCK:   -6.65 KCAL/MOL
REMARK 924 INTRA-LIGAND FREE ENERGY PREDICTED BY IDOCK:   -0.93 KCAL/MOL
REMARK 927      BINDING AFFINITY PREDICTED BY RF-SCORE:    0.00 PKD
ROOT
HETATM    1  C   UNL     1      -6.728  12.274  67.464  1.00  0.00    -0.138 C  
HETATM    2  C   UNL     1      -7.545  13.537  67.503  1.00  0.00    -0.176 A  
HETATM    3  C   UNL     1      -6.842  14.757  67.514  1.00  0.00    -0.181 A  
HETATM    4  C   UNL     1      -7.476  16.017  67.517  1.00  0.00    -0.186 A  
HETATM    5  C   UNL     1      -8.885  16.052  67.530  1.00  0.00    -0.198 A  
HETATM    6  C   UNL     1      -9.588  14.819  67.469  1.00  0.00    -0.208 A  
HETATM    7  C   UNL     1      -9.660  17.379  67.590  1.00  0.00    -0.261 C  
HETATM    8  C   UNL     1      -8.946  13.559  67.471  1.00  0.00    -0.210 A  
HETATM    9  C   UNL     1     -10.264  17.683  66.199  1.00  0.00    -0.345 C  
HETATM   10  C   UNL     1     -10.806  17.332  68.621  1.00  0.00    -0.199 C  
HETATM   11  C   UNL     1      -8.746  18.557  68.015  1.00  0.00    -0.313 C  
HETATM   12  C   UNL     1      -5.945  17.391  68.946  1.00  0.00    -0.183 C  
HETATM   13  C   UNL     1      -7.425  18.558  67.265  1.00  0.00    -0.224 C  
HETATM   14  C   UNL     1      -5.481  17.237  66.488  1.00  0.00    -0.216 C  
HETATM   15  C   UNL     1      -6.604  17.283  67.552  1.00  0.00    -0.165 C  
ENDROOT
BRANCH   8  16
HETATM   16  C   UNL     1      -9.792  12.325  67.375  1.00  0.00    -0.199 C  
HETATM   17  C   UNL     1     -10.222  12.032  66.131  1.00  0.00    -0.255 C  
BRANCH  16  18
HETATM   18  C   UNL     1     -10.357  11.541  68.525  1.00  0.00    -0.224 A  
HETATM   19  C   UNL     1      -9.703  10.428  69.094  1.00  0.00    -0.234 A  
HETATM   20  C   UNL     1     -10.322   9.630  70.074  1.00  0.00    -0.298 A  
HETATM   21  C   UNL     1     -11.616   9.932  70.502  1.00  0.00    -0.386 A  
HETATM   22  C   UNL     1     -12.240  11.082  70.012  1.00  0.00    -0.418 A  
HETATM   23  C   UNL     1     -12.362   9.106  71.491  1.00  0.00    -0.347 C  
HETATM   24  C   UNL     1     -11.614  11.880  69.046  1.00  0.00    -0.376 A  
HETATM   25  O   UNL     1     -12.045   7.792  71.475  1.00  0.00    -0.290 OA 
HETATM   26  O   UNL     1     -13.226   9.565  72.216  1.00  0.00    -0.422 OA 
ENDBRANCH  16  18
ENDBRANCH   8  16
TORSDOF 2
ENDMDL
MODEL       33
REMARK 921   NORMALIZED FREE ENERGY PREDICTED BY IDOCK:   -6.63 KCAL/MOL
REMARK 922        TOTAL FREE ENERGY PREDICTED BY IDOCK:   -7.55 KCAL/MOL
REMARK 923 INTER-LIGAND FREE ENERGY PREDICTED BY IDOCK:   -7.15 KCAL/MOL
REMARK 924 INTRA-LIGAND FREE ENERGY PREDICTED BY IDOCK:   -0.40 KCAL/MOL
REMARK 927      BINDING AFFINITY PREDICTED BY RF-SCORE:    0.00 PKD
ROOT
HETATM    1  C   UNL     1     -10.531   7.597  68.897  1.00  0.00    -0.211 C  
HETATM    2  C   UNL     1     -10.633   9.065  68.583  1.00  0.00    -0.194 A  
HETATM    3  C   UNL     1     -10.108   9.497  67.349  1.00  0.00    -0.262 A  
HETATM    4  C   UNL     1     -10.164  10.835  66.909  1.00  0.00    -0.274 A  
HETATM    5  C   UNL     1     -10.759  11.790  67.758  1.00  0.00    -0.244 A  
HETATM    6  C   UNL     1     -11.329  11.340  68.978  1.00  0.00    -0.344 A  
HETATM    7  C   UNL     1     -10.813  13.281  67.384  1.00  0.00    -0.279 C  
HETATM    8  C   UNL     1     -11.266   9.997  69.416  1.00  0.00    -0.235 A  
HETATM    9  C   UNL     1     -12.254  13.649  66.956  1.00  0.00    -0.373 C  
HETATM   10  C   UNL     1     -10.407  14.187  68.564  1.00  0.00    -0.249 C  
HETATM   11  C   UNL     1      -9.838  13.617  66.226  1.00  0.00    -0.310 C  
HETATM   12  C   UNL     1      -8.000  11.090  65.675  1.00  0.00     0.034 C  
HETATM   13  C   UNL     1      -9.928  12.613  65.091  1.00  0.00    -0.194 C  
HETATM   14  C   UNL     1      -9.998  10.228  64.432  1.00  0.00    -0.331 C  
HETATM   15  C   UNL     1      -9.537  11.192  65.551  1.00  0.00    -0.263 C  
ENDROOT
BRANCH   8  16
HETATM   16  C   UNL     1     -11.930   9.635  70.711  1.00  0.00    -0.356 C  
HETATM   17  C   UNL     1     -12.850  10.524  71.139  1.00  0.00    -0.513 C  
BRANCH  16  18
HETATM   18  C   UNL     1     -11.525   8.528  71.641  1.00  0.00    -0.365 A  
HETATM   19  C   UNL     1     -10.374   8.587  72.455  1.00  0.00    -0.372 A  
HETATM   20  C   UNL     1      -9.945   7.478  73.207  1.00  0.00    -0.368 A  
HETATM   21  C   UNL     1     -10.661   6.282  73.155  1.00  0.00    -0.286 A  
HETATM   22  C   UNL     1     -11.851   6.237  72.424  1.00  0.00    -0.272 A  
HETATM   23  C   UNL     1     -10.243   5.047  73.874  1.00  0.00    -0.224 C  
HETATM   24  C   UNL     1     -12.281   7.347  71.686  1.00  0.00    -0.361 A  
HETATM   25  O   UNL     1      -8.907   4.920  74.035  1.00  0.00    -0.114 OA 
HETATM   26  O   UNL     1     -11.033   4.195  74.239  1.00  0.00    -0.191 OA 
ENDBRANCH  16  18
ENDBRANCH   8  16
TORSDOF 2
ENDMDL
MODEL       34
REMARK 921   NORMALIZED FREE ENERGY PREDICTED BY IDOCK:   -6.63 KCAL/MOL
REMARK 922        TOTAL FREE ENERGY PREDICTED BY IDOCK:   -7.55 KCAL/MOL
REMARK 923 INTER-LIGAND FREE ENERGY PREDICTED BY IDOCK:   -6.75 KCAL/MOL
REMARK 924 INTRA-LIGAND FREE ENERGY PREDICTED BY IDOCK:   -0.80 KCAL/MOL
REMARK 927      BINDING AFFINITY PREDICTED BY RF-SCORE:    0.00 PKD
ROOT
HETATM    1  C   UNL     1      -9.388   8.570  66.328  1.00  0.00    -0.287 C  
HETATM    2  C   UNL     1      -9.721   9.937  66.861  1.00  0.00    -0.236 A  
HETATM    3  C   UNL     1     -10.412  10.812  66.000  1.00  0.00    -0.273 A  
HETATM    4  C   UNL     1     -10.818  12.109  66.376  1.00  0.00    -0.306 A  
HETATM    5  C   UNL     1     -10.497  12.557  67.673  1.00  0.00    -0.228 A  
HETATM    6  C   UNL     1      -9.844  11.652  68.552  1.00  0.00    -0.196 A  
HETATM    7  C   UNL     1     -10.850  13.975  68.150  1.00  0.00    -0.260 C  
HETATM    8  C   UNL     1      -9.436  10.354  68.168  1.00  0.00    -0.152 A  
HETATM    9  C   UNL     1     -12.052  13.905  69.122  1.00  0.00    -0.377 C  
HETATM   10  C   UNL     1      -9.670  14.650  68.878  1.00  0.00    -0.196 C  
HETATM   11  C   UNL     1     -11.213  14.904  66.962  1.00  0.00    -0.344 C  
HETATM   12  C   UNL     1     -10.539  13.402  64.250  1.00  0.00    -0.358 C  
HETATM   13  C   UNL     1     -12.168  14.241  65.986  1.00  0.00    -0.422 C  
HETATM   14  C   UNL     1     -12.710  12.221  64.662  1.00  0.00    -0.275 C  
HETATM   15  C   UNL     1     -11.547  12.983  65.343  1.00  0.00    -0.374 C  
ENDROOT
BRANCH   8  16
HETATM   16  C   UNL     1      -8.778   9.478  69.192  1.00  0.00    -0.146 C  
HETATM   17  C   UNL     1      -7.454   9.297  69.012  1.00  0.00    -0.073 C  
BRANCH  16  18
HETATM   18  C   UNL     1      -9.474   8.646  70.231  1.00  0.00    -0.182 A  
HETATM   19  C   UNL     1      -9.320   8.858  71.618  1.00  0.00    -0.328 A  
HETATM   20  C   UNL     1      -9.872   7.975  72.565  1.00  0.00    -0.330 A  
HETATM   21  C   UNL     1     -10.588   6.856  72.139  1.00  0.00    -0.241 A  
HETATM   22  C   UNL     1     -10.824   6.684  70.772  1.00  0.00    -0.299 A  
HETATM   23  C   UNL     1     -11.154   5.844  73.073  1.00  0.00    -0.254 C  
HETATM   24  C   UNL     1     -10.283   7.572  69.834  1.00  0.00    -0.210 A  
HETATM   25  O   UNL     1     -10.452   5.686  74.217  1.00  0.00    -0.274 OA 
HETATM   26  O   UNL     1     -12.135   5.175  72.806  1.00  0.00    -0.132 OA 
ENDBRANCH  16  18
ENDBRANCH   8  16
TORSDOF 2
ENDMDL
MODEL       35
REMARK 921   NORMALIZED FREE ENERGY PREDICTED BY IDOCK:   -6.62 KCAL/MOL
REMARK 922        TOTAL FREE ENERGY PREDICTED BY IDOCK:   -7.54 KCAL/MOL
REMARK 923 INTER-LIGAND FREE ENERGY PREDICTED BY IDOCK:   -6.71 KCAL/MOL
REMARK 924 INTRA-LIGAND FREE ENERGY PREDICTED BY IDOCK:   -0.83 KCAL/MOL
REMARK 927      BINDING AFFINITY PREDICTED BY RF-SCORE:    0.00 PKD
ROOT
HETATM    1  C   UNL     1     -12.161  13.624  69.664  1.00  0.00    -0.378 C  
HETATM    2  C   UNL     1     -11.278  12.729  68.838  1.00  0.00    -0.332 A  
HETATM    3  C   UNL     1     -10.902  11.495  69.404  1.00  0.00    -0.180 A  
HETATM    4  C   UNL     1     -10.107  10.544  68.733  1.00  0.00    -0.202 A  
HETATM    5  C   UNL     1      -9.649  10.856  67.437  1.00  0.00    -0.181 A  
HETATM    6  C   UNL     1     -10.071  12.079  66.852  1.00  0.00    -0.224 A  
HETATM    7  C   UNL     1      -8.731   9.903  66.653  1.00  0.00    -0.138 C  
HETATM    8  C   UNL     1     -10.866  13.031  67.533  1.00  0.00    -0.264 A  
HETATM    9  C   UNL     1      -9.550   9.200  65.544  1.00  0.00    -0.239 C  
HETATM   10  C   UNL     1      -7.553  10.648  65.994  1.00  0.00    -0.142 C  
HETATM   11  C   UNL     1      -8.100   8.829  67.575  1.00  0.00    -0.106 C  
HETATM   12  C   UNL     1      -8.742   9.569  70.593  1.00  0.00    -0.189 C  
HETATM   13  C   UNL     1      -9.121   8.199  68.506  1.00  0.00    -0.136 C  
HETATM   14  C   UNL     1     -10.984   8.567  70.094  1.00  0.00    -0.221 C  
HETATM   15  C   UNL     1      -9.742   9.240  69.462  1.00  0.00    -0.179 C  
ENDROOT
BRANCH   8  16
HETATM   16  C   UNL     1     -11.273  14.276  66.802  1.00  0.00    -0.337 C  
HETATM   17  C   UNL     1     -12.126  14.073  65.777  1.00  0.00    -0.445 C  
BRANCH  16  18
HETATM   18  C   UNL     1     -10.674  15.642  66.968  1.00  0.00    -0.314 A  
HETATM   19  C   UNL     1     -10.964  16.484  68.063  1.00  0.00    -0.320 A  
HETATM   20  C   UNL     1     -10.498  17.811  68.118  1.00  0.00    -0.382 A  
HETATM   21  C   UNL     1      -9.733  18.323  67.070  1.00  0.00    -0.305 A  
HETATM   22  C   UNL     1      -9.364  17.475  66.023  1.00  0.00    -0.080 A  
HETATM   23  C   UNL     1      -9.251  19.731  67.024  1.00  0.00    -0.352 C  
HETATM   24  C   UNL     1      -9.820  16.151  65.979  1.00  0.00    -0.375 A  
HETATM   25  O   UNL     1     -10.059  20.620  67.644  1.00  0.00    -0.368 OA 
HETATM   26  O   UNL     1      -8.242  20.065  66.430  1.00  0.00    -0.319 OA 
ENDBRANCH  16  18
ENDBRANCH   8  16
TORSDOF 2
ENDMDL
MODEL       36
REMARK 921   NORMALIZED FREE ENERGY PREDICTED BY IDOCK:   -6.59 KCAL/MOL
REMARK 922        TOTAL FREE ENERGY PREDICTED BY IDOCK:   -7.51 KCAL/MOL
REMARK 923 INTER-LIGAND FREE ENERGY PREDICTED BY IDOCK:   -6.70 KCAL/MOL
REMARK 924 INTRA-LIGAND FREE ENERGY PREDICTED BY IDOCK:   -0.81 KCAL/MOL
REMARK 927      BINDING AFFINITY PREDICTED BY RF-SCORE:    0.00 PKD
ROOT
HETATM    1  C   UNL     1      -6.989   8.623  68.229  1.00  0.00    -0.073 C  
HETATM    2  C   UNL     1      -8.094   8.314  69.202  1.00  0.00    -0.120 A  
HETATM    3  C   UNL     1      -7.722   8.027  70.529  1.00  0.00    -0.085 A  
HETATM    4  C   UNL     1      -8.651   7.753  71.553  1.00  0.00    -0.133 A  
HETATM    5  C   UNL     1     -10.022   7.747  71.223  1.00  0.00    -0.199 A  
HETATM    6  C   UNL     1     -10.393   8.086  69.895  1.00  0.00    -0.221 A  
HETATM    7  C   UNL     1     -11.102   7.404  72.262  1.00  0.00    -0.308 C  
HETATM    8  C   UNL     1      -9.455   8.356  68.871  1.00  0.00    -0.147 A  
HETATM    9  C   UNL     1     -11.828   8.700  72.695  1.00  0.00    -0.235 C  
HETATM   10  C   UNL     1     -12.150   6.421  71.703  1.00  0.00    -0.319 C  
HETATM   11  C   UNL     1     -10.495   6.720  73.515  1.00  0.00    -0.356 C  
HETATM   12  C   UNL     1      -7.451   6.041  72.931  1.00  0.00    -0.094 C  
HETATM   13  C   UNL     1      -9.253   7.438  74.015  1.00  0.00    -0.292 C  
HETATM   14  C   UNL     1      -7.078   8.467  73.436  1.00  0.00    -0.119 C  
HETATM   15  C   UNL     1      -8.125   7.431  72.962  1.00  0.00    -0.128 C  
ENDROOT
BRANCH   8  16
HETATM   16  C   UNL     1      -9.968   8.730  67.512  1.00  0.00    -0.254 C  
HETATM   17  C   UNL     1      -9.893   7.746  66.593  1.00  0.00    -0.295 C  
BRANCH  16  18
HETATM   18  C   UNL     1     -10.341  10.109  67.050  1.00  0.00    -0.303 A  
HETATM   19  C   UNL     1     -11.346  10.883  67.666  1.00  0.00    -0.345 A  
HETATM   20  C   UNL     1     -11.770  12.110  67.124  1.00  0.00    -0.372 A  
HETATM   21  C   UNL     1     -11.193  12.586  65.945  1.00  0.00    -0.356 A  
HETATM   22  C   UNL     1     -10.135  11.873  65.374  1.00  0.00    -0.285 A  
HETATM   23  C   UNL     1     -11.623  13.844  65.276  1.00  0.00    -0.327 C  
HETATM   24  C   UNL     1      -9.710  10.658  65.924  1.00  0.00    -0.273 A  
HETATM   25  O   UNL     1     -12.927  14.155  65.454  1.00  0.00    -0.706 OA 
HETATM   26  O   UNL     1     -10.878  14.510  64.579  1.00  0.00    -0.351 OA 
ENDBRANCH  16  18
ENDBRANCH   8  16
TORSDOF 2
ENDMDL
MODEL       37
REMARK 921   NORMALIZED FREE ENERGY PREDICTED BY IDOCK:   -6.53 KCAL/MOL
REMARK 922        TOTAL FREE ENERGY PREDICTED BY IDOCK:   -7.44 KCAL/MOL
REMARK 923 INTER-LIGAND FREE ENERGY PREDICTED BY IDOCK:   -6.55 KCAL/MOL
REMARK 924 INTRA-LIGAND FREE ENERGY PREDICTED BY IDOCK:   -0.89 KCAL/MOL
REMARK 927      BINDING AFFINITY PREDICTED BY RF-SCORE:    0.00 PKD
ROOT
HETATM    1  C   UNL     1      -6.064  12.601  69.505  1.00  0.00    -0.119 C  
HETATM    2  C   UNL     1      -7.237  13.104  68.710  1.00  0.00    -0.085 A  
HETATM    3  C   UNL     1      -7.222  14.460  68.329  1.00  0.00    -0.122 A  
HETATM    4  C   UNL     1      -8.236  15.060  67.555  1.00  0.00    -0.199 A  
HETATM    5  C   UNL     1      -9.330  14.263  67.160  1.00  0.00    -0.233 A  
HETATM    6  C   UNL     1      -9.316  12.885  67.505  1.00  0.00    -0.190 A  
HETATM    7  C   UNL     1     -10.509  14.846  66.363  1.00  0.00    -0.301 C  
HETATM    8  C   UNL     1      -8.297  12.291  68.286  1.00  0.00    -0.174 A  
HETATM    9  C   UNL     1     -10.411  14.380  64.890  1.00  0.00    -0.448 C  
HETATM   10  C   UNL     1     -11.870  14.393  66.929  1.00  0.00    -0.433 C  
HETATM   11  C   UNL     1     -10.518  16.396  66.406  1.00  0.00    -0.288 C  
HETATM   12  C   UNL     1      -8.354  17.371  68.510  1.00  0.00    -0.271 C  
HETATM   13  C   UNL     1      -9.144  16.986  66.144  1.00  0.00    -0.239 C  
HETATM   14  C   UNL     1      -6.724  16.916  66.662  1.00  0.00    -0.264 C  
HETATM   15  C   UNL     1      -8.123  16.556  67.219  1.00  0.00    -0.193 C  
ENDROOT
BRANCH   8  16
HETATM   16  C   UNL     1      -8.375  10.819  68.563  1.00  0.00    -0.138 C  
HETATM   17  C   UNL     1      -7.885  10.035  67.581  1.00  0.00    -0.095 C  
BRANCH  16  18
HETATM   18  C   UNL     1      -9.114  10.164  69.694  1.00  0.00    -0.195 A  
HETATM   19  C   UNL     1      -8.482   9.348  70.657  1.00  0.00    -0.239 A  
HETATM   20  C   UNL     1      -9.222   8.635  71.619  1.00  0.00    -0.326 A  
HETATM   21  C   UNL     1     -10.614   8.724  71.632  1.00  0.00    -0.401 A  
HETATM   22  C   UNL     1     -11.246   9.597  70.743  1.00  0.00    -0.403 A  
HETATM   23  C   UNL     1     -11.472   7.958  72.578  1.00  0.00    -0.398 C  
HETATM   24  C   UNL     1     -10.504  10.314  69.795  1.00  0.00    -0.300 A  
HETATM   25  O   UNL     1     -10.960   6.766  72.958  1.00  0.00    -0.267 OA 
HETATM   26  O   UNL     1     -12.568   8.347  72.938  1.00  0.00    -0.226 OA 
ENDBRANCH  16  18
ENDBRANCH   8  16
TORSDOF 2
ENDMDL
MODEL       38
REMARK 921   NORMALIZED FREE ENERGY PREDICTED BY IDOCK:   -6.49 KCAL/MOL
REMARK 922        TOTAL FREE ENERGY PREDICTED BY IDOCK:   -7.40 KCAL/MOL
REMARK 923 INTER-LIGAND FREE ENERGY PREDICTED BY IDOCK:   -6.56 KCAL/MOL
REMARK 924 INTRA-LIGAND FREE ENERGY PREDICTED BY IDOCK:   -0.84 KCAL/MOL
REMARK 927      BINDING AFFINITY PREDICTED BY RF-SCORE:    0.00 PKD
ROOT
HETATM    1  C   UNL     1      -6.436  12.896  69.500  1.00  0.00    -0.075 C  
HETATM    2  C   UNL     1      -7.592  13.053  68.551  1.00  0.00    -0.121 A  
HETATM    3  C   UNL     1      -7.849  14.347  68.058  1.00  0.00    -0.141 A  
HETATM    4  C   UNL     1      -8.878  14.637  67.138  1.00  0.00    -0.238 A  
HETATM    5  C   UNL     1      -9.702  13.577  66.707  1.00  0.00    -0.271 A  
HETATM    6  C   UNL     1      -9.407  12.267  67.169  1.00  0.00    -0.196 A  
HETATM    7  C   UNL     1     -10.882  13.810  65.749  1.00  0.00    -0.277 C  
HETATM    8  C   UNL     1      -8.376  11.984  68.095  1.00  0.00    -0.165 A  
HETATM    9  C   UNL     1     -10.507  13.295  64.339  1.00  0.00    -0.424 C  
HETATM   10  C   UNL     1     -12.156  13.077  66.214  1.00  0.00    -0.453 C  
HETATM   11  C   UNL     1     -11.257  15.312  65.657  1.00  0.00    -0.256 C  
HETATM   12  C   UNL     1      -9.642  16.905  67.875  1.00  0.00    -0.244 C  
HETATM   13  C   UNL     1     -10.037  16.199  65.483  1.00  0.00    -0.308 C  
HETATM   14  C   UNL     1      -7.746  16.746  66.244  1.00  0.00    -0.310 C  
HETATM   15  C   UNL     1      -9.077  16.093  66.688  1.00  0.00    -0.282 C  
ENDROOT
BRANCH   8  16
HETATM   16  C   UNL     1      -8.141  10.557  68.489  1.00  0.00    -0.121 C  
HETATM   17  C   UNL     1      -7.235   9.906  67.731  1.00  0.00    -0.088 C  
BRANCH  16  18
HETATM   18  C   UNL     1      -8.948   9.760  69.473  1.00  0.00    -0.215 A  
HETATM   19  C   UNL     1     -10.332   9.528  69.327  1.00  0.00    -0.219 A  
HETATM   20  C   UNL     1     -11.086   8.900  70.336  1.00  0.00    -0.270 A  
HETATM   21  C   UNL     1     -10.465   8.494  71.518  1.00  0.00    -0.318 A  
HETATM   22  C   UNL     1      -9.080   8.636  71.638  1.00  0.00    -0.318 A  
HETATM   23  C   UNL     1     -11.200   7.876  72.656  1.00  0.00    -0.398 C  
HETATM   24  C   UNL     1      -8.332   9.251  70.626  1.00  0.00    -0.245 A  
HETATM   25  O   UNL     1     -12.481   8.285  72.782  1.00  0.00    -0.265 OA 
HETATM   26  O   UNL     1     -10.675   7.107  73.441  1.00  0.00    -0.347 OA 
ENDBRANCH  16  18
ENDBRANCH   8  16
TORSDOF 2
ENDMDL
MODEL       39
REMARK 921   NORMALIZED FREE ENERGY PREDICTED BY IDOCK:   -6.49 KCAL/MOL
REMARK 922        TOTAL FREE ENERGY PREDICTED BY IDOCK:   -7.40 KCAL/MOL
REMARK 923 INTER-LIGAND FREE ENERGY PREDICTED BY IDOCK:   -6.43 KCAL/MOL
REMARK 924 INTRA-LIGAND FREE ENERGY PREDICTED BY IDOCK:   -0.97 KCAL/MOL
REMARK 927      BINDING AFFINITY PREDICTED BY RF-SCORE:    0.00 PKD
ROOT
HETATM    1  C   UNL     1      -7.575  10.418  65.508  1.00  0.00    -0.144 C  
HETATM    2  C   UNL     1      -8.251   9.959  66.770  1.00  0.00    -0.124 A  
HETATM    3  C   UNL     1      -8.504   8.580  66.900  1.00  0.00    -0.113 A  
HETATM    4  C   UNL     1      -9.101   8.004  68.040  1.00  0.00    -0.130 A  
HETATM    5  C   UNL     1      -9.480   8.859  69.095  1.00  0.00    -0.157 A  
HETATM    6  C   UNL     1      -9.178  10.242  68.980  1.00  0.00    -0.188 A  
HETATM    7  C   UNL     1     -10.187   8.326  70.353  1.00  0.00    -0.209 C  
HETATM    8  C   UNL     1      -8.583  10.813  67.831  1.00  0.00    -0.125 A  
HETATM    9  C   UNL     1      -9.185   8.303  71.532  1.00  0.00    -0.231 C  
HETATM   10  C   UNL     1     -11.392   9.202  70.752  1.00  0.00    -0.337 C  
HETATM   11  C   UNL     1     -10.746   6.897  70.133  1.00  0.00    -0.270 C  
HETATM   12  C   UNL     1     -10.479   6.158  67.059  1.00  0.00    -0.341 C  
HETATM   13  C   UNL     1      -9.735   5.982  69.465  1.00  0.00    -0.182 C  
HETATM   14  C   UNL     1      -8.087   5.693  67.641  1.00  0.00    -0.101 C  
HETATM   15  C   UNL     1      -9.348   6.487  68.059  1.00  0.00    -0.108 C  
ENDROOT
BRANCH   8  16
HETATM   16  C   UNL     1      -8.285  12.283  67.836  1.00  0.00    -0.161 C  
HETATM   17  C   UNL     1      -7.321  12.659  68.701  1.00  0.00    -0.101 C  
BRANCH  16  18
HETATM   18  C   UNL     1      -9.081  13.355  67.148  1.00  0.00    -0.235 A  
HETATM   19  C   UNL     1     -10.351  13.126  66.578  1.00  0.00    -0.284 A  
HETATM   20  C   UNL     1     -11.008  14.112  65.818  1.00  0.00    -0.301 A  
HETATM   21  C   UNL     1     -10.400  15.350  65.611  1.00  0.00    -0.395 A  
HETATM   22  C   UNL     1      -9.183  15.622  66.244  1.00  0.00    -0.365 A  
HETATM   23  C   UNL     1     -11.000  16.425  64.774  1.00  0.00    -0.231 C  
HETATM   24  C   UNL     1      -8.540  14.641  67.009  1.00  0.00    -0.249 A  
HETATM   25  O   UNL     1     -11.771  15.978  63.758  1.00  0.00    -0.700 OA 
HETATM   26  O   UNL     1     -10.772  17.608  64.953  1.00  0.00    -0.646 OA 
ENDBRANCH  16  18
ENDBRANCH   8  16
TORSDOF 2
ENDMDL
MODEL       40
REMARK 921   NORMALIZED FREE ENERGY PREDICTED BY IDOCK:   -6.47 KCAL/MOL
REMARK 922        TOTAL FREE ENERGY PREDICTED BY IDOCK:   -7.37 KCAL/MOL
REMARK 923 INTER-LIGAND FREE ENERGY PREDICTED BY IDOCK:   -6.63 KCAL/MOL
REMARK 924 INTRA-LIGAND FREE ENERGY PREDICTED BY IDOCK:   -0.75 KCAL/MOL
REMARK 927      BINDING AFFINITY PREDICTED BY RF-SCORE:    0.00 PKD
ROOT
HETATM    1  C   UNL     1     -11.252   6.255  68.376  1.00  0.00    -0.272 C  
HETATM    2  C   UNL     1     -10.494   6.381  69.669  1.00  0.00    -0.278 A  
HETATM    3  C   UNL     1     -10.183   5.190  70.352  1.00  0.00    -0.334 A  
HETATM    4  C   UNL     1      -9.449   5.154  71.556  1.00  0.00    -0.197 A  
HETATM    5  C   UNL     1      -9.023   6.378  72.111  1.00  0.00    -0.136 A  
HETATM    6  C   UNL     1      -9.297   7.572  71.392  1.00  0.00    -0.151 A  
HETATM    7  C   UNL     1      -8.267   6.439  73.448  1.00  0.00    -0.113 C  
HETATM    8  C   UNL     1     -10.037   7.601  70.188  1.00  0.00    -0.199 A  
HETATM    9  C   UNL     1      -6.771   6.732  73.178  1.00  0.00    -0.071 C  
HETATM   10  C   UNL     1      -8.820   7.540  74.375  1.00  0.00    -0.195 C  
HETATM   11  C   UNL     1      -8.389   5.110  74.236  1.00  0.00    -0.105 C  
HETATM   12  C   UNL     1     -10.524   3.260  72.791  1.00  0.00    -0.211 C  
HETATM   13  C   UNL     1      -8.147   3.896  73.357  1.00  0.00    -0.088 C  
HETATM   14  C   UNL     1      -8.641   2.754  71.217  1.00  0.00    -0.103 C  
HETATM   15  C   UNL     1      -9.190   3.794  72.223  1.00  0.00    -0.163 C  
ENDROOT
BRANCH   8  16
HETATM   16  C   UNL     1     -10.239   8.920  69.503  1.00  0.00    -0.204 C  
HETATM   17  C   UNL     1      -9.390   9.160  68.483  1.00  0.00    -0.137 C  
BRANCH  16  18
HETATM   18  C   UNL     1     -11.123  10.040  69.972  1.00  0.00    -0.350 A  
HETATM   19  C   UNL     1     -11.189  11.292  69.324  1.00  0.00    -0.336 A  
HETATM   20  C   UNL     1     -11.917  12.367  69.867  1.00  0.00    -0.369 A  
HETATM   21  C   UNL     1     -12.593  12.208  71.078  1.00  0.00    -0.359 A  
HETATM   22  C   UNL     1     -12.609  10.948  71.684  1.00  0.00    -0.431 A  
HETATM   23  C   UNL     1     -13.337  13.309  71.748  1.00  0.00    -0.393 C  
HETATM   24  C   UNL     1     -11.893   9.879  71.132  1.00  0.00    -0.472 A  
HETATM   25  O   UNL     1     -12.837  14.543  71.518  1.00  0.00    -0.303 OA 
HETATM   26  O   UNL     1     -14.285  13.112  72.487  1.00  0.00    -0.654 OA 
ENDBRANCH  16  18
ENDBRANCH   8  16
TORSDOF 2
ENDMDL
MODEL       41
REMARK 921   NORMALIZED FREE ENERGY PREDICTED BY IDOCK:   -6.44 KCAL/MOL
REMARK 922        TOTAL FREE ENERGY PREDICTED BY IDOCK:   -7.34 KCAL/MOL
REMARK 923 INTER-LIGAND FREE ENERGY PREDICTED BY IDOCK:   -6.76 KCAL/MOL
REMARK 924 INTRA-LIGAND FREE ENERGY PREDICTED BY IDOCK:   -0.58 KCAL/MOL
REMARK 927      BINDING AFFINITY PREDICTED BY RF-SCORE:    0.00 PKD
ROOT
HETATM    1  C   UNL     1      -9.685  15.756  65.751  1.00  0.00    -0.372 C  
HETATM    2  C   UNL     1      -9.976  14.482  66.496  1.00  0.00    -0.290 A  
HETATM    3  C   UNL     1      -9.786  13.272  65.801  1.00  0.00    -0.210 A  
HETATM    4  C   UNL     1      -9.988  12.004  66.383  1.00  0.00    -0.240 A  
HETATM    5  C   UNL     1     -10.422  11.948  67.723  1.00  0.00    -0.224 A  
HETATM    6  C   UNL     1     -10.565  13.170  68.433  1.00  0.00    -0.264 A  
HETATM    7  C   UNL     1     -10.721  10.612  68.422  1.00  0.00    -0.260 C  
HETATM    8  C   UNL     1     -10.364  14.439  67.842  1.00  0.00    -0.232 A  
HETATM    9  C   UNL     1      -9.576  10.281  69.409  1.00  0.00    -0.237 C  
HETATM   10  C   UNL     1     -12.047  10.655  69.208  1.00  0.00    -0.206 C  
HETATM   11  C   UNL     1     -10.862   9.452  67.402  1.00  0.00    -0.189 C  
HETATM   12  C   UNL     1     -10.904  10.670  64.472  1.00  0.00     0.181 C  
HETATM   13  C   UNL     1      -9.752   9.461  66.366  1.00  0.00    -0.315 C  
HETATM   14  C   UNL     1      -8.419  10.799  64.766  1.00  0.00    -0.038 C  
HETATM   15  C   UNL     1      -9.770  10.751  65.519  1.00  0.00    -0.290 C  
ENDROOT
BRANCH   8  16
HETATM   16  C   UNL     1     -10.517  15.660  68.700  1.00  0.00    -0.231 C  
HETATM   17  C   UNL     1     -11.680  15.727  69.381  1.00  0.00    -0.379 C  
BRANCH  16  18
HETATM   18  C   UNL     1      -9.622  16.866  68.701  1.00  0.00    -0.265 A  
HETATM   19  C   UNL     1     -10.111  18.188  68.643  1.00  0.00    -0.406 A  
HETATM   20  C   UNL     1      -9.246  19.289  68.502  1.00  0.00    -0.434 A  
HETATM   21  C   UNL     1      -7.869  19.085  68.412  1.00  0.00    -0.372 A  
HETATM   22  C   UNL     1      -7.365  17.789  68.558  1.00  0.00    -0.266 A  
HETATM   23  C   UNL     1      -6.891  20.188  68.204  1.00  0.00    -0.291 C  
HETATM   24  C   UNL     1      -8.230  16.698  68.710  1.00  0.00    -0.249 A  
HETATM   25  O   UNL     1      -7.372  21.236  67.498  1.00  0.00    -0.452 OA 
HETATM   26  O   UNL     1      -5.737  20.130  68.590  1.00  0.00    -0.226 OA 
ENDBRANCH  16  18
ENDBRANCH   8  16
TORSDOF 2
ENDMDL
MODEL       42
REMARK 921   NORMALIZED FREE ENERGY PREDICTED BY IDOCK:   -6.39 KCAL/MOL
REMARK 922        TOTAL FREE ENERGY PREDICTED BY IDOCK:   -7.28 KCAL/MOL
REMARK 923 INTER-LIGAND FREE ENERGY PREDICTED BY IDOCK:   -6.34 KCAL/MOL
REMARK 924 INTRA-LIGAND FREE ENERGY PREDICTED BY IDOCK:   -0.95 KCAL/MOL
REMARK 927      BINDING AFFINITY PREDICTED BY RF-SCORE:    0.00 PKD
ROOT
HETATM    1  C   UNL     1      -7.102   8.300  66.880  1.00  0.00    -0.078 C  
HETATM    2  C   UNL     1      -8.033   8.154  68.053  1.00  0.00    -0.127 A  
HETATM    3  C   UNL     1      -8.177   6.866  68.604  1.00  0.00    -0.121 A  
HETATM    4  C   UNL     1      -8.988   6.588  69.723  1.00  0.00    -0.142 A  
HETATM    5  C   UNL     1      -9.706   7.652  70.306  1.00  0.00    -0.179 A  
HETATM    6  C   UNL     1      -9.518   8.957  69.777  1.00  0.00    -0.174 A  
HETATM    7  C   UNL     1     -10.657   7.431  71.493  1.00  0.00    -0.226 C  
HETATM    8  C   UNL     1      -8.706   9.228  68.651  1.00  0.00    -0.132 A  
HETATM    9  C   UNL     1      -9.995   7.963  72.787  1.00  0.00    -0.348 C  
HETATM   10  C   UNL     1     -12.003   8.159  71.298  1.00  0.00    -0.318 C  
HETATM   11  C   UNL     1     -11.002   5.931  71.679  1.00  0.00    -0.327 C  
HETATM   12  C   UNL     1      -9.886   4.311  69.189  1.00  0.00    -0.163 C  
HETATM   13  C   UNL     1      -9.770   5.045  71.602  1.00  0.00    -0.226 C  
HETATM   14  C   UNL     1      -7.689   4.488  70.383  1.00  0.00    -0.053 C  
HETATM   15  C   UNL     1      -9.086   5.137  70.222  1.00  0.00    -0.164 C  
ENDROOT
BRANCH   8  16
HETATM   16  C   UNL     1      -8.561  10.651  68.200  1.00  0.00    -0.123 C  
HETATM   17  C   UNL     1      -7.604  11.351  68.843  1.00  0.00    -0.114 C  
BRANCH  16  18
HETATM   18  C   UNL     1      -9.493  11.395  67.287  1.00  0.00    -0.176 A  
HETATM   19  C   UNL     1     -10.176  12.569  67.672  1.00  0.00    -0.220 A  
HETATM   20  C   UNL     1     -11.148  13.161  66.845  1.00  0.00    -0.308 A  
HETATM   21  C   UNL     1     -11.459  12.584  65.613  1.00  0.00    -0.400 A  
HETATM   22  C   UNL     1     -10.728  11.474  65.181  1.00  0.00    -0.348 A  
HETATM   23  C   UNL     1     -12.514  13.115  64.706  1.00  0.00    -0.402 C  
HETATM   24  C   UNL     1      -9.753  10.896  66.003  1.00  0.00    -0.268 A  
HETATM   25  O   UNL     1     -13.540  13.726  65.339  1.00  0.00    -0.517 OA 
HETATM   26  O   UNL     1     -12.485  12.963  63.499  1.00  0.00    -0.683 OA 
ENDBRANCH  16  18
ENDBRANCH   8  16
TORSDOF 2
ENDMDL
MODEL       43
REMARK 921   NORMALIZED FREE ENERGY PREDICTED BY IDOCK:   -6.37 KCAL/MOL
REMARK 922        TOTAL FREE ENERGY PREDICTED BY IDOCK:   -7.27 KCAL/MOL
REMARK 923 INTER-LIGAND FREE ENERGY PREDICTED BY IDOCK:   -6.37 KCAL/MOL
REMARK 924 INTRA-LIGAND FREE ENERGY PREDICTED BY IDOCK:   -0.89 KCAL/MOL
REMARK 927      BINDING AFFINITY PREDICTED BY RF-SCORE:    0.00 PKD
ROOT
HETATM    1  C   UNL     1      -7.244  10.388  68.958  1.00  0.00    -0.088 C  
HETATM    2  C   UNL     1      -8.422   9.741  69.632  1.00  0.00    -0.194 A  
HETATM    3  C   UNL     1      -8.176   9.051  70.836  1.00  0.00    -0.222 A  
HETATM    4  C   UNL     1      -9.189   8.427  71.592  1.00  0.00    -0.271 A  
HETATM    5  C   UNL     1     -10.511   8.479  71.106  1.00  0.00    -0.278 A  
HETATM    6  C   UNL     1     -10.760   9.217  69.918  1.00  0.00    -0.253 A  
HETATM    7  C   UNL     1     -11.669   7.779  71.835  1.00  0.00    -0.335 C  
HETATM    8  C   UNL     1      -9.739   9.838  69.162  1.00  0.00    -0.188 A  
HETATM    9  C   UNL     1     -12.533   8.838  72.562  1.00  0.00    -0.368 C  
HETATM   10  C   UNL     1     -12.573   6.994  70.863  1.00  0.00    -0.273 C  
HETATM   11  C   UNL     1     -11.152   6.748  72.872  1.00  0.00    -0.277 C  
HETATM   12  C   UNL     1      -8.021   6.404  72.495  1.00  0.00    -0.102 C  
HETATM   13  C   UNL     1     -10.030   7.308  73.728  1.00  0.00    -0.368 C  
HETATM   14  C   UNL     1      -7.888   8.546  73.788  1.00  0.00    -0.092 C  
HETATM   15  C   UNL     1      -8.797   7.684  72.880  1.00  0.00    -0.211 C  
ENDROOT
BRANCH   8  16
HETATM   16  C   UNL     1     -10.127  10.615  67.939  1.00  0.00    -0.194 C  
HETATM   17  C   UNL     1     -10.459   9.857  66.873  1.00  0.00    -0.284 C  
BRANCH  16  18
HETATM   18  C   UNL     1      -9.977  12.096  67.739  1.00  0.00    -0.198 A  
HETATM   19  C   UNL     1      -9.993  13.022  68.804  1.00  0.00    -0.022 A  
HETATM   20  C   UNL     1      -9.993  14.411  68.574  1.00  0.00    -0.237 A  
HETATM   21  C   UNL     1      -9.981  14.899  67.267  1.00  0.00    -0.230 A  
HETATM   22  C   UNL     1      -9.875  13.995  66.207  1.00  0.00    -0.318 A  
HETATM   23  C   UNL     1     -10.038  16.350  66.937  1.00  0.00    -0.281 C  
HETATM   24  C   UNL     1      -9.863  12.614  66.442  1.00  0.00    -0.263 A  
HETATM   25  O   UNL     1     -10.715  17.101  67.833  1.00  0.00    -0.368 OA 
HETATM   26  O   UNL     1      -9.562  16.815  65.917  1.00  0.00    -0.458 OA 
ENDBRANCH  16  18
ENDBRANCH   8  16
TORSDOF 2
ENDMDL
MODEL       44
REMARK 921   NORMALIZED FREE ENERGY PREDICTED BY IDOCK:   -6.36 KCAL/MOL
REMARK 922        TOTAL FREE ENERGY PREDICTED BY IDOCK:   -7.25 KCAL/MOL
REMARK 923 INTER-LIGAND FREE ENERGY PREDICTED BY IDOCK:   -6.50 KCAL/MOL
REMARK 924 INTRA-LIGAND FREE ENERGY PREDICTED BY IDOCK:   -0.75 KCAL/MOL
REMARK 927      BINDING AFFINITY PREDICTED BY RF-SCORE:    0.00 PKD
ROOT
HETATM    1  C   UNL     1     -10.208  10.471  67.890  1.00  0.00    -0.213 C  
HETATM    2  C   UNL     1     -10.704  11.621  68.724  1.00  0.00    -0.254 A  
HETATM    3  C   UNL     1     -10.393  12.920  68.278  1.00  0.00    -0.248 A  
HETATM    4  C   UNL     1     -10.819  14.090  68.940  1.00  0.00    -0.278 A  
HETATM    5  C   UNL     1     -11.578  13.947  70.119  1.00  0.00    -0.249 A  
HETATM    6  C   UNL     1     -11.930  12.636  70.536  1.00  0.00    -0.279 A  
HETATM    7  C   UNL     1     -12.038  15.166  70.937  1.00  0.00    -0.388 C  
HETATM    8  C   UNL     1     -11.496  11.467  69.870  1.00  0.00    -0.353 A  
HETATM    9  C   UNL     1     -13.551  15.397  70.707  1.00  0.00    -0.263 C  
HETATM   10  C   UNL     1     -11.797  14.972  72.448  1.00  0.00    -0.432 C  
HETATM   11  C   UNL     1     -11.263  16.448  70.538  1.00  0.00    -0.230 C  
HETATM   12  C   UNL     1      -8.882  15.641  68.602  1.00  0.00    -0.201 C  
HETATM   13  C   UNL     1     -11.170  16.618  69.032  1.00  0.00    -0.165 C  
HETATM   14  C   UNL     1     -10.673  15.555  66.852  1.00  0.00    -0.317 C  
HETATM   15  C   UNL     1     -10.399  15.455  68.372  1.00  0.00    -0.229 C  
ENDROOT
BRANCH   8  16
HETATM   16  C   UNL     1     -11.955  10.136  70.387  1.00  0.00    -0.353 C  
HETATM   17  C   UNL     1     -13.236  10.109  70.810  1.00  0.00    -0.290 C  
BRANCH  16  18
HETATM   18  C   UNL     1     -11.089   8.941  70.665  1.00  0.00    -0.306 A  
HETATM   19  C   UNL     1      -9.761   9.043  71.131  1.00  0.00    -0.369 A  
HETATM   20  C   UNL     1      -8.930   7.914  71.245  1.00  0.00    -0.155 A  
HETATM   21  C   UNL     1      -9.415   6.655  70.890  1.00  0.00    -0.169 A  
HETATM   22  C   UNL     1     -10.754   6.527  70.511  1.00  0.00    -0.305 A  
HETATM   23  C   UNL     1      -8.584   5.420  70.926  1.00  0.00    -0.126 C  
HETATM   24  C   UNL     1     -11.581   7.653  70.411  1.00  0.00    -0.138 A  
HETATM   25  O   UNL     1      -7.268   5.624  70.696  1.00  0.00    -0.072 OA 
HETATM   26  O   UNL     1      -9.058   4.310  71.095  1.00  0.00    -0.115 OA 
ENDBRANCH  16  18
ENDBRANCH   8  16
TORSDOF 2
ENDMDL
MODEL       45
REMARK 921   NORMALIZED FREE ENERGY PREDICTED BY IDOCK:   -6.34 KCAL/MOL
REMARK 922        TOTAL FREE ENERGY PREDICTED BY IDOCK:   -7.23 KCAL/MOL
REMARK 923 INTER-LIGAND FREE ENERGY PREDICTED BY IDOCK:   -6.51 KCAL/MOL
REMARK 924 INTRA-LIGAND FREE ENERGY PREDICTED BY IDOCK:   -0.72 KCAL/MOL
REMARK 927      BINDING AFFINITY PREDICTED BY RF-SCORE:    0.00 PKD
ROOT
HETATM    1  C   UNL     1     -12.961  10.289  70.943  1.00  0.00    -0.456 C  
HETATM    2  C   UNL     1     -11.812  10.758  70.094  1.00  0.00    -0.427 A  
HETATM    3  C   UNL     1     -11.965  11.989  69.427  1.00  0.00    -0.334 A  
HETATM    4  C   UNL     1     -10.960  12.566  68.624  1.00  0.00    -0.291 A  
HETATM    5  C   UNL     1      -9.748  11.863  68.467  1.00  0.00    -0.173 A  
HETATM    6  C   UNL     1      -9.581  10.646  69.181  1.00  0.00    -0.193 A  
HETATM    7  C   UNL     1      -8.619  12.389  67.566  1.00  0.00    -0.177 C  
HETATM    8  C   UNL     1     -10.595  10.071  69.981  1.00  0.00    -0.344 A  
HETATM    9  C   UNL     1      -7.479  12.953  68.449  1.00  0.00    -0.124 C  
HETATM   10  C   UNL     1      -8.036  11.282  66.664  1.00  0.00    -0.159 C  
HETATM   11  C   UNL     1      -9.120  13.504  66.612  1.00  0.00    -0.182 C  
HETATM   12  C   UNL     1     -12.283  13.665  66.804  1.00  0.00    -0.416 C  
HETATM   13  C   UNL     1      -9.972  14.535  67.331  1.00  0.00    -0.227 C  
HETATM   14  C   UNL     1     -11.834  14.950  68.908  1.00  0.00    -0.334 C  
HETATM   15  C   UNL     1     -11.249  13.906  67.927  1.00  0.00    -0.302 C  
ENDROOT
BRANCH   8  16
HETATM   16  C   UNL     1     -10.293   8.795  70.710  1.00  0.00    -0.264 C  
HETATM   17  C   UNL     1      -9.860   8.961  71.977  1.00  0.00    -0.325 C  
BRANCH  16  18
HETATM   18  C   UNL     1     -10.227   7.420  70.110  1.00  0.00    -0.207 A  
HETATM   19  C   UNL     1     -10.561   6.251  70.825  1.00  0.00    -0.297 A  
HETATM   20  C   UNL     1     -10.353   4.969  70.282  1.00  0.00    -0.299 A  
HETATM   21  C   UNL     1      -9.801   4.835  69.008  1.00  0.00    -0.239 A  
HETATM   22  C   UNL     1      -9.549   5.985  68.254  1.00  0.00    -0.126 A  
HETATM   23  C   UNL     1      -9.497   3.517  68.385  1.00  0.00    -0.145 C  
HETATM   24  C   UNL     1      -9.769   7.258  68.795  1.00  0.00    -0.151 A  
HETATM   25  O   UNL     1      -9.175   2.544  69.265  1.00  0.00    -0.114 OA 
HETATM   26  O   UNL     1      -9.484   3.344  67.179  1.00  0.00    -0.201 OA 
ENDBRANCH  16  18
ENDBRANCH   8  16
TORSDOF 2
ENDMDL
MODEL       46
REMARK 921   NORMALIZED FREE ENERGY PREDICTED BY IDOCK:   -6.33 KCAL/MOL
REMARK 922        TOTAL FREE ENERGY PREDICTED BY IDOCK:   -7.22 KCAL/MOL
REMARK 923 INTER-LIGAND FREE ENERGY PREDICTED BY IDOCK:   -6.34 KCAL/MOL
REMARK 924 INTRA-LIGAND FREE ENERGY PREDICTED BY IDOCK:   -0.87 KCAL/MOL
REMARK 927      BINDING AFFINITY PREDICTED BY RF-SCORE:    0.00 PKD
ROOT
HETATM    1  C   UNL     1      -7.374   7.941  63.421  1.00  0.00    -0.108 C  
HETATM    2  C   UNL     1      -7.971   7.416  64.698  1.00  0.00    -0.127 A  
HETATM    3  C   UNL     1      -7.971   6.019  64.881  1.00  0.00    -0.126 A  
HETATM    4  C   UNL     1      -8.466   5.389  66.041  1.00  0.00    -0.123 A  
HETATM    5  C   UNL     1      -9.006   6.201  67.060  1.00  0.00    -0.114 A  
HETATM    6  C   UNL     1      -8.958   7.611  66.890  1.00  0.00    -0.156 A  
HETATM    7  C   UNL     1      -9.619   5.598  68.335  1.00  0.00    -0.152 C  
HETATM    8  C   UNL     1      -8.464   8.235  65.722  1.00  0.00    -0.164 A  
HETATM    9  C   UNL     1      -8.644   5.802  69.518  1.00  0.00    -0.112 C  
HETATM   10  C   UNL     1     -10.967   6.255  68.693  1.00  0.00    -0.423 C  
HETATM   11  C   UNL     1      -9.907   4.084  68.170  1.00  0.00    -0.060 C  
HETATM   12  C   UNL     1      -9.477   3.288  65.129  1.00  0.00    -0.139 C  
HETATM   13  C   UNL     1      -8.740   3.342  67.543  1.00  0.00    -0.137 C  
HETATM   14  C   UNL     1      -7.046   3.287  65.739  1.00  0.00    -0.066 C  
HETATM   15  C   UNL     1      -8.435   3.854  66.120  1.00  0.00    -0.110 C  
ENDROOT
BRANCH   8  16
HETATM   16  C   UNL     1      -8.437   9.734  65.669  1.00  0.00    -0.147 C  
HETATM   17  C   UNL     1      -7.294  10.293  66.116  1.00  0.00    -0.122 C  
BRANCH  16  18
HETATM   18  C   UNL     1      -9.602  10.636  65.377  1.00  0.00    -0.282 A  
HETATM   19  C   UNL     1     -10.092  10.864  64.073  1.00  0.00    -0.419 A  
HETATM   20  C   UNL     1     -11.091  11.822  63.818  1.00  0.00    -0.513 A  
HETATM   21  C   UNL     1     -11.618  12.574  64.867  1.00  0.00    -0.386 A  
HETATM   22  C   UNL     1     -11.206  12.296  66.174  1.00  0.00    -0.372 A  
HETATM   23  C   UNL     1     -12.634  13.645  64.674  1.00  0.00    -0.242 C  
HETATM   24  C   UNL     1     -10.220  11.334  66.424  1.00  0.00    -0.273 A  
HETATM   25  O   UNL     1     -12.559  14.279  63.483  1.00  0.00    -0.814 OA 
HETATM   26  O   UNL     1     -13.432  13.963  65.538  1.00  0.00    -0.657 OA 
ENDBRANCH  16  18
ENDBRANCH   8  16
TORSDOF 2
ENDMDL
MODEL       47
REMARK 921   NORMALIZED FREE ENERGY PREDICTED BY IDOCK:   -6.32 KCAL/MOL
REMARK 922        TOTAL FREE ENERGY PREDICTED BY IDOCK:   -7.21 KCAL/MOL
REMARK 923 INTER-LIGAND FREE ENERGY PREDICTED BY IDOCK:   -6.28 KCAL/MOL
REMARK 924 INTRA-LIGAND FREE ENERGY PREDICTED BY IDOCK:   -0.92 KCAL/MOL
REMARK 927      BINDING AFFINITY PREDICTED BY RF-SCORE:    0.00 PKD
ROOT
HETATM    1  C   UNL     1     -12.006  12.786  66.581  1.00  0.00    -0.411 C  
HETATM    2  C   UNL     1     -10.678  13.298  67.067  1.00  0.00    -0.263 A  
HETATM    3  C   UNL     1     -10.486  14.694  67.062  1.00  0.00    -0.269 A  
HETATM    4  C   UNL     1      -9.307  15.316  67.520  1.00  0.00    -0.204 A  
HETATM    5  C   UNL     1      -8.260  14.495  67.988  1.00  0.00    -0.145 A  
HETATM    6  C   UNL     1      -8.478  13.093  68.036  1.00  0.00    -0.181 A  
HETATM    7  C   UNL     1      -6.918  15.083  68.454  1.00  0.00    -0.109 C  
HETATM    8  C   UNL     1      -9.662  12.475  67.571  1.00  0.00    -0.196 A  
HETATM    9  C   UNL     1      -6.843  15.029  69.999  1.00  0.00    -0.126 C  
HETATM   10  C   UNL     1      -5.716  14.307  67.879  1.00  0.00    -0.118 C  
HETATM   11  C   UNL     1      -6.745  16.552  67.989  1.00  0.00    -0.147 C  
HETATM   12  C   UNL     1      -9.081  17.264  65.963  1.00  0.00    -0.114 C  
HETATM   13  C   UNL     1      -7.991  17.384  68.237  1.00  0.00    -0.253 C  
HETATM   14  C   UNL     1     -10.453  17.539  68.041  1.00  0.00    -0.387 C  
HETATM   15  C   UNL     1      -9.203  16.848  67.446  1.00  0.00    -0.224 C  
ENDROOT
BRANCH   8  16
HETATM   16  C   UNL     1      -9.789  10.986  67.699  1.00  0.00    -0.192 C  
HETATM   17  C   UNL     1      -9.485  10.296  66.580  1.00  0.00    -0.203 C  
BRANCH  16  18
HETATM   18  C   UNL     1     -10.406  10.240  68.847  1.00  0.00    -0.221 A  
HETATM   19  C   UNL     1     -10.276   8.846  69.020  1.00  0.00    -0.217 A  
HETATM   20  C   UNL     1     -10.981   8.157  70.024  1.00  0.00    -0.199 A  
HETATM   21  C   UNL     1     -11.839   8.855  70.876  1.00  0.00    -0.283 A  
HETATM   22  C   UNL     1     -11.909  10.247  70.773  1.00  0.00    -0.459 A  
HETATM   23  C   UNL     1     -12.664   8.195  71.924  1.00  0.00    -0.332 C  
HETATM   24  C   UNL     1     -11.195  10.929  69.780  1.00  0.00    -0.351 A  
HETATM   25  O   UNL     1     -13.040   6.932  71.626  1.00  0.00    -0.365 OA 
HETATM   26  O   UNL     1     -13.018   8.764  72.941  1.00  0.00    -0.314 OA 
ENDBRANCH  16  18
ENDBRANCH   8  16
TORSDOF 2
ENDMDL
MODEL       48
REMARK 921   NORMALIZED FREE ENERGY PREDICTED BY IDOCK:   -6.31 KCAL/MOL
REMARK 922        TOTAL FREE ENERGY PREDICTED BY IDOCK:   -7.19 KCAL/MOL
REMARK 923 INTER-LIGAND FREE ENERGY PREDICTED BY IDOCK:   -6.30 KCAL/MOL
REMARK 924 INTRA-LIGAND FREE ENERGY PREDICTED BY IDOCK:   -0.89 KCAL/MOL
REMARK 927      BINDING AFFINITY PREDICTED BY RF-SCORE:    0.00 PKD
ROOT
HETATM    1  C   UNL     1      -7.399  10.362  69.394  1.00  0.00    -0.123 C  
HETATM    2  C   UNL     1      -8.297  11.238  68.564  1.00  0.00    -0.155 A  
HETATM    3  C   UNL     1      -7.947  12.598  68.454  1.00  0.00    -0.134 A  
HETATM    4  C   UNL     1      -8.676  13.526  67.683  1.00  0.00    -0.194 A  
HETATM    5  C   UNL     1      -9.826  13.071  67.006  1.00  0.00    -0.238 A  
HETATM    6  C   UNL     1     -10.146  11.689  67.081  1.00  0.00    -0.227 A  
HETATM    7  C   UNL     1     -10.713  14.024  66.188  1.00  0.00    -0.289 C  
HETATM    8  C   UNL     1      -9.412  10.764  67.860  1.00  0.00    -0.165 A  
HETATM    9  C   UNL     1     -10.465  13.787  64.679  1.00  0.00    -0.433 C  
HETATM   10  C   UNL     1     -12.212  13.808  66.477  1.00  0.00    -0.475 C  
HETATM   11  C   UNL     1     -10.419  15.509  66.524  1.00  0.00    -0.301 C  
HETATM   12  C   UNL     1      -8.487  15.623  69.038  1.00  0.00    -0.231 C  
HETATM   13  C   UNL     1      -8.930  15.806  66.559  1.00  0.00    -0.341 C  
HETATM   14  C   UNL     1      -6.695  15.108  67.364  1.00  0.00    -0.134 C  
HETATM   15  C   UNL     1      -8.211  14.991  67.656  1.00  0.00    -0.181 C  
ENDROOT
BRANCH   8  16
HETATM   16  C   UNL     1      -9.829   9.323  67.839  1.00  0.00    -0.200 C  
HETATM   17  C   UNL     1     -10.037   8.815  66.607  1.00  0.00    -0.358 C  
BRANCH  16  18
HETATM   18  C   UNL     1     -10.226   8.494  69.026  1.00  0.00    -0.218 A  
HETATM   19  C   UNL     1     -10.924   9.019  70.135  1.00  0.00    -0.256 A  
HETATM   20  C   UNL     1     -11.156   8.253  71.291  1.00  0.00    -0.296 A  
HETATM   21  C   UNL     1     -10.688   6.940  71.361  1.00  0.00    -0.247 A  
HETATM   22  C   UNL     1     -10.075   6.379  70.238  1.00  0.00    -0.216 A  
HETATM   23  C   UNL     1     -10.841   6.082  72.568  1.00  0.00    -0.247 C  
HETATM   24  C   UNL     1      -9.856   7.143  69.085  1.00  0.00    -0.160 A  
HETATM   25  O   UNL     1     -10.855   6.759  73.738  1.00  0.00    -0.269 OA 
HETATM   26  O   UNL     1     -10.895   4.867  72.513  1.00  0.00    -0.211 OA 
ENDBRANCH  16  18
ENDBRANCH   8  16
TORSDOF 2
ENDMDL
MODEL       49
REMARK 921   NORMALIZED FREE ENERGY PREDICTED BY IDOCK:   -6.29 KCAL/MOL
REMARK 922        TOTAL FREE ENERGY PREDICTED BY IDOCK:   -7.18 KCAL/MOL
REMARK 923 INTER-LIGAND FREE ENERGY PREDICTED BY IDOCK:   -6.20 KCAL/MOL
REMARK 924 INTRA-LIGAND FREE ENERGY PREDICTED BY IDOCK:   -0.98 KCAL/MOL
REMARK 927      BINDING AFFINITY PREDICTED BY RF-SCORE:    0.00 PKD
ROOT
HETATM    1  C   UNL     1      -7.021  10.358  68.371  1.00  0.00    -0.069 C  
HETATM    2  C   UNL     1      -8.161  11.340  68.374  1.00  0.00    -0.143 A  
HETATM    3  C   UNL     1      -7.832  12.707  68.295  1.00  0.00    -0.144 A  
HETATM    4  C   UNL     1      -8.797  13.735  68.255  1.00  0.00    -0.185 A  
HETATM    5  C   UNL     1     -10.158  13.373  68.320  1.00  0.00    -0.247 A  
HETATM    6  C   UNL     1     -10.483  11.991  68.350  1.00  0.00    -0.231 A  
HETATM    7  C   UNL     1     -11.275  14.429  68.339  1.00  0.00    -0.294 C  
HETATM    8  C   UNL     1      -9.511  10.965  68.394  1.00  0.00    -0.178 A  
HETATM    9  C   UNL     1     -11.971  14.465  66.957  1.00  0.00    -0.424 C  
HETATM   10  C   UNL     1     -12.338  14.125  69.414  1.00  0.00    -0.246 C  
HETATM   11  C   UNL     1     -10.723  15.841  68.666  1.00  0.00    -0.263 C  
HETATM   12  C   UNL     1      -7.688  15.569  69.550  1.00  0.00    -0.197 C  
HETATM   13  C   UNL     1      -9.473  16.167  67.868  1.00  0.00    -0.214 C  
HETATM   14  C   UNL     1      -7.252  15.403  67.088  1.00  0.00    -0.179 C  
HETATM   15  C   UNL     1      -8.318  15.195  68.190  1.00  0.00    -0.147 C  
ENDROOT
BRANCH   8  16
HETATM   16  C   UNL     1      -9.975   9.539  68.396  1.00  0.00    -0.184 C  
HETATM   17  C   UNL     1     -10.514   9.121  67.232  1.00  0.00    -0.335 C  
BRANCH  16  18
HETATM   18  C   UNL     1     -10.085   8.640  69.593  1.00  0.00    -0.201 A  
HETATM   19  C   UNL     1     -10.253   7.242  69.495  1.00  0.00    -0.200 A  
HETATM   20  C   UNL     1     -10.495   6.446  70.630  1.00  0.00    -0.269 A  
HETATM   21  C   UNL     1     -10.577   7.039  71.890  1.00  0.00    -0.239 A  
HETATM   22  C   UNL     1     -10.324   8.408  72.013  1.00  0.00    -0.374 A  
HETATM   23  C   UNL     1     -10.886   6.277  73.132  1.00  0.00    -0.254 C  
HETATM   24  C   UNL     1     -10.072   9.193  70.881  1.00  0.00    -0.356 A  
HETATM   25  O   UNL     1     -11.676   5.197  72.943  1.00  0.00    -0.283 OA 
HETATM   26  O   UNL     1     -10.506   6.628  74.234  1.00  0.00    -0.344 OA 
ENDBRANCH  16  18
ENDBRANCH   8  16
TORSDOF 2
ENDMDL
MODEL       50
REMARK 921   NORMALIZED FREE ENERGY PREDICTED BY IDOCK:   -6.27 KCAL/MOL
REMARK 922        TOTAL FREE ENERGY PREDICTED BY IDOCK:   -7.15 KCAL/MOL
REMARK 923 INTER-LIGAND FREE ENERGY PREDICTED BY IDOCK:   -7.47 KCAL/MOL
REMARK 924 INTRA-LIGAND FREE ENERGY PREDICTED BY IDOCK:    0.33 KCAL/MOL
REMARK 927      BINDING AFFINITY PREDICTED BY RF-SCORE:    0.00 PKD
ROOT
HETATM    1  C   UNL     1     -12.032  15.724  64.218  1.00  0.00    -0.062 C  
HETATM    2  C   UNL     1     -10.898  15.662  65.203  1.00  0.00    -0.448 A  
HETATM    3  C   UNL     1     -10.504  16.872  65.807  1.00  0.00    -0.279 A  
HETATM    4  C   UNL     1      -9.479  16.960  66.771  1.00  0.00    -0.269 A  
HETATM    5  C   UNL     1      -8.803  15.777  67.133  1.00  0.00    -0.224 A  
HETATM    6  C   UNL     1      -9.237  14.553  66.556  1.00  0.00    -0.282 A  
HETATM    7  C   UNL     1      -7.636  15.786  68.134  1.00  0.00    -0.128 C  
HETATM    8  C   UNL     1     -10.263  14.473  65.586  1.00  0.00    -0.379 A  
HETATM    9  C   UNL     1      -8.117  15.210  69.487  1.00  0.00    -0.167 C  
HETATM   10  C   UNL     1      -6.444  14.942  67.639  1.00  0.00    -0.168 C  
HETATM   11  C   UNL     1      -7.086  17.219  68.359  1.00  0.00    -0.209 C  
HETATM   12  C   UNL     1      -8.424  19.169  66.243  1.00  0.00    -0.311 C  
HETATM   13  C   UNL     1      -8.196  18.232  68.577  1.00  0.00    -0.329 C  
HETATM   14  C   UNL     1     -10.379  19.114  67.811  1.00  0.00    -0.513 C  
HETATM   15  C   UNL     1      -9.121  18.340  67.346  1.00  0.00    -0.253 C  
ENDROOT
BRANCH   8  16
HETATM   16  C   UNL     1     -10.655  13.121  65.070  1.00  0.00    -0.347 C  
HETATM   17  C   UNL     1     -11.373  13.141  63.929  1.00  0.00    -0.420 C  
BRANCH  16  18
HETATM   18  C   UNL     1     -10.508  11.814  65.795  1.00  0.00    -0.302 A  
HETATM   19  C   UNL     1      -9.961  10.658  65.198  1.00  0.00    -0.366 A  
HETATM   20  C   UNL     1      -9.967   9.414  65.856  1.00  0.00    -0.327 A  
HETATM   21  C   UNL     1     -10.529   9.303  67.128  1.00  0.00    -0.319 A  
HETATM   22  C   UNL     1     -10.993  10.456  67.767  1.00  0.00    -0.369 A  
HETATM   23  C   UNL     1     -10.628   8.014  67.867  1.00  0.00    -0.145 C  
HETATM   24  C   UNL     1     -10.973  11.694  67.112  1.00  0.00    -0.330 A  
HETATM   25  O   UNL     1     -10.754   6.925  67.077  1.00  0.00    -0.310 OA 
HETATM   26  O   UNL     1     -10.649   7.950  69.083  1.00  0.00    -0.219 OA 
ENDBRANCH  16  18
ENDBRANCH   8  16
TORSDOF 2
ENDMDL
MODEL       51
REMARK 921   NORMALIZED FREE ENERGY PREDICTED BY IDOCK:   -6.26 KCAL/MOL
REMARK 922        TOTAL FREE ENERGY PREDICTED BY IDOCK:   -7.14 KCAL/MOL
REMARK 923 INTER-LIGAND FREE ENERGY PREDICTED BY IDOCK:   -6.19 KCAL/MOL
REMARK 924 INTRA-LIGAND FREE ENERGY PREDICTED BY IDOCK:   -0.95 KCAL/MOL
REMARK 927      BINDING AFFINITY PREDICTED BY RF-SCORE:    0.00 PKD
ROOT
HETATM    1  C   UNL     1     -11.107   6.445  67.231  1.00  0.00    -0.416 C  
HETATM    2  C   UNL     1     -10.165   6.725  68.370  1.00  0.00    -0.193 A  
HETATM    3  C   UNL     1     -10.356   5.993  69.558  1.00  0.00    -0.295 A  
HETATM    4  C   UNL     1      -9.530   6.127  70.693  1.00  0.00    -0.185 A  
HETATM    5  C   UNL     1      -8.472   7.057  70.639  1.00  0.00    -0.139 A  
HETATM    6  C   UNL     1      -8.255   7.757  69.422  1.00  0.00    -0.131 A  
HETATM    7  C   UNL     1      -7.556   7.310  71.848  1.00  0.00    -0.085 C  
HETATM    8  C   UNL     1      -9.089   7.620  68.289  1.00  0.00    -0.136 A  
HETATM    9  C   UNL     1      -6.182   6.642  71.599  1.00  0.00    -0.042 C  
HETATM   10  C   UNL     1      -7.329   8.815  72.096  1.00  0.00     0.005 C  
HETATM   11  C   UNL     1      -8.166   6.744  73.156  1.00  0.00    -0.119 C  
HETATM   12  C   UNL     1     -11.149   5.830  72.580  1.00  0.00    -0.327 C  
HETATM   13  C   UNL     1      -8.705   5.336  72.977  1.00  0.00    -0.117 C  
HETATM   14  C   UNL     1     -10.065   3.797  71.595  1.00  0.00    -0.149 C  
HETATM   15  C   UNL     1      -9.849   5.290  71.942  1.00  0.00    -0.227 C  
ENDROOT
BRANCH   8  16
HETATM   16  C   UNL     1      -8.744   8.390  67.049  1.00  0.00    -0.132 C  
HETATM   17  C   UNL     1      -7.527   8.113  66.536  1.00  0.00    -0.088 C  
BRANCH  16  18
HETATM   18  C   UNL     1      -9.510   9.548  66.477  1.00  0.00    -0.236 A  
HETATM   19  C   UNL     1     -10.354  10.372  67.252  1.00  0.00    -0.278 A  
HETATM   20  C   UNL     1     -11.166  11.358  66.662  1.00  0.00    -0.298 A  
HETATM   21  C   UNL     1     -11.152  11.536  65.278  1.00  0.00    -0.257 A  
HETATM   22  C   UNL     1     -10.256  10.788  64.509  1.00  0.00    -0.428 A  
HETATM   23  C   UNL     1     -12.022  12.515  64.572  1.00  0.00    -0.404 C  
HETATM   24  C   UNL     1      -9.441   9.816  65.103  1.00  0.00    -0.338 A  
HETATM   25  O   UNL     1     -13.208  12.748  65.177  1.00  0.00    -0.686 OA 
HETATM   26  O   UNL     1     -11.716  13.024  63.508  1.00  0.00    -0.487 OA 
ENDBRANCH  16  18
ENDBRANCH   8  16
TORSDOF 2
ENDMDL
MODEL       52
REMARK 921   NORMALIZED FREE ENERGY PREDICTED BY IDOCK:   -6.20 KCAL/MOL
REMARK 922        TOTAL FREE ENERGY PREDICTED BY IDOCK:   -7.08 KCAL/MOL
REMARK 923 INTER-LIGAND FREE ENERGY PREDICTED BY IDOCK:   -6.19 KCAL/MOL
REMARK 924 INTRA-LIGAND FREE ENERGY PREDICTED BY IDOCK:   -0.89 KCAL/MOL
REMARK 927      BINDING AFFINITY PREDICTED BY RF-SCORE:    0.00 PKD
ROOT
HETATM    1  C   UNL     1     -12.238   6.866  70.028  1.00  0.00     0.106 C  
HETATM    2  C   UNL     1     -11.023   7.192  70.853  1.00  0.00    -0.276 A  
HETATM    3  C   UNL     1     -10.051   6.182  70.993  1.00  0.00    -0.231 A  
HETATM    4  C   UNL     1      -8.849   6.356  71.709  1.00  0.00    -0.139 A  
HETATM    5  C   UNL     1      -8.621   7.600  72.332  1.00  0.00    -0.162 A  
HETATM    6  C   UNL     1      -9.581   8.630  72.147  1.00  0.00    -0.378 A  
HETATM    7  C   UNL     1      -7.365   7.861  73.179  1.00  0.00    -0.135 C  
HETATM    8  C   UNL     1     -10.787   8.446  71.431  1.00  0.00    -0.304 A  
HETATM    9  C   UNL     1      -6.387   8.760  72.384  1.00  0.00    -0.042 C  
HETATM   10  C   UNL     1      -7.701   8.564  74.510  1.00  0.00    -0.213 C  
HETATM   11  C   UNL     1      -6.645   6.541  73.559  1.00  0.00    -0.069 C  
HETATM   12  C   UNL     1      -8.494   4.098  72.731  1.00  0.00    -0.100 C  
HETATM   13  C   UNL     1      -6.500   5.605  72.372  1.00  0.00    -0.057 C  
HETATM   14  C   UNL     1      -7.599   4.531  70.431  1.00  0.00    -0.053 C  
HETATM   15  C   UNL     1      -7.872   5.174  71.812  1.00  0.00    -0.110 C  
ENDROOT
BRANCH   8  16
HETATM   16  C   UNL     1     -11.713   9.617  71.278  1.00  0.00    -0.458 C  
HETATM   17  C   UNL     1     -12.730   9.649  72.162  1.00  0.00    -0.427 C  
BRANCH  16  18
HETATM   18  C   UNL     1     -11.729  10.596  70.139  1.00  0.00    -0.417 A  
HETATM   19  C   UNL     1     -11.402  10.242  68.813  1.00  0.00    -0.226 A  
HETATM   20  C   UNL     1     -11.289  11.209  67.797  1.00  0.00    -0.364 A  
HETATM   21  C   UNL     1     -11.498  12.556  68.093  1.00  0.00    -0.368 A  
HETATM   22  C   UNL     1     -11.910  12.911  69.381  1.00  0.00    -0.371 A  
HETATM   23  C   UNL     1     -11.342  13.646  67.091  1.00  0.00    -0.319 C  
HETATM   24  C   UNL     1     -12.032  11.943  70.385  1.00  0.00    -0.400 A  
HETATM   25  O   UNL     1     -10.423  13.396  66.132  1.00  0.00    -0.285 OA 
HETATM   26  O   UNL     1     -11.950  14.699  67.160  1.00  0.00    -0.391 OA 
ENDBRANCH  16  18
ENDBRANCH   8  16
TORSDOF 2
ENDMDL
MODEL       53
REMARK 921   NORMALIZED FREE ENERGY PREDICTED BY IDOCK:   -6.20 KCAL/MOL
REMARK 922        TOTAL FREE ENERGY PREDICTED BY IDOCK:   -7.07 KCAL/MOL
REMARK 923 INTER-LIGAND FREE ENERGY PREDICTED BY IDOCK:   -6.20 KCAL/MOL
REMARK 924 INTRA-LIGAND FREE ENERGY PREDICTED BY IDOCK:   -0.87 KCAL/MOL
REMARK 927      BINDING AFFINITY PREDICTED BY RF-SCORE:    0.00 PKD
ROOT
HETATM    1  C   UNL     1     -10.873  10.865  69.832  1.00  0.00    -0.205 C  
HETATM    2  C   UNL     1      -9.947  10.131  68.903  1.00  0.00    -0.207 A  
HETATM    3  C   UNL     1     -10.084   8.731  68.831  1.00  0.00    -0.210 A  
HETATM    4  C   UNL     1      -9.307   7.918  67.980  1.00  0.00    -0.152 A  
HETATM    5  C   UNL     1      -8.330   8.540  67.175  1.00  0.00    -0.111 A  
HETATM    6  C   UNL     1      -8.230   9.956  67.216  1.00  0.00    -0.121 A  
HETATM    7  C   UNL     1      -7.401   7.728  66.259  1.00  0.00    -0.079 C  
HETATM    8  C   UNL     1      -9.010  10.765  68.076  1.00  0.00    -0.139 A  
HETATM    9  C   UNL     1      -7.853   7.897  64.789  1.00  0.00    -0.125 C  
HETATM   10  C   UNL     1      -5.932   8.186  66.374  1.00  0.00    -0.041 C  
HETATM   11  C   UNL     1      -7.412   6.221  66.624  1.00  0.00    -0.090 C  
HETATM   12  C   UNL     1      -9.001   5.840  69.343  1.00  0.00    -0.121 C  
HETATM   13  C   UNL     1      -8.820   5.690  66.830  1.00  0.00    -0.115 C  
HETATM   14  C   UNL     1     -11.031   6.034  67.887  1.00  0.00    -0.334 C  
HETATM   15  C   UNL     1      -9.531   6.397  68.003  1.00  0.00    -0.116 C  
ENDROOT
BRANCH   8  16
HETATM   16  C   UNL     1      -8.836  12.253  68.010  1.00  0.00    -0.182 C  
HETATM   17  C   UNL     1      -7.977  12.760  68.919  1.00  0.00     0.182 C  
BRANCH  16  18
HETATM   18  C   UNL     1      -9.659  13.211  67.199  1.00  0.00    -0.235 A  
HETATM   19  C   UNL     1     -11.042  13.041  66.976  1.00  0.00    -0.311 A  
HETATM   20  C   UNL     1     -11.756  13.876  66.096  1.00  0.00    -0.393 A  
HETATM   21  C   UNL     1     -11.094  14.900  65.418  1.00  0.00    -0.366 A  
HETATM   22  C   UNL     1      -9.745  15.135  65.697  1.00  0.00    -0.351 A  
HETATM   23  C   UNL     1     -11.763  15.789  64.428  1.00  0.00    -0.201 C  
HETATM   24  C   UNL     1      -9.042  14.309  66.582  1.00  0.00    -0.249 A  
HETATM   25  O   UNL     1     -12.785  15.212  63.758  1.00  0.00    -0.722 OA 
HETATM   26  O   UNL     1     -11.386  16.925  64.200  1.00  0.00    -1.208 OA 
ENDBRANCH  16  18
ENDBRANCH   8  16
TORSDOF 2
ENDMDL
MODEL       54
REMARK 921   NORMALIZED FREE ENERGY PREDICTED BY IDOCK:   -6.17 KCAL/MOL
REMARK 922        TOTAL FREE ENERGY PREDICTED BY IDOCK:   -7.04 KCAL/MOL
REMARK 923 INTER-LIGAND FREE ENERGY PREDICTED BY IDOCK:   -6.26 KCAL/MOL
REMARK 924 INTRA-LIGAND FREE ENERGY PREDICTED BY IDOCK:   -0.78 KCAL/MOL
REMARK 927      BINDING AFFINITY PREDICTED BY RF-SCORE:    0.00 PKD
ROOT
HETATM    1  C   UNL     1      -7.110  10.765  66.828  1.00  0.00    -0.127 C  
HETATM    2  C   UNL     1      -8.111  10.213  67.807  1.00  0.00    -0.109 A  
HETATM    3  C   UNL     1      -7.610   9.705  69.021  1.00  0.00    -0.076 A  
HETATM    4  C   UNL     1      -8.432   9.188  70.043  1.00  0.00    -0.164 A  
HETATM    5  C   UNL     1      -9.825   9.160  69.826  1.00  0.00    -0.192 A  
HETATM    6  C   UNL     1     -10.327   9.718  68.620  1.00  0.00    -0.224 A  
HETATM    7  C   UNL     1     -10.792   8.563  70.861  1.00  0.00    -0.275 C  
HETATM    8  C   UNL     1      -9.496  10.232  67.598  1.00  0.00    -0.169 A  
HETATM    9  C   UNL     1     -11.535   9.708  71.590  1.00  0.00    -0.376 C  
HETATM   10  C   UNL     1     -11.840   7.639  70.207  1.00  0.00     0.072 C  
HETATM   11  C   UNL     1     -10.047   7.695  71.908  1.00  0.00    -0.218 C  
HETATM   12  C   UNL     1      -7.039   7.325  70.970  1.00  0.00    -0.064 C  
HETATM   13  C   UNL     1      -8.800   8.381  72.438  1.00  0.00    -0.294 C  
HETATM   14  C   UNL     1      -6.733   9.631  71.899  1.00  0.00     0.566 C  
HETATM   15  C   UNL     1      -7.770   8.640  71.318  1.00  0.00    -0.141 C  
ENDROOT
BRANCH   8  16
HETATM   16  C   UNL     1     -10.143  10.821  66.380  1.00  0.00    -0.278 C  
HETATM   17  C   UNL     1     -10.277   9.967  65.344  1.00  0.00    -0.226 C  
BRANCH  16  18
HETATM   18  C   UNL     1     -10.445  12.274  66.147  1.00  0.00    -0.270 A  
HETATM   19  C   UNL     1     -11.601  12.722  65.473  1.00  0.00    -0.400 A  
HETATM   20  C   UNL     1     -11.786  14.078  65.146  1.00  0.00    -0.353 A  
HETATM   21  C   UNL     1     -10.809  15.015  65.487  1.00  0.00    -0.360 A  
HETATM   22  C   UNL     1      -9.702  14.599  66.232  1.00  0.00    -0.329 A  
HETATM   23  C   UNL     1     -10.900  16.457  65.127  1.00  0.00    -0.275 C  
HETATM   24  C   UNL     1      -9.530  13.250  66.565  1.00  0.00    -0.251 A  
HETATM   25  O   UNL     1     -11.573  16.706  63.982  1.00  0.00    -1.197 OA 
HETATM   26  O   UNL     1     -10.367  17.335  65.780  1.00  0.00    -0.531 OA 
ENDBRANCH  16  18
ENDBRANCH   8  16
TORSDOF 2
ENDMDL
MODEL       55
REMARK 921   NORMALIZED FREE ENERGY PREDICTED BY IDOCK:   -6.14 KCAL/MOL
REMARK 922        TOTAL FREE ENERGY PREDICTED BY IDOCK:   -7.01 KCAL/MOL
REMARK 923 INTER-LIGAND FREE ENERGY PREDICTED BY IDOCK:   -6.30 KCAL/MOL
REMARK 924 INTRA-LIGAND FREE ENERGY PREDICTED BY IDOCK:   -0.71 KCAL/MOL
REMARK 927      BINDING AFFINITY PREDICTED BY RF-SCORE:    0.00 PKD
ROOT
HETATM    1  C   UNL     1     -10.382  12.236  63.849  1.00  0.00    -0.455 C  
HETATM    2  C   UNL     1     -10.141  11.610  65.196  1.00  0.00    -0.304 A  
HETATM    3  C   UNL     1      -9.357  10.441  65.231  1.00  0.00    -0.263 A  
HETATM    4  C   UNL     1      -9.022   9.767  66.423  1.00  0.00    -0.176 A  
HETATM    5  C   UNL     1      -9.516  10.282  67.639  1.00  0.00    -0.169 A  
HETATM    6  C   UNL     1     -10.265  11.488  67.602  1.00  0.00    -0.205 A  
HETATM    7  C   UNL     1      -9.249   9.581  68.982  1.00  0.00    -0.155 C  
HETATM    8  C   UNL     1     -10.600  12.157  66.402  1.00  0.00    -0.275 A  
HETATM    9  C   UNL     1      -8.183  10.378  69.772  1.00  0.00    -0.037 C  
HETATM   10  C   UNL     1     -10.523   9.480  69.844  1.00  0.00    -0.269 C  
HETATM   11  C   UNL     1      -8.749   8.128  68.779  1.00  0.00    -0.138 C  
HETATM   12  C   UNL     1      -9.042   7.365  65.713  1.00  0.00    -0.006 C  
HETATM   13  C   UNL     1      -7.664   8.036  67.720  1.00  0.00    -0.110 C  
HETATM   14  C   UNL     1      -6.925   8.680  65.448  1.00  0.00    -0.075 C  
HETATM   15  C   UNL     1      -8.178   8.485  66.336  1.00  0.00    -0.108 C  
ENDROOT
BRANCH   8  16
HETATM   16  C   UNL     1     -11.372  13.440  66.490  1.00  0.00    -0.346 C  
HETATM   17  C   UNL     1     -12.608  13.390  65.953  1.00  0.00    -0.412 C  
BRANCH  16  18
HETATM   18  C   UNL     1     -10.832  14.776  66.911  1.00  0.00    -0.316 A  
HETATM   19  C   UNL     1      -9.633  15.318  66.403  1.00  0.00    -0.317 A  
HETATM   20  C   UNL     1      -9.081  16.505  66.921  1.00  0.00    -0.241 A  
HETATM   21  C   UNL     1      -9.722  17.172  67.965  1.00  0.00    -0.274 A  
HETATM   22  C   UNL     1     -10.956  16.696  68.417  1.00  0.00    -0.345 A  
HETATM   23  C   UNL     1      -9.176  18.400  68.607  1.00  0.00    -0.306 C  
HETATM   24  C   UNL     1     -11.506  15.521  67.889  1.00  0.00    -0.276 A  
HETATM   25  O   UNL     1      -7.827  18.478  68.607  1.00  0.00    -0.312 OA 
HETATM   26  O   UNL     1      -9.883  19.238  69.137  1.00  0.00    -0.412 OA 
ENDBRANCH  16  18
ENDBRANCH   8  16
TORSDOF 2
ENDMDL
MODEL       56
REMARK 921   NORMALIZED FREE ENERGY PREDICTED BY IDOCK:   -6.13 KCAL/MOL
REMARK 922        TOTAL FREE ENERGY PREDICTED BY IDOCK:   -7.00 KCAL/MOL
REMARK 923 INTER-LIGAND FREE ENERGY PREDICTED BY IDOCK:   -6.97 KCAL/MOL
REMARK 924 INTRA-LIGAND FREE ENERGY PREDICTED BY IDOCK:   -0.03 KCAL/MOL
REMARK 927      BINDING AFFINITY PREDICTED BY RF-SCORE:    0.00 PKD
ROOT
HETATM    1  C   UNL     1      -8.341  10.555  67.065  1.00  0.00    -0.128 C  
HETATM    2  C   UNL     1      -9.006   9.676  68.089  1.00  0.00    -0.123 A  
HETATM    3  C   UNL     1      -8.280   8.559  68.545  1.00  0.00    -0.123 A  
HETATM    4  C   UNL     1      -8.763   7.668  69.526  1.00  0.00    -0.136 A  
HETATM    5  C   UNL     1     -10.047   7.900  70.060  1.00  0.00    -0.199 A  
HETATM    6  C   UNL     1     -10.753   9.055  69.632  1.00  0.00    -0.228 A  
HETATM    7  C   UNL     1     -10.677   6.950  71.092  1.00  0.00    -0.252 C  
HETATM    8  C   UNL     1     -10.264   9.942  68.645  1.00  0.00    -0.197 A  
HETATM    9  C   UNL     1     -10.634   7.610  72.491  1.00  0.00    -0.336 C  
HETATM   10  C   UNL     1     -12.144   6.619  70.752  1.00  0.00    -0.364 C  
HETATM   11  C   UNL     1      -9.931   5.591  71.149  1.00  0.00    -0.253 C  
HETATM   12  C   UNL     1      -7.853   5.466  68.754  1.00  0.00    -0.087 C  
HETATM   13  C   UNL     1      -8.423   5.766  71.196  1.00  0.00    -0.128 C  
HETATM   14  C   UNL     1      -6.436   6.896  70.246  1.00  0.00    -0.043 C  
HETATM   15  C   UNL     1      -7.890   6.469  69.930  1.00  0.00    -0.115 C  
ENDROOT
BRANCH   8  16
HETATM   16  C   UNL     1     -11.088  11.146  68.294  1.00  0.00    -0.310 C  
HETATM   17  C   UNL     1     -11.191  11.391  66.971  1.00  0.00    -0.350 C  
BRANCH  16  18
HETATM   18  C   UNL     1     -11.606  12.180  69.251  1.00  0.00    -0.377 A  
HETATM   19  C   UNL     1     -11.413  13.566  69.067  1.00  0.00    -0.349 A  
HETATM   20  C   UNL     1     -11.786  14.500  70.051  1.00  0.00    -0.359 A  
HETATM   21  C   UNL     1     -12.357  14.061  71.246  1.00  0.00    -0.436 A  
HETATM   22  C   UNL     1     -12.635  12.701  71.404  1.00  0.00    -0.304 A  
HETATM   23  C   UNL     1     -12.726  14.978  72.360  1.00  0.00    -0.342 C  
HETATM   24  C   UNL     1     -12.273  11.776  70.416  1.00  0.00    -0.416 A  
HETATM   25  O   UNL     1     -11.952  16.082  72.455  1.00  0.00    -0.464 OA 
HETATM   26  O   UNL     1     -13.615  14.728  73.154  1.00  0.00    -0.552 OA 
ENDBRANCH  16  18
ENDBRANCH   8  16
TORSDOF 2
ENDMDL
MODEL       57
REMARK 921   NORMALIZED FREE ENERGY PREDICTED BY IDOCK:   -6.13 KCAL/MOL
REMARK 922        TOTAL FREE ENERGY PREDICTED BY IDOCK:   -6.99 KCAL/MOL
REMARK 923 INTER-LIGAND FREE ENERGY PREDICTED BY IDOCK:   -6.06 KCAL/MOL
REMARK 924 INTRA-LIGAND FREE ENERGY PREDICTED BY IDOCK:   -0.94 KCAL/MOL
REMARK 927      BINDING AFFINITY PREDICTED BY RF-SCORE:    0.00 PKD
ROOT
HETATM    1  C   UNL     1      -6.814  10.727  67.209  1.00  0.00    -0.081 C  
HETATM    2  C   UNL     1      -7.943  11.670  66.895  1.00  0.00    -0.161 A  
HETATM    3  C   UNL     1      -7.847  12.980  67.402  1.00  0.00    -0.166 A  
HETATM    4  C   UNL     1      -8.813  13.978  67.161  1.00  0.00    -0.239 A  
HETATM    5  C   UNL     1      -9.943  13.637  66.388  1.00  0.00    -0.299 A  
HETATM    6  C   UNL     1     -10.010  12.329  65.839  1.00  0.00    -0.272 A  
HETATM    7  C   UNL     1     -11.073  14.644  66.121  1.00  0.00    -0.334 C  
HETATM    8  C   UNL     1      -9.038  11.332  66.089  1.00  0.00    -0.216 A  
HETATM    9  C   UNL     1     -10.975  15.149  64.661  1.00  0.00    -0.321 C  
HETATM   10  C   UNL     1     -12.466  14.017  66.329  1.00  0.00    -0.439 C  
HETATM   11  C   UNL     1     -10.998  15.858  67.084  1.00  0.00    -0.214 C  
HETATM   12  C   UNL     1      -8.821  15.259  69.312  1.00  0.00    -0.242 C  
HETATM   13  C   UNL     1      -9.589  16.411  67.201  1.00  0.00    -0.239 C  
HETATM   14  C   UNL     1      -7.186  15.914  67.529  1.00  0.00    -0.204 C  
HETATM   15  C   UNL     1      -8.612  15.368  67.785  1.00  0.00    -0.162 C  
ENDROOT
BRANCH   8  16
HETATM   16  C   UNL     1      -9.202   9.994  65.431  1.00  0.00    -0.259 C  
HETATM   17  C   UNL     1      -9.252  10.032  64.084  1.00  0.00    -0.319 C  
BRANCH  16  18
HETATM   18  C   UNL     1      -9.516   8.696  66.118  1.00  0.00    -0.308 A  
HETATM   19  C   UNL     1     -10.409   8.596  67.206  1.00  0.00    -0.366 A  
HETATM   20  C   UNL     1     -10.574   7.394  67.918  1.00  0.00    -0.255 A  
HETATM   21  C   UNL     1      -9.842   6.264  67.553  1.00  0.00    -0.139 A  
HETATM   22  C   UNL     1      -9.021   6.324  66.423  1.00  0.00    -0.159 A  
HETATM   23  C   UNL     1      -9.915   4.971  68.289  1.00  0.00    -0.129 C  
HETATM   24  C   UNL     1      -8.870   7.520  65.711  1.00  0.00    -0.122 A  
HETATM   25  O   UNL     1     -10.181   5.093  69.608  1.00  0.00    -0.241 OA 
HETATM   26  O   UNL     1      -9.698   3.896  67.758  1.00  0.00    -0.168 OA 
ENDBRANCH  16  18
ENDBRANCH   8  16
TORSDOF 2
ENDMDL
MODEL       58
REMARK 921   NORMALIZED FREE ENERGY PREDICTED BY IDOCK:   -6.11 KCAL/MOL
REMARK 922        TOTAL FREE ENERGY PREDICTED BY IDOCK:   -6.97 KCAL/MOL
REMARK 923 INTER-LIGAND FREE ENERGY PREDICTED BY IDOCK:   -6.27 KCAL/MOL
REMARK 924 INTRA-LIGAND FREE ENERGY PREDICTED BY IDOCK:   -0.70 KCAL/MOL
REMARK 927      BINDING AFFINITY PREDICTED BY RF-SCORE:    0.00 PKD
ROOT
HETATM    1  C   UNL     1     -11.384  15.633  64.674  1.00  0.00    -0.355 C  
HETATM    2  C   UNL     1     -10.193  15.428  65.569  1.00  0.00    -0.411 A  
HETATM    3  C   UNL     1      -9.443  16.569  65.914  1.00  0.00    -0.254 A  
HETATM    4  C   UNL     1      -8.323  16.532  66.770  1.00  0.00    -0.274 A  
HETATM    5  C   UNL     1      -7.925  15.283  67.290  1.00  0.00    -0.231 A  
HETATM    6  C   UNL     1      -8.715  14.144  66.979  1.00  0.00    -0.222 A  
HETATM    7  C   UNL     1      -6.684  15.139  68.186  1.00  0.00    -0.139 C  
HETATM    8  C   UNL     1      -9.834  14.188  66.116  1.00  0.00    -0.326 A  
HETATM    9  C   UNL     1      -7.132  14.931  69.653  1.00  0.00    -0.179 C  
HETATM   10  C   UNL     1      -5.806  13.943  67.769  1.00  0.00    -0.098 C  
HETATM   11  C   UNL     1      -5.773  16.391  68.107  1.00  0.00    -0.113 C  
HETATM   12  C   UNL     1      -6.821  18.270  65.775  1.00  0.00    -0.310 C  
HETATM   13  C   UNL     1      -6.562  17.684  68.217  1.00  0.00    -0.190 C  
HETATM   14  C   UNL     1      -8.530  18.983  67.463  1.00  0.00    -0.307 C  
HETATM   15  C   UNL     1      -7.568  17.840  67.057  1.00  0.00    -0.228 C  
ENDROOT
BRANCH   8  16
HETATM   16  C   UNL     1     -10.608  12.925  65.883  1.00  0.00    -0.287 C  
HETATM   17  C   UNL     1     -11.830  12.900  66.454  1.00  0.00    -0.478 C  
BRANCH  16  18
HETATM   18  C   UNL     1     -10.080  11.655  65.279  1.00  0.00    -0.305 A  
HETATM   19  C   UNL     1     -10.000  10.439  65.990  1.00  0.00    -0.301 A  
HETATM   20  C   UNL     1      -9.370   9.305  65.443  1.00  0.00    -0.292 A  
HETATM   21  C   UNL     1      -8.803   9.370  64.170  1.00  0.00    -0.216 A  
HETATM   22  C   UNL     1      -8.953  10.540  63.421  1.00  0.00    -0.232 A  
HETATM   23  C   UNL     1      -8.070   8.236  63.544  1.00  0.00    -0.130 C  
HETATM   24  C   UNL     1      -9.591  11.662  63.965  1.00  0.00    -0.158 A  
HETATM   25  O   UNL     1      -7.439   7.424  64.423  1.00  0.00    -0.085 OA 
HETATM   26  O   UNL     1      -7.997   8.081  62.339  1.00  0.00    -0.141 OA 
ENDBRANCH  16  18
ENDBRANCH   8  16
TORSDOF 2
ENDMDL
MODEL       59
REMARK 921   NORMALIZED FREE ENERGY PREDICTED BY IDOCK:   -6.11 KCAL/MOL
REMARK 922        TOTAL FREE ENERGY PREDICTED BY IDOCK:   -6.97 KCAL/MOL
REMARK 923 INTER-LIGAND FREE ENERGY PREDICTED BY IDOCK:   -6.35 KCAL/MOL
REMARK 924 INTRA-LIGAND FREE ENERGY PREDICTED BY IDOCK:   -0.62 KCAL/MOL
REMARK 927      BINDING AFFINITY PREDICTED BY RF-SCORE:    0.00 PKD
ROOT
HETATM    1  C   UNL     1      -7.631  14.105  67.027  1.00  0.00     0.194 C  
HETATM    2  C   UNL     1      -8.224  15.486  66.975  1.00  0.00    -0.275 A  
HETATM    3  C   UNL     1      -7.414  16.551  67.418  1.00  0.00    -0.177 A  
HETATM    4  C   UNL     1      -7.826  17.899  67.395  1.00  0.00    -0.217 A  
HETATM    5  C   UNL     1      -9.122  18.191  66.924  1.00  0.00    -0.276 A  
HETATM    6  C   UNL     1      -9.915  17.120  66.433  1.00  0.00    -0.315 A  
HETATM    7  C   UNL     1      -9.675  19.626  66.915  1.00  0.00    -0.482 C  
HETATM    8  C   UNL     1      -9.497  15.769  66.463  1.00  0.00    -0.298 A  
HETATM    9  C   UNL     1      -9.678  20.166  65.465  1.00  0.00     0.062 C  
HETATM   10  C   UNL     1     -11.115  19.693  67.464  1.00  0.00    -0.183 C  
HETATM   11  C   UNL     1      -8.829  20.571  67.807  1.00  0.00    -0.199 C  
HETATM   12  C   UNL     1      -6.755  18.828  69.459  1.00  0.00    -0.194 C  
HETATM   13  C   UNL     1      -7.338  20.400  67.572  1.00  0.00    -0.356 C  
HETATM   14  C   UNL     1      -5.445  18.825  67.323  1.00  0.00    -0.142 C  
HETATM   15  C   UNL     1      -6.863  18.975  67.925  1.00  0.00    -0.240 C  
ENDROOT
BRANCH   8  16
HETATM   16  C   UNL     1     -10.410  14.725  65.890  1.00  0.00    -0.335 C  
HETATM   17  C   UNL     1     -11.261  15.179  64.947  1.00  0.00    -0.424 C  
BRANCH  16  18
HETATM   18  C   UNL     1     -10.599  13.328  66.405  1.00  0.00    -0.288 A  
HETATM   19  C   UNL     1     -11.027  13.042  67.719  1.00  0.00    -0.273 A  
HETATM   20  C   UNL     1     -11.058  11.725  68.215  1.00  0.00    -0.291 A  
HETATM   21  C   UNL     1     -10.654  10.666  67.402  1.00  0.00    -0.304 A  
HETATM   22  C   UNL     1     -10.313  10.925  66.072  1.00  0.00    -0.304 A  
HETATM   23  C   UNL     1     -10.602   9.253  67.868  1.00  0.00    -0.231 C  
HETATM   24  C   UNL     1     -10.296  12.236  65.580  1.00  0.00    -0.296 A  
HETATM   25  O   UNL     1     -10.341   9.108  69.186  1.00  0.00    -0.202 OA 
HETATM   26  O   UNL     1     -10.729   8.304  67.116  1.00  0.00    -0.302 OA 
ENDBRANCH  16  18
ENDBRANCH   8  16
TORSDOF 2
ENDMDL
MODEL       60
REMARK 921   NORMALIZED FREE ENERGY PREDICTED BY IDOCK:   -6.03 KCAL/MOL
REMARK 922        TOTAL FREE ENERGY PREDICTED BY IDOCK:   -6.89 KCAL/MOL
REMARK 923 INTER-LIGAND FREE ENERGY PREDICTED BY IDOCK:   -6.67 KCAL/MOL
REMARK 924 INTRA-LIGAND FREE ENERGY PREDICTED BY IDOCK:   -0.22 KCAL/MOL
REMARK 927      BINDING AFFINITY PREDICTED BY RF-SCORE:    0.00 PKD
ROOT
HETATM    1  C   UNL     1      -9.550   8.160  71.455  1.00  0.00    -0.226 C  
HETATM    2  C   UNL     1      -9.569   8.853  70.120  1.00  0.00    -0.199 A  
HETATM    3  C   UNL     1      -8.565   8.500  69.198  1.00  0.00    -0.133 A  
HETATM    4  C   UNL     1      -8.479   9.043  67.899  1.00  0.00    -0.121 A  
HETATM    5  C   UNL     1      -9.438  10.002  67.515  1.00  0.00    -0.169 A  
HETATM    6  C   UNL     1     -10.476  10.318  68.431  1.00  0.00    -0.228 A  
HETATM    7  C   UNL     1      -9.389  10.688  66.139  1.00  0.00    -0.207 C  
HETATM    8  C   UNL     1     -10.553   9.773  69.734  1.00  0.00    -0.285 A  
HETATM    9  C   UNL     1     -10.497  10.099  65.233  1.00  0.00    -0.013 C  
HETATM   10  C   UNL     1      -9.603  12.211  66.246  1.00  0.00    -0.246 C  
HETATM   11  C   UNL     1      -8.013  10.492  65.451  1.00  0.00    -0.129 C  
HETATM   12  C   UNL     1      -6.006   9.189  67.534  1.00  0.00    -0.050 C  
HETATM   13  C   UNL     1      -7.532   9.054  65.527  1.00  0.00    -0.086 C  
HETATM   14  C   UNL     1      -7.184   7.056  66.947  1.00  0.00    -0.077 C  
HETATM   15  C   UNL     1      -7.324   8.597  66.987  1.00  0.00    -0.080 C  
ENDROOT
BRANCH   8  16
HETATM   16  C   UNL     1     -11.713  10.160  70.603  1.00  0.00    -0.425 C  
HETATM   17  C   UNL     1     -12.492   9.130  70.993  1.00  0.00    -0.238 C  
BRANCH  16  18
HETATM   18  C   UNL     1     -12.185  11.556  70.888  1.00  0.00    -0.425 A  
HETATM   19  C   UNL     1     -11.684  12.691  70.216  1.00  0.00    -0.194 A  
HETATM   20  C   UNL     1     -12.043  13.996  70.603  1.00  0.00    -0.424 A  
HETATM   21  C   UNL     1     -12.911  14.189  71.678  1.00  0.00    -0.423 A  
HETATM   22  C   UNL     1     -13.484  13.073  72.294  1.00  0.00    -0.645 A  
HETATM   23  C   UNL     1     -13.294  15.535  72.186  1.00  0.00    -0.467 C  
HETATM   24  C   UNL     1     -13.133  11.777  71.897  1.00  0.00    -0.482 A  
HETATM   25  O   UNL     1     -12.346  16.484  72.025  1.00  0.00    -0.242 OA 
HETATM   26  O   UNL     1     -14.352  15.751  72.750  1.00  0.00    -0.453 OA 
ENDBRANCH  16  18
ENDBRANCH   8  16
TORSDOF 2
ENDMDL
MODEL       61
REMARK 921   NORMALIZED FREE ENERGY PREDICTED BY IDOCK:   -6.03 KCAL/MOL
REMARK 922        TOTAL FREE ENERGY PREDICTED BY IDOCK:   -6.88 KCAL/MOL
REMARK 923 INTER-LIGAND FREE ENERGY PREDICTED BY IDOCK:   -5.95 KCAL/MOL
REMARK 924 INTRA-LIGAND FREE ENERGY PREDICTED BY IDOCK:   -0.94 KCAL/MOL
REMARK 927      BINDING AFFINITY PREDICTED BY RF-SCORE:    0.00 PKD
ROOT
HETATM    1  C   UNL     1      -6.951  15.019  69.769  1.00  0.00    -0.182 C  
HETATM    2  C   UNL     1      -7.694  16.186  69.177  1.00  0.00    -0.230 A  
HETATM    3  C   UNL     1      -6.936  17.320  68.827  1.00  0.00    -0.230 A  
HETATM    4  C   UNL     1      -7.493  18.471  68.233  1.00  0.00    -0.298 A  
HETATM    5  C   UNL     1      -8.882  18.492  67.997  1.00  0.00    -0.317 A  
HETATM    6  C   UNL     1      -9.633  17.327  68.306  1.00  0.00    -0.288 A  
HETATM    7  C   UNL     1      -9.583  19.726  67.405  1.00  0.00    -0.475 C  
HETATM    8  C   UNL     1      -9.069  16.177  68.906  1.00  0.00    -0.246 A  
HETATM    9  C   UNL     1      -9.944  19.451  65.926  1.00  0.00    -0.334 C  
HETATM   10  C   UNL     1     -10.878  20.076  68.167  1.00  0.00     0.039 C  
HETATM   11  C   UNL     1      -8.684  20.987  67.482  1.00  0.00     0.010 C  
HETATM   12  C   UNL     1      -6.133  20.315  69.244  1.00  0.00    -0.371 C  
HETATM   13  C   UNL     1      -7.264  20.708  67.022  1.00  0.00    -0.372 C  
HETATM   14  C   UNL     1      -5.297  19.212  67.155  1.00  0.00    -0.154 C  
HETATM   15  C   UNL     1      -6.569  19.659  67.915  1.00  0.00    -0.270 C  
ENDROOT
BRANCH   8  16
HETATM   16  C   UNL     1      -9.956  14.995  69.161  1.00  0.00    -0.237 C  
HETATM   17  C   UNL     1     -10.638  15.044  70.324  1.00  0.00    -0.115 C  
BRANCH  16  18
HETATM   18  C   UNL     1      -9.987  13.718  68.371  1.00  0.00    -0.229 A  
HETATM   19  C   UNL     1     -10.695  12.571  68.788  1.00  0.00    -0.235 A  
HETATM   20  C   UNL     1     -10.590  11.348  68.101  1.00  0.00    -0.220 A  
HETATM   21  C   UNL     1      -9.766  11.249  66.979  1.00  0.00    -0.208 A  
HETATM   22  C   UNL     1      -9.129  12.399  66.503  1.00  0.00    -0.181 A  
HETATM   23  C   UNL     1      -9.554   9.980  66.230  1.00  0.00    -0.202 C  
HETATM   24  C   UNL     1      -9.248  13.617  67.184  1.00  0.00    -0.244 A  
HETATM   25  O   UNL     1      -9.645   8.863  66.986  1.00  0.00    -0.155 OA 
HETATM   26  O   UNL     1      -9.267   9.951  65.047  1.00  0.00    -0.203 OA 
ENDBRANCH  16  18
ENDBRANCH   8  16
TORSDOF 2
ENDMDL
MODEL       62
REMARK 921   NORMALIZED FREE ENERGY PREDICTED BY IDOCK:   -6.00 KCAL/MOL
REMARK 922        TOTAL FREE ENERGY PREDICTED BY IDOCK:   -6.85 KCAL/MOL
REMARK 923 INTER-LIGAND FREE ENERGY PREDICTED BY IDOCK:   -5.91 KCAL/MOL
REMARK 924 INTRA-LIGAND FREE ENERGY PREDICTED BY IDOCK:   -0.94 KCAL/MOL
REMARK 927      BINDING AFFINITY PREDICTED BY RF-SCORE:    0.00 PKD
ROOT
HETATM    1  C   UNL     1      -6.082  11.978  67.347  1.00  0.00    -0.130 C  
HETATM    2  C   UNL     1      -7.209  12.972  67.291  1.00  0.00    -0.060 A  
HETATM    3  C   UNL     1      -6.880  14.329  67.474  1.00  0.00    -0.158 A  
HETATM    4  C   UNL     1      -7.827  15.372  67.414  1.00  0.00    -0.215 A  
HETATM    5  C   UNL     1      -9.175  15.034  67.178  1.00  0.00    -0.229 A  
HETATM    6  C   UNL     1      -9.493  13.669  66.946  1.00  0.00    -0.263 A  
HETATM    7  C   UNL     1     -10.283  16.099  67.152  1.00  0.00    -0.281 C  
HETATM    8  C   UNL     1      -8.539  12.628  67.011  1.00  0.00    -0.181 A  
HETATM    9  C   UNL     1     -10.717  16.352  65.689  1.00  0.00    -0.280 C  
HETATM   10  C   UNL     1     -11.522  15.664  67.961  1.00  0.00    -0.294 C  
HETATM   11  C   UNL     1      -9.807  17.435  67.778  1.00  0.00    -0.283 C  
HETATM   12  C   UNL     1      -6.981  16.973  69.144  1.00  0.00    -0.228 C  
HETATM   13  C   UNL     1      -8.435  17.849  67.275  1.00  0.00    -0.242 C  
HETATM   14  C   UNL     1      -6.105  17.159  66.804  1.00  0.00    -0.243 C  
HETATM   15  C   UNL     1      -7.353  16.815  67.653  1.00  0.00    -0.164 C  
ENDROOT
BRANCH   8  16
HETATM   16  C   UNL     1      -8.988  11.227  66.719  1.00  0.00    -0.173 C  
HETATM   17  C   UNL     1      -9.028  10.911  65.408  1.00  0.00    -0.209 C  
BRANCH  16  18
HETATM   18  C   UNL     1      -9.576  10.257  67.702  1.00  0.00    -0.173 A  
HETATM   19  C   UNL     1      -9.617  10.497  69.092  1.00  0.00    -0.214 A  
HETATM   20  C   UNL     1     -10.044   9.511  70.000  1.00  0.00    -0.279 A  
HETATM   21  C   UNL     1     -10.438   8.257  69.530  1.00  0.00    -0.228 A  
HETATM   22  C   UNL     1     -10.488   8.036  68.151  1.00  0.00    -0.222 A  
HETATM   23  C   UNL     1     -10.848   7.141  70.427  1.00  0.00    -0.246 C  
HETATM   24  C   UNL     1     -10.073   9.025  67.252  1.00  0.00    -0.297 A  
HETATM   25  O   UNL     1     -10.249   7.148  71.638  1.00  0.00    -0.193 OA 
HETATM   26  O   UNL     1     -11.618   6.264  70.079  1.00  0.00    -0.425 OA 
ENDBRANCH  16  18
ENDBRANCH   8  16
TORSDOF 2
ENDMDL
MODEL       63
REMARK 921   NORMALIZED FREE ENERGY PREDICTED BY IDOCK:   -6.00 KCAL/MOL
REMARK 922        TOTAL FREE ENERGY PREDICTED BY IDOCK:   -6.84 KCAL/MOL
REMARK 923 INTER-LIGAND FREE ENERGY PREDICTED BY IDOCK:   -6.29 KCAL/MOL
REMARK 924 INTRA-LIGAND FREE ENERGY PREDICTED BY IDOCK:   -0.55 KCAL/MOL
REMARK 927      BINDING AFFINITY PREDICTED BY RF-SCORE:    0.00 PKD
ROOT
HETATM    1  C   UNL     1     -11.452  15.268  66.503  1.00  0.00    -0.095 C  
HETATM    2  C   UNL     1     -11.649  14.171  67.514  1.00  0.00    -0.396 A  
HETATM    3  C   UNL     1     -12.113  14.548  68.790  1.00  0.00    -0.256 A  
HETATM    4  C   UNL     1     -12.374  13.625  69.823  1.00  0.00    -0.285 A  
HETATM    5  C   UNL     1     -12.137  12.259  69.571  1.00  0.00    -0.260 A  
HETATM    6  C   UNL     1     -11.716  11.881  68.268  1.00  0.00    -0.385 A  
HETATM    7  C   UNL     1     -12.341  11.189  70.656  1.00  0.00    -0.482 C  
HETATM    8  C   UNL     1     -11.452  12.812  67.237  1.00  0.00    -0.393 A  
HETATM    9  C   UNL     1     -13.639  10.400  70.362  1.00  0.00     0.543 C  
HETATM   10  C   UNL     1     -11.165  10.192  70.712  1.00  0.00    -0.414 C  
HETATM   11  C   UNL     1     -12.438  11.819  72.070  1.00  0.00     0.355 C  
HETATM   12  C   UNL     1     -11.688  14.895  71.869  1.00  0.00    -0.386 C  
HETATM   13  C   UNL     1     -13.365  13.022  72.099  1.00  0.00    -0.622 C  
HETATM   14  C   UNL     1     -14.034  15.151  71.027  1.00  0.00    -0.383 C  
HETATM   15  C   UNL     1     -12.858  14.156  71.183  1.00  0.00    -0.431 C  
ENDROOT
BRANCH   8  16
HETATM   16  C   UNL     1     -11.039  12.291  65.892  1.00  0.00    -0.360 C  
HETATM   17  C   UNL     1     -11.916  12.541  64.898  1.00  0.00    -0.468 C  
BRANCH  16  18
HETATM   18  C   UNL     1      -9.888  11.370  65.609  1.00  0.00    -0.274 A  
HETATM   19  C   UNL     1      -8.682  11.395  66.343  1.00  0.00    -0.185 A  
HETATM   20  C   UNL     1      -7.572  10.618  65.963  1.00  0.00    -0.142 A  
HETATM   21  C   UNL     1      -7.647   9.801  64.835  1.00  0.00    -0.128 A  
HETATM   22  C   UNL     1      -8.862   9.699  64.152  1.00  0.00    -0.257 A  
HETATM   23  C   UNL     1      -6.501   8.994  64.334  1.00  0.00    -0.075 C  
HETATM   24  C   UNL     1      -9.968  10.465  64.541  1.00  0.00    -0.401 A  
HETATM   25  O   UNL     1      -5.286   9.531  64.585  1.00  0.00    -0.052 OA 
HETATM   26  O   UNL     1      -6.645   7.963  63.702  1.00  0.00    -0.062 OA 
ENDBRANCH  16  18
ENDBRANCH   8  16
TORSDOF 2
ENDMDL
MODEL       64
REMARK 921   NORMALIZED FREE ENERGY PREDICTED BY IDOCK:   -5.98 KCAL/MOL
REMARK 922        TOTAL FREE ENERGY PREDICTED BY IDOCK:   -6.82 KCAL/MOL
REMARK 923 INTER-LIGAND FREE ENERGY PREDICTED BY IDOCK:   -5.99 KCAL/MOL
REMARK 924 INTRA-LIGAND FREE ENERGY PREDICTED BY IDOCK:   -0.84 KCAL/MOL
REMARK 927      BINDING AFFINITY PREDICTED BY RF-SCORE:    0.00 PKD
ROOT
HETATM    1  C   UNL     1     -11.468  10.546  70.123  1.00  0.00    -0.405 C  
HETATM    2  C   UNL     1     -10.547   9.357  70.166  1.00  0.00    -0.279 A  
HETATM    3  C   UNL     1     -10.285   8.792  71.429  1.00  0.00    -0.350 A  
HETATM    4  C   UNL     1      -9.469   7.657  71.616  1.00  0.00    -0.174 A  
HETATM    5  C   UNL     1      -8.871   7.073  70.481  1.00  0.00    -0.154 A  
HETATM    6  C   UNL     1      -9.179   7.618  69.206  1.00  0.00    -0.145 A  
HETATM    7  C   UNL     1      -7.923   5.868  70.596  1.00  0.00    -0.110 C  
HETATM    8  C   UNL     1      -9.995   8.759  69.025  1.00  0.00    -0.197 A  
HETATM    9  C   UNL     1      -8.657   4.591  70.123  1.00  0.00    -0.104 C  
HETATM   10  C   UNL     1      -6.653   6.049  69.739  1.00  0.00    -0.047 C  
HETATM   11  C   UNL     1      -7.434   5.662  72.053  1.00  0.00    -0.095 C  
HETATM   12  C   UNL     1      -8.341   8.154  73.796  1.00  0.00    -0.311 C  
HETATM   13  C   UNL     1      -8.570   5.750  73.057  1.00  0.00    -0.121 C  
HETATM   14  C   UNL     1     -10.564   6.998  73.829  1.00  0.00    -0.325 C  
HETATM   15  C   UNL     1      -9.236   7.142  73.046  1.00  0.00    -0.174 C  
ENDROOT
BRANCH   8  16
HETATM   16  C   UNL     1     -10.272   9.226  67.627  1.00  0.00    -0.285 C  
HETATM   17  C   UNL     1     -10.524   8.238  66.744  1.00  0.00    -0.313 C  
BRANCH  16  18
HETATM   18  C   UNL     1     -10.090  10.621  67.102  1.00  0.00    -0.248 A  
HETATM   19  C   UNL     1      -8.909  11.369  67.295  1.00  0.00    -0.153 A  
HETATM   20  C   UNL     1      -8.821  12.721  66.915  1.00  0.00    -0.194 A  
HETATM   21  C   UNL     1      -9.922  13.353  66.334  1.00  0.00    -0.293 A  
HETATM   22  C   UNL     1     -11.066  12.600  66.056  1.00  0.00    -0.321 A  
HETATM   23  C   UNL     1      -9.931  14.793  65.957  1.00  0.00    -0.313 C  
HETATM   24  C   UNL     1     -11.143  11.252  66.425  1.00  0.00    -0.257 A  
HETATM   25  O   UNL     1      -9.148  15.579  66.729  1.00  0.00    -0.217 OA 
HETATM   26  O   UNL     1     -10.627  15.237  65.062  1.00  0.00    -0.405 OA 
ENDBRANCH  16  18
ENDBRANCH   8  16
TORSDOF 2
ENDMDL
MODEL       65
REMARK 921   NORMALIZED FREE ENERGY PREDICTED BY IDOCK:   -5.90 KCAL/MOL
REMARK 922        TOTAL FREE ENERGY PREDICTED BY IDOCK:   -6.74 KCAL/MOL
REMARK 923 INTER-LIGAND FREE ENERGY PREDICTED BY IDOCK:   -5.83 KCAL/MOL
REMARK 924 INTRA-LIGAND FREE ENERGY PREDICTED BY IDOCK:   -0.90 KCAL/MOL
REMARK 927      BINDING AFFINITY PREDICTED BY RF-SCORE:    0.00 PKD
ROOT
HETATM    1  C   UNL     1      -8.680   9.183  62.378  1.00  0.00    -0.226 C  
HETATM    2  C   UNL     1      -9.056   9.724  63.730  1.00  0.00    -0.270 A  
HETATM    3  C   UNL     1      -9.952  10.810  63.762  1.00  0.00    -0.411 A  
HETATM    4  C   UNL     1     -10.417  11.397  64.957  1.00  0.00    -0.361 A  
HETATM    5  C   UNL     1      -9.943  10.880  66.180  1.00  0.00    -0.282 A  
HETATM    6  C   UNL     1      -9.079   9.753  66.142  1.00  0.00    -0.198 A  
HETATM    7  C   UNL     1     -10.353  11.492  67.529  1.00  0.00    -0.220 C  
HETATM    8  C   UNL     1      -8.613   9.173  64.940  1.00  0.00    -0.208 A  
HETATM    9  C   UNL     1     -11.377  10.564  68.225  1.00  0.00    -0.332 C  
HETATM   10  C   UNL     1      -9.144  11.678  68.470  1.00  0.00    -0.157 C  
HETATM   11  C   UNL     1     -10.981  12.899  67.352  1.00  0.00    -0.288 C  
HETATM   12  C   UNL     1     -10.594  13.817  64.340  1.00  0.00    -0.316 C  
HETATM   13  C   UNL     1     -12.009  12.932  66.235  1.00  0.00    -0.472 C  
HETATM   14  C   UNL     1     -12.553  12.317  63.899  1.00  0.00    -0.544 C  
HETATM   15  C   UNL     1     -11.377  12.594  64.867  1.00  0.00    -0.347 C  
ENDROOT
BRANCH   8  16
HETATM   16  C   UNL     1      -7.724   7.967  65.026  1.00  0.00    -0.112 C  
HETATM   17  C   UNL     1      -6.403   8.239  65.003  1.00  0.00    -0.049 C  
BRANCH  16  18
HETATM   18  C   UNL     1      -8.157   6.533  64.921  1.00  0.00    -0.119 A  
HETATM   19  C   UNL     1      -8.906   5.879  65.923  1.00  0.00    -0.154 A  
HETATM   20  C   UNL     1      -9.174   4.499  65.862  1.00  0.00    -0.143 A  
HETATM   21  C   UNL     1      -8.691   3.743  64.793  1.00  0.00    -0.114 A  
HETATM   22  C   UNL     1      -8.025   4.394  63.750  1.00  0.00    -0.091 A  
HETATM   23  C   UNL     1      -8.880   2.271  64.682  1.00  0.00    -0.115 C  
HETATM   24  C   UNL     1      -7.771   5.769  63.810  1.00  0.00    -0.097 A  
HETATM   25  O   UNL     1      -8.950   1.625  65.868  1.00  0.00    -0.123 OA 
HETATM   26  O   UNL     1      -8.915   1.687  63.614  1.00  0.00    -0.086 OA 
ENDBRANCH  16  18
ENDBRANCH   8  16
TORSDOF 2
ENDMDL
MODEL       66
REMARK 921   NORMALIZED FREE ENERGY PREDICTED BY IDOCK:   -5.89 KCAL/MOL
REMARK 922        TOTAL FREE ENERGY PREDICTED BY IDOCK:   -6.73 KCAL/MOL
REMARK 923 INTER-LIGAND FREE ENERGY PREDICTED BY IDOCK:   -6.00 KCAL/MOL
REMARK 924 INTRA-LIGAND FREE ENERGY PREDICTED BY IDOCK:   -0.72 KCAL/MOL
REMARK 927      BINDING AFFINITY PREDICTED BY RF-SCORE:    0.00 PKD
ROOT
HETATM    1  C   UNL     1      -8.550   9.800  69.381  1.00  0.00    -0.168 C  
HETATM    2  C   UNL     1      -9.304  10.534  68.307  1.00  0.00    -0.156 A  
HETATM    3  C   UNL     1      -9.676  11.866  68.577  1.00  0.00    -0.173 A  
HETATM    4  C   UNL     1     -10.356  12.684  67.652  1.00  0.00    -0.221 A  
HETATM    5  C   UNL     1     -10.697  12.131  66.400  1.00  0.00    -0.292 A  
HETATM    6  C   UNL     1     -10.275  10.806  66.115  1.00  0.00    -0.308 A  
HETATM    7  C   UNL     1     -11.486  12.932  65.352  1.00  0.00    -0.360 C  
HETATM    8  C   UNL     1      -9.597   9.989  67.050  1.00  0.00    -0.212 A  
HETATM    9  C   UNL     1     -10.530  13.378  64.220  1.00  0.00    -0.325 C  
HETATM   10  C   UNL     1     -12.626  12.100  64.729  1.00  0.00    -0.178 C  
HETATM   11  C   UNL     1     -12.157  14.184  65.973  1.00  0.00    -0.449 C  
HETATM   12  C   UNL     1     -11.853  14.045  69.128  1.00  0.00    -0.391 C  
HETATM   13  C   UNL     1     -11.205  14.961  66.866  1.00  0.00    -0.343 C  
HETATM   14  C   UNL     1      -9.528  14.869  68.685  1.00  0.00    -0.208 C  
HETATM   15  C   UNL     1     -10.731  14.116  68.068  1.00  0.00    -0.248 C  
ENDROOT
BRANCH   8  16
HETATM   16  C   UNL     1      -9.177   8.613  66.624  1.00  0.00    -0.227 C  
HETATM   17  C   UNL     1      -8.794   8.515  65.335  1.00  0.00    -0.173 C  
BRANCH  16  18
HETATM   18  C   UNL     1      -9.342   7.347  67.415  1.00  0.00    -0.154 A  
HETATM   19  C   UNL     1     -10.492   7.063  68.182  1.00  0.00    -0.242 A  
HETATM   20  C   UNL     1     -10.557   5.936  69.024  1.00  0.00    -0.360 A  
HETATM   21  C   UNL     1      -9.466   5.072  69.115  1.00  0.00    -0.196 A  
HETATM   22  C   UNL     1      -8.357   5.293  68.294  1.00  0.00    -0.097 A  
HETATM   23  C   UNL     1      -9.433   3.892  70.023  1.00  0.00    -0.192 C  
HETATM   24  C   UNL     1      -8.301   6.409  67.450  1.00  0.00    -0.112 A  
HETATM   25  O   UNL     1     -10.158   4.036  71.154  1.00  0.00    -0.158 OA 
HETATM   26  O   UNL     1      -8.763   2.901  69.794  1.00  0.00    -0.061 OA 
ENDBRANCH  16  18
ENDBRANCH   8  16
TORSDOF 2
ENDMDL
MODEL       67
REMARK 921   NORMALIZED FREE ENERGY PREDICTED BY IDOCK:   -5.86 KCAL/MOL
REMARK 922        TOTAL FREE ENERGY PREDICTED BY IDOCK:   -6.69 KCAL/MOL
REMARK 923 INTER-LIGAND FREE ENERGY PREDICTED BY IDOCK:   -5.78 KCAL/MOL
REMARK 924 INTRA-LIGAND FREE ENERGY PREDICTED BY IDOCK:   -0.91 KCAL/MOL
REMARK 927      BINDING AFFINITY PREDICTED BY RF-SCORE:    0.00 PKD
ROOT
HETATM    1  C   UNL     1     -12.663  10.437  70.419  1.00  0.00    -0.289 C  
HETATM    2  C   UNL     1     -11.308   9.785  70.369  1.00  0.00    -0.362 A  
HETATM    3  C   UNL     1     -11.050   8.766  71.307  1.00  0.00    -0.348 A  
HETATM    4  C   UNL     1      -9.839   8.046  71.356  1.00  0.00    -0.213 A  
HETATM    5  C   UNL     1      -8.829   8.379  70.429  1.00  0.00    -0.149 A  
HETATM    6  C   UNL     1      -9.114   9.373  69.455  1.00  0.00    -0.169 A  
HETATM    7  C   UNL     1      -7.457   7.685  70.445  1.00  0.00    -0.079 C  
HETATM    8  C   UNL     1     -10.330  10.094  69.415  1.00  0.00    -0.251 A  
HETATM    9  C   UNL     1      -7.374   6.687  69.265  1.00  0.00    -0.093 C  
HETATM   10  C   UNL     1      -6.298   8.694  70.314  1.00  0.00    -0.038 C  
HETATM   11  C   UNL     1      -7.217   6.922  71.773  1.00  0.00    -0.079 C  
HETATM   12  C   UNL     1      -9.531   7.667  73.812  1.00  0.00    -0.300 C  
HETATM   13  C   UNL     1      -8.420   6.090  72.183  1.00  0.00    -0.124 C  
HETATM   14  C   UNL     1     -10.873   6.008  72.499  1.00  0.00    -0.286 C  
HETATM   15  C   UNL     1      -9.662   6.970  72.439  1.00  0.00    -0.171 C  
ENDROOT
BRANCH   8  16
HETATM   16  C   UNL     1     -10.527  11.101  68.321  1.00  0.00    -0.215 C  
HETATM   17  C   UNL     1     -10.746  10.571  67.101  1.00  0.00    -0.323 C  
BRANCH  16  18
HETATM   18  C   UNL     1     -10.299  12.582  68.423  1.00  0.00    -0.237 A  
HETATM   19  C   UNL     1     -11.266  13.478  68.927  1.00  0.00    -0.316 A  
HETATM   20  C   UNL     1     -11.077  14.872  68.877  1.00  0.00    -0.267 A  
HETATM   21  C   UNL     1      -9.913  15.397  68.315  1.00  0.00    -0.214 A  
HETATM   22  C   UNL     1      -8.910  14.520  67.893  1.00  0.00    -0.176 A  
HETATM   23  C   UNL     1      -9.662  16.857  68.172  1.00  0.00    -0.254 C  
HETATM   24  C   UNL     1      -9.098  13.134  67.956  1.00  0.00    -0.207 A  
HETATM   25  O   UNL     1     -10.777  17.602  68.005  1.00  0.00    -0.389 OA 
HETATM   26  O   UNL     1      -8.543  17.336  68.151  1.00  0.00    -0.227 OA 
ENDBRANCH  16  18
ENDBRANCH   8  16
TORSDOF 2
ENDMDL
MODEL       68
REMARK 921   NORMALIZED FREE ENERGY PREDICTED BY IDOCK:   -5.85 KCAL/MOL
REMARK 922        TOTAL FREE ENERGY PREDICTED BY IDOCK:   -6.68 KCAL/MOL
REMARK 923 INTER-LIGAND FREE ENERGY PREDICTED BY IDOCK:   -5.75 KCAL/MOL
REMARK 924 INTRA-LIGAND FREE ENERGY PREDICTED BY IDOCK:   -0.94 KCAL/MOL
REMARK 927      BINDING AFFINITY PREDICTED BY RF-SCORE:    0.00 PKD
ROOT
HETATM    1  C   UNL     1     -10.433  14.864  69.194  1.00  0.00    -0.246 C  
HETATM    2  C   UNL     1      -9.448  15.790  68.535  1.00  0.00    -0.201 A  
HETATM    3  C   UNL     1      -9.853  17.125  68.339  1.00  0.00    -0.296 A  
HETATM    4  C   UNL     1      -9.023  18.110  67.766  1.00  0.00    -0.266 A  
HETATM    5  C   UNL     1      -7.730  17.732  67.350  1.00  0.00    -0.214 A  
HETATM    6  C   UNL     1      -7.311  16.397  67.595  1.00  0.00    -0.156 A  
HETATM    7  C   UNL     1      -6.778  18.726  66.664  1.00  0.00    -0.214 C  
HETATM    8  C   UNL     1      -8.150  15.413  68.167  1.00  0.00    -0.136 A  
HETATM    9  C   UNL     1      -5.678  19.154  67.664  1.00  0.00    -0.185 C  
HETATM   10  C   UNL     1      -6.099  18.112  65.423  1.00  0.00    -0.206 C  
HETATM   11  C   UNL     1      -7.530  19.987  66.165  1.00  0.00    -0.324 C  
HETATM   12  C   UNL     1     -10.651  19.501  66.466  1.00  0.00    -0.579 C  
HETATM   13  C   UNL     1      -8.476  20.544  67.214  1.00  0.00    -0.365 C  
HETATM   14  C   UNL     1     -10.247  20.060  68.875  1.00  0.00    -0.348 C  
HETATM   15  C   UNL     1      -9.582  19.531  67.582  1.00  0.00    -0.436 C  
ENDROOT
BRANCH   8  16
HETATM   16  C   UNL     1      -7.587  14.043  68.403  1.00  0.00    -0.129 C  
HETATM   17  C   UNL     1      -6.743  13.955  69.452  1.00  0.00    -0.095 C  
BRANCH  16  18
HETATM   18  C   UNL     1      -7.706  12.861  67.485  1.00  0.00    -0.174 A  
HETATM   19  C   UNL     1      -8.921  12.470  66.885  1.00  0.00    -0.212 A  
HETATM   20  C   UNL     1      -9.030  11.278  66.145  1.00  0.00    -0.210 A  
HETATM   21  C   UNL     1      -7.918  10.448  65.995  1.00  0.00    -0.144 A  
HETATM   22  C   UNL     1      -6.687  10.867  66.509  1.00  0.00    -0.133 A  
HETATM   23  C   UNL     1      -7.963   9.144  65.278  1.00  0.00    -0.111 C  
HETATM   24  C   UNL     1      -6.582  12.060  67.234  1.00  0.00    -0.145 A  
HETATM   25  O   UNL     1      -9.157   8.514  65.339  1.00  0.00    -0.152 OA 
HETATM   26  O   UNL     1      -6.991   8.659  64.729  1.00  0.00    -0.072 OA 
ENDBRANCH  16  18
ENDBRANCH   8  16
TORSDOF 2
ENDMDL
MODEL       69
REMARK 921   NORMALIZED FREE ENERGY PREDICTED BY IDOCK:   -5.80 KCAL/MOL
REMARK 922        TOTAL FREE ENERGY PREDICTED BY IDOCK:   -6.62 KCAL/MOL
REMARK 923 INTER-LIGAND FREE ENERGY PREDICTED BY IDOCK:   -5.93 KCAL/MOL
REMARK 924 INTRA-LIGAND FREE ENERGY PREDICTED BY IDOCK:   -0.69 KCAL/MOL
REMARK 927      BINDING AFFINITY PREDICTED BY RF-SCORE:    0.00 PKD
ROOT
HETATM    1  C   UNL     1     -10.254  10.390  65.454  1.00  0.00    -0.329 C  
HETATM    2  C   UNL     1      -9.821   9.800  66.768  1.00  0.00    -0.265 A  
HETATM    3  C   UNL     1      -8.807   8.823  66.731  1.00  0.00    -0.147 A  
HETATM    4  C   UNL     1      -8.280   8.209  67.885  1.00  0.00    -0.129 A  
HETATM    5  C   UNL     1      -8.811   8.581  69.138  1.00  0.00    -0.142 A  
HETATM    6  C   UNL     1      -9.797   9.601  69.172  1.00  0.00    -0.189 A  
HETATM    7  C   UNL     1      -8.335   7.923  70.444  1.00  0.00    -0.121 C  
HETATM    8  C   UNL     1     -10.325  10.210  68.009  1.00  0.00    -0.227 A  
HETATM    9  C   UNL     1      -7.424   8.910  71.212  1.00  0.00    -0.127 C  
HETATM   10  C   UNL     1      -9.516   7.535  71.358  1.00  0.00    -0.159 C  
HETATM   11  C   UNL     1      -7.551   6.613  70.174  1.00  0.00    -0.096 C  
HETATM   12  C   UNL     1      -7.828   5.875  67.100  1.00  0.00    -0.102 C  
HETATM   13  C   UNL     1      -6.525   6.777  69.066  1.00  0.00    -0.036 C  
HETATM   14  C   UNL     1      -6.052   7.614  66.785  1.00  0.00    -0.048 C  
HETATM   15  C   UNL     1      -7.189   7.138  67.720  1.00  0.00    -0.091 C  
ENDROOT
BRANCH   8  16
HETATM   16  C   UNL     1     -11.344  11.298  68.172  1.00  0.00    -0.372 C  
HETATM   17  C   UNL     1     -12.397  10.971  68.949  1.00  0.00     0.080 C  
BRANCH  16  18
HETATM   18  C   UNL     1     -11.400  12.588  67.405  1.00  0.00    -0.371 A  
HETATM   19  C   UNL     1     -12.528  12.993  66.659  1.00  0.00     0.073 A  
HETATM   20  C   UNL     1     -12.498  14.135  65.838  1.00  0.00    -0.479 A  
HETATM   21  C   UNL     1     -11.331  14.895  65.745  1.00  0.00    -0.314 A  
HETATM   22  C   UNL     1     -10.237  14.556  66.545  1.00  0.00    -0.282 A  
HETATM   23  C   UNL     1     -11.199  16.082  64.856  1.00  0.00    -0.312 C  
HETATM   24  C   UNL     1     -10.276  13.425  67.370  1.00  0.00    -0.237 A  
HETATM   25  O   UNL     1     -11.950  16.027  63.734  1.00  0.00    -0.844 OA 
HETATM   26  O   UNL     1     -10.436  17.002  65.092  1.00  0.00    -0.667 OA 
ENDBRANCH  16  18
ENDBRANCH   8  16
TORSDOF 2
ENDMDL
MODEL       70
REMARK 921   NORMALIZED FREE ENERGY PREDICTED BY IDOCK:   -5.79 KCAL/MOL
REMARK 922        TOTAL FREE ENERGY PREDICTED BY IDOCK:   -6.62 KCAL/MOL
REMARK 923 INTER-LIGAND FREE ENERGY PREDICTED BY IDOCK:   -6.26 KCAL/MOL
REMARK 924 INTRA-LIGAND FREE ENERGY PREDICTED BY IDOCK:   -0.36 KCAL/MOL
REMARK 927      BINDING AFFINITY PREDICTED BY RF-SCORE:    0.00 PKD
ROOT
HETATM    1  C   UNL     1     -11.024   7.089  67.081  1.00  0.00    -0.393 C  
HETATM    2  C   UNL     1      -9.845   8.011  67.232  1.00  0.00    -0.258 A  
HETATM    3  C   UNL     1      -8.973   8.126  66.132  1.00  0.00    -0.218 A  
HETATM    4  C   UNL     1      -7.848   8.976  66.119  1.00  0.00    -0.102 A  
HETATM    5  C   UNL     1      -7.574   9.733  67.277  1.00  0.00    -0.088 A  
HETATM    6  C   UNL     1      -8.483   9.649  68.364  1.00  0.00    -0.118 A  
HETATM    7  C   UNL     1      -6.338  10.643  67.373  1.00  0.00    -0.058 C  
HETATM    8  C   UNL     1      -9.607   8.791  68.372  1.00  0.00    -0.157 A  
HETATM    9  C   UNL     1      -6.779  12.121  67.242  1.00  0.00    -0.144 C  
HETATM   10  C   UNL     1      -5.597  10.471  68.715  1.00  0.00    -0.041 C  
HETATM   11  C   UNL     1      -5.303  10.322  66.265  1.00  0.00    -0.054 C  
HETATM   12  C   UNL     1      -6.191   7.663  64.778  1.00  0.00    -0.038 C  
HETATM   13  C   UNL     1      -5.950  10.173  64.899  1.00  0.00    -0.124 C  
HETATM   14  C   UNL     1      -7.785   9.173  63.572  1.00  0.00    -0.121 C  
HETATM   15  C   UNL     1      -6.956   9.002  64.868  1.00  0.00    -0.077 C  
ENDROOT
BRANCH   8  16
HETATM   16  C   UNL     1     -10.513   8.809  69.567  1.00  0.00    -0.222 C  
HETATM   17  C   UNL     1     -10.747   7.599  70.114  1.00  0.00    -0.245 C  
BRANCH  16  18
HETATM   18  C   UNL     1     -11.319   9.978  70.056  1.00  0.00    -0.334 A  
HETATM   19  C   UNL     1     -11.346  11.226  69.396  1.00  0.00    -0.360 A  
HETATM   20  C   UNL     1     -11.996  12.342  69.955  1.00  0.00    -0.372 A  
HETATM   21  C   UNL     1     -12.630  12.230  71.193  1.00  0.00    -0.353 A  
HETATM   22  C   UNL     1     -12.687  10.980  71.814  1.00  0.00    -0.408 A  
HETATM   23  C   UNL     1     -13.289  13.376  71.879  1.00  0.00    -0.451 C  
HETATM   24  C   UNL     1     -12.049   9.869  71.248  1.00  0.00    -0.485 A  
HETATM   25  O   UNL     1     -12.735  14.580  71.614  1.00  0.00    -0.312 OA 
HETATM   26  O   UNL     1     -14.215  13.235  72.657  1.00  0.00    -0.724 OA 
ENDBRANCH  16  18
ENDBRANCH   8  16
TORSDOF 2
ENDMDL
MODEL       71
REMARK 921   NORMALIZED FREE ENERGY PREDICTED BY IDOCK:   -5.79 KCAL/MOL
REMARK 922        TOTAL FREE ENERGY PREDICTED BY IDOCK:   -6.61 KCAL/MOL
REMARK 923 INTER-LIGAND FREE ENERGY PREDICTED BY IDOCK:   -5.76 KCAL/MOL
REMARK 924 INTRA-LIGAND FREE ENERGY PREDICTED BY IDOCK:   -0.85 KCAL/MOL
REMARK 927      BINDING AFFINITY PREDICTED BY RF-SCORE:    0.00 PKD
ROOT
HETATM    1  C   UNL     1     -10.666   8.049  67.164  1.00  0.00    -0.285 C  
HETATM    2  C   UNL     1     -10.637   9.552  67.201  1.00  0.00    -0.295 A  
HETATM    3  C   UNL     1     -10.720  10.228  65.968  1.00  0.00    -0.017 A  
HETATM    4  C   UNL     1     -10.737  11.633  65.853  1.00  0.00    -0.328 A  
HETATM    5  C   UNL     1     -10.646  12.398  67.034  1.00  0.00    -0.248 A  
HETATM    6  C   UNL     1     -10.612  11.711  68.277  1.00  0.00    -0.232 A  
HETATM    7  C   UNL     1     -10.601  13.934  67.000  1.00  0.00    -0.279 C  
HETATM    8  C   UNL     1     -10.591  10.301  68.385  1.00  0.00    -0.247 A  
HETATM    9  C   UNL     1     -11.968  14.497  67.456  1.00  0.00    -0.358 C  
HETATM   10  C   UNL     1      -9.505  14.500  67.926  1.00  0.00    -0.212 C  
HETATM   11  C   UNL     1     -10.281  14.466  65.579  1.00  0.00    -0.386 C  
HETATM   12  C   UNL     1      -9.460  12.019  63.734  1.00  0.00     0.027 C  
HETATM   13  C   UNL     1     -11.104  13.772  64.508  1.00  0.00    -0.388 C  
HETATM   14  C   UNL     1     -11.931  11.626  63.594  1.00  0.00    -0.374 C  
HETATM   15  C   UNL     1     -10.808  12.259  64.451  1.00  0.00    -0.370 C  
ENDROOT
BRANCH   8  16
HETATM   16  C   UNL     1     -10.583   9.689  69.754  1.00  0.00    -0.267 C  
HETATM   17  C   UNL     1     -11.574  10.112  70.565  1.00  0.00    -0.411 C  
BRANCH  16  18
HETATM   18  C   UNL     1      -9.490   8.846  70.346  1.00  0.00    -0.227 A  
HETATM   19  C   UNL     1      -9.659   7.483  70.671  1.00  0.00    -0.171 A  
HETATM   20  C   UNL     1      -8.664   6.759  71.354  1.00  0.00    -0.131 A  
HETATM   21  C   UNL     1      -7.478   7.390  71.729  1.00  0.00    -0.083 A  
HETATM   22  C   UNL     1      -7.261   8.714  71.335  1.00  0.00    -0.101 A  
HETATM   23  C   UNL     1      -6.402   6.713  72.504  1.00  0.00    -0.054 C  
HETATM   24  C   UNL     1      -8.250   9.426  70.645  1.00  0.00    -0.207 A  
HETATM   25  O   UNL     1      -6.839   5.748  73.343  1.00  0.00    -0.080 OA 
HETATM   26  O   UNL     1      -5.230   7.036  72.429  1.00  0.00    -0.035 OA 
ENDBRANCH  16  18
ENDBRANCH   8  16
TORSDOF 2
ENDMDL
MODEL       72
REMARK 921   NORMALIZED FREE ENERGY PREDICTED BY IDOCK:   -5.75 KCAL/MOL
REMARK 922        TOTAL FREE ENERGY PREDICTED BY IDOCK:   -6.57 KCAL/MOL
REMARK 923 INTER-LIGAND FREE ENERGY PREDICTED BY IDOCK:   -5.70 KCAL/MOL
REMARK 924 INTRA-LIGAND FREE ENERGY PREDICTED BY IDOCK:   -0.88 KCAL/MOL
REMARK 927      BINDING AFFINITY PREDICTED BY RF-SCORE:    0.00 PKD
ROOT
HETATM    1  C   UNL     1     -11.981  15.037  67.666  1.00  0.00    -0.093 C  
HETATM    2  C   UNL     1     -10.680  15.750  67.416  1.00  0.00    -0.317 A  
HETATM    3  C   UNL     1     -10.634  17.127  67.708  1.00  0.00    -0.360 A  
HETATM    4  C   UNL     1      -9.475  17.914  67.554  1.00  0.00    -0.258 A  
HETATM    5  C   UNL     1      -8.309  17.292  67.063  1.00  0.00    -0.231 A  
HETATM    6  C   UNL     1      -8.348  15.894  66.816  1.00  0.00    -0.306 A  
HETATM    7  C   UNL     1      -7.015  18.084  66.811  1.00  0.00    -0.226 C  
HETATM    8  C   UNL     1      -9.516  15.111  66.969  1.00  0.00    -0.237 A  
HETATM    9  C   UNL     1      -5.992  17.763  67.926  1.00  0.00    -0.159 C  
HETATM   10  C   UNL     1      -6.381  17.734  65.449  1.00  0.00     0.078 C  
HETATM   11  C   UNL     1      -7.275  19.612  66.785  1.00  0.00    -0.241 C  
HETATM   12  C   UNL     1     -10.408  20.114  66.808  1.00  0.00    -0.505 C  
HETATM   13  C   UNL     1      -8.152  20.064  67.940  1.00  0.00    -0.299 C  
HETATM   14  C   UNL     1     -10.205  19.666  69.265  1.00  0.00    -0.214 C  
HETATM   15  C   UNL     1      -9.550  19.414  67.885  1.00  0.00    -0.428 C  
ENDROOT
BRANCH   8  16
HETATM   16  C   UNL     1      -9.428  13.637  66.705  1.00  0.00    -0.275 C  
HETATM   17  C   UNL     1      -9.836  13.260  65.476  1.00  0.00    -0.154 C  
BRANCH  16  18
HETATM   18  C   UNL     1      -9.142  12.566  67.718  1.00  0.00    -0.191 A  
HETATM   19  C   UNL     1      -7.842  12.274  68.185  1.00  0.00    -0.148 A  
HETATM   20  C   UNL     1      -7.590  11.174  69.025  1.00  0.00    -0.119 A  
HETATM   21  C   UNL     1      -8.639  10.340  69.413  1.00  0.00    -0.167 A  
HETATM   22  C   UNL     1      -9.943  10.669  69.031  1.00  0.00    -0.226 A  
HETATM   23  C   UNL     1      -8.448   9.124  70.251  1.00  0.00    -0.191 C  
HETATM   24  C   UNL     1     -10.190  11.772  68.205  1.00  0.00    -0.210 A  
HETATM   25  O   UNL     1      -7.250   8.519  70.095  1.00  0.00    -0.048 OA 
HETATM   26  O   UNL     1      -9.319   8.679  70.977  1.00  0.00    -0.167 OA 
ENDBRANCH  16  18
ENDBRANCH   8  16
TORSDOF 2
ENDMDL
MODEL       73
REMARK 921   NORMALIZED FREE ENERGY PREDICTED BY IDOCK:   -5.74 KCAL/MOL
REMARK 922        TOTAL FREE ENERGY PREDICTED BY IDOCK:   -6.55 KCAL/MOL
REMARK 923 INTER-LIGAND FREE ENERGY PREDICTED BY IDOCK:   -7.30 KCAL/MOL
REMARK 924 INTRA-LIGAND FREE ENERGY PREDICTED BY IDOCK:    0.74 KCAL/MOL
REMARK 927      BINDING AFFINITY PREDICTED BY RF-SCORE:    0.00 PKD
ROOT
HETATM    1  C   UNL     1     -12.024  15.946  71.633  1.00  0.00    -0.553 C  
HETATM    2  C   UNL     1     -11.599  15.849  70.193  1.00  0.00    -0.357 A  
HETATM    3  C   UNL     1     -11.026  16.997  69.612  1.00  0.00     0.125 A  
HETATM    4  C   UNL     1     -10.553  17.041  68.285  1.00  0.00    -0.372 A  
HETATM    5  C   UNL     1     -10.680  15.880  67.495  1.00  0.00    -0.318 A  
HETATM    6  C   UNL     1     -11.214  14.711  68.101  1.00  0.00    -0.304 A  
HETATM    7  C   UNL     1     -10.242  15.853  66.021  1.00  0.00    -0.353 C  
HETATM    8  C   UNL     1     -11.690  14.676  69.432  1.00  0.00    -0.355 A  
HETATM    9  C   UNL     1      -8.916  15.066  65.894  1.00  0.00     0.127 C  
HETATM   10  C   UNL     1     -11.297  15.182  65.118  1.00  0.00    -0.357 C  
HETATM   11  C   UNL     1     -10.040  17.284  65.458  1.00  0.00     0.049 C  
HETATM   12  C   UNL     1     -11.113  19.379  67.586  1.00  0.00    -0.201 C  
HETATM   13  C   UNL     1      -9.242  18.165  66.403  1.00  0.00    -0.267 C  
HETATM   14  C   UNL     1      -8.922  18.958  68.726  1.00  0.00    -0.335 C  
HETATM   15  C   UNL     1      -9.965  18.358  67.753  1.00  0.00    -0.365 C  
ENDROOT
BRANCH   8  16
HETATM   16  C   UNL     1     -12.207  13.376  69.972  1.00  0.00    -0.367 C  
HETATM   17  C   UNL     1     -12.908  13.482  71.120  1.00  0.00    -0.387 C  
BRANCH  16  18
HETATM   18  C   UNL     1     -11.846  12.002  69.484  1.00  0.00    -0.390 A  
HETATM   19  C   UNL     1     -11.726  10.887  70.340  1.00  0.00    -0.444 A  
HETATM   20  C   UNL     1     -11.248   9.647  69.875  1.00  0.00    -0.244 A  
HETATM   21  C   UNL     1     -10.877   9.502  68.538  1.00  0.00    -0.175 A  
HETATM   22  C   UNL     1     -11.074  10.572  67.660  1.00  0.00    -0.375 A  
HETATM   23  C   UNL     1     -10.309   8.244  67.980  1.00  0.00    -0.213 C  
HETATM   24  C   UNL     1     -11.561  11.800  68.126  1.00  0.00    -0.391 A  
HETATM   25  O   UNL     1      -9.599   7.511  68.865  1.00  0.00    -0.149 OA 
HETATM   26  O   UNL     1     -10.427   7.928  66.810  1.00  0.00    -0.327 OA 
ENDBRANCH  16  18
ENDBRANCH   8  16
TORSDOF 2
ENDMDL
MODEL       74
REMARK 921   NORMALIZED FREE ENERGY PREDICTED BY IDOCK:   -5.71 KCAL/MOL
REMARK 922        TOTAL FREE ENERGY PREDICTED BY IDOCK:   -6.53 KCAL/MOL
REMARK 923 INTER-LIGAND FREE ENERGY PREDICTED BY IDOCK:   -5.70 KCAL/MOL
REMARK 924 INTRA-LIGAND FREE ENERGY PREDICTED BY IDOCK:   -0.82 KCAL/MOL
REMARK 927      BINDING AFFINITY PREDICTED BY RF-SCORE:    0.00 PKD
ROOT
HETATM    1  C   UNL     1      -9.952   9.819  65.755  1.00  0.00    -0.349 C  
HETATM    2  C   UNL     1      -9.982  11.048  66.621  1.00  0.00    -0.249 A  
HETATM    3  C   UNL     1     -10.653  12.178  66.112  1.00  0.00    -0.290 A  
HETATM    4  C   UNL     1     -10.788  13.386  66.827  1.00  0.00    -0.286 A  
HETATM    5  C   UNL     1     -10.204  13.471  68.107  1.00  0.00    -0.249 A  
HETATM    6  C   UNL     1      -9.572  12.314  68.634  1.00  0.00    -0.051 A  
HETATM    7  C   UNL     1     -10.254  14.766  68.934  1.00  0.00    -0.237 C  
HETATM    8  C   UNL     1      -9.436  11.106  67.910  1.00  0.00    -0.178 A  
HETATM    9  C   UNL     1     -11.287  14.606  70.075  1.00  0.00    -0.288 C  
HETATM   10  C   UNL     1      -8.885  15.107  69.557  1.00  0.00    -0.125 C  
HETATM   11  C   UNL     1     -10.647  15.987  68.062  1.00  0.00    -0.295 C  
HETATM   12  C   UNL     1     -10.644  15.107  65.014  1.00  0.00    -0.439 C  
HETATM   13  C   UNL     1     -11.834  15.692  67.162  1.00  0.00     0.382 C  
HETATM   14  C   UNL     1     -12.883  14.122  65.561  1.00  0.00    -0.404 C  
HETATM   15  C   UNL     1     -11.524  14.560  66.160  1.00  0.00    -0.357 C  
ENDROOT
BRANCH   8  16
HETATM   16  C   UNL     1      -8.772   9.941  68.582  1.00  0.00    -0.124 C  
HETATM   17  C   UNL     1      -7.525   9.674  68.144  1.00  0.00    -0.082 C  
BRANCH  16  18
HETATM   18  C   UNL     1      -9.427   8.955  69.507  1.00  0.00    -0.159 A  
HETATM   19  C   UNL     1     -10.472   8.097  69.104  1.00  0.00    -0.217 A  
HETATM   20  C   UNL     1     -11.160   7.287  70.027  1.00  0.00    -0.262 A  
HETATM   21  C   UNL     1     -10.813   7.325  71.378  1.00  0.00    -0.251 A  
HETATM   22  C   UNL     1      -9.722   8.102  71.776  1.00  0.00    -0.253 A  
HETATM   23  C   UNL     1     -11.527   6.544  72.426  1.00  0.00    -0.271 C  
HETATM   24  C   UNL     1      -9.034   8.897  70.852  1.00  0.00    -0.273 A  
HETATM   25  O   UNL     1     -12.835   6.324  72.165  1.00  0.00    -0.171 OA 
HETATM   26  O   UNL     1     -10.993   6.181  73.458  1.00  0.00    -0.228 OA 
ENDBRANCH  16  18
ENDBRANCH   8  16
TORSDOF 2
ENDMDL
MODEL       75
REMARK 921   NORMALIZED FREE ENERGY PREDICTED BY IDOCK:   -5.71 KCAL/MOL
REMARK 922        TOTAL FREE ENERGY PREDICTED BY IDOCK:   -6.52 KCAL/MOL
REMARK 923 INTER-LIGAND FREE ENERGY PREDICTED BY IDOCK:   -6.30 KCAL/MOL
REMARK 924 INTRA-LIGAND FREE ENERGY PREDICTED BY IDOCK:   -0.22 KCAL/MOL
REMARK 927      BINDING AFFINITY PREDICTED BY RF-SCORE:    0.00 PKD
ROOT
HETATM    1  C   UNL     1     -12.473  11.001  70.244  1.00  0.00    -0.365 C  
HETATM    2  C   UNL     1     -11.615  10.848  69.018  1.00  0.00    -0.387 A  
HETATM    3  C   UNL     1     -11.770  11.810  68.001  1.00  0.00    -0.363 A  
HETATM    4  C   UNL     1     -11.011  11.810  66.813  1.00  0.00    -0.336 A  
HETATM    5  C   UNL     1     -10.064  10.782  66.628  1.00  0.00    -0.265 A  
HETATM    6  C   UNL     1      -9.879   9.844  67.678  1.00  0.00    -0.198 A  
HETATM    7  C   UNL     1      -9.232  10.672  65.339  1.00  0.00    -0.226 C  
HETATM    8  C   UNL     1     -10.646   9.847  68.865  1.00  0.00    -0.239 A  
HETATM    9  C   UNL     1      -7.783  11.134  65.623  1.00  0.00     0.190 C  
HETATM   10  C   UNL     1      -9.188   9.227  64.802  1.00  0.00    -0.160 C  
HETATM   11  C   UNL     1      -9.826  11.538  64.198  1.00  0.00    -0.288 C  
HETATM   12  C   UNL     1     -12.660  12.630  65.116  1.00  0.00    -0.459 C  
HETATM   13  C   UNL     1     -10.194  12.934  64.669  1.00  0.00    -0.321 C  
HETATM   14  C   UNL     1     -11.313  14.313  66.394  1.00  0.00    -0.346 C  
HETATM   15  C   UNL     1     -11.283  12.900  65.763  1.00  0.00    -0.324 C  
ENDROOT
BRANCH   8  16
HETATM   16  C   UNL     1     -10.340   8.822  69.917  1.00  0.00    -0.212 C  
HETATM   17  C   UNL     1      -9.945   9.332  71.102  1.00  0.00    -0.356 C  
BRANCH  16  18
HETATM   18  C   UNL     1     -10.232   7.339  69.710  1.00  0.00    -0.214 A  
HETATM   19  C   UNL     1     -10.880   6.396  70.536  1.00  0.00    -0.335 A  
HETATM   20  C   UNL     1     -10.645   5.014  70.404  1.00  0.00    -0.142 A  
HETATM   21  C   UNL     1      -9.751   4.550  69.439  1.00  0.00    -0.272 A  
HETATM   22  C   UNL     1      -9.172   5.465  68.556  1.00  0.00    -0.130 A  
HETATM   23  C   UNL     1      -9.404   3.111  69.273  1.00  0.00    -0.153 C  
HETATM   24  C   UNL     1      -9.418   6.838  68.684  1.00  0.00    -0.132 A  
HETATM   25  O   UNL     1      -9.460   2.387  70.413  1.00  0.00    -0.132 OA 
HETATM   26  O   UNL     1      -9.046   2.637  68.210  1.00  0.00    -0.138 OA 
ENDBRANCH  16  18
ENDBRANCH   8  16
TORSDOF 2
ENDMDL
MODEL       76
REMARK 921   NORMALIZED FREE ENERGY PREDICTED BY IDOCK:   -5.70 KCAL/MOL
REMARK 922        TOTAL FREE ENERGY PREDICTED BY IDOCK:   -6.52 KCAL/MOL
REMARK 923 INTER-LIGAND FREE ENERGY PREDICTED BY IDOCK:   -5.67 KCAL/MOL
REMARK 924 INTRA-LIGAND FREE ENERGY PREDICTED BY IDOCK:   -0.84 KCAL/MOL
REMARK 927      BINDING AFFINITY PREDICTED BY RF-SCORE:    0.00 PKD
ROOT
HETATM    1  C   UNL     1      -8.276   9.819  70.124  1.00  0.00    -0.202 C  
HETATM    2  C   UNL     1      -8.384   8.510  69.389  1.00  0.00    -0.119 A  
HETATM    3  C   UNL     1      -8.702   7.369  70.151  1.00  0.00    -0.143 A  
HETATM    4  C   UNL     1      -8.867   6.085  69.593  1.00  0.00    -0.133 A  
HETATM    5  C   UNL     1      -8.686   5.936  68.203  1.00  0.00    -0.111 A  
HETATM    6  C   UNL     1      -8.414   7.099  67.433  1.00  0.00    -0.122 A  
HETATM    7  C   UNL     1      -8.791   4.565  67.516  1.00  0.00    -0.115 C  
HETATM    8  C   UNL     1      -8.245   8.383  68.001  1.00  0.00    -0.127 A  
HETATM    9  C   UNL     1     -10.129   4.480  66.742  1.00  0.00    -0.220 C  
HETATM   10  C   UNL     1      -7.636   4.325  66.523  1.00  0.00    -0.089 C  
HETATM   11  C   UNL     1      -8.725   3.404  68.542  1.00  0.00    -0.139 C  
HETATM   12  C   UNL     1      -7.941   4.593  71.378  1.00  0.00    -0.096 C  
HETATM   13  C   UNL     1      -9.619   3.649  69.745  1.00  0.00    -0.228 C  
HETATM   14  C   UNL     1     -10.359   5.242  71.489  1.00  0.00    -0.287 C  
HETATM   15  C   UNL     1      -9.192   4.909  70.528  1.00  0.00    -0.196 C  
ENDROOT
BRANCH   8  16
HETATM   16  C   UNL     1      -7.988   9.542  67.084  1.00  0.00    -0.102 C  
HETATM   17  C   UNL     1      -6.713   9.982  67.076  1.00  0.00    -0.078 C  
BRANCH  16  18
HETATM   18  C   UNL     1      -9.026  10.357  66.367  1.00  0.00    -0.166 A  
HETATM   19  C   UNL     1     -10.161  10.897  67.009  1.00  0.00    -0.244 A  
HETATM   20  C   UNL     1     -11.186  11.534  66.285  1.00  0.00    -0.286 A  
HETATM   21  C   UNL     1     -11.094  11.639  64.897  1.00  0.00    -0.317 A  
HETATM   22  C   UNL     1      -9.935  11.189  64.258  1.00  0.00    -0.359 A  
HETATM   23  C   UNL     1     -12.159  12.246  64.052  1.00  0.00    -0.471 C  
HETATM   24  C   UNL     1      -8.913  10.567  64.985  1.00  0.00    -0.223 A  
HETATM   25  O   UNL     1     -13.410  12.107  64.545  1.00  0.00    -0.691 OA 
HETATM   26  O   UNL     1     -11.931  12.775  62.979  1.00  0.00    -0.406 OA 
ENDBRANCH  16  18
ENDBRANCH   8  16
TORSDOF 2
ENDMDL
MODEL       77
REMARK 921   NORMALIZED FREE ENERGY PREDICTED BY IDOCK:   -5.70 KCAL/MOL
REMARK 922        TOTAL FREE ENERGY PREDICTED BY IDOCK:   -6.51 KCAL/MOL
REMARK 923 INTER-LIGAND FREE ENERGY PREDICTED BY IDOCK:   -5.75 KCAL/MOL
REMARK 924 INTRA-LIGAND FREE ENERGY PREDICTED BY IDOCK:   -0.76 KCAL/MOL
REMARK 927      BINDING AFFINITY PREDICTED BY RF-SCORE:    0.00 PKD
ROOT
HETATM    1  C   UNL     1     -11.955  10.606  69.509  1.00  0.00    -0.319 C  
HETATM    2  C   UNL     1     -11.436  11.909  68.967  1.00  0.00    -0.355 A  
HETATM    3  C   UNL     1     -11.656  13.063  69.746  1.00  0.00    -0.286 A  
HETATM    4  C   UNL     1     -11.198  14.345  69.379  1.00  0.00    -0.317 A  
HETATM    5  C   UNL     1     -10.501  14.479  68.161  1.00  0.00    -0.239 A  
HETATM    6  C   UNL     1     -10.240  13.305  67.405  1.00  0.00    -0.229 A  
HETATM    7  C   UNL     1     -10.014  15.846  67.655  1.00  0.00    -0.237 C  
HETATM    8  C   UNL     1     -10.706  12.023  67.776  1.00  0.00    -0.243 A  
HETATM    9  C   UNL     1      -8.482  15.949  67.848  1.00  0.00    -0.164 C  
HETATM   10  C   UNL     1     -10.333  16.056  66.161  1.00  0.00    -0.340 C  
HETATM   11  C   UNL     1     -10.700  17.014  68.410  1.00  0.00    -0.361 C  
HETATM   12  C   UNL     1     -13.031  15.834  70.211  1.00  0.00     0.128 C  
HETATM   13  C   UNL     1     -10.715  16.795  69.913  1.00  0.00    -0.123 C  
HETATM   14  C   UNL     1     -11.169  15.230  71.776  1.00  0.00    -0.364 C  
HETATM   15  C   UNL     1     -11.517  15.535  70.299  1.00  0.00    -0.352 C  
ENDROOT
BRANCH   8  16
HETATM   16  C   UNL     1     -10.343  10.852  66.912  1.00  0.00    -0.285 C  
HETATM   17  C   UNL     1     -10.718  10.968  65.621  1.00  0.00    -0.217 C  
BRANCH  16  18
HETATM   18  C   UNL     1      -9.815   9.528  67.383  1.00  0.00    -0.218 A  
HETATM   19  C   UNL     1     -10.476   8.304  67.143  1.00  0.00    -0.386 A  
HETATM   20  C   UNL     1     -10.031   7.099  67.717  1.00  0.00    -0.192 A  
HETATM   21  C   UNL     1      -8.912   7.098  68.550  1.00  0.00    -0.127 A  
HETATM   22  C   UNL     1      -8.195   8.285  68.724  1.00  0.00    -0.117 A  
HETATM   23  C   UNL     1      -8.410   5.878  69.242  1.00  0.00    -0.113 C  
HETATM   24  C   UNL     1      -8.636   9.479  68.141  1.00  0.00    -0.120 A  
HETATM   25  O   UNL     1      -9.369   4.978  69.552  1.00  0.00    -0.111 OA 
HETATM   26  O   UNL     1      -7.243   5.728  69.552  1.00  0.00    -0.063 OA 
ENDBRANCH  16  18
ENDBRANCH   8  16
TORSDOF 2
ENDMDL
MODEL       78
REMARK 921   NORMALIZED FREE ENERGY PREDICTED BY IDOCK:   -5.64 KCAL/MOL
REMARK 922        TOTAL FREE ENERGY PREDICTED BY IDOCK:   -6.45 KCAL/MOL
REMARK 923 INTER-LIGAND FREE ENERGY PREDICTED BY IDOCK:   -5.46 KCAL/MOL
REMARK 924 INTRA-LIGAND FREE ENERGY PREDICTED BY IDOCK:   -0.99 KCAL/MOL
REMARK 927      BINDING AFFINITY PREDICTED BY RF-SCORE:    0.00 PKD
ROOT
HETATM    1  C   UNL     1     -11.525  10.811  67.974  1.00  0.00    -0.333 C  
HETATM    2  C   UNL     1     -10.549  10.121  67.061  1.00  0.00    -0.290 A  
HETATM    3  C   UNL     1     -10.281   8.762  67.315  1.00  0.00    -0.332 A  
HETATM    4  C   UNL     1      -9.415   7.981  66.522  1.00  0.00    -0.278 A  
HETATM    5  C   UNL     1      -8.770   8.601  65.433  1.00  0.00    -0.208 A  
HETATM    6  C   UNL     1      -9.083   9.958  65.152  1.00  0.00    -0.257 A  
HETATM    7  C   UNL     1      -7.767   7.843  64.548  1.00  0.00    -0.125 C  
HETATM    8  C   UNL     1      -9.949  10.737  65.954  1.00  0.00    -0.304 A  
HETATM    9  C   UNL     1      -8.430   7.508  63.191  1.00  0.00     0.251 C  
HETATM   10  C   UNL     1      -6.493   8.670  64.280  1.00  0.00    -0.071 C  
HETATM   11  C   UNL     1      -7.293   6.527  65.219  1.00  0.00    -0.077 C  
HETATM   12  C   UNL     1      -8.349   6.471  68.211  1.00  0.00    -0.117 C  
HETATM   13  C   UNL     1      -8.449   5.730  65.799  1.00  0.00    -0.143 C  
HETATM   14  C   UNL     1     -10.513   5.765  67.164  1.00  0.00    -0.337 C  
HETATM   15  C   UNL     1      -9.181   6.512  66.910  1.00  0.00    -0.153 C  
ENDROOT
BRANCH   8  16
HETATM   16  C   UNL     1     -10.225  12.152  65.542  1.00  0.00    -0.294 C  
HETATM   17  C   UNL     1     -11.020  12.279  64.459  1.00  0.00    -0.358 C  
BRANCH  16  18
HETATM   18  C   UNL     1      -9.550  13.383  66.076  1.00  0.00    -0.174 A  
HETATM   19  C   UNL     1      -9.824  14.682  65.596  1.00  0.00    -0.354 A  
HETATM   20  C   UNL     1      -9.074  15.796  66.016  1.00  0.00    -0.361 A  
HETATM   21  C   UNL     1      -8.030  15.630  66.925  1.00  0.00    -0.278 A  
HETATM   22  C   UNL     1      -7.806  14.365  67.476  1.00  0.00    -0.207 A  
HETATM   23  C   UNL     1      -7.153  16.746  67.375  1.00  0.00    -0.156 C  
HETATM   24  C   UNL     1      -8.563  13.261  67.063  1.00  0.00    -0.169 A  
HETATM   25  O   UNL     1      -6.978  17.723  66.459  1.00  0.00    -0.187 OA 
HETATM   26  O   UNL     1      -6.595  16.753  68.458  1.00  0.00    -0.151 OA 
ENDBRANCH  16  18
ENDBRANCH   8  16
TORSDOF 2
ENDMDL
MODEL       79
REMARK 921   NORMALIZED FREE ENERGY PREDICTED BY IDOCK:   -5.61 KCAL/MOL
REMARK 922        TOTAL FREE ENERGY PREDICTED BY IDOCK:   -6.41 KCAL/MOL
REMARK 923 INTER-LIGAND FREE ENERGY PREDICTED BY IDOCK:   -5.94 KCAL/MOL
REMARK 924 INTRA-LIGAND FREE ENERGY PREDICTED BY IDOCK:   -0.46 KCAL/MOL
REMARK 927      BINDING AFFINITY PREDICTED BY RF-SCORE:    0.00 PKD
ROOT
HETATM    1  C   UNL     1      -7.255  11.683  67.813  1.00  0.00    -0.101 C  
HETATM    2  C   UNL     1      -8.002  10.386  67.966  1.00  0.00    -0.105 A  
HETATM    3  C   UNL     1      -7.239   9.202  67.978  1.00  0.00    -0.079 A  
HETATM    4  C   UNL     1      -7.800   7.920  68.146  1.00  0.00    -0.127 A  
HETATM    5  C   UNL     1      -9.198   7.819  68.289  1.00  0.00    -0.139 A  
HETATM    6  C   UNL     1      -9.957   9.019  68.326  1.00  0.00    -0.198 A  
HETATM    7  C   UNL     1      -9.902   6.458  68.422  1.00  0.00    -0.141 C  
HETATM    8  C   UNL     1      -9.388  10.303  68.152  1.00  0.00    -0.144 A  
HETATM    9  C   UNL     1     -10.340   6.249  69.891  1.00  0.00    -0.249 C  
HETATM   10  C   UNL     1     -11.150   6.363  67.521  1.00  0.00    -0.401 C  
HETATM   11  C   UNL     1      -8.974   5.291  67.998  1.00  0.00    -0.113 C  
HETATM   12  C   UNL     1      -6.354   6.498  66.677  1.00  0.00    -0.042 C  
HETATM   13  C   UNL     1      -7.584   5.415  68.597  1.00  0.00    -0.083 C  
HETATM   14  C   UNL     1      -5.644   6.885  69.049  1.00  0.00    -0.018 C  
HETATM   15  C   UNL     1      -6.868   6.696  68.120  1.00  0.00    -0.074 C  
ENDROOT
BRANCH   8  16
HETATM   16  C   UNL     1     -10.286  11.500  68.238  1.00  0.00    -0.211 C  
HETATM   17  C   UNL     1     -10.978  11.603  69.391  1.00  0.00    -0.211 C  
BRANCH  16  18
HETATM   18  C   UNL     1     -10.631  12.438  67.116  1.00  0.00    -0.247 A  
HETATM   19  C   UNL     1      -9.657  13.104  66.342  1.00  0.00    -0.259 A  
HETATM   20  C   UNL     1     -10.010  14.083  65.395  1.00  0.00    -0.292 A  
HETATM   21  C   UNL     1     -11.352  14.416  65.206  1.00  0.00    -0.346 A  
HETATM   22  C   UNL     1     -12.331  13.701  65.901  1.00  0.00    -0.516 A  
HETATM   23  C   UNL     1     -11.805  15.478  64.266  1.00  0.00    -0.173 C  
HETATM   24  C   UNL     1     -11.975  12.720  66.834  1.00  0.00    -0.380 A  
HETATM   25  O   UNL     1     -10.924  16.490  64.099  1.00  0.00    -0.770 OA 
HETATM   26  O   UNL     1     -12.900  15.467  63.735  1.00  0.00    -0.524 OA 
ENDBRANCH  16  18
ENDBRANCH   8  16
TORSDOF 2
ENDMDL
MODEL       80
REMARK 921   NORMALIZED FREE ENERGY PREDICTED BY IDOCK:   -5.60 KCAL/MOL
REMARK 922        TOTAL FREE ENERGY PREDICTED BY IDOCK:   -6.41 KCAL/MOL
REMARK 923 INTER-LIGAND FREE ENERGY PREDICTED BY IDOCK:   -5.56 KCAL/MOL
REMARK 924 INTRA-LIGAND FREE ENERGY PREDICTED BY IDOCK:   -0.84 KCAL/MOL
REMARK 927      BINDING AFFINITY PREDICTED BY RF-SCORE:    0.00 PKD
ROOT
HETATM    1  C   UNL     1     -12.056  14.121  66.694  1.00  0.00    -0.480 C  
HETATM    2  C   UNL     1     -10.679  14.585  67.080  1.00  0.00    -0.286 A  
HETATM    3  C   UNL     1     -10.506  15.962  67.319  1.00  0.00    -0.310 A  
HETATM    4  C   UNL     1      -9.281  16.532  67.720  1.00  0.00    -0.202 A  
HETATM    5  C   UNL     1      -8.168  15.680  67.869  1.00  0.00    -0.155 A  
HETATM    6  C   UNL     1      -8.359  14.286  67.674  1.00  0.00    -0.187 A  
HETATM    7  C   UNL     1      -6.780  16.222  68.248  1.00  0.00    -0.134 C  
HETATM    8  C   UNL     1      -9.591  13.721  67.268  1.00  0.00    -0.237 A  
HETATM    9  C   UNL     1      -6.482  15.878  69.727  1.00  0.00    -0.163 C  
HETATM   10  C   UNL     1      -5.664  15.617  67.371  1.00  0.00    -0.006 C  
HETATM   11  C   UNL     1      -6.693  17.758  68.057  1.00  0.00    -0.193 C  
HETATM   12  C   UNL     1      -9.306  18.748  66.553  1.00  0.00    -0.345 C  
HETATM   13  C   UNL     1      -7.900  18.477  68.633  1.00  0.00    -0.338 C  
HETATM   14  C   UNL     1     -10.367  18.569  68.816  1.00  0.00    -0.210 C  
HETATM   15  C   UNL     1      -9.207  18.053  67.930  1.00  0.00    -0.268 C  
ENDROOT
BRANCH   8  16
HETATM   16  C   UNL     1      -9.680  12.231  67.121  1.00  0.00    -0.203 C  
HETATM   17  C   UNL     1     -10.129  11.584  68.216  1.00  0.00    -0.205 C  
BRANCH  16  18
HETATM   18  C   UNL     1      -9.134  11.414  65.987  1.00  0.00    -0.218 A  
HETATM   19  C   UNL     1      -9.871  11.125  64.819  1.00  0.00    -0.326 A  
HETATM   20  C   UNL     1      -9.385  10.240  63.838  1.00  0.00    -0.337 A  
HETATM   21  C   UNL     1      -8.147   9.622  64.012  1.00  0.00    -0.152 A  
HETATM   22  C   UNL     1      -7.367   9.967  65.120  1.00  0.00    -0.133 A  
HETATM   23  C   UNL     1      -7.588   8.631  63.052  1.00  0.00    -0.111 C  
HETATM   24  C   UNL     1      -7.850  10.857  66.086  1.00  0.00    -0.144 A  
HETATM   25  O   UNL     1      -8.517   7.900  62.397  1.00  0.00    -0.135 OA 
HETATM   26  O   UNL     1      -6.391   8.453  62.908  1.00  0.00    -0.085 OA 
ENDBRANCH  16  18
ENDBRANCH   8  16
TORSDOF 2
ENDMDL
MODEL       81
REMARK 921   NORMALIZED FREE ENERGY PREDICTED BY IDOCK:   -5.60 KCAL/MOL
REMARK 922        TOTAL FREE ENERGY PREDICTED BY IDOCK:   -6.40 KCAL/MOL
REMARK 923 INTER-LIGAND FREE ENERGY PREDICTED BY IDOCK:   -6.61 KCAL/MOL
REMARK 924 INTRA-LIGAND FREE ENERGY PREDICTED BY IDOCK:    0.21 KCAL/MOL
REMARK 927      BINDING AFFINITY PREDICTED BY RF-SCORE:    0.00 PKD
ROOT
HETATM    1  C   UNL     1     -10.891  11.139  64.174  1.00  0.00    -0.355 C  
HETATM    2  C   UNL     1     -10.139  10.570  65.346  1.00  0.00    -0.358 A  
HETATM    3  C   UNL     1      -9.296   9.470  65.096  1.00  0.00    -0.316 A  
HETATM    4  C   UNL     1      -8.507   8.856  66.090  1.00  0.00    -0.133 A  
HETATM    5  C   UNL     1      -8.584   9.358  67.405  1.00  0.00    -0.125 A  
HETATM    6  C   UNL     1      -9.399  10.497  67.641  1.00  0.00    -0.160 A  
HETATM    7  C   UNL     1      -7.803   8.716  68.563  1.00  0.00    -0.108 C  
HETATM    8  C   UNL     1     -10.191  11.106  66.639  1.00  0.00    -0.274 A  
HETATM    9  C   UNL     1      -6.600   9.617  68.932  1.00  0.00    -0.046 C  
HETATM   10  C   UNL     1      -8.679   8.531  69.818  1.00  0.00    -0.132 C  
HETATM   11  C   UNL     1      -7.283   7.304  68.189  1.00  0.00    -0.091 C  
HETATM   12  C   UNL     1      -8.568   6.444  65.418  1.00  0.00    -0.088 C  
HETATM   13  C   UNL     1      -6.636   7.275  66.815  1.00  0.00    -0.056 C  
HETATM   14  C   UNL     1      -6.801   7.922  64.432  1.00  0.00    -0.063 C  
HETATM   15  C   UNL     1      -7.640   7.646  65.703  1.00  0.00    -0.090 C  
ENDROOT
BRANCH   8  16
HETATM   16  C   UNL     1     -10.990  12.323  67.001  1.00  0.00    -0.314 C  
HETATM   17  C   UNL     1     -11.132  13.219  66.003  1.00  0.00    -0.298 C  
BRANCH  16  18
HETATM   18  C   UNL     1     -11.443  12.714  68.378  1.00  0.00    -0.350 A  
HETATM   19  C   UNL     1     -11.931  11.785  69.322  1.00  0.00    -0.354 A  
HETATM   20  C   UNL     1     -12.480  12.199  70.550  1.00  0.00    -0.282 A  
HETATM   21  C   UNL     1     -12.553  13.558  70.855  1.00  0.00    -0.414 A  
HETATM   22  C   UNL     1     -11.993  14.483  69.970  1.00  0.00    -0.388 A  
HETATM   23  C   UNL     1     -13.170  14.082  72.105  1.00  0.00    -0.435 C  
HETATM   24  C   UNL     1     -11.438  14.064  68.754  1.00  0.00    -0.327 A  
HETATM   25  O   UNL     1     -14.172  13.319  72.597  1.00  0.00    -0.724 OA 
HETATM   26  O   UNL     1     -12.839  15.138  72.613  1.00  0.00    -0.331 OA 
ENDBRANCH  16  18
ENDBRANCH   8  16
TORSDOF 2
ENDMDL
MODEL       82
REMARK 921   NORMALIZED FREE ENERGY PREDICTED BY IDOCK:   -5.59 KCAL/MOL
REMARK 922        TOTAL FREE ENERGY PREDICTED BY IDOCK:   -6.39 KCAL/MOL
REMARK 923 INTER-LIGAND FREE ENERGY PREDICTED BY IDOCK:   -5.60 KCAL/MOL
REMARK 924 INTRA-LIGAND FREE ENERGY PREDICTED BY IDOCK:   -0.80 KCAL/MOL
REMARK 927      BINDING AFFINITY PREDICTED BY RF-SCORE:    0.00 PKD
ROOT
HETATM    1  C   UNL     1      -9.780   8.573  66.940  1.00  0.00    -0.286 C  
HETATM    2  C   UNL     1      -9.496  10.039  67.120  1.00  0.00    -0.184 A  
HETATM    3  C   UNL     1     -10.275  10.943  66.371  1.00  0.00    -0.289 A  
HETATM    4  C   UNL     1     -10.141  12.343  66.464  1.00  0.00    -0.246 A  
HETATM    5  C   UNL     1      -9.163  12.862  67.336  1.00  0.00    -0.197 A  
HETATM    6  C   UNL     1      -8.415  11.948  68.125  1.00  0.00    -0.163 A  
HETATM    7  C   UNL     1      -8.909  14.373  67.460  1.00  0.00    -0.197 C  
HETATM    8  C   UNL     1      -8.551  10.544  68.024  1.00  0.00    -0.121 A  
HETATM    9  C   UNL     1      -9.506  14.887  68.792  1.00  0.00    -0.214 C  
HETATM   10  C   UNL     1      -7.404  14.710  67.437  1.00  0.00    -0.195 C  
HETATM   11  C   UNL     1      -9.544  15.158  66.283  1.00  0.00    -0.325 C  
HETATM   12  C   UNL     1     -10.572  13.086  64.111  1.00  0.00    -0.421 C  
HETATM   13  C   UNL     1     -10.969  14.715  65.999  1.00  0.00    -0.325 C  
HETATM   14  C   UNL     1     -12.521  12.816  65.663  1.00  0.00    -0.341 C  
HETATM   15  C   UNL     1     -11.032  13.231  65.579  1.00  0.00    -0.297 C  
ENDROOT
BRANCH   8  16
HETATM   16  C   UNL     1      -7.726   9.678  68.930  1.00  0.00    -0.077 C  
HETATM   17  C   UNL     1      -6.575   9.232  68.386  1.00  0.00    -0.058 C  
BRANCH  16  18
HETATM   18  C   UNL     1      -8.153   9.114  70.254  1.00  0.00    -0.156 A  
HETATM   19  C   UNL     1      -7.281   8.991  71.357  1.00  0.00    -0.065 A  
HETATM   20  C   UNL     1      -7.670   8.328  72.536  1.00  0.00    -0.167 A  
HETATM   21  C   UNL     1      -8.946   7.771  72.631  1.00  0.00    -0.224 A  
HETATM   22  C   UNL     1      -9.849   7.963  71.582  1.00  0.00    -0.212 A  
HETATM   23  C   UNL     1      -9.416   7.006  73.819  1.00  0.00    -0.222 C  
HETATM   24  C   UNL     1      -9.460   8.633  70.416  1.00  0.00    -0.192 A  
HETATM   25  O   UNL     1      -8.440   6.345  74.480  1.00  0.00    -0.125 OA 
HETATM   26  O   UNL     1     -10.589   6.936  74.138  1.00  0.00    -0.299 OA 
ENDBRANCH  16  18
ENDBRANCH   8  16
TORSDOF 2
ENDMDL
MODEL       83
REMARK 921   NORMALIZED FREE ENERGY PREDICTED BY IDOCK:   -5.58 KCAL/MOL
REMARK 922        TOTAL FREE ENERGY PREDICTED BY IDOCK:   -6.38 KCAL/MOL
REMARK 923 INTER-LIGAND FREE ENERGY PREDICTED BY IDOCK:   -5.43 KCAL/MOL
REMARK 924 INTRA-LIGAND FREE ENERGY PREDICTED BY IDOCK:   -0.96 KCAL/MOL
REMARK 927      BINDING AFFINITY PREDICTED BY RF-SCORE:    0.00 PKD
ROOT
HETATM    1  C   UNL     1      -7.234   6.968  68.454  1.00  0.00    -0.088 C  
HETATM    2  C   UNL     1      -8.117   8.177  68.307  1.00  0.00    -0.128 A  
HETATM    3  C   UNL     1      -7.482   9.418  68.109  1.00  0.00    -0.079 A  
HETATM    4  C   UNL     1      -8.182  10.627  67.923  1.00  0.00    -0.112 A  
HETATM    5  C   UNL     1      -9.591  10.592  67.958  1.00  0.00    -0.167 A  
HETATM    6  C   UNL     1     -10.227   9.331  68.110  1.00  0.00    -0.246 A  
HETATM    7  C   UNL     1     -10.435  11.870  67.821  1.00  0.00    -0.224 C  
HETATM    8  C   UNL     1      -9.518   8.122  68.300  1.00  0.00    -0.148 A  
HETATM    9  C   UNL     1     -11.072  11.915  66.411  1.00  0.00    -0.359 C  
HETATM   10  C   UNL     1     -11.565  11.931  68.869  1.00  0.00    -0.370 C  
HETATM   11  C   UNL     1      -9.581  13.146  68.033  1.00  0.00    -0.220 C  
HETATM   12  C   UNL     1      -6.711  12.290  69.081  1.00  0.00    -0.095 C  
HETATM   13  C   UNL     1      -8.271  13.094  67.266  1.00  0.00    -0.172 C  
HETATM   14  C   UNL     1      -6.268  11.767  66.671  1.00  0.00    -0.025 C  
HETATM   15  C   UNL     1      -7.379  11.925  67.737  1.00  0.00    -0.109 C  
ENDROOT
BRANCH   8  16
HETATM   16  C   UNL     1     -10.298   6.847  68.421  1.00  0.00    -0.213 C  
HETATM   17  C   UNL     1     -10.940   6.471  67.295  1.00  0.00    -0.475 C  
BRANCH  16  18
HETATM   18  C   UNL     1     -10.591   6.099  69.689  1.00  0.00    -0.347 A  
HETATM   19  C   UNL     1     -11.268   6.675  70.785  1.00  0.00    -0.366 A  
HETATM   20  C   UNL     1     -11.401   5.995  72.010  1.00  0.00    -0.345 A  
HETATM   21  C   UNL     1     -10.852   4.721  72.162  1.00  0.00    -0.086 A  
HETATM   22  C   UNL     1     -10.258   4.104  71.058  1.00  0.00    -0.015 A  
HETATM   23  C   UNL     1     -10.899   3.959  73.441  1.00  0.00    -0.225 C  
HETATM   24  C   UNL     1     -10.138   4.780  69.838  1.00  0.00    -0.299 A  
HETATM   25  O   UNL     1     -10.900   4.730  74.551  1.00  0.00    -0.347 OA 
HETATM   26  O   UNL     1     -10.882   2.743  73.486  1.00  0.00    -0.167 OA 
ENDBRANCH  16  18
ENDBRANCH   8  16
TORSDOF 2
ENDMDL
MODEL       84
REMARK 921   NORMALIZED FREE ENERGY PREDICTED BY IDOCK:   -5.54 KCAL/MOL
REMARK 922        TOTAL FREE ENERGY PREDICTED BY IDOCK:   -6.33 KCAL/MOL
REMARK 923 INTER-LIGAND FREE ENERGY PREDICTED BY IDOCK:   -5.47 KCAL/MOL
REMARK 924 INTRA-LIGAND FREE ENERGY PREDICTED BY IDOCK:   -0.86 KCAL/MOL
REMARK 927      BINDING AFFINITY PREDICTED BY RF-SCORE:    0.00 PKD
ROOT
HETATM    1  C   UNL     1     -11.329   6.436  69.253  1.00  0.00    -0.405 C  
HETATM    2  C   UNL     1     -10.317   5.974  70.265  1.00  0.00    -0.282 A  
HETATM    3  C   UNL     1      -9.625   4.779  69.984  1.00  0.00    -0.260 A  
HETATM    4  C   UNL     1      -8.627   4.245  70.825  1.00  0.00    -0.112 A  
HETATM    5  C   UNL     1      -8.323   4.934  72.017  1.00  0.00    -0.123 A  
HETATM    6  C   UNL     1      -8.988   6.163  72.270  1.00  0.00    -0.137 A  
HETATM    7  C   UNL     1      -7.289   4.396  73.019  1.00  0.00    -0.076 C  
HETATM    8  C   UNL     1      -9.991   6.691  71.425  1.00  0.00    -0.198 A  
HETATM    9  C   UNL     1      -5.990   5.230  72.914  1.00  0.00    -0.027 C  
HETATM   10  C   UNL     1      -7.801   4.470  74.472  1.00  0.00    -0.088 C  
HETATM   11  C   UNL     1      -6.957   2.904  72.755  1.00  0.00    -0.031 C  
HETATM   12  C   UNL     1      -8.982   1.778  70.588  1.00  0.00    -0.134 C  
HETATM   13  C   UNL     1      -6.708   2.624  71.283  1.00  0.00    -0.031 C  
HETATM   14  C   UNL     1      -7.480   2.939  68.952  1.00  0.00    -0.048 C  
HETATM   15  C   UNL     1      -7.956   2.921  70.425  1.00  0.00    -0.050 C  
ENDROOT
BRANCH   8  16
HETATM   16  C   UNL     1     -10.604   8.013  71.781  1.00  0.00    -0.296 C  
HETATM   17  C   UNL     1     -11.353   8.001  72.903  1.00  0.00    -0.364 C  
BRANCH  16  18
HETATM   18  C   UNL     1     -10.632   9.242  70.920  1.00  0.00    -0.366 A  
HETATM   19  C   UNL     1     -11.741  10.113  70.856  1.00  0.00    -0.468 A  
HETATM   20  C   UNL     1     -11.792  11.176  69.935  1.00  0.00    -0.439 A  
HETATM   21  C   UNL     1     -10.730  11.386  69.055  1.00  0.00    -0.245 A  
HETATM   22  C   UNL     1      -9.589  10.587  69.168  1.00  0.00    -0.214 A  
HETATM   23  C   UNL     1     -10.730  12.450  68.014  1.00  0.00    -0.223 C  
HETATM   24  C   UNL     1      -9.538   9.538  70.095  1.00  0.00    -0.290 A  
HETATM   25  O   UNL     1     -11.954  12.763  67.535  1.00  0.00    -0.364 OA 
HETATM   26  O   UNL     1      -9.708  12.958  67.588  1.00  0.00    -0.202 OA 
ENDBRANCH  16  18
ENDBRANCH   8  16
TORSDOF 2
ENDMDL
MODEL       85
REMARK 921   NORMALIZED FREE ENERGY PREDICTED BY IDOCK:   -5.53 KCAL/MOL
REMARK 922        TOTAL FREE ENERGY PREDICTED BY IDOCK:   -6.33 KCAL/MOL
REMARK 923 INTER-LIGAND FREE ENERGY PREDICTED BY IDOCK:   -5.44 KCAL/MOL
REMARK 924 INTRA-LIGAND FREE ENERGY PREDICTED BY IDOCK:   -0.89 KCAL/MOL
REMARK 927      BINDING AFFINITY PREDICTED BY RF-SCORE:    0.00 PKD
ROOT
HETATM    1  C   UNL     1     -10.522  10.990  64.807  1.00  0.00    -0.384 C  
HETATM    2  C   UNL     1      -9.868  10.254  65.944  1.00  0.00    -0.298 A  
HETATM    3  C   UNL     1      -9.133   9.096  65.623  1.00  0.00    -0.273 A  
HETATM    4  C   UNL     1      -8.441   8.327  66.580  1.00  0.00    -0.124 A  
HETATM    5  C   UNL     1      -8.508   8.728  67.930  1.00  0.00    -0.126 A  
HETATM    6  C   UNL     1      -9.210   9.923  68.241  1.00  0.00    -0.130 A  
HETATM    7  C   UNL     1      -7.831   7.918  69.048  1.00  0.00    -0.110 C  
HETATM    8  C   UNL     1      -9.905  10.688  67.276  1.00  0.00    -0.206 A  
HETATM    9  C   UNL     1      -6.555   8.658  69.517  1.00  0.00    -0.040 C  
HETATM   10  C   UNL     1      -8.759   7.726  70.264  1.00  0.00    -0.143 C  
HETATM   11  C   UNL     1      -7.445   6.494  68.571  1.00  0.00    -0.088 C  
HETATM   12  C   UNL     1      -8.725   5.996  65.710  1.00  0.00    -0.155 C  
HETATM   13  C   UNL     1      -6.763   6.509  67.214  1.00  0.00    -0.060 C  
HETATM   14  C   UNL     1      -6.789   7.358  64.889  1.00  0.00    -0.050 C  
HETATM   15  C   UNL     1      -7.689   7.069  66.114  1.00  0.00    -0.095 C  
ENDROOT
BRANCH   8  16
HETATM   16  C   UNL     1     -10.588  11.948  67.719  1.00  0.00    -0.233 C  
HETATM   17  C   UNL     1     -11.768  11.758  68.343  1.00  0.00    -0.389 C  
BRANCH  16  18
HETATM   18  C   UNL     1     -10.194  13.350  67.353  1.00  0.00    -0.237 A  
HETATM   19  C   UNL     1      -8.940  13.909  67.682  1.00  0.00    -0.192 A  
HETATM   20  C   UNL     1      -8.655  15.268  67.452  1.00  0.00    -0.197 A  
HETATM   21  C   UNL     1      -9.626  16.096  66.888  1.00  0.00    -0.243 A  
HETATM   22  C   UNL     1     -10.838  15.536  66.475  1.00  0.00    -0.284 A  
HETATM   23  C   UNL     1      -9.424  17.555  66.665  1.00  0.00    -0.275 C  
HETATM   24  C   UNL     1     -11.112  14.181  66.696  1.00  0.00    -0.314 A  
HETATM   25  O   UNL     1      -8.597  18.147  67.554  1.00  0.00    -0.245 OA 
HETATM   26  O   UNL     1     -10.000  18.174  65.788  1.00  0.00    -0.547 OA 
ENDBRANCH  16  18
ENDBRANCH   8  16
TORSDOF 2
ENDMDL
MODEL       86
REMARK 921   NORMALIZED FREE ENERGY PREDICTED BY IDOCK:   -5.50 KCAL/MOL
REMARK 922        TOTAL FREE ENERGY PREDICTED BY IDOCK:   -6.29 KCAL/MOL
REMARK 923 INTER-LIGAND FREE ENERGY PREDICTED BY IDOCK:   -5.52 KCAL/MOL
REMARK 924 INTRA-LIGAND FREE ENERGY PREDICTED BY IDOCK:   -0.77 KCAL/MOL
REMARK 927      BINDING AFFINITY PREDICTED BY RF-SCORE:    0.00 PKD
ROOT
HETATM    1  C   UNL     1     -11.360   6.403  68.971  1.00  0.00    -0.332 C  
HETATM    2  C   UNL     1     -10.398   6.696  70.090  1.00  0.00    -0.236 A  
HETATM    3  C   UNL     1      -9.672   5.610  70.615  1.00  0.00    -0.232 A  
HETATM    4  C   UNL     1      -8.714   5.741  71.641  1.00  0.00    -0.136 A  
HETATM    5  C   UNL     1      -8.488   7.024  72.180  1.00  0.00    -0.116 A  
HETATM    6  C   UNL     1      -9.187   8.122  71.613  1.00  0.00    -0.220 A  
HETATM    7  C   UNL     1      -7.503   7.252  73.339  1.00  0.00    -0.088 C  
HETATM    8  C   UNL     1     -10.150   7.983  70.587  1.00  0.00    -0.203 A  
HETATM    9  C   UNL     1      -6.214   7.913  72.793  1.00  0.00    -0.066 C  
HETATM   10  C   UNL     1      -8.097   8.166  74.430  1.00  0.00    -0.291 C  
HETATM   11  C   UNL     1      -7.132   5.922  74.045  1.00  0.00    -0.081 C  
HETATM   12  C   UNL     1      -9.014   3.620  72.938  1.00  0.00    -0.109 C  
HETATM   13  C   UNL     1      -6.796   4.821  73.055  1.00  0.00    -0.071 C  
HETATM   14  C   UNL     1      -7.441   3.624  70.986  1.00  0.00    -0.037 C  
HETATM   15  C   UNL     1      -7.999   4.479  72.150  1.00  0.00    -0.100 C  
ENDROOT
BRANCH   8  16
HETATM   16  C   UNL     1     -10.804   9.220  70.047  1.00  0.00    -0.264 C  
HETATM   17  C   UNL     1     -11.819   9.694  70.799  1.00  0.00    -0.378 C  
BRANCH  16  18
HETATM   18  C   UNL     1     -10.579   9.828  68.692  1.00  0.00    -0.249 A  
HETATM   19  C   UNL     1     -11.265  10.974  68.238  1.00  0.00    -0.340 A  
HETATM   20  C   UNL     1     -11.138  11.435  66.914  1.00  0.00    -0.356 A  
HETATM   21  C   UNL     1     -10.319  10.750  66.015  1.00  0.00    -0.300 A  
HETATM   22  C   UNL     1      -9.566   9.666  66.475  1.00  0.00    -0.252 A  
HETATM   23  C   UNL     1     -10.175  11.136  64.585  1.00  0.00    -0.317 C  
HETATM   24  C   UNL     1      -9.687   9.219  67.797  1.00  0.00    -0.182 A  
HETATM   25  O   UNL     1     -11.271  11.717  64.049  1.00  0.00    -0.361 OA 
HETATM   26  O   UNL     1      -9.172  10.900  63.935  1.00  0.00    -0.205 OA 
ENDBRANCH  16  18
ENDBRANCH   8  16
TORSDOF 2
ENDMDL
MODEL       87
REMARK 921   NORMALIZED FREE ENERGY PREDICTED BY IDOCK:   -5.50 KCAL/MOL
REMARK 922        TOTAL FREE ENERGY PREDICTED BY IDOCK:   -6.29 KCAL/MOL
REMARK 923 INTER-LIGAND FREE ENERGY PREDICTED BY IDOCK:   -5.44 KCAL/MOL
REMARK 924 INTRA-LIGAND FREE ENERGY PREDICTED BY IDOCK:   -0.85 KCAL/MOL
REMARK 927      BINDING AFFINITY PREDICTED BY RF-SCORE:    0.00 PKD
ROOT
HETATM    1  C   UNL     1      -7.453   8.407  70.809  1.00  0.00    -0.065 C  
HETATM    2  C   UNL     1      -8.383   9.419  70.197  1.00  0.00    -0.197 A  
HETATM    3  C   UNL     1      -7.798  10.467  69.460  1.00  0.00    -0.161 A  
HETATM    4  C   UNL     1      -8.547  11.466  68.805  1.00  0.00    -0.085 A  
HETATM    5  C   UNL     1      -9.952  11.422  68.912  1.00  0.00    -0.146 A  
HETATM    6  C   UNL     1     -10.537  10.336  69.616  1.00  0.00    -0.288 A  
HETATM    7  C   UNL     1     -10.845  12.500  68.278  1.00  0.00    -0.258 C  
HETATM    8  C   UNL     1      -9.780   9.339  70.274  1.00  0.00    -0.274 A  
HETATM    9  C   UNL     1     -11.525  11.924  67.013  1.00  0.00    -0.384 C  
HETATM   10  C   UNL     1     -11.944  12.983  69.247  1.00  0.00    -0.331 C  
HETATM   11  C   UNL     1     -10.031  13.761  67.887  1.00  0.00    -0.240 C  
HETATM   12  C   UNL     1      -7.102  13.492  69.076  1.00  0.00    -0.066 C  
HETATM   13  C   UNL     1      -8.744  13.410  67.161  1.00  0.00    -0.220 C  
HETATM   14  C   UNL     1      -6.714  11.995  67.105  1.00  0.00    -0.136 C  
HETATM   15  C   UNL     1      -7.797  12.574  68.047  1.00  0.00    -0.147 C  
ENDROOT
BRANCH   8  16
HETATM   16  C   UNL     1     -10.510   8.224  70.962  1.00  0.00    -0.241 C  
HETATM   17  C   UNL     1     -11.280   8.611  72.000  1.00  0.00    -0.434 C  
BRANCH  16  18
HETATM   18  C   UNL     1     -10.300   6.753  70.743  1.00  0.00    -0.227 A  
HETATM   19  C   UNL     1      -9.985   5.856  71.785  1.00  0.00    -0.200 A  
HETATM   20  C   UNL     1      -9.655   4.512  71.528  1.00  0.00    -0.227 A  
HETATM   21  C   UNL     1      -9.630   4.041  70.215  1.00  0.00    -0.271 A  
HETATM   22  C   UNL     1     -10.026   4.895  69.182  1.00  0.00    -0.252 A  
HETATM   23  C   UNL     1      -9.236   2.652  69.853  1.00  0.00    -0.135 C  
HETATM   24  C   UNL     1     -10.365   6.228  69.445  1.00  0.00    -0.266 A  
HETATM   25  O   UNL     1      -8.337   2.089  70.691  1.00  0.00    -0.048 OA 
HETATM   26  O   UNL     1      -9.646   2.087  68.855  1.00  0.00    -0.134 OA 
ENDBRANCH  16  18
ENDBRANCH   8  16
TORSDOF 2
ENDMDL
MODEL       88
REMARK 921   NORMALIZED FREE ENERGY PREDICTED BY IDOCK:   -5.48 KCAL/MOL
REMARK 922        TOTAL FREE ENERGY PREDICTED BY IDOCK:   -6.27 KCAL/MOL
REMARK 923 INTER-LIGAND FREE ENERGY PREDICTED BY IDOCK:   -5.82 KCAL/MOL
REMARK 924 INTRA-LIGAND FREE ENERGY PREDICTED BY IDOCK:   -0.45 KCAL/MOL
REMARK 927      BINDING AFFINITY PREDICTED BY RF-SCORE:    0.00 PKD
ROOT
HETATM    1  C   UNL     1     -10.923  15.291  66.959  1.00  0.00    -0.324 C  
HETATM    2  C   UNL     1     -11.296  14.170  67.891  1.00  0.00    -0.318 A  
HETATM    3  C   UNL     1     -11.931  14.521  69.098  1.00  0.00    -0.344 A  
HETATM    4  C   UNL     1     -12.366  13.576  70.049  1.00  0.00    -0.315 A  
HETATM    5  C   UNL     1     -12.133  12.211  69.784  1.00  0.00    -0.306 A  
HETATM    6  C   UNL     1     -11.536  11.860  68.544  1.00  0.00    -0.375 A  
HETATM    7  C   UNL     1     -12.523  11.115  70.790  1.00  0.00    -0.479 C  
HETATM    8  C   UNL     1     -11.099  12.814  67.596  1.00  0.00    -0.294 A  
HETATM    9  C   UNL     1     -13.786  10.379  70.282  1.00  0.00     0.950 C  
HETATM   10  C   UNL     1     -11.396  10.079  70.980  1.00  0.00    -0.434 C  
HETATM   11  C   UNL     1     -12.809  11.703  72.196  1.00  0.00    -0.073 C  
HETATM   12  C   UNL     1     -11.951  14.758  72.217  1.00  0.00    -0.323 C  
HETATM   13  C   UNL     1     -13.695  12.934  72.133  1.00  0.00    -0.505 C  
HETATM   14  C   UNL     1     -14.141  15.117  71.053  1.00  0.00    -0.348 C  
HETATM   15  C   UNL     1     -13.028  14.080  71.342  1.00  0.00    -0.427 C  
ENDROOT
BRANCH   8  16
HETATM   16  C   UNL     1     -10.508  12.323  66.308  1.00  0.00    -0.266 C  
HETATM   17  C   UNL     1     -11.115  12.789  65.197  1.00  0.00    -0.323 C  
BRANCH  16  18
HETATM   18  C   UNL     1      -9.482  11.237  66.156  1.00  0.00    -0.232 A  
HETATM   19  C   UNL     1      -9.779   9.966  65.621  1.00  0.00    -0.346 A  
HETATM   20  C   UNL     1      -8.832   8.925  65.623  1.00  0.00    -0.230 A  
HETATM   21  C   UNL     1      -7.565   9.138  66.166  1.00  0.00    -0.095 A  
HETATM   22  C   UNL     1      -7.228  10.417  66.617  1.00  0.00    -0.113 A  
HETATM   23  C   UNL     1      -6.527   8.075  66.259  1.00  0.00    -0.047 C  
HETATM   24  C   UNL     1      -8.170  11.453  66.602  1.00  0.00    -0.163 A  
HETATM   25  O   UNL     1      -7.018   6.824  66.401  1.00  0.00    -0.059 OA 
HETATM   26  O   UNL     1      -5.333   8.316  66.262  1.00  0.00    -0.027 OA 
ENDBRANCH  16  18
ENDBRANCH   8  16
TORSDOF 2
ENDMDL
MODEL       89
REMARK 921   NORMALIZED FREE ENERGY PREDICTED BY IDOCK:   -5.46 KCAL/MOL
REMARK 922        TOTAL FREE ENERGY PREDICTED BY IDOCK:   -6.25 KCAL/MOL
REMARK 923 INTER-LIGAND FREE ENERGY PREDICTED BY IDOCK:   -5.56 KCAL/MOL
REMARK 924 INTRA-LIGAND FREE ENERGY PREDICTED BY IDOCK:   -0.69 KCAL/MOL
REMARK 927      BINDING AFFINITY PREDICTED BY RF-SCORE:    0.00 PKD
ROOT
HETATM    1  C   UNL     1     -12.270  12.863  68.248  1.00  0.00    -0.003 C  
HETATM    2  C   UNL     1     -11.643  11.703  68.971  1.00  0.00    -0.379 A  
HETATM    3  C   UNL     1     -12.483  10.928  69.795  1.00  0.00    -0.250 A  
HETATM    4  C   UNL     1     -12.039   9.794  70.506  1.00  0.00    -0.244 A  
HETATM    5  C   UNL     1     -10.681   9.432  70.400  1.00  0.00    -0.317 A  
HETATM    6  C   UNL     1      -9.851  10.188  69.530  1.00  0.00    -0.255 A  
HETATM    7  C   UNL     1     -10.098   8.244  71.183  1.00  0.00    -0.237 C  
HETATM    8  C   UNL     1     -10.301  11.327  68.823  1.00  0.00    -0.223 A  
HETATM    9  C   UNL     1      -9.868   7.057  70.218  1.00  0.00    -0.180 C  
HETATM   10  C   UNL     1      -8.755   8.597  71.853  1.00  0.00    -0.256 C  
HETATM   11  C   UNL     1     -11.044   7.792  72.326  1.00  0.00    -0.355 C  
HETATM   12  C   UNL     1     -13.381   9.918  72.616  1.00  0.00     0.035 C  
HETATM   13  C   UNL     1     -12.487   7.680  71.867  1.00  0.00    -0.338 C  
HETATM   14  C   UNL     1     -14.360   8.732  70.638  1.00  0.00     0.569 C  
HETATM   15  C   UNL     1     -13.043   9.039  71.392  1.00  0.00    -0.337 C  
ENDROOT
BRANCH   8  16
HETATM   16  C   UNL     1      -9.339  12.029  67.911  1.00  0.00    -0.190 C  
HETATM   17  C   UNL     1      -8.396  11.232  67.368  1.00  0.00    -0.137 C  
BRANCH  16  18
HETATM   18  C   UNL     1      -9.208  13.513  67.727  1.00  0.00    -0.213 A  
HETATM   19  C   UNL     1      -8.937  14.401  68.790  1.00  0.00    -0.131 A  
HETATM   20  C   UNL     1      -8.961  15.796  68.611  1.00  0.00    -0.204 A  
HETATM   21  C   UNL     1      -9.262  16.332  67.358  1.00  0.00    -0.217 A  
HETATM   22  C   UNL     1      -9.444  15.465  66.277  1.00  0.00    -0.342 A  
HETATM   23  C   UNL     1      -9.365  17.794  67.099  1.00  0.00    -0.264 C  
HETATM   24  C   UNL     1      -9.407  14.076  66.459  1.00  0.00    -0.274 A  
HETATM   25  O   UNL     1      -9.780  18.522  68.159  1.00  0.00    -0.307 OA 
HETATM   26  O   UNL     1      -9.146  18.288  66.007  1.00  0.00    -0.510 OA 
ENDBRANCH  16  18
ENDBRANCH   8  16
TORSDOF 2
ENDMDL
MODEL       90
REMARK 921   NORMALIZED FREE ENERGY PREDICTED BY IDOCK:   -5.42 KCAL/MOL
REMARK 922        TOTAL FREE ENERGY PREDICTED BY IDOCK:   -6.20 KCAL/MOL
REMARK 923 INTER-LIGAND FREE ENERGY PREDICTED BY IDOCK:   -5.39 KCAL/MOL
REMARK 924 INTRA-LIGAND FREE ENERGY PREDICTED BY IDOCK:   -0.81 KCAL/MOL
REMARK 927      BINDING AFFINITY PREDICTED BY RF-SCORE:    0.00 PKD
ROOT
HETATM    1  C   UNL     1      -7.755   9.540  68.007  1.00  0.00    -0.087 C  
HETATM    2  C   UNL     1      -8.416   8.776  69.121  1.00  0.00    -0.123 A  
HETATM    3  C   UNL     1      -7.605   7.902  69.871  1.00  0.00    -0.089 A  
HETATM    4  C   UNL     1      -8.081   7.148  70.963  1.00  0.00    -0.104 A  
HETATM    5  C   UNL     1      -9.443   7.262  71.307  1.00  0.00    -0.156 A  
HETATM    6  C   UNL     1     -10.244   8.182  70.579  1.00  0.00    -0.207 A  
HETATM    7  C   UNL     1     -10.061   6.437  72.447  1.00  0.00    -0.191 C  
HETATM    8  C   UNL     1      -9.761   8.932  69.481  1.00  0.00    -0.173 A  
HETATM    9  C   UNL     1     -10.295   7.350  73.674  1.00  0.00    -0.367 C  
HETATM   10  C   UNL     1     -11.410   5.809  72.041  1.00  0.00    -0.289 C  
HETATM   11  C   UNL     1      -9.144   5.256  72.861  1.00  0.00    -0.125 C  
HETATM   12  C   UNL     1      -6.775   5.021  70.764  1.00  0.00    -0.036 C  
HETATM   13  C   UNL     1      -7.695   5.683  73.020  1.00  0.00    -0.101 C  
HETATM   14  C   UNL     1      -5.782   6.924  72.057  1.00  0.00    -0.037 C  
HETATM   15  C   UNL     1      -7.106   6.209  71.694  1.00  0.00    -0.082 C  
ENDROOT
BRANCH   8  16
HETATM   16  C   UNL     1     -10.694   9.893  68.806  1.00  0.00    -0.247 C  
HETATM   17  C   UNL     1     -11.155   9.482  67.607  1.00  0.00    -0.009 C  
BRANCH  16  18
HETATM   18  C   UNL     1     -10.978  11.305  69.231  1.00  0.00    -0.297 A  
HETATM   19  C   UNL     1     -11.899  11.633  70.249  1.00  0.00    -0.414 A  
HETATM   20  C   UNL     1     -12.248  12.968  70.526  1.00  0.00    -0.392 A  
HETATM   21  C   UNL     1     -11.681  14.004  69.782  1.00  0.00    -0.375 A  
HETATM   22  C   UNL     1     -10.702  13.699  68.833  1.00  0.00    -0.237 A  
HETATM   23  C   UNL     1     -12.039  15.436  69.973  1.00  0.00    -0.359 C  
HETATM   24  C   UNL     1     -10.350  12.369  68.569  1.00  0.00    -0.232 A  
HETATM   25  O   UNL     1     -13.308  15.645  70.391  1.00  0.00    -0.338 OA 
HETATM   26  O   UNL     1     -11.272  16.348  69.721  1.00  0.00    -0.325 OA 
ENDBRANCH  16  18
ENDBRANCH   8  16
TORSDOF 2
ENDMDL
MODEL       91
REMARK 921   NORMALIZED FREE ENERGY PREDICTED BY IDOCK:   -5.40 KCAL/MOL
REMARK 922        TOTAL FREE ENERGY PREDICTED BY IDOCK:   -6.18 KCAL/MOL
REMARK 923 INTER-LIGAND FREE ENERGY PREDICTED BY IDOCK:   -5.49 KCAL/MOL
REMARK 924 INTRA-LIGAND FREE ENERGY PREDICTED BY IDOCK:   -0.69 KCAL/MOL
REMARK 927      BINDING AFFINITY PREDICTED BY RF-SCORE:    0.00 PKD
ROOT
HETATM    1  C   UNL     1      -8.422  10.450  69.443  1.00  0.00    -0.145 C  
HETATM    2  C   UNL     1      -9.169  11.044  68.280  1.00  0.00    -0.165 A  
HETATM    3  C   UNL     1      -8.998  12.422  68.042  1.00  0.00    -0.194 A  
HETATM    4  C   UNL     1      -9.609  13.106  66.971  1.00  0.00    -0.241 A  
HETATM    5  C   UNL     1     -10.450  12.374  66.108  1.00  0.00    -0.274 A  
HETATM    6  C   UNL     1     -10.580  10.976  66.324  1.00  0.00    -0.295 A  
HETATM    7  C   UNL     1     -11.201  13.048  64.948  1.00  0.00    -0.329 C  
HETATM    8  C   UNL     1      -9.967  10.297  67.403  1.00  0.00    -0.230 A  
HETATM    9  C   UNL     1     -10.514  12.681  63.611  1.00  0.00    -0.348 C  
HETATM   10  C   UNL     1     -12.676  12.602  64.879  1.00  0.00    -0.450 C  
HETATM   11  C   UNL     1     -11.224  14.591  65.101  1.00  0.00    -0.367 C  
HETATM   12  C   UNL     1     -10.100  15.349  67.969  1.00  0.00    -0.226 C  
HETATM   13  C   UNL     1      -9.860  15.152  65.464  1.00  0.00    -0.356 C  
HETATM   14  C   UNL     1      -7.861  14.968  66.911  1.00  0.00    -0.056 C  
HETATM   15  C   UNL     1      -9.365  14.617  66.824  1.00  0.00    -0.275 C  
ENDROOT
BRANCH   8  16
HETATM   16  C   UNL     1     -10.154   8.813  67.513  1.00  0.00    -0.281 C  
HETATM   17  C   UNL     1     -10.868   8.414  68.586  1.00  0.00     0.027 C  
BRANCH  16  18
HETATM   18  C   UNL     1      -9.465   7.766  66.688  1.00  0.00    -0.263 A  
HETATM   19  C   UNL     1      -8.499   8.071  65.705  1.00  0.00    -0.159 A  
HETATM   20  C   UNL     1      -7.976   7.081  64.852  1.00  0.00    -0.127 A  
HETATM   21  C   UNL     1      -8.415   5.762  64.965  1.00  0.00    -0.124 A  
HETATM   22  C   UNL     1      -9.304   5.430  65.992  1.00  0.00    -0.167 A  
HETATM   23  C   UNL     1      -7.956   4.668  64.066  1.00  0.00    -0.095 C  
HETATM   24  C   UNL     1      -9.812   6.416  66.846  1.00  0.00    -0.202 A  
HETATM   25  O   UNL     1      -7.634   5.070  62.816  1.00  0.00    -0.056 OA 
HETATM   26  O   UNL     1      -7.924   3.500  64.409  1.00  0.00    -0.084 OA 
ENDBRANCH  16  18
ENDBRANCH   8  16
TORSDOF 2
ENDMDL
MODEL       92
REMARK 921   NORMALIZED FREE ENERGY PREDICTED BY IDOCK:   -5.39 KCAL/MOL
REMARK 922        TOTAL FREE ENERGY PREDICTED BY IDOCK:   -6.16 KCAL/MOL
REMARK 923 INTER-LIGAND FREE ENERGY PREDICTED BY IDOCK:   -6.82 KCAL/MOL
REMARK 924 INTRA-LIGAND FREE ENERGY PREDICTED BY IDOCK:    0.66 KCAL/MOL
REMARK 927      BINDING AFFINITY PREDICTED BY RF-SCORE:    0.00 PKD
ROOT
HETATM    1  C   UNL     1     -13.106  14.513  70.336  1.00  0.00    -0.133 C  
HETATM    2  C   UNL     1     -12.332  13.616  69.409  1.00  0.00    -0.199 A  
HETATM    3  C   UNL     1     -11.826  14.194  68.228  1.00  0.00    -0.391 A  
HETATM    4  C   UNL     1     -11.056  13.483  67.285  1.00  0.00    -0.302 A  
HETATM    5  C   UNL     1     -10.799  12.119  67.529  1.00  0.00    -0.283 A  
HETATM    6  C   UNL     1     -11.270  11.554  68.744  1.00  0.00    -0.309 A  
HETATM    7  C   UNL     1     -10.016  11.252  66.529  1.00  0.00    -0.247 C  
HETATM    8  C   UNL     1     -12.045  12.272  69.684  1.00  0.00    -0.277 A  
HETATM    9  C   UNL     1      -8.591  11.000  67.075  1.00  0.00    -0.140 C  
HETATM   10  C   UNL     1     -10.697   9.889  66.290  1.00  0.00     0.013 C  
HETATM   11  C   UNL     1      -9.915  11.933  65.139  1.00  0.00    -0.276 C  
HETATM   12  C   UNL     1     -11.797  14.487  65.114  1.00  0.00    -0.374 C  
HETATM   13  C   UNL     1      -9.523  13.396  65.244  1.00  0.00     0.306 C  
HETATM   14  C   UNL     1      -9.912  15.572  66.359  1.00  0.00    -0.300 C  
HETATM   15  C   UNL     1     -10.576  14.215  66.021  1.00  0.00    -0.297 C  
ENDROOT
BRANCH   8  16
HETATM   16  C   UNL     1     -12.463  11.577  70.946  1.00  0.00    -0.464 C  
HETATM   17  C   UNL     1     -13.180  12.339  71.797  1.00  0.00    -0.428 C  
BRANCH  16  18
HETATM   18  C   UNL     1     -11.990  10.234  71.421  1.00  0.00    -0.419 A  
HETATM   19  C   UNL     1     -10.687   9.746  71.183  1.00  0.00    -0.284 A  
HETATM   20  C   UNL     1     -10.319   8.430  71.516  1.00  0.00    -0.296 A  
HETATM   21  C   UNL     1     -11.255   7.570  72.093  1.00  0.00    -0.313 A  
HETATM   22  C   UNL     1     -12.521   8.067  72.416  1.00  0.00    -0.256 A  
HETATM   23  C   UNL     1     -10.964   6.148  72.421  1.00  0.00    -0.259 C  
HETATM   24  C   UNL     1     -12.879   9.382  72.093  1.00  0.00    -0.480 A  
HETATM   25  O   UNL     1     -10.057   5.561  71.610  1.00  0.00    -0.182 OA 
HETATM   26  O   UNL     1     -11.536   5.545  73.312  1.00  0.00    -0.230 OA 
ENDBRANCH  16  18
ENDBRANCH   8  16
TORSDOF 2
ENDMDL
MODEL       93
REMARK 921   NORMALIZED FREE ENERGY PREDICTED BY IDOCK:   -5.37 KCAL/MOL
REMARK 922        TOTAL FREE ENERGY PREDICTED BY IDOCK:   -6.15 KCAL/MOL
REMARK 923 INTER-LIGAND FREE ENERGY PREDICTED BY IDOCK:   -5.26 KCAL/MOL
REMARK 924 INTRA-LIGAND FREE ENERGY PREDICTED BY IDOCK:   -0.89 KCAL/MOL
REMARK 927      BINDING AFFINITY PREDICTED BY RF-SCORE:    0.00 PKD
ROOT
HETATM    1  C   UNL     1      -6.774  10.466  64.225  1.00  0.00     0.003 C  
HETATM    2  C   UNL     1      -7.637   9.599  65.100  1.00  0.00    -0.114 A  
HETATM    3  C   UNL     1      -7.022   8.493  65.717  1.00  0.00    -0.071 A  
HETATM    4  C   UNL     1      -7.699   7.614  66.587  1.00  0.00    -0.098 A  
HETATM    5  C   UNL     1      -9.067   7.846  66.835  1.00  0.00    -0.172 A  
HETATM    6  C   UNL     1      -9.670   8.991  66.249  1.00  0.00    -0.345 A  
HETATM    7  C   UNL     1      -9.898   6.908  67.725  1.00  0.00    -0.161 C  
HETATM    8  C   UNL     1      -8.986   9.866  65.373  1.00  0.00    -0.220 A  
HETATM    9  C   UNL     1     -10.152   7.590  69.091  1.00  0.00    -0.192 C  
HETATM   10  C   UNL     1     -11.260   6.564  67.089  1.00  0.00    -0.313 C  
HETATM   11  C   UNL     1      -9.178   5.555  67.960  1.00  0.00    -0.114 C  
HETATM   12  C   UNL     1      -6.641   5.406  66.060  1.00  0.00    -0.048 C  
HETATM   13  C   UNL     1      -7.714   5.739  68.321  1.00  0.00    -0.093 C  
HETATM   14  C   UNL     1      -5.574   6.866  67.794  1.00  0.00    -0.016 C  
HETATM   15  C   UNL     1      -6.927   6.426  67.185  1.00  0.00    -0.071 C  
ENDROOT
BRANCH   8  16
HETATM   16  C   UNL     1      -9.720  11.060  64.838  1.00  0.00    -0.303 C  
HETATM   17  C   UNL     1     -10.215  10.903  63.593  1.00  0.00    -0.395 C  
BRANCH  16  18
HETATM   18  C   UNL     1      -9.763  12.428  65.454  1.00  0.00    -0.129 A  
HETATM   19  C   UNL     1      -9.424  12.679  66.801  1.00  0.00    -0.237 A  
HETATM   20  C   UNL     1      -9.611  13.945  67.386  1.00  0.00    -0.235 A  
HETATM   21  C   UNL     1     -10.147  14.988  66.630  1.00  0.00    -0.267 A  
HETATM   22  C   UNL     1     -10.403  14.779  65.272  1.00  0.00    -0.425 A  
HETATM   23  C   UNL     1     -10.429  16.339  67.188  1.00  0.00    -0.297 C  
HETATM   24  C   UNL     1     -10.204  13.520  64.692  1.00  0.00    -0.341 A  
HETATM   25  O   UNL     1     -10.750  16.346  68.501  1.00  0.00    -0.284 OA 
HETATM   26  O   UNL     1     -10.426  17.349  66.507  1.00  0.00    -0.321 OA 
ENDBRANCH  16  18
ENDBRANCH   8  16
TORSDOF 2
ENDMDL
MODEL       94
REMARK 921   NORMALIZED FREE ENERGY PREDICTED BY IDOCK:   -5.36 KCAL/MOL
REMARK 922        TOTAL FREE ENERGY PREDICTED BY IDOCK:   -6.13 KCAL/MOL
REMARK 923 INTER-LIGAND FREE ENERGY PREDICTED BY IDOCK:   -5.25 KCAL/MOL
REMARK 924 INTRA-LIGAND FREE ENERGY PREDICTED BY IDOCK:   -0.88 KCAL/MOL
REMARK 927      BINDING AFFINITY PREDICTED BY RF-SCORE:    0.00 PKD
ROOT
HETATM    1  C   UNL     1      -6.266   8.319  67.619  1.00  0.00    -0.052 C  
HETATM    2  C   UNL     1      -7.478   8.475  68.496  1.00  0.00    -0.094 A  
HETATM    3  C   UNL     1      -8.374   7.389  68.556  1.00  0.00    -0.126 A  
HETATM    4  C   UNL     1      -9.532   7.382  69.360  1.00  0.00    -0.155 A  
HETATM    5  C   UNL     1      -9.815   8.531  70.127  1.00  0.00    -0.184 A  
HETATM    6  C   UNL     1      -8.884   9.602  70.101  1.00  0.00    -0.266 A  
HETATM    7  C   UNL     1     -11.084   8.633  70.989  1.00  0.00    -0.316 C  
HETATM    8  C   UNL     1      -7.726   9.604  69.288  1.00  0.00    -0.095 A  
HETATM    9  C   UNL     1     -10.706   8.466  72.481  1.00  0.00    -0.372 C  
HETATM   10  C   UNL     1     -11.793   9.992  70.814  1.00  0.00    -0.435 C  
HETATM   11  C   UNL     1     -12.126   7.551  70.606  1.00  0.00    -0.116 C  
HETATM   12  C   UNL     1     -11.159   6.098  67.956  1.00  0.00    -0.316 C  
HETATM   13  C   UNL     1     -11.498   6.176  70.457  1.00  0.00    -0.330 C  
HETATM   14  C   UNL     1      -9.648   4.834  69.505  1.00  0.00    -0.250 C  
HETATM   15  C   UNL     1     -10.447   6.148  69.326  1.00  0.00    -0.314 C  
ENDROOT
BRANCH   8  16
HETATM   16  C   UNL     1      -6.800  10.782  69.366  1.00  0.00    -0.109 C  
HETATM   17  C   UNL     1      -5.857  10.694  70.326  1.00  0.00    -0.096 C  
BRANCH  16  18
HETATM   18  C   UNL     1      -6.959  12.088  68.642  1.00  0.00    -0.096 A  
HETATM   19  C   UNL     1      -5.967  13.092  68.638  1.00  0.00    -0.071 A  
HETATM   20  C   UNL     1      -6.201  14.358  68.071  1.00  0.00    -0.162 A  
HETATM   21  C   UNL     1      -7.441  14.646  67.499  1.00  0.00    -0.217 A  
HETATM   22  C   UNL     1      -8.400  13.633  67.418  1.00  0.00    -0.198 A  
HETATM   23  C   UNL     1      -7.789  15.978  66.931  1.00  0.00    -0.249 C  
HETATM   24  C   UNL     1      -8.157  12.370  67.972  1.00  0.00    -0.162 A  
HETATM   25  O   UNL     1      -7.165  17.019  67.525  1.00  0.00    -0.144 OA 
HETATM   26  O   UNL     1      -8.608  16.123  66.042  1.00  0.00    -0.330 OA 
ENDBRANCH  16  18
ENDBRANCH   8  16
TORSDOF 2
ENDMDL
MODEL       95
REMARK 921   NORMALIZED FREE ENERGY PREDICTED BY IDOCK:   -5.34 KCAL/MOL
REMARK 922        TOTAL FREE ENERGY PREDICTED BY IDOCK:   -6.11 KCAL/MOL
REMARK 923 INTER-LIGAND FREE ENERGY PREDICTED BY IDOCK:   -5.80 KCAL/MOL
REMARK 924 INTRA-LIGAND FREE ENERGY PREDICTED BY IDOCK:   -0.31 KCAL/MOL
REMARK 927      BINDING AFFINITY PREDICTED BY RF-SCORE:    0.00 PKD
ROOT
HETATM    1  C   UNL     1      -7.470   7.559  67.169  1.00  0.00    -0.099 C  
HETATM    2  C   UNL     1      -8.533   7.488  68.230  1.00  0.00    -0.125 A  
HETATM    3  C   UNL     1      -8.373   6.517  69.238  1.00  0.00    -0.123 A  
HETATM    4  C   UNL     1      -9.272   6.358  70.312  1.00  0.00    -0.158 A  
HETATM    5  C   UNL     1     -10.399   7.203  70.367  1.00  0.00    -0.216 A  
HETATM    6  C   UNL     1     -10.529   8.213  69.376  1.00  0.00    -0.223 A  
HETATM    7  C   UNL     1     -11.460   7.065  71.470  1.00  0.00    -0.306 C  
HETATM    8  C   UNL     1      -9.625   8.364  68.298  1.00  0.00    -0.156 A  
HETATM    9  C   UNL     1     -11.295   8.218  72.489  1.00  0.00    -0.455 C  
HETATM   10  C   UNL     1     -12.893   7.115  70.903  1.00  0.00    -0.180 C  
HETATM   11  C   UNL     1     -11.338   5.710  72.215  1.00  0.00    -0.300 C  
HETATM   12  C   UNL     1      -9.259   3.879  70.668  1.00  0.00    -0.197 C  
HETATM   13  C   UNL     1      -9.902   5.387  72.588  1.00  0.00    -0.184 C  
HETATM   14  C   UNL     1      -7.543   5.272  71.849  1.00  0.00    -0.097 C  
HETATM   15  C   UNL     1      -9.005   5.247  71.341  1.00  0.00    -0.156 C  
ENDROOT
BRANCH   8  16
HETATM   16  C   UNL     1      -9.851   9.485  67.328  1.00  0.00    -0.228 C  
HETATM   17  C   UNL     1      -9.738   9.137  66.030  1.00  0.00    -0.358 C  
BRANCH  16  18
HETATM   18  C   UNL     1      -9.973  10.943  67.666  1.00  0.00    -0.197 A  
HETATM   19  C   UNL     1      -8.866  11.817  67.720  1.00  0.00    -0.163 A  
HETATM   20  C   UNL     1      -8.994  13.142  68.176  1.00  0.00    -0.195 A  
HETATM   21  C   UNL     1     -10.238  13.618  68.593  1.00  0.00    -0.199 A  
HETATM   22  C   UNL     1     -11.358  12.792  68.460  1.00  0.00    -0.326 A  
HETATM   23  C   UNL     1     -10.447  14.986  69.142  1.00  0.00    -0.247 C  
HETATM   24  C   UNL     1     -11.227  11.478  67.994  1.00  0.00    -0.335 A  
HETATM   25  O   UNL     1      -9.380  15.494  69.797  1.00  0.00    -0.274 OA 
HETATM   26  O   UNL     1     -11.509  15.576  69.058  1.00  0.00    -0.306 OA 
ENDBRANCH  16  18
ENDBRANCH   8  16
TORSDOF 2
ENDMDL
MODEL       96
REMARK 921   NORMALIZED FREE ENERGY PREDICTED BY IDOCK:   -5.31 KCAL/MOL
REMARK 922        TOTAL FREE ENERGY PREDICTED BY IDOCK:   -6.08 KCAL/MOL
REMARK 923 INTER-LIGAND FREE ENERGY PREDICTED BY IDOCK:   -5.17 KCAL/MOL
REMARK 924 INTRA-LIGAND FREE ENERGY PREDICTED BY IDOCK:   -0.90 KCAL/MOL
REMARK 927      BINDING AFFINITY PREDICTED BY RF-SCORE:    0.00 PKD
ROOT
HETATM    1  C   UNL     1     -10.301  14.227  67.899  1.00  0.00    -0.233 C  
HETATM    2  C   UNL     1      -9.243  13.215  67.556  1.00  0.00    -0.206 A  
HETATM    3  C   UNL     1      -9.651  12.078  66.832  1.00  0.00    -0.209 A  
HETATM    4  C   UNL     1      -8.763  11.065  66.415  1.00  0.00    -0.174 A  
HETATM    5  C   UNL     1      -7.402  11.190  66.758  1.00  0.00    -0.146 A  
HETATM    6  C   UNL     1      -6.989  12.362  67.445  1.00  0.00    -0.149 A  
HETATM    7  C   UNL     1      -6.373  10.107  66.393  1.00  0.00    -0.077 C  
HETATM    8  C   UNL     1      -7.885  13.373  67.865  1.00  0.00    -0.152 A  
HETATM    9  C   UNL     1      -5.501  10.605  65.215  1.00  0.00    -0.144 C  
HETATM   10  C   UNL     1      -5.446   9.768  67.578  1.00  0.00    -0.036 C  
HETATM   11  C   UNL     1      -7.061   8.777  65.989  1.00  0.00    -0.084 C  
HETATM   12  C   UNL     1     -10.161   8.998  66.625  1.00  0.00    -0.333 C  
HETATM   13  C   UNL     1      -8.210   8.996  65.022  1.00  0.00    -0.154 C  
HETATM   14  C   UNL     1     -10.248  10.295  64.482  1.00  0.00    -0.161 C  
HETATM   15  C   UNL     1      -9.328   9.858  65.648  1.00  0.00    -0.269 C  
ENDROOT
BRANCH   8  16
HETATM   16  C   UNL     1      -7.327  14.580  68.559  1.00  0.00    -0.120 C  
HETATM   17  C   UNL     1      -6.854  14.346  69.801  1.00  0.00    -0.095 C  
BRANCH  16  18
HETATM   18  C   UNL     1      -7.442  16.004  68.098  1.00  0.00    -0.132 A  
HETATM   19  C   UNL     1      -7.844  17.059  68.945  1.00  0.00    -0.224 A  
HETATM   20  C   UNL     1      -8.078  18.355  68.449  1.00  0.00    -0.327 A  
HETATM   21  C   UNL     1      -7.916  18.619  67.089  1.00  0.00    -0.249 A  
HETATM   22  C   UNL     1      -7.432  17.607  66.255  1.00  0.00    -0.340 A  
HETATM   23  C   UNL     1      -8.198  19.946  66.476  1.00  0.00    -0.331 C  
HETATM   24  C   UNL     1      -7.189  16.322  66.756  1.00  0.00    -0.221 A  
HETATM   25  O   UNL     1      -9.169  20.653  67.096  1.00  0.00    -0.365 OA 
HETATM   26  O   UNL     1      -7.640  20.340  65.468  1.00  0.00    -0.245 OA 
ENDBRANCH  16  18
ENDBRANCH   8  16
TORSDOF 2
ENDMDL
MODEL       97
REMARK 921   NORMALIZED FREE ENERGY PREDICTED BY IDOCK:   -5.31 KCAL/MOL
REMARK 922        TOTAL FREE ENERGY PREDICTED BY IDOCK:   -6.07 KCAL/MOL
REMARK 923 INTER-LIGAND FREE ENERGY PREDICTED BY IDOCK:   -5.22 KCAL/MOL
REMARK 924 INTRA-LIGAND FREE ENERGY PREDICTED BY IDOCK:   -0.85 KCAL/MOL
REMARK 927      BINDING AFFINITY PREDICTED BY RF-SCORE:    0.00 PKD
ROOT
HETATM    1  C   UNL     1     -11.254   7.243  67.813  1.00  0.00     0.125 C  
HETATM    2  C   UNL     1      -9.940   7.825  68.258  1.00  0.00    -0.201 A  
HETATM    3  C   UNL     1      -8.908   6.920  68.570  1.00  0.00    -0.124 A  
HETATM    4  C   UNL     1      -7.617   7.323  68.968  1.00  0.00    -0.099 A  
HETATM    5  C   UNL     1      -7.355   8.704  69.076  1.00  0.00    -0.077 A  
HETATM    6  C   UNL     1      -8.384   9.612  68.713  1.00  0.00    -0.111 A  
HETATM    7  C   UNL     1      -5.993   9.233  69.556  1.00  0.00    -0.033 C  
HETATM    8  C   UNL     1      -9.679   9.201  68.319  1.00  0.00    -0.171 A  
HETATM    9  C   UNL     1      -5.205   9.790  68.347  1.00  0.00    -0.033 C  
HETATM   10  C   UNL     1      -6.146  10.357  70.600  1.00  0.00    -0.096 C  
HETATM   11  C   UNL     1      -5.156   8.121  70.239  1.00  0.00    -0.023 C  
HETATM   12  C   UNL     1      -6.985   5.558  70.629  1.00  0.00    -0.057 C  
HETATM   13  C   UNL     1      -5.156   6.830  69.441  1.00  0.00    -0.014 C  
HETATM   14  C   UNL     1      -6.497   5.156  68.204  1.00  0.00    -0.048 C  
HETATM   15  C   UNL     1      -6.576   6.242  69.305  1.00  0.00    -0.044 C  
ENDROOT
BRANCH   8  16
HETATM   16  C   UNL     1     -10.676  10.252  67.931  1.00  0.00    -0.310 C  
HETATM   17  C   UNL     1     -10.784  10.462  66.603  1.00  0.00    -0.198 C  
BRANCH  16  18
HETATM   18  C   UNL     1     -11.377  11.201  68.860  1.00  0.00    -0.344 A  
HETATM   19  C   UNL     1     -11.326  12.603  68.713  1.00  0.00    -0.333 A  
HETATM   20  C   UNL     1     -11.874  13.467  69.679  1.00  0.00    -0.398 A  
HETATM   21  C   UNL     1     -12.482  12.940  70.819  1.00  0.00    -0.370 A  
HETATM   22  C   UNL     1     -12.618  11.554  70.934  1.00  0.00    -0.438 A  
HETATM   23  C   UNL     1     -13.034  13.785  71.914  1.00  0.00    -0.350 C  
HETATM   24  C   UNL     1     -12.082  10.699  69.964  1.00  0.00    -0.393 A  
HETATM   25  O   UNL     1     -12.397  14.964  72.086  1.00  0.00    -0.330 OA 
HETATM   26  O   UNL     1     -13.948  13.421  72.632  1.00  0.00    -0.755 OA 
ENDBRANCH  16  18
ENDBRANCH   8  16
TORSDOF 2
ENDMDL
MODEL       98
REMARK 921   NORMALIZED FREE ENERGY PREDICTED BY IDOCK:   -5.26 KCAL/MOL
REMARK 922        TOTAL FREE ENERGY PREDICTED BY IDOCK:   -6.02 KCAL/MOL
REMARK 923 INTER-LIGAND FREE ENERGY PREDICTED BY IDOCK:   -5.36 KCAL/MOL
REMARK 924 INTRA-LIGAND FREE ENERGY PREDICTED BY IDOCK:   -0.66 KCAL/MOL
REMARK 927      BINDING AFFINITY PREDICTED BY RF-SCORE:    0.00 PKD
ROOT
HETATM    1  C   UNL     1     -12.794   8.064  70.834  1.00  0.00     0.105 C  
HETATM    2  C   UNL     1     -11.488   7.318  70.866  1.00  0.00    -0.321 A  
HETATM    3  C   UNL     1     -11.282   6.426  71.937  1.00  0.00    -0.325 A  
HETATM    4  C   UNL     1     -10.122   5.638  72.077  1.00  0.00    -0.230 A  
HETATM    5  C   UNL     1      -9.109   5.765  71.104  1.00  0.00    -0.157 A  
HETATM    6  C   UNL     1      -9.343   6.629  70.002  1.00  0.00    -0.158 A  
HETATM    7  C   UNL     1      -7.787   4.987  71.207  1.00  0.00    -0.101 C  
HETATM    8  C   UNL     1     -10.508   7.421  69.869  1.00  0.00    -0.238 A  
HETATM    9  C   UNL     1      -7.793   3.829  70.180  1.00  0.00    -0.047 C  
HETATM   10  C   UNL     1      -6.565   5.884  70.925  1.00  0.00    -0.045 C  
HETATM   11  C   UNL     1      -7.575   4.403  72.628  1.00  0.00    -0.080 C  
HETATM   12  C   UNL     1      -9.796   5.588  74.559  1.00  0.00    -0.238 C  
HETATM   13  C   UNL     1      -8.824   3.724  73.162  1.00  0.00    -0.097 C  
HETATM   14  C   UNL     1     -11.272   3.858  73.506  1.00  0.00    -0.312 C  
HETATM   15  C   UNL     1      -9.999   4.715  73.301  1.00  0.00    -0.184 C  
ENDROOT
BRANCH   8  16
HETATM   16  C   UNL     1     -10.657   8.275  68.646  1.00  0.00    -0.144 C  
HETATM   17  C   UNL     1     -10.479   7.622  67.479  1.00  0.00    -0.336 C  
BRANCH  16  18
HETATM   18  C   UNL     1     -10.768   9.772  68.613  1.00  0.00    -0.247 A  
HETATM   19  C   UNL     1     -10.757  10.572  69.776  1.00  0.00    -0.314 A  
HETATM   20  C   UNL     1     -11.006  11.956  69.722  1.00  0.00     0.092 A  
HETATM   21  C   UNL     1     -11.274  12.568  68.497  1.00  0.00    -0.322 A  
HETATM   22  C   UNL     1     -11.199  11.805  67.329  1.00  0.00    -0.364 A  
HETATM   23  C   UNL     1     -11.602  14.013  68.361  1.00  0.00    -0.331 C  
HETATM   24  C   UNL     1     -10.940  10.430  67.386  1.00  0.00    -0.335 A  
HETATM   25  O   UNL     1     -12.237  14.545  69.430  1.00  0.00    -0.306 OA 
HETATM   26  O   UNL     1     -11.370  14.651  67.350  1.00  0.00    -0.328 OA 
ENDBRANCH  16  18
ENDBRANCH   8  16
TORSDOF 2
ENDMDL
MODEL       99
REMARK 921   NORMALIZED FREE ENERGY PREDICTED BY IDOCK:   -5.23 KCAL/MOL
REMARK 922        TOTAL FREE ENERGY PREDICTED BY IDOCK:   -5.99 KCAL/MOL
REMARK 923 INTER-LIGAND FREE ENERGY PREDICTED BY IDOCK:   -5.11 KCAL/MOL
REMARK 924 INTRA-LIGAND FREE ENERGY PREDICTED BY IDOCK:   -0.88 KCAL/MOL
REMARK 927      BINDING AFFINITY PREDICTED BY RF-SCORE:    0.00 PKD
ROOT
HETATM    1  C   UNL     1      -8.614   9.117  65.357  1.00  0.00    -0.192 C  
HETATM    2  C   UNL     1      -9.176  10.293  66.108  1.00  0.00    -0.192 A  
HETATM    3  C   UNL     1     -10.107  11.104  65.430  1.00  0.00    -0.317 A  
HETATM    4  C   UNL     1     -10.739  12.218  66.020  1.00  0.00    -0.296 A  
HETATM    5  C   UNL     1     -10.404  12.546  67.349  1.00  0.00    -0.222 A  
HETATM    6  C   UNL     1      -9.502  11.697  68.043  1.00  0.00    -0.185 A  
HETATM    7  C   UNL     1     -11.002  13.776  68.053  1.00  0.00    -0.268 C  
HETATM    8  C   UNL     1      -8.868  10.583  67.444  1.00  0.00    -0.132 A  
HETATM    9  C   UNL     1     -12.071  13.314  69.072  1.00  0.00    -0.268 C  
HETATM   10  C   UNL     1      -9.928  14.589  68.805  1.00  0.00    -0.232 C  
HETATM   11  C   UNL     1     -11.653  14.754  67.042  1.00  0.00    -0.352 C  
HETATM   12  C   UNL     1     -10.925  13.815  64.100  1.00  0.00    -0.149 C  
HETATM   13  C   UNL     1     -12.533  14.036  66.034  1.00  0.00    -0.489 C  
HETATM   14  C   UNL     1     -12.758  12.143  64.454  1.00  0.00    -0.317 C  
HETATM   15  C   UNL     1     -11.723  13.042  65.174  1.00  0.00    -0.379 C  
ENDROOT
BRANCH   8  16
HETATM   16  C   UNL     1      -7.955   9.742  68.286  1.00  0.00    -0.096 C  
HETATM   17  C   UNL     1      -6.802  10.346  68.640  1.00  0.00    -0.058 C  
BRANCH  16  18
HETATM   18  C   UNL     1      -8.109   8.277  68.576  1.00  0.00    -0.123 A  
HETATM   19  C   UNL     1      -7.014   7.393  68.685  1.00  0.00    -0.079 A  
HETATM   20  C   UNL     1      -7.197   6.004  68.816  1.00  0.00    -0.083 A  
HETATM   21  C   UNL     1      -8.486   5.471  68.837  1.00  0.00    -0.101 A  
HETATM   22  C   UNL     1      -9.579   6.342  68.819  1.00  0.00    -0.128 A  
HETATM   23  C   UNL     1      -8.765   4.011  68.914  1.00  0.00    -0.093 C  
HETATM   24  C   UNL     1      -9.392   7.724  68.701  1.00  0.00    -0.148 A  
HETATM   25  O   UNL     1      -7.820   3.230  68.343  1.00  0.00    -0.059 OA 
HETATM   26  O   UNL     1      -9.784   3.557  69.402  1.00  0.00    -0.151 OA 
ENDBRANCH  16  18
ENDBRANCH   8  16
TORSDOF 2
ENDMDL
MODEL      100
REMARK 921   NORMALIZED FREE ENERGY PREDICTED BY IDOCK:   -5.23 KCAL/MOL
REMARK 922        TOTAL FREE ENERGY PREDICTED BY IDOCK:   -5.98 KCAL/MOL
REMARK 923 INTER-LIGAND FREE ENERGY PREDICTED BY IDOCK:   -5.04 KCAL/MOL
REMARK 924 INTRA-LIGAND FREE ENERGY PREDICTED BY IDOCK:   -0.94 KCAL/MOL
REMARK 927      BINDING AFFINITY PREDICTED BY RF-SCORE:    0.00 PKD
ROOT
HETATM    1  C   UNL     1      -7.220  10.682  67.278  1.00  0.00    -0.091 C  
HETATM    2  C   UNL     1      -7.547   9.280  66.843  1.00  0.00    -0.091 A  
HETATM    3  C   UNL     1      -7.251   8.934  65.510  1.00  0.00    -0.084 A  
HETATM    4  C   UNL     1      -7.473   7.649  64.974  1.00  0.00    -0.090 A  
HETATM    5  C   UNL     1      -8.039   6.668  65.813  1.00  0.00    -0.122 A  
HETATM    6  C   UNL     1      -8.290   7.008  67.169  1.00  0.00    -0.121 A  
HETATM    7  C   UNL     1      -8.367   5.257  65.299  1.00  0.00    -0.139 C  
HETATM    8  C   UNL     1      -8.069   8.300  67.699  1.00  0.00    -0.126 A  
HETATM    9  C   UNL     1      -7.320   4.256  65.842  1.00  0.00    -0.080 C  
HETATM   10  C   UNL     1      -9.767   4.790  65.746  1.00  0.00    -0.200 C  
HETATM   11  C   UNL     1      -8.368   5.198  63.749  1.00  0.00    -0.130 C  
HETATM   12  C   UNL     1      -8.148   8.153  62.616  1.00  0.00    -0.161 C  
HETATM   13  C   UNL     1      -7.159   5.892  63.148  1.00  0.00    -0.050 C  
HETATM   14  C   UNL     1      -5.710   7.899  63.140  1.00  0.00    -0.059 C  
HETATM   15  C   UNL     1      -7.130   7.395  63.497  1.00  0.00    -0.066 C  
ENDROOT
BRANCH   8  16
HETATM   16  C   UNL     1      -8.345   8.533  69.154  1.00  0.00    -0.120 C  
HETATM   17  C   UNL     1      -7.361   8.133  69.985  1.00  0.00    -0.061 C  
BRANCH  16  18
HETATM   18  C   UNL     1      -9.654   8.958  69.755  1.00  0.00    -0.175 A  
HETATM   19  C   UNL     1     -10.311  10.156  69.404  1.00  0.00    -0.251 A  
HETATM   20  C   UNL     1     -11.462  10.594  70.086  1.00  0.00    -0.411 A  
HETATM   21  C   UNL     1     -11.976   9.839  71.140  1.00  0.00    -0.463 A  
HETATM   22  C   UNL     1     -11.388   8.606  71.440  1.00  0.00    -0.350 A  
HETATM   23  C   UNL     1     -13.152  10.260  71.949  1.00  0.00    -0.463 C  
HETATM   24  C   UNL     1     -10.250   8.169  70.750  1.00  0.00    -0.215 A  
HETATM   25  O   UNL     1     -13.301  11.598  72.065  1.00  0.00    -0.481 OA 
HETATM   26  O   UNL     1     -13.889   9.466  72.507  1.00  0.00    -0.444 OA 
ENDBRANCH  16  18
ENDBRANCH   8  16
TORSDOF 2
ENDMDL
MODEL      101
REMARK 921   NORMALIZED FREE ENERGY PREDICTED BY IDOCK:   -5.22 KCAL/MOL
REMARK 922        TOTAL FREE ENERGY PREDICTED BY IDOCK:   -5.98 KCAL/MOL
REMARK 923 INTER-LIGAND FREE ENERGY PREDICTED BY IDOCK:   -5.67 KCAL/MOL
REMARK 924 INTRA-LIGAND FREE ENERGY PREDICTED BY IDOCK:   -0.31 KCAL/MOL
REMARK 927      BINDING AFFINITY PREDICTED BY RF-SCORE:    0.00 PKD
ROOT
HETATM    1  C   UNL     1      -9.318   7.971  72.781  1.00  0.00    -0.330 C  
HETATM    2  C   UNL     1      -9.357   7.544  71.339  1.00  0.00    -0.151 A  
HETATM    3  C   UNL     1      -8.701   6.343  71.006  1.00  0.00    -0.135 A  
HETATM    4  C   UNL     1      -8.684   5.805  69.703  1.00  0.00    -0.122 A  
HETATM    5  C   UNL     1      -9.340   6.519  68.679  1.00  0.00    -0.125 A  
HETATM    6  C   UNL     1     -10.041   7.703  69.031  1.00  0.00    -0.199 A  
HETATM    7  C   UNL     1      -9.326   6.036  67.220  1.00  0.00    -0.115 C  
HETATM    8  C   UNL     1     -10.051   8.239  70.340  1.00  0.00    -0.199 A  
HETATM    9  C   UNL     1     -10.707   5.437  66.863  1.00  0.00    -0.264 C  
HETATM   10  C   UNL     1      -9.022   7.184  66.235  1.00  0.00    -0.181 C  
HETATM   11  C   UNL     1      -8.231   4.963  66.982  1.00  0.00    -0.107 C  
HETATM   12  C   UNL     1      -6.401   4.784  69.568  1.00  0.00    -0.027 C  
HETATM   13  C   UNL     1      -8.227   3.899  68.065  1.00  0.00    -0.095 C  
HETATM   14  C   UNL     1      -8.281   3.408  70.491  1.00  0.00    -0.072 C  
HETATM   15  C   UNL     1      -7.915   4.497  69.454  1.00  0.00    -0.061 C  
ENDROOT
BRANCH   8  16
HETATM   16  C   UNL     1     -10.851   9.482  70.597  1.00  0.00    -0.371 C  
HETATM   17  C   UNL     1     -11.801   9.353  71.546  1.00  0.00    -0.456 C  
BRANCH  16  18
HETATM   18  C   UNL     1     -10.831  10.739  69.776  1.00  0.00    -0.284 A  
HETATM   19  C   UNL     1     -11.895  11.667  69.761  1.00  0.00    -0.428 A  
HETATM   20  C   UNL     1     -11.908  12.760  68.876  1.00  0.00    -0.351 A  
HETATM   21  C   UNL     1     -10.853  12.945  67.982  1.00  0.00    -0.261 A  
HETATM   22  C   UNL     1      -9.752  12.085  68.047  1.00  0.00    -0.198 A  
HETATM   23  C   UNL     1     -10.817  14.041  66.975  1.00  0.00    -0.290 C  
HETATM   24  C   UNL     1      -9.739  11.005  68.939  1.00  0.00    -0.184 A  
HETATM   25  O   UNL     1     -12.032  14.432  66.531  1.00  0.00    -0.404 OA 
HETATM   26  O   UNL     1      -9.779  14.510  66.546  1.00  0.00    -0.261 OA 
ENDBRANCH  16  18
ENDBRANCH   8  16
TORSDOF 2
ENDMDL
MODEL      102
REMARK 921   NORMALIZED FREE ENERGY PREDICTED BY IDOCK:   -5.21 KCAL/MOL
REMARK 922        TOTAL FREE ENERGY PREDICTED BY IDOCK:   -5.96 KCAL/MOL
REMARK 923 INTER-LIGAND FREE ENERGY PREDICTED BY IDOCK:   -5.65 KCAL/MOL
REMARK 924 INTRA-LIGAND FREE ENERGY PREDICTED BY IDOCK:   -0.31 KCAL/MOL
REMARK 927      BINDING AFFINITY PREDICTED BY RF-SCORE:    0.00 PKD
ROOT
HETATM    1  C   UNL     1     -10.413  16.793  68.763  1.00  0.00    -0.338 C  
HETATM    2  C   UNL     1     -10.782  15.401  69.197  1.00  0.00    -0.246 A  
HETATM    3  C   UNL     1     -11.729  15.279  70.232  1.00  0.00    -0.341 A  
HETATM    4  C   UNL     1     -12.193  14.040  70.718  1.00  0.00    -0.438 A  
HETATM    5  C   UNL     1     -11.665  12.863  70.149  1.00  0.00    -0.234 A  
HETATM    6  C   UNL     1     -10.747  12.992  69.073  1.00  0.00    -0.138 A  
HETATM    7  C   UNL     1     -12.070  11.469  70.654  1.00  0.00    -0.450 C  
HETATM    8  C   UNL     1     -10.283  14.239  68.594  1.00  0.00    -0.246 A  
HETATM    9  C   UNL     1     -13.030  10.813  69.633  1.00  0.00     0.462 C  
HETATM   10  C   UNL     1     -10.850  10.544  70.841  1.00  0.00     0.396 C  
HETATM   11  C   UNL     1     -12.772  11.541  72.035  1.00  0.00    -0.103 C  
HETATM   12  C   UNL     1     -12.505  14.496  73.160  1.00  0.00    -0.358 C  
HETATM   13  C   UNL     1     -13.827  12.632  72.087  1.00  0.00    -0.263 C  
HETATM   14  C   UNL     1     -14.398  14.990  71.594  1.00  0.00    -0.680 C  
HETATM   15  C   UNL     1     -13.213  14.032  71.868  1.00  0.00    -0.477 C  
ENDROOT
BRANCH   8  16
HETATM   16  C   UNL     1      -9.334  14.250  67.432  1.00  0.00    -0.203 C  
HETATM   17  C   UNL     1      -9.262  13.086  66.753  1.00  0.00    -0.229 C  
BRANCH  16  18
HETATM   18  C   UNL     1      -8.341  15.327  67.103  1.00  0.00    -0.244 A  
HETATM   19  C   UNL     1      -7.120  15.486  67.792  1.00  0.00    -0.179 A  
HETATM   20  C   UNL     1      -6.277  16.588  67.556  1.00  0.00    -0.181 A  
HETATM   21  C   UNL     1      -6.646  17.559  66.625  1.00  0.00    -0.252 A  
HETATM   22  C   UNL     1      -7.809  17.369  65.873  1.00  0.00    -0.077 A  
HETATM   23  C   UNL     1      -5.841  18.783  66.359  1.00  0.00    -0.155 C  
HETATM   24  C   UNL     1      -8.638  16.264  66.103  1.00  0.00    -0.342 A  
HETATM   25  O   UNL     1      -5.139  19.233  67.423  1.00  0.00    -0.161 OA 
HETATM   26  O   UNL     1      -5.856  19.364  65.289  1.00  0.00    -0.174 OA 
ENDBRANCH  16  18
ENDBRANCH   8  16
TORSDOF 2
ENDMDL
MODEL      103
REMARK 921   NORMALIZED FREE ENERGY PREDICTED BY IDOCK:   -5.20 KCAL/MOL
REMARK 922        TOTAL FREE ENERGY PREDICTED BY IDOCK:   -5.96 KCAL/MOL
REMARK 923 INTER-LIGAND FREE ENERGY PREDICTED BY IDOCK:   -5.24 KCAL/MOL
REMARK 924 INTRA-LIGAND FREE ENERGY PREDICTED BY IDOCK:   -0.71 KCAL/MOL
REMARK 927      BINDING AFFINITY PREDICTED BY RF-SCORE:    0.00 PKD
ROOT
HETATM    1  C   UNL     1      -8.532   9.193  62.912  1.00  0.00    -0.209 C  
HETATM    2  C   UNL     1      -9.039   9.918  64.129  1.00  0.00    -0.294 A  
HETATM    3  C   UNL     1     -10.080  10.847  63.937  1.00  0.00    -0.422 A  
HETATM    4  C   UNL     1     -10.674  11.573  64.989  1.00  0.00    -0.350 A  
HETATM    5  C   UNL     1     -10.186  11.372  66.296  1.00  0.00    -0.274 A  
HETATM    6  C   UNL     1      -9.170  10.398  66.489  1.00  0.00    -0.184 A  
HETATM    7  C   UNL     1     -10.735  12.161  67.495  1.00  0.00    -0.265 C  
HETATM    8  C   UNL     1      -8.575   9.676  65.429  1.00  0.00    -0.167 A  
HETATM    9  C   UNL     1     -11.647  11.240  68.341  1.00  0.00    -0.378 C  
HETATM   10  C   UNL     1      -9.607  12.696  68.400  1.00  0.00    -0.173 C  
HETATM   11  C   UNL     1     -11.548  13.401  67.041  1.00  0.00    -0.396 C  
HETATM   12  C   UNL     1     -11.166  13.781  63.914  1.00  0.00     0.026 C  
HETATM   13  C   UNL     1     -12.521  13.071  65.922  1.00  0.00    -0.323 C  
HETATM   14  C   UNL     1     -12.872  11.954  63.741  1.00  0.00    -0.396 C  
HETATM   15  C   UNL     1     -11.790  12.578  64.655  1.00  0.00    -0.439 C  
ENDROOT
BRANCH   8  16
HETATM   16  C   UNL     1      -7.529   8.652  65.759  1.00  0.00    -0.085 C  
HETATM   17  C   UNL     1      -6.297   8.936  65.291  1.00  0.00    -0.063 C  
BRANCH  16  18
HETATM   18  C   UNL     1      -7.769   7.294  66.353  1.00  0.00    -0.093 A  
HETATM   19  C   UNL     1      -8.981   6.588  66.197  1.00  0.00    -0.161 A  
HETATM   20  C   UNL     1      -9.226   5.383  66.882  1.00  0.00    -0.121 A  
HETATM   21  C   UNL     1      -8.259   4.863  67.743  1.00  0.00    -0.101 A  
HETATM   22  C   UNL     1      -7.022   5.505  67.838  1.00  0.00    -0.066 A  
HETATM   23  C   UNL     1      -8.463   3.627  68.548  1.00  0.00    -0.087 C  
HETATM   24  C   UNL     1      -6.778   6.697  67.145  1.00  0.00    -0.063 A  
HETATM   25  O   UNL     1      -9.746   3.397  68.905  1.00  0.00    -0.112 OA 
HETATM   26  O   UNL     1      -7.544   2.912  68.903  1.00  0.00    -0.048 OA 
ENDBRANCH  16  18
ENDBRANCH   8  16
TORSDOF 2
ENDMDL
MODEL      104
REMARK 921   NORMALIZED FREE ENERGY PREDICTED BY IDOCK:   -5.20 KCAL/MOL
REMARK 922        TOTAL FREE ENERGY PREDICTED BY IDOCK:   -5.96 KCAL/MOL
REMARK 923 INTER-LIGAND FREE ENERGY PREDICTED BY IDOCK:   -5.35 KCAL/MOL
REMARK 924 INTRA-LIGAND FREE ENERGY PREDICTED BY IDOCK:   -0.60 KCAL/MOL
REMARK 927      BINDING AFFINITY PREDICTED BY RF-SCORE:    0.00 PKD
ROOT
HETATM    1  C   UNL     1     -10.031  10.786  65.639  1.00  0.00    -0.317 C  
HETATM    2  C   UNL     1     -10.276  11.915  66.602  1.00  0.00    -0.236 A  
HETATM    3  C   UNL     1     -10.164  13.226  66.098  1.00  0.00    -0.296 A  
HETATM    4  C   UNL     1     -10.398  14.378  66.876  1.00  0.00    -0.265 A  
HETATM    5  C   UNL     1     -10.741  14.206  68.233  1.00  0.00    -0.256 A  
HETATM    6  C   UNL     1     -10.900  12.882  68.722  1.00  0.00    -0.277 A  
HETATM    7  C   UNL     1     -10.959  15.406  69.169  1.00  0.00    -0.252 C  
HETATM    8  C   UNL     1     -10.660  11.731  67.937  1.00  0.00    -0.231 A  
HETATM    9  C   UNL     1     -12.474  15.583  69.431  1.00  0.00    -0.030 C  
HETATM   10  C   UNL     1     -10.248  15.217  70.525  1.00  0.00     0.104 C  
HETATM   11  C   UNL     1     -10.393  16.716  68.563  1.00  0.00    -0.303 C  
HETATM   12  C   UNL     1      -8.719  15.997  65.965  1.00  0.00    -0.267 C  
HETATM   13  C   UNL     1     -10.786  16.892  67.107  1.00  0.00    -0.180 C  
HETATM   14  C   UNL     1     -10.968  15.852  64.868  1.00  0.00    -0.427 C  
HETATM   15  C   UNL     1     -10.224  15.759  66.222  1.00  0.00    -0.317 C  
ENDROOT
BRANCH   8  16
HETATM   16  C   UNL     1     -10.888  10.383  68.556  1.00  0.00    -0.278 C  
HETATM   17  C   UNL     1     -11.797  10.368  69.552  1.00  0.00    -0.218 C  
BRANCH  16  18
HETATM   18  C   UNL     1     -10.072   9.145  68.319  1.00  0.00    -0.221 A  
HETATM   19  C   UNL     1      -8.715   9.034  68.688  1.00  0.00    -0.133 A  
HETATM   20  C   UNL     1      -7.941   7.916  68.326  1.00  0.00    -0.122 A  
HETATM   21  C   UNL     1      -8.513   6.885  67.580  1.00  0.00    -0.122 A  
HETATM   22  C   UNL     1      -9.878   6.941  67.284  1.00  0.00    -0.196 A  
HETATM   23  C   UNL     1      -7.750   5.698  67.107  1.00  0.00    -0.101 C  
HETATM   24  C   UNL     1     -10.647   8.050  67.657  1.00  0.00    -0.264 A  
HETATM   25  O   UNL     1      -6.441   5.934  66.867  1.00  0.00    -0.046 OA 
HETATM   26  O   UNL     1      -8.271   4.617  66.902  1.00  0.00    -0.106 OA 
ENDBRANCH  16  18
ENDBRANCH   8  16
TORSDOF 2
ENDMDL
MODEL      105
REMARK 921   NORMALIZED FREE ENERGY PREDICTED BY IDOCK:   -5.18 KCAL/MOL
REMARK 922        TOTAL FREE ENERGY PREDICTED BY IDOCK:   -5.94 KCAL/MOL
REMARK 923 INTER-LIGAND FREE ENERGY PREDICTED BY IDOCK:   -5.00 KCAL/MOL
REMARK 924 INTRA-LIGAND FREE ENERGY PREDICTED BY IDOCK:   -0.93 KCAL/MOL
REMARK 927      BINDING AFFINITY PREDICTED BY RF-SCORE:    0.00 PKD
ROOT
HETATM    1  C   UNL     1      -5.755  12.640  67.755  1.00  0.00    -0.122 C  
HETATM    2  C   UNL     1      -7.197  13.046  67.882  1.00  0.00    -0.129 A  
HETATM    3  C   UNL     1      -7.501  14.408  67.693  1.00  0.00    -0.191 A  
HETATM    4  C   UNL     1      -8.811  14.926  67.750  1.00  0.00    -0.173 A  
HETATM    5  C   UNL     1      -9.867  14.034  68.031  1.00  0.00    -0.228 A  
HETATM    6  C   UNL     1      -9.560  12.655  68.172  1.00  0.00    -0.219 A  
HETATM    7  C   UNL     1     -11.319  14.519  68.167  1.00  0.00    -0.319 C  
HETATM    8  C   UNL     1      -8.243  12.143  68.118  1.00  0.00    -0.164 A  
HETATM    9  C   UNL     1     -12.115  14.116  66.903  1.00  0.00    -0.466 C  
HETATM   10  C   UNL     1     -12.018  13.910  69.400  1.00  0.00    -0.402 C  
HETATM   11  C   UNL     1     -11.395  16.057  68.345  1.00  0.00    -0.355 C  
HETATM   12  C   UNL     1      -8.460  17.180  68.783  1.00  0.00    -0.225 C  
HETATM   13  C   UNL     1     -10.508  16.794  67.358  1.00  0.00    -0.310 C  
HETATM   14  C   UNL     1      -8.278  16.957  66.294  1.00  0.00    -0.344 C  
HETATM   15  C   UNL     1      -9.019  16.436  67.550  1.00  0.00    -0.197 C  
ENDROOT
BRANCH   8  16
HETATM   16  C   UNL     1      -8.045  10.662  68.252  1.00  0.00    -0.118 C  
HETATM   17  C   UNL     1      -7.884  10.229  69.520  1.00  0.00    -0.172 C  
BRANCH  16  18
HETATM   18  C   UNL     1      -7.805   9.690  67.133  1.00  0.00    -0.091 A  
HETATM   19  C   UNL     1      -7.657  10.086  65.787  1.00  0.00    -0.120 A  
HETATM   20  C   UNL     1      -7.576   9.144  64.745  1.00  0.00    -0.108 A  
HETATM   21  C   UNL     1      -7.645   7.780  65.033  1.00  0.00    -0.096 A  
HETATM   22  C   UNL     1      -7.701   7.373  66.369  1.00  0.00    -0.093 A  
HETATM   23  C   UNL     1      -7.624   6.722  63.986  1.00  0.00    -0.108 C  
HETATM   24  C   UNL     1      -7.770   8.315  67.403  1.00  0.00    -0.102 A  
HETATM   25  O   UNL     1      -8.161   7.096  62.803  1.00  0.00    -0.100 OA 
HETATM   26  O   UNL     1      -7.209   5.596  64.193  1.00  0.00    -0.051 OA 
ENDBRANCH  16  18
ENDBRANCH   8  16
TORSDOF 2
ENDMDL
MODEL      106
REMARK 921   NORMALIZED FREE ENERGY PREDICTED BY IDOCK:   -5.17 KCAL/MOL
REMARK 922        TOTAL FREE ENERGY PREDICTED BY IDOCK:   -5.92 KCAL/MOL
REMARK 923 INTER-LIGAND FREE ENERGY PREDICTED BY IDOCK:   -5.10 KCAL/MOL
REMARK 924 INTRA-LIGAND FREE ENERGY PREDICTED BY IDOCK:   -0.82 KCAL/MOL
REMARK 927      BINDING AFFINITY PREDICTED BY RF-SCORE:    0.00 PKD
ROOT
HETATM    1  C   UNL     1      -8.751   7.968  74.010  1.00  0.00    -0.265 C  
HETATM    2  C   UNL     1      -8.713   7.097  72.784  1.00  0.00    -0.139 A  
HETATM    3  C   UNL     1      -7.742   6.078  72.748  1.00  0.00    -0.102 A  
HETATM    4  C   UNL     1      -7.612   5.167  71.680  1.00  0.00    -0.101 A  
HETATM    5  C   UNL     1      -8.488   5.300  70.583  1.00  0.00    -0.118 A  
HETATM    6  C   UNL     1      -9.496   6.298  70.646  1.00  0.00    -0.182 A  
HETATM    7  C   UNL     1      -8.383   4.387  69.350  1.00  0.00    -0.083 C  
HETATM    8  C   UNL     1      -9.618   7.211  71.720  1.00  0.00    -0.161 A  
HETATM    9  C   UNL     1      -9.536   3.355  69.376  1.00  0.00    -0.221 C  
HETATM   10  C   UNL     1      -8.470   5.185  68.033  1.00  0.00    -0.100 C  
HETATM   11  C   UNL     1      -7.028   3.634  69.309  1.00  0.00    -0.045 C  
HETATM   12  C   UNL     1      -5.136   4.815  71.565  1.00  0.00    -0.004 C  
HETATM   13  C   UNL     1      -6.668   3.027  70.654  1.00  0.00    -0.033 C  
HETATM   14  C   UNL     1      -6.486   3.365  73.099  1.00  0.00    -0.024 C  
HETATM   15  C   UNL     1      -6.498   4.109  71.742  1.00  0.00    -0.018 C  
ENDROOT
BRANCH   8  16
HETATM   16  C   UNL     1     -10.742   8.204  71.689  1.00  0.00    -0.299 C  
HETATM   17  C   UNL     1     -11.847   7.825  72.363  1.00  0.00    -0.371 C  
BRANCH  16  18
HETATM   18  C   UNL     1     -10.819   9.435  70.833  1.00  0.00    -0.392 A  
HETATM   19  C   UNL     1     -11.967  10.252  70.760  1.00  0.00    -0.456 A  
HETATM   20  C   UNL     1     -12.058  11.316  69.842  1.00  0.00    -0.414 A  
HETATM   21  C   UNL     1     -10.998  11.579  68.974  1.00  0.00    -0.285 A  
HETATM   22  C   UNL     1      -9.822  10.835  69.097  1.00  0.00    -0.194 A  
HETATM   23  C   UNL     1     -11.038  12.647  67.937  1.00  0.00    -0.247 C  
HETATM   24  C   UNL     1      -9.731   9.785  70.020  1.00  0.00    -0.292 A  
HETATM   25  O   UNL     1     -12.271  12.904  67.446  1.00  0.00    -0.330 OA 
HETATM   26  O   UNL     1     -10.037  13.204  67.525  1.00  0.00    -0.218 OA 
ENDBRANCH  16  18
ENDBRANCH   8  16
TORSDOF 2
ENDMDL
MODEL      107
REMARK 921   NORMALIZED FREE ENERGY PREDICTED BY IDOCK:   -5.15 KCAL/MOL
REMARK 922        TOTAL FREE ENERGY PREDICTED BY IDOCK:   -5.90 KCAL/MOL
REMARK 923 INTER-LIGAND FREE ENERGY PREDICTED BY IDOCK:   -5.07 KCAL/MOL
REMARK 924 INTRA-LIGAND FREE ENERGY PREDICTED BY IDOCK:   -0.83 KCAL/MOL
REMARK 927      BINDING AFFINITY PREDICTED BY RF-SCORE:    0.00 PKD
ROOT
HETATM    1  C   UNL     1      -7.652  10.569  65.541  1.00  0.00    -0.120 C  
HETATM    2  C   UNL     1      -8.291   9.951  66.755  1.00  0.00    -0.125 A  
HETATM    3  C   UNL     1      -7.583   8.918  67.399  1.00  0.00    -0.089 A  
HETATM    4  C   UNL     1      -8.044   8.272  68.564  1.00  0.00    -0.123 A  
HETATM    5  C   UNL     1      -9.287   8.669  69.098  1.00  0.00    -0.153 A  
HETATM    6  C   UNL     1      -9.972   9.744  68.472  1.00  0.00    -0.177 A  
HETATM    7  C   UNL     1      -9.893   7.982  70.332  1.00  0.00    -0.183 C  
HETATM    8  C   UNL     1      -9.506  10.385  67.301  1.00  0.00    -0.176 A  
HETATM    9  C   UNL     1      -9.749   8.913  71.560  1.00  0.00    -0.372 C  
HETATM   10  C   UNL     1     -11.389   7.659  70.137  1.00  0.00    -0.147 C  
HETATM   11  C   UNL     1      -9.196   6.630  70.636  1.00  0.00    -0.159 C  
HETATM   12  C   UNL     1      -7.259   5.918  68.225  1.00  0.00    -0.079 C  
HETATM   13  C   UNL     1      -7.683   6.739  70.575  1.00  0.00    -0.104 C  
HETATM   14  C   UNL     1      -5.711   7.555  69.321  1.00  0.00    -0.026 C  
HETATM   15  C   UNL     1      -7.194   7.141  69.167  1.00  0.00    -0.086 C  
ENDROOT
BRANCH   8  16
HETATM   16  C   UNL     1     -10.303  11.529  66.747  1.00  0.00    -0.262 C  
HETATM   17  C   UNL     1     -11.025  11.230  65.647  1.00  0.00    -0.201 C  
BRANCH  16  18
HETATM   18  C   UNL     1     -10.203  12.968  67.163  1.00  0.00    -0.243 A  
HETATM   19  C   UNL     1     -11.327  13.752  67.501  1.00  0.00    -0.334 A  
HETATM   20  C   UNL     1     -11.215  15.133  67.748  1.00  0.00    -0.327 A  
HETATM   21  C   UNL     1      -9.971  15.758  67.658  1.00  0.00    -0.239 A  
HETATM   22  C   UNL     1      -8.838  14.978  67.413  1.00  0.00    -0.202 A  
HETATM   23  C   UNL     1      -9.777  17.222  67.848  1.00  0.00    -0.273 C  
HETATM   24  C   UNL     1      -8.952  13.602  67.179  1.00  0.00    -0.235 A  
HETATM   25  O   UNL     1     -10.836  17.978  67.486  1.00  0.00    -0.379 OA 
HETATM   26  O   UNL     1      -8.731  17.703  68.246  1.00  0.00    -0.260 OA 
ENDBRANCH  16  18
ENDBRANCH   8  16
TORSDOF 2
ENDMDL
MODEL      108
REMARK 921   NORMALIZED FREE ENERGY PREDICTED BY IDOCK:   -5.15 KCAL/MOL
REMARK 922        TOTAL FREE ENERGY PREDICTED BY IDOCK:   -5.90 KCAL/MOL
REMARK 923 INTER-LIGAND FREE ENERGY PREDICTED BY IDOCK:   -4.93 KCAL/MOL
REMARK 924 INTRA-LIGAND FREE ENERGY PREDICTED BY IDOCK:   -0.97 KCAL/MOL
REMARK 927      BINDING AFFINITY PREDICTED BY RF-SCORE:    0.00 PKD
ROOT
HETATM    1  C   UNL     1     -11.603  10.923  68.220  1.00  0.00    -0.335 C  
HETATM    2  C   UNL     1     -11.164  12.317  67.866  1.00  0.00    -0.328 A  
HETATM    3  C   UNL     1     -11.367  13.321  68.834  1.00  0.00    -0.333 A  
HETATM    4  C   UNL     1     -10.976  14.663  68.653  1.00  0.00    -0.266 A  
HETATM    5  C   UNL     1     -10.369  15.020  67.432  1.00  0.00    -0.238 A  
HETATM    6  C   UNL     1     -10.123  13.995  66.480  1.00  0.00    -0.287 A  
HETATM    7  C   UNL     1      -9.961  16.471  67.125  1.00  0.00    -0.266 C  
HETATM    8  C   UNL     1     -10.522  12.651  66.666  1.00  0.00    -0.261 A  
HETATM    9  C   UNL     1      -8.424  16.605  67.237  1.00  0.00    -0.214 C  
HETATM   10  C   UNL     1     -10.388  16.903  65.708  1.00  0.00    -0.298 C  
HETATM   11  C   UNL     1     -10.631  17.472  68.102  1.00  0.00    -0.366 C  
HETATM   12  C   UNL     1     -12.794  15.921  69.829  1.00  0.00     0.570 C  
HETATM   13  C   UNL     1     -10.536  17.015  69.547  1.00  0.00    -0.168 C  
HETATM   14  C   UNL     1     -10.812  15.154  71.155  1.00  0.00    -0.075 C  
HETATM   15  C   UNL     1     -11.270  15.676  69.772  1.00  0.00    -0.322 C  
ENDROOT
BRANCH   8  16
HETATM   16  C   UNL     1     -10.182  11.650  65.602  1.00  0.00    -0.284 C  
HETATM   17  C   UNL     1     -11.025  11.640  64.549  1.00  0.00    -0.376 C  
BRANCH  16  18
HETATM   18  C   UNL     1      -9.155  10.559  65.701  1.00  0.00    -0.209 A  
HETATM   19  C   UNL     1      -9.356   9.262  65.184  1.00  0.00    -0.239 A  
HETATM   20  C   UNL     1      -8.436   8.223  65.417  1.00  0.00    -0.189 A  
HETATM   21  C   UNL     1      -7.293   8.465  66.179  1.00  0.00    -0.084 A  
HETATM   22  C   UNL     1      -7.036   9.765  66.622  1.00  0.00    -0.086 A  
HETATM   23  C   UNL     1      -6.300   7.408  66.520  1.00  0.00    -0.045 C  
HETATM   24  C   UNL     1      -7.950  10.798  66.377  1.00  0.00    -0.151 A  
HETATM   25  O   UNL     1      -6.821   6.166  66.628  1.00  0.00    -0.059 OA 
HETATM   26  O   UNL     1      -5.127   7.650  66.738  1.00  0.00    -0.022 OA 
ENDBRANCH  16  18
ENDBRANCH   8  16
TORSDOF 2
ENDMDL
MODEL      109
REMARK 921   NORMALIZED FREE ENERGY PREDICTED BY IDOCK:   -5.12 KCAL/MOL
REMARK 922        TOTAL FREE ENERGY PREDICTED BY IDOCK:   -5.87 KCAL/MOL
REMARK 923 INTER-LIGAND FREE ENERGY PREDICTED BY IDOCK:   -4.95 KCAL/MOL
REMARK 924 INTRA-LIGAND FREE ENERGY PREDICTED BY IDOCK:   -0.91 KCAL/MOL
REMARK 927      BINDING AFFINITY PREDICTED BY RF-SCORE:    0.00 PKD
ROOT
HETATM    1  C   UNL     1      -8.118   8.913  70.739  1.00  0.00    -0.179 C  
HETATM    2  C   UNL     1      -8.329   7.894  69.654  1.00  0.00    -0.131 A  
HETATM    3  C   UNL     1      -8.593   6.570  70.057  1.00  0.00    -0.140 A  
HETATM    4  C   UNL     1      -8.843   5.519  69.151  1.00  0.00    -0.106 A  
HETATM    5  C   UNL     1      -8.808   5.807  67.771  1.00  0.00    -0.105 A  
HETATM    6  C   UNL     1      -8.590   7.153  67.373  1.00  0.00    -0.121 A  
HETATM    7  C   UNL     1      -9.014   4.713  66.711  1.00  0.00    -0.112 C  
HETATM    8  C   UNL     1      -8.335   8.202  68.286  1.00  0.00    -0.126 A  
HETATM    9  C   UNL     1     -10.425   4.857  66.093  1.00  0.00    -0.346 C  
HETATM   10  C   UNL     1      -7.971   4.803  65.578  1.00  0.00    -0.095 C  
HETATM   11  C   UNL     1      -8.868   3.293  67.319  1.00  0.00    -0.153 C  
HETATM   12  C   UNL     1      -7.773   3.560  70.284  1.00  0.00    -0.047 C  
HETATM   13  C   UNL     1      -9.630   3.147  68.624  1.00  0.00    -0.104 C  
HETATM   14  C   UNL     1     -10.151   4.118  70.841  1.00  0.00    -0.119 C  
HETATM   15  C   UNL     1      -9.097   4.109  69.708  1.00  0.00    -0.176 C  
ENDROOT
BRANCH   8  16
HETATM   16  C   UNL     1      -8.148   9.589  67.748  1.00  0.00    -0.106 C  
HETATM   17  C   UNL     1      -6.870   9.917  67.470  1.00  0.00    -0.081 C  
BRANCH  16  18
HETATM   18  C   UNL     1      -9.187  10.672  67.697  1.00  0.00    -0.153 A  
HETATM   19  C   UNL     1     -10.355  10.583  66.910  1.00  0.00    -0.293 A  
HETATM   20  C   UNL     1     -11.238  11.671  66.773  1.00  0.00    -0.371 A  
HETATM   21  C   UNL     1     -10.963  12.875  67.422  1.00  0.00    -0.288 A  
HETATM   22  C   UNL     1      -9.858  12.949  68.275  1.00  0.00    -0.228 A  
HETATM   23  C   UNL     1     -11.813  14.090  67.283  1.00  0.00    -0.411 C  
HETATM   24  C   UNL     1      -8.990  11.859  68.417  1.00  0.00    -0.163 A  
HETATM   25  O   UNL     1     -12.441  14.200  66.092  1.00  0.00    -0.466 OA 
HETATM   26  O   UNL     1     -11.894  14.942  68.149  1.00  0.00    -0.330 OA 
ENDBRANCH  16  18
ENDBRANCH   8  16
TORSDOF 2
ENDMDL
MODEL      110
REMARK 921   NORMALIZED FREE ENERGY PREDICTED BY IDOCK:   -5.03 KCAL/MOL
REMARK 922        TOTAL FREE ENERGY PREDICTED BY IDOCK:   -5.77 KCAL/MOL
REMARK 923 INTER-LIGAND FREE ENERGY PREDICTED BY IDOCK:   -5.14 KCAL/MOL
REMARK 924 INTRA-LIGAND FREE ENERGY PREDICTED BY IDOCK:   -0.64 KCAL/MOL
REMARK 927      BINDING AFFINITY PREDICTED BY RF-SCORE:    0.00 PKD
ROOT
HETATM    1  C   UNL     1      -9.273  15.125  69.256  1.00  0.00    -0.205 C  
HETATM    2  C   UNL     1      -8.560  16.178  68.451  1.00  0.00    -0.189 A  
HETATM    3  C   UNL     1      -7.721  17.066  69.154  1.00  0.00    -0.114 A  
HETATM    4  C   UNL     1      -6.967  18.079  68.527  1.00  0.00    -0.245 A  
HETATM    5  C   UNL     1      -7.074  18.220  67.129  1.00  0.00    -0.211 A  
HETATM    6  C   UNL     1      -7.883  17.291  66.421  1.00  0.00    -0.345 A  
HETATM    7  C   UNL     1      -6.332  19.331  66.369  1.00  0.00    -0.201 C  
HETATM    8  C   UNL     1      -8.640  16.280  67.056  1.00  0.00    -0.227 A  
HETATM    9  C   UNL     1      -5.130  18.719  65.610  1.00  0.00    -0.181 C  
HETATM   10  C   UNL     1      -7.244  20.042  65.348  1.00  0.00    -0.258 C  
HETATM   11  C   UNL     1      -5.817  20.435  67.329  1.00  0.00    -0.210 C  
HETATM   12  C   UNL     1      -7.036  19.928  70.214  1.00  0.00     0.099 C  
HETATM   13  C   UNL     1      -5.134  19.857  68.555  1.00  0.00    -0.209 C  
HETATM   14  C   UNL     1      -5.227  18.203  70.395  1.00  0.00    -0.250 C  
HETATM   15  C   UNL     1      -6.103  19.003  69.400  1.00  0.00    -0.284 C  
ENDROOT
BRANCH   8  16
HETATM   16  C   UNL     1      -9.436  15.338  66.201  1.00  0.00    -0.361 C  
HETATM   17  C   UNL     1     -10.433  15.919  65.503  1.00  0.00    -0.425 C  
BRANCH  16  18
HETATM   18  C   UNL     1      -9.359  13.839  66.219  1.00  0.00    -0.166 A  
HETATM   19  C   UNL     1     -10.440  13.008  65.854  1.00  0.00    -0.293 A  
HETATM   20  C   UNL     1     -10.384  11.611  66.017  1.00  0.00    -0.283 A  
HETATM   21  C   UNL     1      -9.241  11.018  66.553  1.00  0.00    -0.187 A  
HETATM   22  C   UNL     1      -8.131  11.820  66.835  1.00  0.00    -0.160 A  
HETATM   23  C   UNL     1      -9.123   9.556  66.811  1.00  0.00    -0.146 C  
HETATM   24  C   UNL     1      -8.187  13.208  66.660  1.00  0.00     0.275 A  
HETATM   25  O   UNL     1     -10.291   8.945  67.109  1.00  0.00    -0.249 OA 
HETATM   26  O   UNL     1      -8.056   8.969  66.807  1.00  0.00    -0.109 OA 
ENDBRANCH  16  18
ENDBRANCH   8  16
TORSDOF 2
ENDMDL
MODEL      111
REMARK 921   NORMALIZED FREE ENERGY PREDICTED BY IDOCK:   -5.02 KCAL/MOL
REMARK 922        TOTAL FREE ENERGY PREDICTED BY IDOCK:   -5.76 KCAL/MOL
REMARK 923 INTER-LIGAND FREE ENERGY PREDICTED BY IDOCK:   -4.86 KCAL/MOL
REMARK 924 INTRA-LIGAND FREE ENERGY PREDICTED BY IDOCK:   -0.90 KCAL/MOL
REMARK 927      BINDING AFFINITY PREDICTED BY RF-SCORE:    0.00 PKD
ROOT
HETATM    1  C   UNL     1     -11.923  12.135  65.553  1.00  0.00    -0.290 C  
HETATM    2  C   UNL     1     -10.702  12.665  66.254  1.00  0.00    -0.280 A  
HETATM    3  C   UNL     1     -10.861  13.831  67.028  1.00  0.00    -0.288 A  
HETATM    4  C   UNL     1      -9.813  14.421  67.765  1.00  0.00    -0.221 A  
HETATM    5  C   UNL     1      -8.539  13.822  67.705  1.00  0.00    -0.187 A  
HETATM    6  C   UNL     1      -8.397  12.620  66.962  1.00  0.00    -0.130 A  
HETATM    7  C   UNL     1      -7.326  14.427  68.431  1.00  0.00    -0.117 C  
HETATM    8  C   UNL     1      -9.451  12.036  66.222  1.00  0.00    -0.237 A  
HETATM    9  C   UNL     1      -7.003  13.580  69.685  1.00  0.00     0.189 C  
HETATM   10  C   UNL     1      -6.074  14.466  67.531  1.00  0.00     0.049 C  
HETATM   11  C   UNL     1      -7.591  15.893  68.863  1.00  0.00    -0.190 C  
HETATM   12  C   UNL     1     -10.313  16.866  67.557  1.00  0.00    -0.318 C  
HETATM   13  C   UNL     1      -8.949  16.060  69.522  1.00  0.00    -0.071 C  
HETATM   14  C   UNL     1     -11.375  15.577  69.425  1.00  0.00    -0.321 C  
HETATM   15  C   UNL     1     -10.100  15.708  68.556  1.00  0.00    -0.211 C  
ENDROOT
BRANCH   8  16
HETATM   16  C   UNL     1      -9.189  10.748  65.499  1.00  0.00    -0.230 C  
HETATM   17  C   UNL     1      -8.841  10.891  64.203  1.00  0.00    -0.055 C  
BRANCH  16  18
HETATM   18  C   UNL     1      -9.476   9.365  66.009  1.00  0.00    -0.304 A  
HETATM   19  C   UNL     1     -10.447   9.095  66.998  1.00  0.00    -0.311 A  
HETATM   20  C   UNL     1     -10.593   7.811  67.556  1.00  0.00    -0.319 A  
HETATM   21  C   UNL     1      -9.765   6.771  67.135  1.00  0.00    -0.191 A  
HETATM   22  C   UNL     1      -8.861   7.003  66.095  1.00  0.00    -0.165 A  
HETATM   23  C   UNL     1      -9.816   5.401  67.716  1.00  0.00    -0.143 C  
HETATM   24  C   UNL     1      -8.727   8.280  65.534  1.00  0.00    -0.173 A  
HETATM   25  O   UNL     1     -10.195   5.356  69.012  1.00  0.00    -0.199 OA 
HETATM   26  O   UNL     1      -9.491   4.407  67.092  1.00  0.00    -0.147 OA 
ENDBRANCH  16  18
ENDBRANCH   8  16
TORSDOF 2
ENDMDL
MODEL      112
REMARK 921   NORMALIZED FREE ENERGY PREDICTED BY IDOCK:   -4.99 KCAL/MOL
REMARK 922        TOTAL FREE ENERGY PREDICTED BY IDOCK:   -5.72 KCAL/MOL
REMARK 923 INTER-LIGAND FREE ENERGY PREDICTED BY IDOCK:   -4.83 KCAL/MOL
REMARK 924 INTRA-LIGAND FREE ENERGY PREDICTED BY IDOCK:   -0.89 KCAL/MOL
REMARK 927      BINDING AFFINITY PREDICTED BY RF-SCORE:    0.00 PKD
ROOT
HETATM    1  C   UNL     1      -9.459   8.756  72.190  1.00  0.00    -0.309 C  
HETATM    2  C   UNL     1      -9.150   7.478  71.461  1.00  0.00    -0.146 A  
HETATM    3  C   UNL     1      -9.518   6.273  72.091  1.00  0.00    -0.155 A  
HETATM    4  C   UNL     1      -9.320   5.003  71.511  1.00  0.00    -0.191 A  
HETATM    5  C   UNL     1      -8.704   4.938  70.245  1.00  0.00    -0.122 A  
HETATM    6  C   UNL     1      -8.381   6.158  69.594  1.00  0.00    -0.124 A  
HETATM    7  C   UNL     1      -8.399   3.595  69.562  1.00  0.00    -0.077 C  
HETATM    8  C   UNL     1      -8.578   7.429  70.183  1.00  0.00    -0.139 A  
HETATM    9  C   UNL     1      -9.411   3.361  68.415  1.00  0.00    -0.238 C  
HETATM   10  C   UNL     1      -6.974   3.558  68.972  1.00  0.00    -0.046 C  
HETATM   11  C   UNL     1      -8.483   2.413  70.561  1.00  0.00    -0.089 C  
HETATM   12  C   UNL     1      -8.778   3.578  73.498  1.00  0.00    -0.082 C  
HETATM   13  C   UNL     1      -9.726   2.483  71.430  1.00  0.00    -0.217 C  
HETATM   14  C   UNL     1     -11.182   3.885  72.859  1.00  0.00    -0.004 C  
HETATM   15  C   UNL     1      -9.743   3.755  72.304  1.00  0.00    -0.221 C  
ENDROOT
BRANCH   8  16
HETATM   16  C   UNL     1      -8.223   8.649  69.386  1.00  0.00    -0.113 C  
HETATM   17  C   UNL     1      -6.900   8.894  69.291  1.00  0.00    -0.050 C  
BRANCH  16  18
HETATM   18  C   UNL     1      -9.177   9.697  68.889  1.00  0.00    -0.147 A  
HETATM   19  C   UNL     1     -10.403   9.388  68.263  1.00  0.00    -0.251 A  
HETATM   20  C   UNL     1     -11.207  10.386  67.682  1.00  0.00    -0.287 A  
HETATM   21  C   UNL     1     -10.795  11.718  67.714  1.00  0.00    -0.258 A  
HETATM   22  C   UNL     1      -9.628  12.049  68.409  1.00  0.00    -0.190 A  
HETATM   23  C   UNL     1     -11.557  12.825  67.074  1.00  0.00    -0.360 C  
HETATM   24  C   UNL     1      -8.837  11.053  68.996  1.00  0.00    -0.068 A  
HETATM   25  O   UNL     1     -12.261  12.460  65.979  1.00  0.00    -0.636 OA 
HETATM   26  O   UNL     1     -11.509  13.976  67.470  1.00  0.00    -0.307 OA 
ENDBRANCH  16  18
ENDBRANCH   8  16
TORSDOF 2
ENDMDL
MODEL      113
REMARK 921   NORMALIZED FREE ENERGY PREDICTED BY IDOCK:   -4.87 KCAL/MOL
REMARK 922        TOTAL FREE ENERGY PREDICTED BY IDOCK:   -5.59 KCAL/MOL
REMARK 923 INTER-LIGAND FREE ENERGY PREDICTED BY IDOCK:   -4.83 KCAL/MOL
REMARK 924 INTRA-LIGAND FREE ENERGY PREDICTED BY IDOCK:   -0.76 KCAL/MOL
REMARK 927      BINDING AFFINITY PREDICTED BY RF-SCORE:    0.00 PKD
ROOT
HETATM    1  C   UNL     1     -11.727  11.981  67.157  1.00  0.00    -0.344 C  
HETATM    2  C   UNL     1     -10.299  12.311  67.496  1.00  0.00    -0.214 A  
HETATM    3  C   UNL     1      -9.983  13.669  67.700  1.00  0.00    -0.239 A  
HETATM    4  C   UNL     1      -8.696  14.121  68.055  1.00  0.00    -0.177 A  
HETATM    5  C   UNL     1      -7.669  13.164  68.192  1.00  0.00    -0.143 A  
HETATM    6  C   UNL     1      -8.004  11.793  68.033  1.00  0.00    -0.141 A  
HETATM    7  C   UNL     1      -6.224  13.571  68.521  1.00  0.00    -0.090 C  
HETATM    8  C   UNL     1      -9.297  11.347  67.673  1.00  0.00    -0.159 A  
HETATM    9  C   UNL     1      -5.918  13.228  69.999  1.00  0.00    -0.134 C  
HETATM   10  C   UNL     1      -5.200  12.841  67.628  1.00  0.00    -0.101 C  
HETATM   11  C   UNL     1      -5.990  15.087  68.294  1.00  0.00    -0.124 C  
HETATM   12  C   UNL     1      -8.535  16.305  66.841  1.00  0.00    -0.257 C  
HETATM   13  C   UNL     1      -7.102  15.935  68.887  1.00  0.00    -0.148 C  
HETATM   14  C   UNL     1      -9.541  16.276  69.135  1.00  0.00    -0.251 C  
HETATM   15  C   UNL     1      -8.465  15.631  68.229  1.00  0.00    -0.156 C  
ENDROOT
BRANCH   8  16
HETATM   16  C   UNL     1      -9.539   9.871  67.562  1.00  0.00    -0.183 C  
HETATM   17  C   UNL     1      -9.757   9.429  66.306  1.00  0.00    -0.330 C  
BRANCH  16  18
HETATM   18  C   UNL     1      -9.763   8.917  68.699  1.00  0.00    -0.169 A  
HETATM   19  C   UNL     1     -10.801   9.072  69.643  1.00  0.00    -0.196 A  
HETATM   20  C   UNL     1     -10.898   8.244  70.776  1.00  0.00    -0.252 A  
HETATM   21  C   UNL     1      -9.951   7.243  70.990  1.00  0.00    -0.188 A  
HETATM   22  C   UNL     1      -8.971   7.020  70.019  1.00  0.00    -0.142 A  
HETATM   23  C   UNL     1      -9.949   6.363  72.191  1.00  0.00    -0.165 C  
HETATM   24  C   UNL     1      -8.885   7.839  68.886  1.00  0.00    -0.135 A  
HETATM   25  O   UNL     1     -10.449   6.939  73.306  1.00  0.00    -0.253 OA 
HETATM   26  O   UNL     1      -9.485   5.237  72.184  1.00  0.00    -0.142 OA 
ENDBRANCH  16  18
ENDBRANCH   8  16
TORSDOF 2
ENDMDL
MODEL      114
REMARK 921   NORMALIZED FREE ENERGY PREDICTED BY IDOCK:   -4.86 KCAL/MOL
REMARK 922        TOTAL FREE ENERGY PREDICTED BY IDOCK:   -5.58 KCAL/MOL
REMARK 923 INTER-LIGAND FREE ENERGY PREDICTED BY IDOCK:   -5.70 KCAL/MOL
REMARK 924 INTRA-LIGAND FREE ENERGY PREDICTED BY IDOCK:    0.12 KCAL/MOL
REMARK 927      BINDING AFFINITY PREDICTED BY RF-SCORE:    0.00 PKD
ROOT
HETATM    1  C   UNL     1     -10.347  11.873  68.106  1.00  0.00    -0.210 C  
HETATM    2  C   UNL     1     -10.000  10.466  67.703  1.00  0.00    -0.205 A  
HETATM    3  C   UNL     1      -9.207  10.304  66.551  1.00  0.00    -0.179 A  
HETATM    4  C   UNL     1      -8.778   9.048  66.075  1.00  0.00    -0.184 A  
HETATM    5  C   UNL     1      -9.182   7.896  66.781  1.00  0.00    -0.206 A  
HETATM    6  C   UNL     1      -9.941   8.069  67.969  1.00  0.00    -0.216 A  
HETATM    7  C   UNL     1      -8.808   6.483  66.304  1.00  0.00    -0.154 C  
HETATM    8  C   UNL     1     -10.371   9.332  68.438  1.00  0.00    -0.244 A  
HETATM    9  C   UNL     1      -7.692   5.914  67.212  1.00  0.00    -0.101 C  
HETATM   10  C   UNL     1     -10.013   5.521  66.348  1.00  0.00    -0.203 C  
HETATM   11  C   UNL     1      -8.314   6.487  64.834  1.00  0.00    -0.049 C  
HETATM   12  C   UNL     1      -8.832   9.360  63.591  1.00  0.00    -0.198 C  
HETATM   13  C   UNL     1      -7.312   7.597  64.569  1.00  0.00    -0.086 C  
HETATM   14  C   UNL     1      -6.752   9.993  64.837  1.00  0.00    -0.126 C  
HETATM   15  C   UNL     1      -7.932   8.993  64.792  1.00  0.00    -0.129 C  
ENDROOT
BRANCH   8  16
HETATM   16  C   UNL     1     -11.144   9.392  69.722  1.00  0.00    -0.193 C  
HETATM   17  C   UNL     1     -11.909  10.494  69.866  1.00  0.00    -0.358 C  
BRANCH  16  18
HETATM   18  C   UNL     1     -10.982   8.479  70.903  1.00  0.00    -0.292 A  
HETATM   19  C   UNL     1     -10.100   8.750  71.971  1.00  0.00    -0.397 A  
HETATM   20  C   UNL     1      -9.866   7.809  72.991  1.00  0.00    -0.344 A  
HETATM   21  C   UNL     1     -10.511   6.572  72.957  1.00  0.00    -0.258 A  
HETATM   22  C   UNL     1     -11.453   6.326  71.955  1.00  0.00    -0.359 A  
HETATM   23  C   UNL     1     -10.274   5.501  73.964  1.00  0.00    -0.255 C  
HETATM   24  C   UNL     1     -11.691   7.271  70.949  1.00  0.00    -0.348 A  
HETATM   25  O   UNL     1      -9.031   5.496  74.494  1.00  0.00    -0.119 OA 
HETATM   26  O   UNL     1     -11.113   4.664  74.247  1.00  0.00    -0.287 OA 
ENDBRANCH  16  18
ENDBRANCH   8  16
TORSDOF 2
ENDMDL
MODEL      115
REMARK 921   NORMALIZED FREE ENERGY PREDICTED BY IDOCK:   -4.84 KCAL/MOL
REMARK 922        TOTAL FREE ENERGY PREDICTED BY IDOCK:   -5.56 KCAL/MOL
REMARK 923 INTER-LIGAND FREE ENERGY PREDICTED BY IDOCK:   -4.58 KCAL/MOL
REMARK 924 INTRA-LIGAND FREE ENERGY PREDICTED BY IDOCK:   -0.97 KCAL/MOL
REMARK 927      BINDING AFFINITY PREDICTED BY RF-SCORE:    0.00 PKD
ROOT
HETATM    1  C   UNL     1      -7.043  11.338  69.155  1.00  0.00    -0.122 C  
HETATM    2  C   UNL     1      -8.161  11.846  68.286  1.00  0.00    -0.157 A  
HETATM    3  C   UNL     1      -8.891  12.954  68.759  1.00  0.00     0.180 A  
HETATM    4  C   UNL     1      -9.942  13.556  68.038  1.00  0.00    -0.248 A  
HETATM    5  C   UNL     1     -10.290  13.007  66.787  1.00  0.00    -0.256 A  
HETATM    6  C   UNL     1      -9.519  11.921  66.293  1.00  0.00    -0.238 A  
HETATM    7  C   UNL     1     -11.458  13.563  65.957  1.00  0.00    -0.345 C  
HETATM    8  C   UNL     1      -8.469  11.319  67.024  1.00  0.00    -0.150 A  
HETATM    9  C   UNL     1     -10.898  14.379  64.766  1.00  0.00    -0.415 C  
HETATM   10  C   UNL     1     -12.357  12.441  65.400  1.00  0.00    -0.308 C  
HETATM   11  C   UNL     1     -12.382  14.474  66.806  1.00  0.00    -0.111 C  
HETATM   12  C   UNL     1     -11.528  14.235  69.853  1.00  0.00    -0.301 C  
HETATM   13  C   UNL     1     -11.595  15.464  67.648  1.00  0.00    -0.202 C  
HETATM   14  C   UNL     1      -9.699  15.819  69.200  1.00  0.00    -0.250 C  
HETATM   15  C   UNL     1     -10.682  14.749  68.666  1.00  0.00    -0.253 C  
ENDROOT
BRANCH   8  16
HETATM   16  C   UNL     1      -7.706  10.196  66.387  1.00  0.00    -0.111 C  
HETATM   17  C   UNL     1      -6.795  10.583  65.471  1.00  0.00    -0.100 C  
BRANCH  16  18
HETATM   18  C   UNL     1      -8.005   8.730  66.518  1.00  0.00    -0.103 A  
HETATM   19  C   UNL     1      -7.742   7.795  65.494  1.00  0.00    -0.100 A  
HETATM   20  C   UNL     1      -8.163   6.456  65.591  1.00  0.00    -0.140 A  
HETATM   21  C   UNL     1      -8.861   6.026  66.720  1.00  0.00    -0.120 A  
HETATM   22  C   UNL     1      -9.049   6.918  67.780  1.00  0.00    -0.118 A  
HETATM   23  C   UNL     1      -9.391   4.644  66.875  1.00  0.00    -0.140 C  
HETATM   24  C   UNL     1      -8.618   8.247  67.683  1.00  0.00    -0.130 A  
HETATM   25  O   UNL     1      -9.733   4.042  65.714  1.00  0.00    -0.179 OA 
HETATM   26  O   UNL     1      -9.554   4.117  67.961  1.00  0.00    -0.166 OA 
ENDBRANCH  16  18
ENDBRANCH   8  16
TORSDOF 2
ENDMDL
MODEL      116
REMARK 921   NORMALIZED FREE ENERGY PREDICTED BY IDOCK:   -4.81 KCAL/MOL
REMARK 922        TOTAL FREE ENERGY PREDICTED BY IDOCK:   -5.52 KCAL/MOL
REMARK 923 INTER-LIGAND FREE ENERGY PREDICTED BY IDOCK:   -4.62 KCAL/MOL
REMARK 924 INTRA-LIGAND FREE ENERGY PREDICTED BY IDOCK:   -0.91 KCAL/MOL
REMARK 927      BINDING AFFINITY PREDICTED BY RF-SCORE:    0.00 PKD
ROOT
HETATM    1  C   UNL     1      -9.593  16.679  69.383  1.00  0.00    -0.057 C  
HETATM    2  C   UNL     1      -9.103  15.300  69.038  1.00  0.00    -0.225 A  
HETATM    3  C   UNL     1     -10.078  14.309  68.811  1.00  0.00    -0.217 A  
HETATM    4  C   UNL     1      -9.766  12.983  68.448  1.00  0.00    -0.192 A  
HETATM    5  C   UNL     1      -8.407  12.629  68.326  1.00  0.00    -0.165 A  
HETATM    6  C   UNL     1      -7.431  13.644  68.508  1.00  0.00    -0.119 A  
HETATM    7  C   UNL     1      -7.973  11.193  67.989  1.00  0.00    -0.117 C  
HETATM    8  C   UNL     1      -7.750  14.971  68.876  1.00  0.00    -0.152 A  
HETATM    9  C   UNL     1      -7.499  11.133  66.517  1.00  0.00    -0.131 C  
HETATM   10  C   UNL     1      -6.821  10.710  68.894  1.00  0.00    -0.066 C  
HETATM   11  C   UNL     1      -9.132  10.182  68.190  1.00  0.00    -0.128 C  
HETATM   12  C   UNL     1     -11.542  11.666  69.624  1.00  0.00    -0.401 C  
HETATM   13  C   UNL     1     -10.434  10.674  67.584  1.00  0.00    -0.267 C  
HETATM   14  C   UNL     1     -12.025  12.554  67.331  1.00  0.00    -0.283 C  
HETATM   15  C   UNL     1     -10.916  11.982  68.247  1.00  0.00    -0.275 C  
ENDROOT
BRANCH   8  16
HETATM   16  C   UNL     1      -6.634  15.964  69.013  1.00  0.00    -0.142 C  
HETATM   17  C   UNL     1      -5.970  15.907  70.185  1.00  0.00    -0.134 C  
BRANCH  16  18
HETATM   18  C   UNL     1      -6.343  17.109  68.086  1.00  0.00    -0.147 A  
HETATM   19  C   UNL     1      -6.512  18.461  68.454  1.00  0.00    -0.215 A  
HETATM   20  C   UNL     1      -6.367  19.504  67.521  1.00  0.00    -0.217 A  
HETATM   21  C   UNL     1      -6.053  19.211  66.193  1.00  0.00    -0.196 A  
HETATM   22  C   UNL     1      -5.796  17.884  65.835  1.00  0.00    -0.237 A  
HETATM   23  C   UNL     1      -5.939  20.249  65.133  1.00  0.00    -0.222 C  
HETATM   24  C   UNL     1      -5.929  16.851  66.771  1.00  0.00    -0.201 A  
HETATM   25  O   UNL     1      -6.731  21.329  65.320  1.00  0.00     0.049 OA 
HETATM   26  O   UNL     1      -5.233  20.115  64.150  1.00  0.00    -0.160 OA 
ENDBRANCH  16  18
ENDBRANCH   8  16
TORSDOF 2
ENDMDL
MODEL      117
REMARK 921   NORMALIZED FREE ENERGY PREDICTED BY IDOCK:   -4.80 KCAL/MOL
REMARK 922        TOTAL FREE ENERGY PREDICTED BY IDOCK:   -5.51 KCAL/MOL
REMARK 923 INTER-LIGAND FREE ENERGY PREDICTED BY IDOCK:   -4.58 KCAL/MOL
REMARK 924 INTRA-LIGAND FREE ENERGY PREDICTED BY IDOCK:   -0.94 KCAL/MOL
REMARK 927      BINDING AFFINITY PREDICTED BY RF-SCORE:    0.00 PKD
ROOT
HETATM    1  C   UNL     1     -11.750  12.088  66.906  1.00  0.00    -0.342 C  
HETATM    2  C   UNL     1     -10.459  12.728  67.340  1.00  0.00    -0.234 A  
HETATM    3  C   UNL     1     -10.394  14.134  67.301  1.00  0.00    -0.267 A  
HETATM    4  C   UNL     1      -9.262  14.869  67.709  1.00  0.00    -0.186 A  
HETATM    5  C   UNL     1      -8.132  14.155  68.159  1.00  0.00    -0.148 A  
HETATM    6  C   UNL     1      -8.222  12.740  68.242  1.00  0.00    -0.159 A  
HETATM    7  C   UNL     1      -6.835  14.871  68.571  1.00  0.00    -0.106 C  
HETATM    8  C   UNL     1      -9.359  12.009  67.827  1.00  0.00    -0.190 A  
HETATM    9  C   UNL     1      -6.709  14.859  70.113  1.00  0.00    -0.117 C  
HETATM   10  C   UNL     1      -5.586  14.191  67.973  1.00  0.00    -0.124 C  
HETATM   11  C   UNL     1      -6.808  16.339  68.071  1.00  0.00    -0.142 C  
HETATM   12  C   UNL     1      -9.258  16.794  66.107  1.00  0.00    -0.284 C  
HETATM   13  C   UNL     1      -8.115  17.062  68.343  1.00  0.00    -0.245 C  
HETATM   14  C   UNL     1     -10.587  16.993  68.222  1.00  0.00    -0.372 C  
HETATM   15  C   UNL     1      -9.298  16.402  67.602  1.00  0.00    -0.212 C  
ENDROOT
BRANCH   8  16
HETATM   16  C   UNL     1      -9.349  10.518  67.989  1.00  0.00    -0.150 C  
HETATM   17  C   UNL     1      -9.712  10.082  69.212  1.00  0.00    -0.227 C  
BRANCH  16  18
HETATM   18  C   UNL     1      -8.787   9.521  67.017  1.00  0.00    -0.139 A  
HETATM   19  C   UNL     1      -8.548   9.820  65.658  1.00  0.00    -0.154 A  
HETATM   20  C   UNL     1      -8.155   8.826  64.742  1.00  0.00    -0.151 A  
HETATM   21  C   UNL     1      -7.998   7.507  65.171  1.00  0.00    -0.128 A  
HETATM   22  C   UNL     1      -8.145   7.215  66.530  1.00  0.00    -0.114 A  
HETATM   23  C   UNL     1      -7.643   6.388  64.256  1.00  0.00    -0.099 C  
HETATM   24  C   UNL     1      -8.524   8.210  67.439  1.00  0.00    -0.126 A  
HETATM   25  O   UNL     1      -8.086   6.540  62.988  1.00  0.00    -0.111 OA 
HETATM   26  O   UNL     1      -7.050   5.392  64.630  1.00  0.00    -0.052 OA 
ENDBRANCH  16  18
ENDBRANCH   8  16
TORSDOF 2
ENDMDL
MODEL      118
REMARK 921   NORMALIZED FREE ENERGY PREDICTED BY IDOCK:   -4.80 KCAL/MOL
REMARK 922        TOTAL FREE ENERGY PREDICTED BY IDOCK:   -5.51 KCAL/MOL
REMARK 923 INTER-LIGAND FREE ENERGY PREDICTED BY IDOCK:   -5.05 KCAL/MOL
REMARK 924 INTRA-LIGAND FREE ENERGY PREDICTED BY IDOCK:   -0.46 KCAL/MOL
REMARK 927      BINDING AFFINITY PREDICTED BY RF-SCORE:    0.00 PKD
ROOT
HETATM    1  C   UNL     1      -8.625   7.990  73.776  1.00  0.00    -0.328 C  
HETATM    2  C   UNL     1      -8.638   7.330  72.424  1.00  0.00    -0.133 A  
HETATM    3  C   UNL     1      -7.681   6.323  72.192  1.00  0.00    -0.096 A  
HETATM    4  C   UNL     1      -7.598   5.596  70.986  1.00  0.00    -0.095 A  
HETATM    5  C   UNL     1      -8.507   5.911  69.955  1.00  0.00    -0.126 A  
HETATM    6  C   UNL     1      -9.500   6.893  70.214  1.00  0.00    -0.162 A  
HETATM    7  C   UNL     1      -8.453   5.210  68.588  1.00  0.00    -0.088 C  
HETATM    8  C   UNL     1      -9.576   7.621  71.424  1.00  0.00    -0.178 A  
HETATM    9  C   UNL     1      -9.617   4.195  68.486  1.00  0.00    -0.192 C  
HETATM   10  C   UNL     1      -8.573   6.210  67.421  1.00  0.00    -0.106 C  
HETATM   11  C   UNL     1      -7.110   4.463  68.380  1.00  0.00    -0.056 C  
HETATM   12  C   UNL     1      -5.131   5.250  70.732  1.00  0.00    -0.004 C  
HETATM   13  C   UNL     1      -6.714   3.644  69.596  1.00  0.00    -0.034 C  
HETATM   14  C   UNL     1      -6.449   3.580  72.057  1.00  0.00    -0.015 C  
HETATM   15  C   UNL     1      -6.496   4.534  70.838  1.00  0.00    -0.030 C  
ENDROOT
BRANCH   8  16
HETATM   16  C   UNL     1     -10.687   8.614  71.593  1.00  0.00    -0.374 C  
HETATM   17  C   UNL     1     -11.621   8.264  72.501  1.00  0.00    -0.454 C  
BRANCH  16  18
HETATM   18  C   UNL     1     -10.952   9.809  70.724  1.00  0.00    -0.406 A  
HETATM   19  C   UNL     1     -10.263  10.053  69.517  1.00  0.00    -0.255 A  
HETATM   20  C   UNL     1     -10.433  11.251  68.799  1.00  0.00    -0.232 A  
HETATM   21  C   UNL     1     -11.299  12.234  69.280  1.00  0.00    -0.317 A  
HETATM   22  C   UNL     1     -12.055  11.968  70.426  1.00  0.00    -0.407 A  
HETATM   23  C   UNL     1     -11.492  13.551  68.613  1.00  0.00    -0.308 C  
HETATM   24  C   UNL     1     -11.890  10.769  71.130  1.00  0.00    -0.277 A  
HETATM   25  O   UNL     1     -10.406  14.005  67.949  1.00  0.00    -0.233 OA 
HETATM   26  O   UNL     1     -12.523  14.192  68.702  1.00  0.00    -0.145 OA 
ENDBRANCH  16  18
ENDBRANCH   8  16
TORSDOF 2
ENDMDL
MODEL      119
REMARK 921   NORMALIZED FREE ENERGY PREDICTED BY IDOCK:   -4.79 KCAL/MOL
REMARK 922        TOTAL FREE ENERGY PREDICTED BY IDOCK:   -5.50 KCAL/MOL
REMARK 923 INTER-LIGAND FREE ENERGY PREDICTED BY IDOCK:   -5.78 KCAL/MOL
REMARK 924 INTRA-LIGAND FREE ENERGY PREDICTED BY IDOCK:    0.27 KCAL/MOL
REMARK 927      BINDING AFFINITY PREDICTED BY RF-SCORE:    0.00 PKD
ROOT
HETATM    1  C   UNL     1     -12.431  11.270  70.524  1.00  0.00    -0.398 C  
HETATM    2  C   UNL     1     -11.555  10.542  69.542  1.00  0.00    -0.332 A  
HETATM    3  C   UNL     1     -11.199  11.229  68.364  1.00  0.00    -0.324 A  
HETATM    4  C   UNL     1     -10.359  10.684  67.372  1.00  0.00    -0.262 A  
HETATM    5  C   UNL     1      -9.866   9.376  67.563  1.00  0.00    -0.220 A  
HETATM    6  C   UNL     1     -10.188   8.708  68.774  1.00  0.00    -0.224 A  
HETATM    7  C   UNL     1      -8.989   8.682  66.508  1.00  0.00    -0.187 C  
HETATM    8  C   UNL     1     -11.035   9.259  69.763  1.00  0.00    -0.213 A  
HETATM    9  C   UNL     1      -7.521   8.660  66.996  1.00  0.00    -0.084 C  
HETATM   10  C   UNL     1      -9.440   7.230  66.248  1.00  0.00    -0.133 C  
HETATM   11  C   UNL     1      -9.058   9.406  65.139  1.00  0.00    -0.280 C  
HETATM   12  C   UNL     1     -11.342  11.605  65.262  1.00  0.00    -0.220 C  
HETATM   13  C   UNL     1      -8.914  10.911  65.278  1.00  0.00    -0.202 C  
HETATM   14  C   UNL     1      -9.619  12.960  66.477  1.00  0.00    -0.259 C  
HETATM   15  C   UNL     1     -10.058  11.519  66.117  1.00  0.00    -0.266 C  
ENDROOT
BRANCH   8  16
HETATM   16  C   UNL     1     -11.280   8.471  71.015  1.00  0.00    -0.312 C  
HETATM   17  C   UNL     1     -12.192   9.010  71.851  1.00  0.00    -0.451 C  
BRANCH  16  18
HETATM   18  C   UNL     1     -10.478   7.297  71.500  1.00  0.00    -0.220 A  
HETATM   19  C   UNL     1      -9.164   7.416  72.001  1.00  0.00    -0.155 A  
HETATM   20  C   UNL     1      -8.388   6.284  72.313  1.00  0.00    -0.108 A  
HETATM   21  C   UNL     1      -8.915   5.006  72.126  1.00  0.00    -0.144 A  
HETATM   22  C   UNL     1     -10.245   4.876  71.716  1.00  0.00    -0.268 A  
HETATM   23  C   UNL     1      -8.142   3.759  72.378  1.00  0.00    -0.073 C  
HETATM   24  C   UNL     1     -11.017   6.005  71.418  1.00  0.00    -0.336 A  
HETATM   25  O   UNL     1      -6.811   3.876  72.174  1.00  0.00    -0.033 OA 
HETATM   26  O   UNL     1      -8.669   2.706  72.687  1.00  0.00    -0.073 OA 
ENDBRANCH  16  18
ENDBRANCH   8  16
TORSDOF 2
ENDMDL
MODEL      120
REMARK 921   NORMALIZED FREE ENERGY PREDICTED BY IDOCK:   -4.78 KCAL/MOL
REMARK 922        TOTAL FREE ENERGY PREDICTED BY IDOCK:   -5.48 KCAL/MOL
REMARK 923 INTER-LIGAND FREE ENERGY PREDICTED BY IDOCK:   -5.90 KCAL/MOL
REMARK 924 INTRA-LIGAND FREE ENERGY PREDICTED BY IDOCK:    0.42 KCAL/MOL
REMARK 927      BINDING AFFINITY PREDICTED BY RF-SCORE:    0.00 PKD
ROOT
HETATM    1  C   UNL     1     -10.413  16.618  68.500  1.00  0.00    -0.319 C  
HETATM    2  C   UNL     1     -10.855  15.268  68.993  1.00  0.00    -0.244 A  
HETATM    3  C   UNL     1     -11.736  15.242  70.091  1.00  0.00    -0.342 A  
HETATM    4  C   UNL     1     -12.258  14.051  70.638  1.00  0.00    -0.442 A  
HETATM    5  C   UNL     1     -11.860  12.826  70.066  1.00  0.00    -0.352 A  
HETATM    6  C   UNL     1     -11.010  12.861  68.929  1.00  0.00    -0.271 A  
HETATM    7  C   UNL     1     -12.334  11.478  70.632  1.00  0.00    -0.457 C  
HETATM    8  C   UNL     1     -10.487  14.059  68.388  1.00  0.00    -0.254 A  
HETATM    9  C   UNL     1     -13.408  10.877  69.694  1.00  0.00     1.327 C  
HETATM   10  C   UNL     1     -11.177  10.466  70.762  1.00  0.00    -0.293 C  
HETATM   11  C   UNL     1     -12.932  11.632  72.055  1.00  0.00    -0.365 C  
HETATM   12  C   UNL     1     -12.368  14.580  73.083  1.00  0.00    -0.278 C  
HETATM   13  C   UNL     1     -13.896  12.802  72.148  1.00  0.00    -0.326 C  
HETATM   14  C   UNL     1     -14.320  15.186  71.634  1.00  0.00    -0.685 C  
HETATM   15  C   UNL     1     -13.195  14.145  71.853  1.00  0.00    -0.468 C  
ENDROOT
BRANCH   8  16
HETATM   16  C   UNL     1      -9.621  13.973  67.166  1.00  0.00    -0.245 C  
HETATM   17  C   UNL     1      -9.072  15.144  66.782  1.00  0.00    -0.282 C  
BRANCH  16  18
HETATM   18  C   UNL     1      -9.492  12.792  66.247  1.00  0.00    -0.198 A  
HETATM   19  C   UNL     1      -8.843  11.595  66.618  1.00  0.00    -0.187 A  
HETATM   20  C   UNL     1      -8.613  10.562  65.690  1.00  0.00    -0.182 A  
HETATM   21  C   UNL     1      -9.028  10.711  64.367  1.00  0.00    -0.212 A  
HETATM   22  C   UNL     1      -9.750  11.853  64.008  1.00  0.00    -0.179 A  
HETATM   23  C   UNL     1      -8.773   9.692  63.311  1.00  0.00    -0.230 C  
HETATM   24  C   UNL     1      -9.987  12.872  64.938  1.00  0.00    -0.151 A  
HETATM   25  O   UNL     1      -7.643   8.973  63.491  1.00  0.00    -0.104 OA 
HETATM   26  O   UNL     1      -9.492   9.555  62.338  1.00  0.00    -0.158 OA 
ENDBRANCH  16  18
ENDBRANCH   8  16
TORSDOF 2
ENDMDL
MODEL      121
REMARK 921   NORMALIZED FREE ENERGY PREDICTED BY IDOCK:   -4.75 KCAL/MOL
REMARK 922        TOTAL FREE ENERGY PREDICTED BY IDOCK:   -5.45 KCAL/MOL
REMARK 923 INTER-LIGAND FREE ENERGY PREDICTED BY IDOCK:   -4.54 KCAL/MOL
REMARK 924 INTRA-LIGAND FREE ENERGY PREDICTED BY IDOCK:   -0.91 KCAL/MOL
REMARK 927      BINDING AFFINITY PREDICTED BY RF-SCORE:    0.00 PKD
ROOT
HETATM    1  C   UNL     1      -5.725  11.567  70.196  1.00  0.00    -0.137 C  
HETATM    2  C   UNL     1      -6.914  11.770  69.298  1.00  0.00    -0.065 A  
HETATM    3  C   UNL     1      -7.219  13.093  68.924  1.00  0.00    -0.048 A  
HETATM    4  C   UNL     1      -8.283  13.430  68.062  1.00  0.00    -0.161 A  
HETATM    5  C   UNL     1      -9.093  12.387  67.566  1.00  0.00    -0.185 A  
HETATM    6  C   UNL     1      -8.750  11.052  67.908  1.00  0.00    -0.133 A  
HETATM    7  C   UNL     1     -10.308  12.665  66.666  1.00  0.00    -0.249 C  
HETATM    8  C   UNL     1      -7.684  10.722  68.777  1.00  0.00    -0.121 A  
HETATM    9  C   UNL     1      -9.963  12.280  65.207  1.00  0.00    -0.250 C  
HETATM   10  C   UNL     1     -11.548  11.860  67.104  1.00  0.00    -0.363 C  
HETATM   11  C   UNL     1     -10.725  14.158  66.712  1.00  0.00    -0.286 C  
HETATM   12  C   UNL     1      -9.082  15.605  69.009  1.00  0.00    -0.241 C  
HETATM   13  C   UNL     1      -9.534  15.091  66.579  1.00  0.00    -0.306 C  
HETATM   14  C   UNL     1      -7.235  15.638  67.317  1.00  0.00    -0.252 C  
HETATM   15  C   UNL     1      -8.535  14.912  67.742  1.00  0.00    -0.160 C  
ENDROOT
BRANCH   8  16
HETATM   16  C   UNL     1      -7.399   9.273  69.041  1.00  0.00    -0.072 C  
HETATM   17  C   UNL     1      -6.613   8.677  68.122  1.00  0.00    -0.061 C  
BRANCH  16  18
HETATM   18  C   UNL     1      -8.059   8.411  70.079  1.00  0.00    -0.115 A  
HETATM   19  C   UNL     1      -7.641   7.095  70.367  1.00  0.00    -0.089 A  
HETATM   20  C   UNL     1      -8.366   6.264  71.241  1.00  0.00    -0.123 A  
HETATM   21  C   UNL     1      -9.533   6.738  71.843  1.00  0.00    -0.146 A  
HETATM   22  C   UNL     1      -9.909   8.068  71.636  1.00  0.00    -0.223 A  
HETATM   23  C   UNL     1     -10.388   5.906  72.733  1.00  0.00    -0.196 C  
HETATM   24  C   UNL     1      -9.177   8.894  70.774  1.00  0.00    -0.272 A  
HETATM   25  O   UNL     1     -10.375   4.585  72.446  1.00  0.00    -0.191 OA 
HETATM   26  O   UNL     1     -11.085   6.380  73.612  1.00  0.00    -0.090 OA 
ENDBRANCH  16  18
ENDBRANCH   8  16
TORSDOF 2
ENDMDL
MODEL      122
REMARK 921   NORMALIZED FREE ENERGY PREDICTED BY IDOCK:   -4.62 KCAL/MOL
REMARK 922        TOTAL FREE ENERGY PREDICTED BY IDOCK:   -5.31 KCAL/MOL
REMARK 923 INTER-LIGAND FREE ENERGY PREDICTED BY IDOCK:   -4.36 KCAL/MOL
REMARK 924 INTRA-LIGAND FREE ENERGY PREDICTED BY IDOCK:   -0.95 KCAL/MOL
REMARK 927      BINDING AFFINITY PREDICTED BY RF-SCORE:    0.00 PKD
ROOT
HETATM    1  C   UNL     1      -8.760   4.735  69.539  1.00  0.00    -0.111 C  
HETATM    2  C   UNL     1      -9.251   6.141  69.325  1.00  0.00    -0.134 A  
HETATM    3  C   UNL     1     -10.102   6.682  70.308  1.00  0.00    -0.201 A  
HETATM    4  C   UNL     1     -10.611   7.996  70.255  1.00  0.00    -0.231 A  
HETATM    5  C   UNL     1     -10.263   8.800  69.150  1.00  0.00    -0.215 A  
HETATM    6  C   UNL     1      -9.366   8.265  68.187  1.00  0.00    -0.140 A  
HETATM    7  C   UNL     1     -10.816  10.224  68.981  1.00  0.00    -0.265 C  
HETATM    8  C   UNL     1      -8.863   6.945  68.244  1.00  0.00    -0.122 A  
HETATM    9  C   UNL     1      -9.703  11.248  69.310  1.00  0.00     0.110 C  
HETATM   10  C   UNL     1     -11.310  10.485  67.543  1.00  0.00    -0.181 C  
HETATM   11  C   UNL     1     -12.032  10.480  69.908  1.00  0.00    -0.339 C  
HETATM   12  C   UNL     1     -12.900   7.732  71.235  1.00  0.00    -0.265 C  
HETATM   13  C   UNL     1     -11.785   9.995  71.326  1.00  0.00    -0.452 C  
HETATM   14  C   UNL     1     -10.974   8.163  72.779  1.00  0.00    -0.401 C  
HETATM   15  C   UNL     1     -11.550   8.471  71.376  1.00  0.00    -0.344 C  
ENDROOT
BRANCH   8  16
HETATM   16  C   UNL     1      -7.898   6.500  67.185  1.00  0.00    -0.108 C  
HETATM   17  C   UNL     1      -6.776   7.244  67.098  1.00  0.00    -0.068 C  
BRANCH  16  18
HETATM   18  C   UNL     1      -8.158   5.478  66.116  1.00  0.00    -0.107 A  
HETATM   19  C   UNL     1      -9.455   5.128  65.684  1.00  0.00    -0.129 A  
HETATM   20  C   UNL     1      -9.672   4.067  64.785  1.00  0.00    -0.187 A  
HETATM   21  C   UNL     1      -8.589   3.332  64.302  1.00  0.00    -0.093 A  
HETATM   22  C   UNL     1      -7.294   3.725  64.652  1.00  0.00    -0.068 A  
HETATM   23  C   UNL     1      -8.736   2.161  63.394  1.00  0.00    -0.085 C  
HETATM   24  C   UNL     1      -7.083   4.789  65.538  1.00  0.00    -0.064 A  
HETATM   25  O   UNL     1      -9.884   1.467  63.559  1.00  0.00    -0.110 OA 
HETATM   26  O   UNL     1      -7.871   1.822  62.607  1.00  0.00    -0.052 OA 
ENDBRANCH  16  18
ENDBRANCH   8  16
TORSDOF 2
ENDMDL
MODEL      123
REMARK 921   NORMALIZED FREE ENERGY PREDICTED BY IDOCK:   -4.61 KCAL/MOL
REMARK 922        TOTAL FREE ENERGY PREDICTED BY IDOCK:   -5.29 KCAL/MOL
REMARK 923 INTER-LIGAND FREE ENERGY PREDICTED BY IDOCK:   -4.31 KCAL/MOL
REMARK 924 INTRA-LIGAND FREE ENERGY PREDICTED BY IDOCK:   -0.98 KCAL/MOL
REMARK 927      BINDING AFFINITY PREDICTED BY RF-SCORE:    0.00 PKD
ROOT
HETATM    1  C   UNL     1      -7.179   9.901  69.979  1.00  0.00    -0.146 C  
HETATM    2  C   UNL     1      -8.050  10.881  69.242  1.00  0.00    -0.062 A  
HETATM    3  C   UNL     1      -7.484  12.130  68.920  1.00  0.00    -0.027 A  
HETATM    4  C   UNL     1      -8.171  13.131  68.204  1.00  0.00    -0.160 A  
HETATM    5  C   UNL     1      -9.499  12.873  67.808  1.00  0.00    -0.202 A  
HETATM    6  C   UNL     1     -10.047  11.594  68.092  1.00  0.00    -0.202 A  
HETATM    7  C   UNL     1     -10.342  13.928  67.073  1.00  0.00    -0.267 C  
HETATM    8  C   UNL     1      -9.354  10.596  68.815  1.00  0.00    -0.183 A  
HETATM    9  C   UNL     1     -10.458  13.541  65.579  1.00  0.00    -0.304 C  
HETATM   10  C   UNL     1     -11.764  14.042  67.660  1.00  0.00    -0.412 C  
HETATM   11  C   UNL     1      -9.715  15.342  67.184  1.00  0.00    -0.220 C  
HETATM   12  C   UNL     1      -7.321  15.235  69.263  1.00  0.00    -0.191 C  
HETATM   13  C   UNL     1      -8.222  15.331  66.907  1.00  0.00    -0.263 C  
HETATM   14  C   UNL     1      -6.039  14.251  67.348  1.00  0.00     0.224 C  
HETATM   15  C   UNL     1      -7.457  14.465  67.930  1.00  0.00    -0.160 C  
ENDROOT
BRANCH   8  16
HETATM   16  C   UNL     1     -10.026   9.272  69.030  1.00  0.00    -0.187 C  
HETATM   17  C   UNL     1     -10.765   9.192  70.155  1.00  0.00    -0.263 C  
BRANCH  16  18
HETATM   18  C   UNL     1      -9.785   8.014  68.247  1.00  0.00    -0.177 A  
HETATM   19  C   UNL     1     -10.177   6.736  68.701  1.00  0.00    -0.184 A  
HETATM   20  C   UNL     1      -9.811   5.564  68.014  1.00  0.00    -0.173 A  
HETATM   21  C   UNL     1      -9.039   5.650  66.855  1.00  0.00    -0.116 A  
HETATM   22  C   UNL     1      -8.720   6.911  66.345  1.00  0.00    -0.147 A  
HETATM   23  C   UNL     1      -8.562   4.457  66.102  1.00  0.00    -0.113 C  
HETATM   24  C   UNL     1      -9.096   8.075  67.027  1.00  0.00    -0.170 A  
HETATM   25  O   UNL     1      -8.348   3.362  66.865  1.00  0.00    -0.096 OA 
HETATM   26  O   UNL     1      -8.331   4.480  64.906  1.00  0.00    -0.113 OA 
ENDBRANCH  16  18
ENDBRANCH   8  16
TORSDOF 2
ENDMDL
MODEL      124
REMARK 921   NORMALIZED FREE ENERGY PREDICTED BY IDOCK:   -4.56 KCAL/MOL
REMARK 922        TOTAL FREE ENERGY PREDICTED BY IDOCK:   -5.24 KCAL/MOL
REMARK 923 INTER-LIGAND FREE ENERGY PREDICTED BY IDOCK:   -4.28 KCAL/MOL
REMARK 924 INTRA-LIGAND FREE ENERGY PREDICTED BY IDOCK:   -0.96 KCAL/MOL
REMARK 927      BINDING AFFINITY PREDICTED BY RF-SCORE:    0.00 PKD
ROOT
HETATM    1  C   UNL     1     -10.117   8.278  66.932  1.00  0.00    -0.366 C  
HETATM    2  C   UNL     1      -9.492   8.077  68.286  1.00  0.00    -0.147 A  
HETATM    3  C   UNL     1      -9.812   6.890  68.972  1.00  0.00    -0.152 A  
HETATM    4  C   UNL     1      -9.276   6.553  70.232  1.00  0.00    -0.156 A  
HETATM    5  C   UNL     1      -8.390   7.464  70.842  1.00  0.00    -0.115 A  
HETATM    6  C   UNL     1      -8.033   8.636  70.124  1.00  0.00    -0.103 A  
HETATM    7  C   UNL     1      -7.801   7.207  72.239  1.00  0.00    -0.092 C  
HETATM    8  C   UNL     1      -8.578   8.970  68.862  1.00  0.00    -0.131 A  
HETATM    9  C   UNL     1      -6.318   6.785  72.100  1.00  0.00    -0.049 C  
HETATM   10  C   UNL     1      -7.871   8.460  73.135  1.00  0.00    -0.140 C  
HETATM   11  C   UNL     1      -8.577   6.095  72.991  1.00  0.00    -0.118 C  
HETATM   12  C   UNL     1     -11.190   5.378  71.340  1.00  0.00     0.023 C  
HETATM   13  C   UNL     1      -8.838   4.883  72.114  1.00  0.00    -0.137 C  
HETATM   14  C   UNL     1      -9.617   4.040  69.921  1.00  0.00    -0.281 C  
HETATM   15  C   UNL     1      -9.716   5.238  70.896  1.00  0.00    -0.244 C  
ENDROOT
BRANCH   8  16
HETATM   16  C   UNL     1      -8.104  10.222  68.186  1.00  0.00    -0.110 C  
HETATM   17  C   UNL     1      -6.909  10.110  67.570  1.00  0.00    -0.077 C  
BRANCH  16  18
HETATM   18  C   UNL     1      -8.714  11.588  68.313  1.00  0.00    -0.162 A  
HETATM   19  C   UNL     1     -10.070  11.799  68.642  1.00  0.00    -0.198 A  
HETATM   20  C   UNL     1     -10.645  13.083  68.614  1.00  0.00    -0.257 A  
HETATM   21  C   UNL     1      -9.869  14.185  68.250  1.00  0.00    -0.235 A  
HETATM   22  C   UNL     1      -8.505  14.002  68.008  1.00  0.00    -0.171 A  
HETATM   23  C   UNL     1     -10.414  15.566  68.139  1.00  0.00    -0.259 C  
HETATM   24  C   UNL     1      -7.935  12.724  68.049  1.00  0.00    -0.160 A  
HETATM   25  O   UNL     1     -11.717  15.626  67.783  1.00  0.00    -0.221 OA 
HETATM   26  O   UNL     1      -9.731  16.560  68.302  1.00  0.00    -0.221 OA 
ENDBRANCH  16  18
ENDBRANCH   8  16
TORSDOF 2
ENDMDL
MODEL      125
REMARK 921   NORMALIZED FREE ENERGY PREDICTED BY IDOCK:   -4.53 KCAL/MOL
REMARK 922        TOTAL FREE ENERGY PREDICTED BY IDOCK:   -5.20 KCAL/MOL
REMARK 923 INTER-LIGAND FREE ENERGY PREDICTED BY IDOCK:   -4.84 KCAL/MOL
REMARK 924 INTRA-LIGAND FREE ENERGY PREDICTED BY IDOCK:   -0.36 KCAL/MOL
REMARK 927      BINDING AFFINITY PREDICTED BY RF-SCORE:    0.00 PKD
ROOT
HETATM    1  C   UNL     1     -10.172  10.480  68.604  1.00  0.00    -0.197 C  
HETATM    2  C   UNL     1      -9.418  10.164  67.341  1.00  0.00    -0.175 A  
HETATM    3  C   UNL     1      -8.680   8.965  67.315  1.00  0.00    -0.125 A  
HETATM    4  C   UNL     1      -7.954   8.525  66.190  1.00  0.00    -0.102 A  
HETATM    5  C   UNL     1      -7.953   9.340  65.039  1.00  0.00    -0.118 A  
HETATM    6  C   UNL     1      -8.738  10.524  65.055  1.00  0.00    -0.193 A  
HETATM    7  C   UNL     1      -7.144   8.968  63.786  1.00  0.00    -0.092 C  
HETATM    8  C   UNL     1      -9.460  10.961  66.189  1.00  0.00    -0.230 A  
HETATM    9  C   UNL     1      -8.107   8.457  62.688  1.00  0.00    -0.176 C  
HETATM   10  C   UNL     1      -6.359  10.172  63.226  1.00  0.00    -0.140 C  
HETATM   11  C   UNL     1      -6.091   7.870  64.089  1.00  0.00    -0.057 C  
HETATM   12  C   UNL     1      -5.961   7.421  67.227  1.00  0.00    -0.045 C  
HETATM   13  C   UNL     1      -6.671   6.729  64.905  1.00  0.00    -0.049 C  
HETATM   14  C   UNL     1      -8.033   6.061  66.861  1.00  0.00    -0.102 C  
HETATM   15  C   UNL     1      -7.168   7.208  66.286  1.00  0.00    -0.075 C  
ENDROOT
BRANCH   8  16
HETATM   16  C   UNL     1     -10.277  12.214  66.077  1.00  0.00    -0.265 C  
HETATM   17  C   UNL     1     -10.491  12.636  64.814  1.00  0.00    -0.343 C  
BRANCH  16  18
HETATM   18  C   UNL     1     -10.678  13.119  67.206  1.00  0.00    -0.262 A  
HETATM   19  C   UNL     1      -9.746  13.747  68.059  1.00  0.00    -0.232 A  
HETATM   20  C   UNL     1     -10.155  14.474  69.193  1.00  0.00    -0.145 A  
HETATM   21  C   UNL     1     -11.513  14.583  69.496  1.00  0.00    -0.330 A  
HETATM   22  C   UNL     1     -12.450  14.042  68.612  1.00  0.00     0.190 A  
HETATM   23  C   UNL     1     -12.025  15.284  70.706  1.00  0.00    -0.339 C  
HETATM   24  C   UNL     1     -12.037  13.330  67.479  1.00  0.00    -0.312 A  
HETATM   25  O   UNL     1     -11.191  15.247  71.769  1.00  0.00    -0.408 OA 
HETATM   26  O   UNL     1     -13.127  15.800  70.753  1.00  0.00    -0.522 OA 
ENDBRANCH  16  18
ENDBRANCH   8  16
TORSDOF 2
ENDMDL
MODEL      126
REMARK 921   NORMALIZED FREE ENERGY PREDICTED BY IDOCK:   -4.50 KCAL/MOL
REMARK 922        TOTAL FREE ENERGY PREDICTED BY IDOCK:   -5.17 KCAL/MOL
REMARK 923 INTER-LIGAND FREE ENERGY PREDICTED BY IDOCK:   -4.21 KCAL/MOL
REMARK 924 INTRA-LIGAND FREE ENERGY PREDICTED BY IDOCK:   -0.96 KCAL/MOL
REMARK 927      BINDING AFFINITY PREDICTED BY RF-SCORE:    0.00 PKD
ROOT
HETATM    1  C   UNL     1      -9.588   7.271  68.631  1.00  0.00    -0.141 C  
HETATM    2  C   UNL     1      -8.885   7.055  67.319  1.00  0.00    -0.119 A  
HETATM    3  C   UNL     1      -9.128   5.838  66.652  1.00  0.00    -0.133 A  
HETATM    4  C   UNL     1      -8.564   5.514  65.401  1.00  0.00    -0.151 A  
HETATM    5  C   UNL     1      -7.697   6.449  64.800  1.00  0.00    -0.105 A  
HETATM    6  C   UNL     1      -7.495   7.693  65.454  1.00  0.00    -0.078 A  
HETATM    7  C   UNL     1      -6.994   6.157  63.464  1.00  0.00    -0.042 C  
HETATM    8  C   UNL     1      -8.060   8.010  66.711  1.00  0.00    -0.107 A  
HETATM    9  C   UNL     1      -7.676   6.968  62.337  1.00  0.00    -0.114 C  
HETATM   10  C   UNL     1      -5.499   6.536  63.503  1.00  0.00    -0.026 C  
HETATM   11  C   UNL     1      -7.047   4.649  63.107  1.00  0.00    -0.043 C  
HETATM   12  C   UNL     1      -8.175   3.049  65.604  1.00  0.00    -0.088 C  
HETATM   13  C   UNL     1      -8.432   4.061  63.305  1.00  0.00    -0.096 C  
HETATM   14  C   UNL     1     -10.404   3.851  64.787  1.00  0.00    -0.184 C  
HETATM   15  C   UNL     1      -8.885   4.145  64.778  1.00  0.00    -0.135 C  
ENDROOT
BRANCH   8  16
HETATM   16  C   UNL     1      -7.798   9.368  67.291  1.00  0.00    -0.099 C  
HETATM   17  C   UNL     1      -6.736   9.430  68.121  1.00  0.00    -0.059 C  
BRANCH  16  18
HETATM   18  C   UNL     1      -8.702  10.564  67.203  1.00  0.00    -0.130 A  
HETATM   19  C   UNL     1      -8.658  11.633  68.123  1.00  0.00    -0.158 A  
HETATM   20  C   UNL     1      -9.610  12.669  68.097  1.00  0.00    -0.219 A  
HETATM   21  C   UNL     1     -10.632  12.651  67.147  1.00  0.00    -0.252 A  
HETATM   22  C   UNL     1     -10.634  11.647  66.174  1.00  0.00    -0.306 A  
HETATM   23  C   UNL     1     -11.710  13.676  67.088  1.00  0.00    -0.383 C  
HETATM   24  C   UNL     1      -9.677  10.626  66.197  1.00  0.00    -0.253 A  
HETATM   25  O   UNL     1     -12.037  14.213  68.284  1.00  0.00    -0.340 OA 
HETATM   26  O   UNL     1     -12.289  13.967  66.057  1.00  0.00    -0.445 OA 
ENDBRANCH  16  18
ENDBRANCH   8  16
TORSDOF 2
ENDMDL
MODEL      127
REMARK 921   NORMALIZED FREE ENERGY PREDICTED BY IDOCK:   -4.49 KCAL/MOL
REMARK 922        TOTAL FREE ENERGY PREDICTED BY IDOCK:   -5.17 KCAL/MOL
REMARK 923 INTER-LIGAND FREE ENERGY PREDICTED BY IDOCK:   -4.20 KCAL/MOL
REMARK 924 INTRA-LIGAND FREE ENERGY PREDICTED BY IDOCK:   -0.96 KCAL/MOL
REMARK 927      BINDING AFFINITY PREDICTED BY RF-SCORE:    0.00 PKD
ROOT
HETATM    1  C   UNL     1      -6.973  11.978  66.983  1.00  0.00    -0.095 C  
HETATM    2  C   UNL     1      -7.952  12.875  67.690  1.00  0.00    -0.167 A  
HETATM    3  C   UNL     1      -7.768  14.265  67.552  1.00  0.00    -0.208 A  
HETATM    4  C   UNL     1      -8.626  15.222  68.130  1.00  0.00    -0.160 A  
HETATM    5  C   UNL     1      -9.711  14.762  68.903  1.00  0.00    -0.215 A  
HETATM    6  C   UNL     1      -9.920  13.360  68.998  1.00  0.00     0.152 A  
HETATM    7  C   UNL     1     -10.665  15.734  69.616  1.00  0.00    -0.292 C  
HETATM    8  C   UNL     1      -9.053  12.405  68.419  1.00  0.00    -0.141 A  
HETATM    9  C   UNL     1     -12.010  15.787  68.852  1.00  0.00    -0.268 C  
HETATM   10  C   UNL     1     -10.946  15.304  71.071  1.00  0.00    -0.274 C  
HETATM   11  C   UNL     1     -10.071  17.164  69.696  1.00  0.00     0.098 C  
HETATM   12  C   UNL     1      -7.046  17.066  68.742  1.00  0.00    -0.219 C  
HETATM   13  C   UNL     1      -9.482  17.616  68.372  1.00  0.00    -0.298 C  
HETATM   14  C   UNL     1      -8.039  17.049  66.442  1.00  0.00    -0.335 C  
HETATM   15  C   UNL     1      -8.311  16.714  67.928  1.00  0.00    -0.187 C  
ENDROOT
BRANCH   8  16
HETATM   16  C   UNL     1      -9.392  10.951  68.563  1.00  0.00    -0.181 C  
HETATM   17  C   UNL     1     -10.375  10.519  67.747  1.00  0.00    -0.248 C  
BRANCH  16  18
HETATM   18  C   UNL     1      -8.903  10.026  69.640  1.00  0.00    -0.217 A  
HETATM   19  C   UNL     1      -7.609  10.107  70.197  1.00  0.00    -0.119 A  
HETATM   20  C   UNL     1      -7.133   9.139  71.101  1.00  0.00    -0.088 A  
HETATM   21  C   UNL     1      -7.946   8.064  71.461  1.00  0.00    -0.117 A  
HETATM   22  C   UNL     1      -9.259   8.019  70.986  1.00  0.00    -0.169 A  
HETATM   23  C   UNL     1      -7.498   6.968  72.364  1.00  0.00    -0.085 C  
HETATM   24  C   UNL     1      -9.733   8.992  70.097  1.00  0.00    -0.213 A  
HETATM   25  O   UNL     1      -6.173   6.704  72.309  1.00  0.00    -0.044 OA 
HETATM   26  O   UNL     1      -8.267   6.325  73.055  1.00  0.00    -0.114 OA 
ENDBRANCH  16  18
ENDBRANCH   8  16
TORSDOF 2
ENDMDL
MODEL      128
REMARK 921   NORMALIZED FREE ENERGY PREDICTED BY IDOCK:   -4.44 KCAL/MOL
REMARK 922        TOTAL FREE ENERGY PREDICTED BY IDOCK:   -5.11 KCAL/MOL
REMARK 923 INTER-LIGAND FREE ENERGY PREDICTED BY IDOCK:   -4.13 KCAL/MOL
REMARK 924 INTRA-LIGAND FREE ENERGY PREDICTED BY IDOCK:   -0.97 KCAL/MOL
REMARK 927      BINDING AFFINITY PREDICTED BY RF-SCORE:    0.00 PKD
ROOT
HETATM    1  C   UNL     1      -9.837  10.755  65.644  1.00  0.00    -0.299 C  
HETATM    2  C   UNL     1     -10.119  11.903  66.573  1.00  0.00    -0.229 A  
HETATM    3  C   UNL     1     -10.091  13.199  66.022  1.00  0.00    -0.286 A  
HETATM    4  C   UNL     1     -10.368  14.364  66.766  1.00  0.00    -0.273 A  
HETATM    5  C   UNL     1     -10.668  14.223  68.136  1.00  0.00    -0.249 A  
HETATM    6  C   UNL     1     -10.742  12.911  68.675  1.00  0.00    -0.273 A  
HETATM    7  C   UNL     1     -10.927  15.442  69.036  1.00  0.00    -0.252 C  
HETATM    8  C   UNL     1     -10.459  11.746  67.924  1.00  0.00    -0.219 A  
HETATM    9  C   UNL     1     -12.443  15.547  69.332  1.00  0.00    -0.030 C  
HETATM   10  C   UNL     1     -10.173  15.340  70.378  1.00  0.00     0.000 C  
HETATM   11  C   UNL     1     -10.448  16.758  68.371  1.00  0.00    -0.339 C  
HETATM   12  C   UNL     1      -8.803  16.037  65.755  1.00  0.00     0.008 C  
HETATM   13  C   UNL     1     -10.886  16.860  66.920  1.00  0.00    -0.021 C  
HETATM   14  C   UNL     1     -11.066  15.733  64.724  1.00  0.00    -0.413 C  
HETATM   15  C   UNL     1     -10.285  15.728  66.060  1.00  0.00    -0.352 C  
ENDROOT
BRANCH   8  16
HETATM   16  C   UNL     1     -10.599  10.412  68.594  1.00  0.00    -0.234 C  
HETATM   17  C   UNL     1     -11.870  10.038  68.843  1.00  0.00     0.280 C  
BRANCH  16  18
HETATM   18  C   UNL     1      -9.488   9.590  69.180  1.00  0.00    -0.163 A  
HETATM   19  C   UNL     1      -9.627   8.222  69.501  1.00  0.00    -0.171 A  
HETATM   20  C   UNL     1      -8.616   7.516  70.179  1.00  0.00    -0.141 A  
HETATM   21  C   UNL     1      -7.442   8.171  70.554  1.00  0.00    -0.063 A  
HETATM   22  C   UNL     1      -7.254   9.500  70.165  1.00  0.00    -0.114 A  
HETATM   23  C   UNL     1      -6.350   7.513  71.323  1.00  0.00    -0.035 C  
HETATM   24  C   UNL     1      -8.259  10.195  69.479  1.00  0.00    -0.176 A  
HETATM   25  O   UNL     1      -6.766   6.536  72.160  1.00  0.00    -0.061 OA 
HETATM   26  O   UNL     1      -5.186   7.861  71.247  1.00  0.00    -0.030 OA 
ENDBRANCH  16  18
ENDBRANCH   8  16
TORSDOF 2
ENDMDL
MODEL      129
REMARK 921   NORMALIZED FREE ENERGY PREDICTED BY IDOCK:   -4.41 KCAL/MOL
REMARK 922        TOTAL FREE ENERGY PREDICTED BY IDOCK:   -5.07 KCAL/MOL
REMARK 923 INTER-LIGAND FREE ENERGY PREDICTED BY IDOCK:   -4.13 KCAL/MOL
REMARK 924 INTRA-LIGAND FREE ENERGY PREDICTED BY IDOCK:   -0.94 KCAL/MOL
REMARK 927      BINDING AFFINITY PREDICTED BY RF-SCORE:    0.00 PKD
ROOT
HETATM    1  C   UNL     1     -10.560   9.627  70.233  1.00  0.00    -0.333 C  
HETATM    2  C   UNL     1      -9.697   9.268  69.055  1.00  0.00    -0.162 A  
HETATM    3  C   UNL     1      -9.039   8.023  69.094  1.00  0.00    -0.145 A  
HETATM    4  C   UNL     1      -8.226   7.542  68.048  1.00  0.00    -0.124 A  
HETATM    5  C   UNL     1      -8.048   8.360  66.914  1.00  0.00    -0.099 A  
HETATM    6  C   UNL     1      -8.752   9.592  66.858  1.00  0.00    -0.136 A  
HETATM    7  C   UNL     1      -7.134   7.941  65.750  1.00  0.00    -0.060 C  
HETATM    8  C   UNL     1      -9.563  10.070  67.913  1.00  0.00    -0.163 A  
HETATM    9  C   UNL     1      -8.004   7.498  64.549  1.00  0.00    -0.122 C  
HETATM   10  C   UNL     1      -6.218   9.093  65.291  1.00  0.00    -0.064 C  
HETATM   11  C   UNL     1      -6.193   6.776  66.152  1.00  0.00    -0.045 C  
HETATM   12  C   UNL     1      -6.430   6.306  69.281  1.00  0.00    -0.043 C  
HETATM   13  C   UNL     1      -6.929   5.671  66.889  1.00  0.00    -0.065 C  
HETATM   14  C   UNL     1      -8.534   5.085  68.680  1.00  0.00    -0.087 C  
HETATM   15  C   UNL     1      -7.540   6.175  68.214  1.00  0.00    -0.098 C  
ENDROOT
BRANCH   8  16
HETATM   16  C   UNL     1     -10.281  11.374  67.729  1.00  0.00    -0.202 C  
HETATM   17  C   UNL     1     -11.367  11.310  66.931  1.00  0.00    -0.231 C  
BRANCH  16  18
HETATM   18  C   UNL     1      -9.795  12.727  68.161  1.00  0.00    -0.226 A  
HETATM   19  C   UNL     1     -10.662  13.807  68.431  1.00  0.00    -0.266 A  
HETATM   20  C   UNL     1     -10.171  15.099  68.696  1.00  0.00    -0.227 A  
HETATM   21  C   UNL     1      -8.796  15.336  68.691  1.00  0.00    -0.188 A  
HETATM   22  C   UNL     1      -7.925  14.258  68.513  1.00  0.00    -0.145 A  
HETATM   23  C   UNL     1      -8.199  16.683  68.904  1.00  0.00    -0.231 C  
HETATM   24  C   UNL     1      -8.418  12.972  68.262  1.00  0.00    -0.159 A  
HETATM   25  O   UNL     1      -8.968  17.709  68.479  1.00  0.00    -0.283 OA 
HETATM   26  O   UNL     1      -7.086  16.845  69.371  1.00  0.00    -0.227 OA 
ENDBRANCH  16  18
ENDBRANCH   8  16
TORSDOF 2
ENDMDL
MODEL      130
REMARK 921   NORMALIZED FREE ENERGY PREDICTED BY IDOCK:   -4.40 KCAL/MOL
REMARK 922        TOTAL FREE ENERGY PREDICTED BY IDOCK:   -5.06 KCAL/MOL
REMARK 923 INTER-LIGAND FREE ENERGY PREDICTED BY IDOCK:   -5.14 KCAL/MOL
REMARK 924 INTRA-LIGAND FREE ENERGY PREDICTED BY IDOCK:    0.08 KCAL/MOL
REMARK 927      BINDING AFFINITY PREDICTED BY RF-SCORE:    0.00 PKD
ROOT
HETATM    1  C   UNL     1      -6.940  13.949  67.646  1.00  0.00    -0.189 C  
HETATM    2  C   UNL     1      -7.668  15.248  67.436  1.00  0.00    -0.225 A  
HETATM    3  C   UNL     1      -6.898  16.427  67.452  1.00  0.00    -0.201 A  
HETATM    4  C   UNL     1      -7.440  17.711  67.237  1.00  0.00    -0.210 A  
HETATM    5  C   UNL     1      -8.828  17.818  67.014  1.00  0.00    -0.260 A  
HETATM    6  C   UNL     1      -9.591  16.622  66.951  1.00  0.00    -0.259 A  
HETATM    7  C   UNL     1      -9.513  19.182  66.826  1.00  0.00    -0.376 C  
HETATM    8  C   UNL     1      -9.042  15.338  67.172  1.00  0.00    -0.226 A  
HETATM    9  C   UNL     1      -9.868  19.375  65.332  1.00  0.00     0.668 C  
HETATM   10  C   UNL     1     -10.809  19.296  67.655  1.00  0.00    -0.484 C  
HETATM   11  C   UNL     1      -8.602  20.349  67.287  1.00  0.00    -0.414 C  
HETATM   12  C   UNL     1      -6.068  19.142  68.766  1.00  0.00    -0.252 C  
HETATM   13  C   UNL     1      -7.182  20.208  66.767  1.00  0.00    -0.290 C  
HETATM   14  C   UNL     1      -5.231  18.721  66.443  1.00  0.00    -0.162 C  
HETATM   15  C   UNL     1      -6.503  18.929  67.299  1.00  0.00    -0.189 C  
ENDROOT
BRANCH   8  16
HETATM   16  C   UNL     1      -9.942  14.145  67.051  1.00  0.00    -0.260 C  
HETATM   17  C   UNL     1     -11.044  14.190  67.828  1.00  0.00    -0.292 C  
BRANCH  16  18
HETATM   18  C   UNL     1      -9.630  12.863  66.334  1.00  0.00    -0.252 A  
HETATM   19  C   UNL     1      -8.769  11.876  66.859  1.00  0.00    -0.191 A  
HETATM   20  C   UNL     1      -8.385  10.753  66.103  1.00  0.00    -0.166 A  
HETATM   21  C   UNL     1      -8.856  10.599  64.798  1.00  0.00    -0.196 A  
HETATM   22  C   UNL     1      -9.779  11.521  64.298  1.00  0.00    -0.229 A  
HETATM   23  C   UNL     1      -8.453   9.472  63.913  1.00  0.00    -0.190 C  
HETATM   24  C   UNL     1     -10.167  12.631  65.060  1.00  0.00    -0.294 A  
HETATM   25  O   UNL     1      -7.209   8.997  64.143  1.00  0.00    -0.093 OA 
HETATM   26  O   UNL     1      -9.163   9.048  63.018  1.00  0.00     0.093 OA 
ENDBRANCH  16  18
ENDBRANCH   8  16
TORSDOF 2
ENDMDL
MODEL      131
REMARK 921   NORMALIZED FREE ENERGY PREDICTED BY IDOCK:   -4.37 KCAL/MOL
REMARK 922        TOTAL FREE ENERGY PREDICTED BY IDOCK:   -5.03 KCAL/MOL
REMARK 923 INTER-LIGAND FREE ENERGY PREDICTED BY IDOCK:   -4.10 KCAL/MOL
REMARK 924 INTRA-LIGAND FREE ENERGY PREDICTED BY IDOCK:   -0.93 KCAL/MOL
REMARK 927      BINDING AFFINITY PREDICTED BY RF-SCORE:    0.00 PKD
ROOT
HETATM    1  C   UNL     1      -9.888  12.359  67.573  1.00  0.00    -0.194 C  
HETATM    2  C   UNL     1      -9.130  11.437  68.488  1.00  0.00    -0.169 A  
HETATM    3  C   UNL     1      -9.867  10.428  69.139  1.00  0.00    -0.237 A  
HETATM    4  C   UNL     1      -9.284   9.474  69.998  1.00  0.00    -0.264 A  
HETATM    5  C   UNL     1      -7.896   9.548  70.230  1.00  0.00    -0.180 A  
HETATM    6  C   UNL     1      -7.151  10.537  69.533  1.00  0.00    -0.124 A  
HETATM    7  C   UNL     1      -7.185   8.585  71.195  1.00  0.00    -0.076 C  
HETATM    8  C   UNL     1      -7.743  11.493  68.676  1.00  0.00    -0.139 A  
HETATM    9  C   UNL     1      -6.384   7.542  70.380  1.00  0.00    -0.038 C  
HETATM   10  C   UNL     1      -6.210   9.323  72.135  1.00  0.00     0.111 C  
HETATM   11  C   UNL     1      -8.193   7.846  72.113  1.00  0.00    -0.160 C  
HETATM   12  C   UNL     1     -11.062   9.146  71.731  1.00  0.00    -0.437 C  
HETATM   13  C   UNL     1      -9.381   7.303  71.340  1.00  0.00    -0.153 C  
HETATM   14  C   UNL     1     -11.137   7.748  69.652  1.00  0.00    -0.052 C  
HETATM   15  C   UNL     1     -10.193   8.432  70.671  1.00  0.00    -0.222 C  
ENDROOT
BRANCH   8  16
HETATM   16  C   UNL     1      -6.850  12.471  67.972  1.00  0.00    -0.094 C  
HETATM   17  C   UNL     1      -6.276  11.999  66.846  1.00  0.00    -0.074 C  
BRANCH  16  18
HETATM   18  C   UNL     1      -6.391  13.799  68.502  1.00  0.00    -0.092 A  
HETATM   19  C   UNL     1      -5.442  13.929  69.538  1.00  0.00    -0.086 A  
HETATM   20  C   UNL     1      -5.138  15.179  70.108  1.00  0.00    -0.105 A  
HETATM   21  C   UNL     1      -5.785  16.328  69.652  1.00  0.00    -0.163 A  
HETATM   22  C   UNL     1      -6.661  16.226  68.567  1.00  0.00    -0.130 A  
HETATM   23  C   UNL     1      -5.564  17.678  70.239  1.00  0.00    -0.235 C  
HETATM   24  C   UNL     1      -6.950  14.981  67.995  1.00  0.00    -0.147 A  
HETATM   25  O   UNL     1      -5.247  17.671  71.553  1.00  0.00    -0.415 OA 
HETATM   26  O   UNL     1      -5.711  18.707  69.604  1.00  0.00    -0.226 OA 
ENDBRANCH  16  18
ENDBRANCH   8  16
TORSDOF 2
ENDMDL
MODEL      132
REMARK 921   NORMALIZED FREE ENERGY PREDICTED BY IDOCK:   -4.29 KCAL/MOL
REMARK 922        TOTAL FREE ENERGY PREDICTED BY IDOCK:   -4.93 KCAL/MOL
REMARK 923 INTER-LIGAND FREE ENERGY PREDICTED BY IDOCK:   -5.28 KCAL/MOL
REMARK 924 INTRA-LIGAND FREE ENERGY PREDICTED BY IDOCK:    0.35 KCAL/MOL
REMARK 927      BINDING AFFINITY PREDICTED BY RF-SCORE:    0.00 PKD
ROOT
HETATM    1  C   UNL     1      -8.843   9.399  70.528  1.00  0.00    -0.287 C  
HETATM    2  C   UNL     1      -8.999   8.459  69.365  1.00  0.00    -0.153 A  
HETATM    3  C   UNL     1      -8.743   7.094  69.603  1.00  0.00    -0.141 A  
HETATM    4  C   UNL     1      -8.881   6.096  68.617  1.00  0.00    -0.114 A  
HETATM    5  C   UNL     1      -9.274   6.490  67.322  1.00  0.00    -0.124 A  
HETATM    6  C   UNL     1      -9.577   7.860  67.101  1.00  0.00    -0.222 A  
HETATM    7  C   UNL     1      -9.395   5.479  66.170  1.00  0.00    -0.169 C  
HETATM    8  C   UNL     1      -9.433   8.857  68.094  1.00  0.00    -0.155 A  
HETATM    9  C   UNL     1     -10.891   5.200  65.888  1.00  0.00    -0.070 C  
HETATM   10  C   UNL     1      -8.741   5.998  64.874  1.00  0.00     0.068 C  
HETATM   11  C   UNL     1      -8.685   4.142  66.506  1.00  0.00    -0.115 C  
HETATM   12  C   UNL     1      -7.025   4.513  69.185  1.00  0.00    -0.051 C  
HETATM   13  C   UNL     1      -9.021   3.648  67.902  1.00  0.00    -0.165 C  
HETATM   14  C   UNL     1      -9.248   4.210  70.302  1.00  0.00    -0.205 C  
HETATM   15  C   UNL     1      -8.552   4.640  68.987  1.00  0.00    -0.099 C  
ENDROOT
BRANCH   8  16
HETATM   16  C   UNL     1      -9.811  10.267  67.751  1.00  0.00    -0.195 C  
HETATM   17  C   UNL     1      -9.319  10.712  66.577  1.00  0.00    -0.192 C  
BRANCH  16  18
HETATM   18  C   UNL     1     -10.481  11.256  68.662  1.00  0.00    -0.226 A  
HETATM   19  C   UNL     1     -11.198  10.877  69.817  1.00  0.00    -0.351 A  
HETATM   20  C   UNL     1     -11.932  11.812  70.569  1.00  0.00    -0.383 A  
HETATM   21  C   UNL     1     -11.966  13.150  70.175  1.00  0.00    -0.381 A  
HETATM   22  C   UNL     1     -11.190  13.555  69.085  1.00  0.00    -0.310 A  
HETATM   23  C   UNL     1     -12.764  14.190  70.881  1.00  0.00    -0.361 C  
HETATM   24  C   UNL     1     -10.451  12.622  68.347  1.00  0.00    -0.248 A  
HETATM   25  O   UNL     1     -13.890  13.727  71.469  1.00  0.00    -0.282 OA 
HETATM   26  O   UNL     1     -12.459  15.369  70.883  1.00  0.00    -0.352 OA 
ENDBRANCH  16  18
ENDBRANCH   8  16
TORSDOF 2
ENDMDL
MODEL      133
REMARK 921   NORMALIZED FREE ENERGY PREDICTED BY IDOCK:   -4.26 KCAL/MOL
REMARK 922        TOTAL FREE ENERGY PREDICTED BY IDOCK:   -4.90 KCAL/MOL
REMARK 923 INTER-LIGAND FREE ENERGY PREDICTED BY IDOCK:   -4.98 KCAL/MOL
REMARK 924 INTRA-LIGAND FREE ENERGY PREDICTED BY IDOCK:    0.07 KCAL/MOL
REMARK 927      BINDING AFFINITY PREDICTED BY RF-SCORE:    0.00 PKD
ROOT
HETATM    1  C   UNL     1     -10.711   6.878  73.228  1.00  0.00    -0.349 C  
HETATM    2  C   UNL     1     -10.155   6.337  71.940  1.00  0.00    -0.205 A  
HETATM    3  C   UNL     1      -9.754   4.986  71.929  1.00  0.00    -0.212 A  
HETATM    4  C   UNL     1      -9.247   4.337  70.785  1.00  0.00    -0.205 A  
HETATM    5  C   UNL     1      -9.116   5.086  69.598  1.00  0.00    -0.151 A  
HETATM    6  C   UNL     1      -9.567   6.433  69.602  1.00  0.00    -0.157 A  
HETATM    7  C   UNL     1      -8.521   4.476  68.319  1.00  0.00    -0.099 C  
HETATM    8  C   UNL     1     -10.071   7.079  70.755  1.00  0.00    -0.205 A  
HETATM    9  C   UNL     1      -9.657   4.198  67.306  1.00  0.00    -0.228 C  
HETATM   10  C   UNL     1      -7.493   5.415  67.655  1.00  0.00    -0.084 C  
HETATM   11  C   UNL     1      -7.768   3.153  68.613  1.00  0.00    -0.054 C  
HETATM   12  C   UNL     1      -7.537   2.786  71.756  1.00  0.00    -0.048 C  
HETATM   13  C   UNL     1      -8.563   2.228  69.517  1.00  0.00    -0.107 C  
HETATM   14  C   UNL     1      -9.911   2.001  71.581  1.00  0.00    -0.218 C  
HETATM   15  C   UNL     1      -8.821   2.864  70.900  1.00  0.00    -0.144 C  
ENDROOT
BRANCH   8  16
HETATM   16  C   UNL     1     -10.543   8.497  70.630  1.00  0.00    -0.241 C  
HETATM   17  C   UNL     1     -11.540   8.835  71.474  1.00  0.00    -0.374 C  
BRANCH  16  18
HETATM   18  C   UNL     1     -10.169   9.469  69.548  1.00  0.00    -0.225 A  
HETATM   19  C   UNL     1      -9.025  10.292  69.614  1.00  0.00    -0.140 A  
HETATM   20  C   UNL     1      -8.778  11.291  68.653  1.00  0.00    -0.136 A  
HETATM   21  C   UNL     1      -9.679  11.487  67.606  1.00  0.00    -0.182 A  
HETATM   22  C   UNL     1     -10.769  10.621  67.479  1.00  0.00    -0.321 A  
HETATM   23  C   UNL     1      -9.522  12.558  66.584  1.00  0.00    -0.242 C  
HETATM   24  C   UNL     1     -11.003   9.621  68.431  1.00  0.00    -0.161 A  
HETATM   25  O   UNL     1      -8.896  13.670  67.030  1.00  0.00    -0.229 OA 
HETATM   26  O   UNL     1      -9.969  12.464  65.455  1.00  0.00    -0.260 OA 
ENDBRANCH  16  18
ENDBRANCH   8  16
TORSDOF 2
ENDMDL
MODEL      134
REMARK 921   NORMALIZED FREE ENERGY PREDICTED BY IDOCK:   -4.23 KCAL/MOL
REMARK 922        TOTAL FREE ENERGY PREDICTED BY IDOCK:   -4.88 KCAL/MOL
REMARK 923 INTER-LIGAND FREE ENERGY PREDICTED BY IDOCK:   -4.21 KCAL/MOL
REMARK 924 INTRA-LIGAND FREE ENERGY PREDICTED BY IDOCK:   -0.67 KCAL/MOL
REMARK 927      BINDING AFFINITY PREDICTED BY RF-SCORE:    0.00 PKD
ROOT
HETATM    1  C   UNL     1      -9.944  12.767  67.040  1.00  0.00    -0.231 C  
HETATM    2  C   UNL     1      -9.176  11.803  67.902  1.00  0.00    -0.181 A  
HETATM    3  C   UNL     1      -9.808  10.589  68.231  1.00  0.00    -0.162 A  
HETATM    4  C   UNL     1      -9.196   9.580  69.003  1.00  0.00    -0.155 A  
HETATM    5  C   UNL     1      -7.891   9.810  69.484  1.00  0.00    -0.128 A  
HETATM    6  C   UNL     1      -7.240  11.015  69.107  1.00  0.00    -0.121 A  
HETATM    7  C   UNL     1      -7.168   8.790  70.378  1.00  0.00    -0.050 C  
HETATM    8  C   UNL     1      -7.862  12.025  68.337  1.00  0.00    -0.147 A  
HETATM    9  C   UNL     1      -6.086   8.057  69.549  1.00  0.00    -0.033 C  
HETATM   10  C   UNL     1      -6.486   9.463  71.586  1.00  0.00     0.089 C  
HETATM   11  C   UNL     1      -8.151   7.744  70.965  1.00  0.00    -0.098 C  
HETATM   12  C   UNL     1     -11.119   8.659  70.315  1.00  0.00    -0.230 C  
HETATM   13  C   UNL     1      -9.101   7.196  69.914  1.00  0.00    -0.141 C  
HETATM   14  C   UNL     1     -10.645   7.704  68.048  1.00  0.00    -0.213 C  
HETATM   15  C   UNL     1      -9.994   8.304  69.317  1.00  0.00    -0.192 C  
ENDROOT
BRANCH   8  16
HETATM   16  C   UNL     1      -7.064  13.243  67.977  1.00  0.00    -0.122 C  
HETATM   17  C   UNL     1      -5.752  13.013  67.763  1.00  0.00    -0.134 C  
BRANCH  16  18
HETATM   18  C   UNL     1      -7.535  14.667  68.043  1.00  0.00    -0.137 A  
HETATM   19  C   UNL     1      -7.871  15.313  69.252  1.00  0.00    -0.221 A  
HETATM   20  C   UNL     1      -8.443  16.598  69.269  1.00  0.00    -0.011 A  
HETATM   21  C   UNL     1      -8.694  17.263  68.068  1.00  0.00    -0.231 A  
HETATM   22  C   UNL     1      -8.284  16.673  66.869  1.00  0.00    -0.247 A  
HETATM   23  C   UNL     1      -9.348  18.599  67.995  1.00  0.00    -0.312 C  
HETATM   24  C   UNL     1      -7.705  15.399  66.859  1.00  0.00    -0.159 A  
HETATM   25  O   UNL     1     -10.225  18.847  68.993  1.00  0.00    -0.346 OA 
HETATM   26  O   UNL     1      -9.152  19.382  67.084  1.00  0.00    -0.290 OA 
ENDBRANCH  16  18
ENDBRANCH   8  16
TORSDOF 2
ENDMDL
MODEL      135
REMARK 921   NORMALIZED FREE ENERGY PREDICTED BY IDOCK:   -4.02 KCAL/MOL
REMARK 922        TOTAL FREE ENERGY PREDICTED BY IDOCK:   -4.64 KCAL/MOL
REMARK 923 INTER-LIGAND FREE ENERGY PREDICTED BY IDOCK:   -4.01 KCAL/MOL
REMARK 924 INTRA-LIGAND FREE ENERGY PREDICTED BY IDOCK:   -0.63 KCAL/MOL
REMARK 927      BINDING AFFINITY PREDICTED BY RF-SCORE:    0.00 PKD
ROOT
HETATM    1  C   UNL     1      -5.607  10.481  69.588  1.00  0.00    -0.039 C  
HETATM    2  C   UNL     1      -7.110  10.553  69.595  1.00  0.00    -0.141 A  
HETATM    3  C   UNL     1      -7.794   9.621  70.399  1.00  0.00    -0.181 A  
HETATM    4  C   UNL     1      -9.198   9.591  70.527  1.00  0.00    -0.284 A  
HETATM    5  C   UNL     1      -9.953  10.531  69.797  1.00  0.00    -0.090 A  
HETATM    6  C   UNL     1      -9.255  11.499  69.027  1.00  0.00     0.110 A  
HETATM    7  C   UNL     1     -11.490  10.537  69.832  1.00  0.00    -0.384 C  
HETATM    8  C   UNL     1      -7.846  11.521  68.899  1.00  0.00    -0.071 A  
HETATM    9  C   UNL     1     -11.978  11.720  70.703  1.00  0.00    -0.320 C  
HETATM   10  C   UNL     1     -12.100  10.683  68.423  1.00  0.00     0.319 C  
HETATM   11  C   UNL     1     -12.054   9.214  70.412  1.00  0.00     0.095 C  
HETATM   12  C   UNL     1      -9.673   7.140  70.725  1.00  0.00    -0.171 C  
HETATM   13  C   UNL     1     -11.332   8.788  71.678  1.00  0.00    -0.390 C  
HETATM   14  C   UNL     1      -9.157   8.436  72.806  1.00  0.00    -0.299 C  
HETATM   15  C   UNL     1      -9.836   8.512  71.417  1.00  0.00    -0.296 C  
ENDROOT
BRANCH   8  16
HETATM   16  C   UNL     1      -7.219  12.609  68.080  1.00  0.00    -0.112 C  
HETATM   17  C   UNL     1      -6.607  12.186  66.955  1.00  0.00    -0.081 C  
BRANCH  16  18
HETATM   18  C   UNL     1      -7.034  14.041  68.494  1.00  0.00    -0.103 A  
HETATM   19  C   UNL     1      -8.103  14.871  68.895  1.00  0.00    -0.165 A  
HETATM   20  C   UNL     1      -7.918  16.245  69.139  1.00  0.00    -0.221 A  
HETATM   21  C   UNL     1      -6.655  16.816  68.983  1.00  0.00    -0.205 A  
HETATM   22  C   UNL     1      -5.571  15.989  68.674  1.00  0.00    -0.101 A  
HETATM   23  C   UNL     1      -6.387  18.269  69.166  1.00  0.00    -0.248 C  
HETATM   24  C   UNL     1      -5.758  14.620  68.443  1.00  0.00    -0.106 A  
HETATM   25  O   UNL     1      -7.431  19.072  68.864  1.00  0.00    -0.329 OA 
HETATM   26  O   UNL     1      -5.301  18.703  69.506  1.00  0.00    -0.191 OA 
ENDBRANCH  16  18
ENDBRANCH   8  16
TORSDOF 2
ENDMDL
MODEL      136
REMARK 921   NORMALIZED FREE ENERGY PREDICTED BY IDOCK:   -3.98 KCAL/MOL
REMARK 922        TOTAL FREE ENERGY PREDICTED BY IDOCK:   -4.59 KCAL/MOL
REMARK 923 INTER-LIGAND FREE ENERGY PREDICTED BY IDOCK:   -3.79 KCAL/MOL
REMARK 924 INTRA-LIGAND FREE ENERGY PREDICTED BY IDOCK:   -0.80 KCAL/MOL
REMARK 927      BINDING AFFINITY PREDICTED BY RF-SCORE:    0.00 PKD
ROOT
HETATM    1  C   UNL     1     -11.293  14.355  69.054  1.00  0.00    -0.297 C  
HETATM    2  C   UNL     1     -10.627  13.336  68.171  1.00  0.00    -0.259 A  
HETATM    3  C   UNL     1     -10.750  11.983  68.543  1.00  0.00    -0.261 A  
HETATM    4  C   UNL     1     -10.206  10.920  67.793  1.00  0.00    -0.209 A  
HETATM    5  C   UNL     1      -9.487  11.232  66.622  1.00  0.00    -0.204 A  
HETATM    6  C   UNL     1      -9.408  12.594  66.225  1.00  0.00    -0.162 A  
HETATM    7  C   UNL     1      -8.813  10.142  65.773  1.00  0.00    -0.177 C  
HETATM    8  C   UNL     1      -9.953  13.656  66.985  1.00  0.00    -0.248 A  
HETATM    9  C   UNL     1      -9.637   9.913  64.484  1.00  0.00    -0.290 C  
HETATM   10  C   UNL     1      -7.375  10.530  65.371  1.00  0.00    -0.084 C  
HETATM   11  C   UNL     1      -8.697   8.803  66.547  1.00  0.00    -0.137 C  
HETATM   12  C   UNL     1      -9.512   9.301  69.573  1.00  0.00    -0.178 C  
HETATM   13  C   UNL     1      -9.991   8.434  67.250  1.00  0.00    -0.291 C  
HETATM   14  C   UNL     1     -11.855   9.189  68.694  1.00  0.00     1.519 C  
HETATM   15  C   UNL     1     -10.385   9.484  68.311  1.00  0.00    -0.244 C  
ENDROOT
BRANCH   8  16
HETATM   16  C   UNL     1      -9.832  15.052  66.450  1.00  0.00    -0.290 C  
HETATM   17  C   UNL     1     -10.260  15.207  65.180  1.00  0.00    -0.386 C  
BRANCH  16  18
HETATM   18  C   UNL     1      -9.109  16.196  67.101  1.00  0.00    -0.218 A  
HETATM   19  C   UNL     1      -7.703  16.254  67.215  1.00  0.00    -0.210 A  
HETATM   20  C   UNL     1      -7.064  17.267  67.954  1.00  0.00    -0.174 A  
HETATM   21  C   UNL     1      -7.825  18.242  68.600  1.00  0.00    -0.313 A  
HETATM   22  C   UNL     1      -9.211  18.248  68.422  1.00  0.00    -0.332 A  
HETATM   23  C   UNL     1      -7.231  19.312  69.448  1.00  0.00    -0.213 C  
HETATM   24  C   UNL     1      -9.841  17.245  67.675  1.00  0.00    -0.279 A  
HETATM   25  O   UNL     1      -6.085  18.960  70.071  1.00  0.00    -0.244 OA 
HETATM   26  O   UNL     1      -7.761  20.396  69.611  1.00  0.00     0.389 OA 
ENDBRANCH  16  18
ENDBRANCH   8  16
TORSDOF 2
ENDMDL
MODEL      137
REMARK 921   NORMALIZED FREE ENERGY PREDICTED BY IDOCK:   -3.78 KCAL/MOL
REMARK 922        TOTAL FREE ENERGY PREDICTED BY IDOCK:   -4.37 KCAL/MOL
REMARK 923 INTER-LIGAND FREE ENERGY PREDICTED BY IDOCK:   -3.41 KCAL/MOL
REMARK 924 INTRA-LIGAND FREE ENERGY PREDICTED BY IDOCK:   -0.95 KCAL/MOL
REMARK 927      BINDING AFFINITY PREDICTED BY RF-SCORE:    0.00 PKD
ROOT
HETATM    1  C   UNL     1      -6.944   8.724  68.590  1.00  0.00    -0.064 C  
HETATM    2  C   UNL     1      -7.132   7.878  67.360  1.00  0.00    -0.083 A  
HETATM    3  C   UNL     1      -7.155   8.542  66.119  1.00  0.00    -0.077 A  
HETATM    4  C   UNL     1      -7.290   7.875  64.884  1.00  0.00    -0.073 A  
HETATM    5  C   UNL     1      -7.429   6.472  64.898  1.00  0.00    -0.086 A  
HETATM    6  C   UNL     1      -7.355   5.803  66.149  1.00  0.00    -0.078 A  
HETATM    7  C   UNL     1      -7.637   5.668  63.605  1.00  0.00    -0.081 C  
HETATM    8  C   UNL     1      -7.224   6.479  67.384  1.00  0.00    -0.085 A  
HETATM    9  C   UNL     1      -6.325   4.932  63.241  1.00  0.00    -0.026 C  
HETATM   10  C   UNL     1      -8.760   4.621  63.750  1.00  0.00    -0.140 C  
HETATM   11  C   UNL     1      -8.051   6.582  62.422  1.00  0.00    -0.093 C  
HETATM   12  C   UNL     1      -8.659   9.487  63.543  1.00  0.00    -0.221 C  
HETATM   13  C   UNL     1      -7.189   7.829  62.333  1.00  0.00    -0.091 C  
HETATM   14  C   UNL     1      -6.166   9.734  63.538  1.00  0.00    -0.115 C  
HETATM   15  C   UNL     1      -7.325   8.709  63.593  1.00  0.00    -0.104 C  
ENDROOT
BRANCH   8  16
HETATM   16  C   UNL     1      -7.128   5.664  68.639  1.00  0.00    -0.066 C  
HETATM   17  C   UNL     1      -6.024   4.894  68.727  1.00  0.00    -0.025 C  
BRANCH  16  18
HETATM   18  C   UNL     1      -8.211   5.474  69.662  1.00  0.00    -0.101 A  
HETATM   19  C   UNL     1      -9.582   5.420  69.333  1.00  0.00    -0.203 A  
HETATM   20  C   UNL     1     -10.579   5.384  70.326  1.00  0.00    -0.329 A  
HETATM   21  C   UNL     1     -10.219   5.406  71.674  1.00  0.00    -0.268 A  
HETATM   22  C   UNL     1      -8.864   5.369  72.014  1.00  0.00    -0.139 A  
HETATM   23  C   UNL     1     -11.212   5.428  72.783  1.00  0.00    -0.300 C  
HETATM   24  C   UNL     1      -7.876   5.392  71.022  1.00  0.00    -0.103 A  
HETATM   25  O   UNL     1     -12.375   6.047  72.481  1.00  0.00    -0.161 OA 
HETATM   26  O   UNL     1     -10.976   4.977  73.889  1.00  0.00    -0.302 OA 
ENDBRANCH  16  18
ENDBRANCH   8  16
TORSDOF 2
ENDMDL
MODEL      138
REMARK 921   NORMALIZED FREE ENERGY PREDICTED BY IDOCK:   -3.73 KCAL/MOL
REMARK 922        TOTAL FREE ENERGY PREDICTED BY IDOCK:   -4.32 KCAL/MOL
REMARK 923 INTER-LIGAND FREE ENERGY PREDICTED BY IDOCK:   -3.43 KCAL/MOL
REMARK 924 INTRA-LIGAND FREE ENERGY PREDICTED BY IDOCK:   -0.89 KCAL/MOL
REMARK 927      BINDING AFFINITY PREDICTED BY RF-SCORE:    0.00 PKD
ROOT
HETATM    1  C   UNL     1      -6.837   8.046  69.360  1.00  0.00    -0.047 C  
HETATM    2  C   UNL     1      -7.966   9.004  69.095  1.00  0.00    -0.101 A  
HETATM    3  C   UNL     1      -7.626  10.354  68.880  1.00  0.00    -0.103 A  
HETATM    4  C   UNL     1      -8.574  11.356  68.589  1.00  0.00    -0.126 A  
HETATM    5  C   UNL     1      -9.934  10.987  68.530  1.00  0.00    -0.198 A  
HETATM    6  C   UNL     1     -10.265   9.617  68.699  1.00  0.00    -0.209 A  
HETATM    7  C   UNL     1     -11.042  12.022  68.274  1.00  0.00    -0.290 C  
HETATM    8  C   UNL     1      -9.309   8.618  68.995  1.00  0.00    -0.146 A  
HETATM    9  C   UNL     1     -11.559  11.871  66.823  1.00  0.00    -0.341 C  
HETATM   10  C   UNL     1     -12.232  11.845  69.238  1.00  0.00    -0.169 C  
HETATM   11  C   UNL     1     -10.530  13.471  68.481  1.00  0.00    -0.250 C  
HETATM   12  C   UNL     1      -7.630  13.356  69.763  1.00  0.00     0.969 C  
HETATM   13  C   UNL     1      -9.189  13.709  67.809  1.00  0.00    -0.214 C  
HETATM   14  C   UNL     1      -6.890  12.879  67.417  1.00  0.00    -0.133 C  
HETATM   15  C   UNL     1      -8.087  12.801  68.395  1.00  0.00    -0.129 C  
ENDROOT
BRANCH   8  16
HETATM   16  C   UNL     1      -9.775   7.198  69.124  1.00  0.00    -0.158 C  
HETATM   17  C   UNL     1     -10.060   6.811  70.384  1.00  0.00    -0.200 C  
BRANCH  16  18
HETATM   18  C   UNL     1      -9.746   6.150  68.048  1.00  0.00    -0.122 A  
HETATM   19  C   UNL     1      -8.645   5.293  67.836  1.00  0.00    -0.103 A  
HETATM   20  C   UNL     1      -8.591   4.421  66.733  1.00  0.00    -0.107 A  
HETATM   21  C   UNL     1      -9.642   4.392  65.816  1.00  0.00    -0.188 A  
HETATM   22  C   UNL     1     -10.777   5.170  66.063  1.00  0.00    -0.199 A  
HETATM   23  C   UNL     1      -9.637   3.542  64.594  1.00  0.00    -0.168 C  
HETATM   24  C   UNL     1     -10.831   6.028  67.168  1.00  0.00    -0.414 A  
HETATM   25  O   UNL     1      -8.409   3.308  64.080  1.00  0.00    -0.089 OA 
HETATM   26  O   UNL     1     -10.657   3.135  64.068  1.00  0.00    -0.192 OA 
ENDBRANCH  16  18
ENDBRANCH   8  16
TORSDOF 2
ENDMDL
MODEL      139
REMARK 921   NORMALIZED FREE ENERGY PREDICTED BY IDOCK:   -3.69 KCAL/MOL
REMARK 922        TOTAL FREE ENERGY PREDICTED BY IDOCK:   -4.27 KCAL/MOL
REMARK 923 INTER-LIGAND FREE ENERGY PREDICTED BY IDOCK:   -3.50 KCAL/MOL
REMARK 924 INTRA-LIGAND FREE ENERGY PREDICTED BY IDOCK:   -0.77 KCAL/MOL
REMARK 927      BINDING AFFINITY PREDICTED BY RF-SCORE:    0.00 PKD
ROOT
HETATM    1  C   UNL     1      -6.380   7.392  70.792  1.00  0.00    -0.039 C  
HETATM    2  C   UNL     1      -7.571   8.218  70.389  1.00  0.00    -0.075 A  
HETATM    3  C   UNL     1      -8.806   7.902  70.987  1.00  0.00    -0.149 A  
HETATM    4  C   UNL     1      -9.997   8.611  70.729  1.00  0.00    -0.241 A  
HETATM    5  C   UNL     1      -9.949   9.679  69.810  1.00  0.00    -0.252 A  
HETATM    6  C   UNL     1      -8.692  10.024  69.247  1.00  0.00    -0.182 A  
HETATM    7  C   UNL     1     -11.210  10.472  69.426  1.00  0.00    -0.327 C  
HETATM    8  C   UNL     1      -7.502   9.306  69.507  1.00  0.00    -0.079 A  
HETATM    9  C   UNL     1     -11.174  11.856  70.117  1.00  0.00     0.181 C  
HETATM   10  C   UNL     1     -11.314  10.688  67.903  1.00  0.00    -0.342 C  
HETATM   11  C   UNL     1     -12.504   9.728  69.846  1.00  0.00     0.414 C  
HETATM   12  C   UNL     1     -11.733   6.808  70.819  1.00  0.00    -0.439 C  
HETATM   13  C   UNL     1     -12.425   9.195  71.265  1.00  0.00    -0.366 C  
HETATM   14  C   UNL     1     -11.089   7.964  72.947  1.00  0.00    -0.442 C  
HETATM   15  C   UNL     1     -11.292   8.160  71.425  1.00  0.00    -0.299 C  
ENDROOT
BRANCH   8  16
HETATM   16  C   UNL     1      -6.227   9.782  68.877  1.00  0.00    -0.041 C  
HETATM   17  C   UNL     1      -5.383  10.411  69.720  1.00  0.00    -0.038 C  
BRANCH  16  18
HETATM   18  C   UNL     1      -5.916   9.810  67.408  1.00  0.00    -0.055 A  
HETATM   19  C   UNL     1      -5.291  10.904  66.773  1.00  0.00    -0.069 A  
HETATM   20  C   UNL     1      -5.142  10.959  65.375  1.00  0.00    -0.128 A  
HETATM   21  C   UNL     1      -5.621   9.915  64.582  1.00  0.00    -0.088 A  
HETATM   22  C   UNL     1      -6.161   8.786  65.204  1.00  0.00    -0.059 A  
HETATM   23  C   UNL     1      -5.555   9.923  63.095  1.00  0.00    -0.102 C  
HETATM   24  C   UNL     1      -6.296   8.731  66.597  1.00  0.00    -0.059 A  
HETATM   25  O   UNL     1      -5.617  11.153  62.538  1.00  0.00    -0.145 OA 
HETATM   26  O   UNL     1      -5.505   8.903  62.431  1.00  0.00    -0.081 OA 
ENDBRANCH  16  18
ENDBRANCH   8  16
TORSDOF 2
ENDMDL
MODEL      140
REMARK 921   NORMALIZED FREE ENERGY PREDICTED BY IDOCK:   -3.51 KCAL/MOL
REMARK 922        TOTAL FREE ENERGY PREDICTED BY IDOCK:   -4.07 KCAL/MOL
REMARK 923 INTER-LIGAND FREE ENERGY PREDICTED BY IDOCK:   -3.80 KCAL/MOL
REMARK 924 INTRA-LIGAND FREE ENERGY PREDICTED BY IDOCK:   -0.27 KCAL/MOL
REMARK 927      BINDING AFFINITY PREDICTED BY RF-SCORE:    0.00 PKD
ROOT
HETATM    1  C   UNL     1      -9.256   8.798  70.821  1.00  0.00    -0.242 C  
HETATM    2  C   UNL     1      -8.965   8.968  69.355  1.00  0.00    -0.145 A  
HETATM    3  C   UNL     1      -9.459  10.131  68.732  1.00  0.00    -0.171 A  
HETATM    4  C   UNL     1      -9.235  10.438  67.374  1.00  0.00    -0.154 A  
HETATM    5  C   UNL     1      -8.496   9.522  66.598  1.00  0.00    -0.136 A  
HETATM    6  C   UNL     1      -7.959   8.376  67.244  1.00  0.00    -0.105 A  
HETATM    7  C   UNL     1      -8.251   9.747  65.097  1.00  0.00    -0.140 C  
HETATM    8  C   UNL     1      -8.191   8.072  68.605  1.00  0.00    -0.126 A  
HETATM    9  C   UNL     1      -6.785  10.193  64.878  1.00  0.00    -0.124 C  
HETATM   10  C   UNL     1      -8.501   8.467  64.273  1.00  0.00    -0.068 C  
HETATM   11  C   UNL     1      -9.202  10.825  64.517  1.00  0.00    -0.250 C  
HETATM   12  C   UNL     1     -11.377  11.553  66.710  1.00  0.00    -0.309 C  
HETATM   13  C   UNL     1      -9.278  12.058  65.400  1.00  0.00     0.095 C  
HETATM   14  C   UNL     1      -9.546  12.954  67.692  1.00  0.00    -0.196 C  
HETATM   15  C   UNL     1      -9.844  11.727  66.797  1.00  0.00    -0.218 C  
ENDROOT
BRANCH   8  16
HETATM   16  C   UNL     1      -7.548   6.847  69.184  1.00  0.00    -0.097 C  
HETATM   17  C   UNL     1      -6.372   6.508  68.617  1.00  0.00    -0.038 C  
BRANCH  16  18
HETATM   18  C   UNL     1      -8.175   5.884  70.151  1.00  0.00    -0.118 A  
HETATM   19  C   UNL     1      -9.569   5.682  70.243  1.00  0.00    -0.216 A  
HETATM   20  C   UNL     1     -10.134   4.882  71.253  1.00  0.00    -0.269 A  
HETATM   21  C   UNL     1      -9.309   4.268  72.196  1.00  0.00    -0.174 A  
HETATM   22  C   UNL     1      -7.923   4.387  72.064  1.00  0.00    -0.098 A  
HETATM   23  C   UNL     1      -9.830   3.453  73.329  1.00  0.00    -0.114 C  
HETATM   24  C   UNL     1      -7.366   5.176  71.050  1.00  0.00    -0.073 A  
HETATM   25  O   UNL     1     -11.047   3.832  73.777  1.00  0.00    -0.231 OA 
HETATM   26  O   UNL     1      -9.190   2.555  73.845  1.00  0.00    -0.079 OA 
ENDBRANCH  16  18
ENDBRANCH   8  16
TORSDOF 2
ENDMDL
MODEL      141
REMARK 921   NORMALIZED FREE ENERGY PREDICTED BY IDOCK:   -3.38 KCAL/MOL
REMARK 922        TOTAL FREE ENERGY PREDICTED BY IDOCK:   -3.93 KCAL/MOL
REMARK 923 INTER-LIGAND FREE ENERGY PREDICTED BY IDOCK:   -2.97 KCAL/MOL
REMARK 924 INTRA-LIGAND FREE ENERGY PREDICTED BY IDOCK:   -0.96 KCAL/MOL
REMARK 927      BINDING AFFINITY PREDICTED BY RF-SCORE:    0.00 PKD
ROOT
HETATM    1  C   UNL     1      -7.174   6.113  70.254  1.00  0.00    -0.083 C  
HETATM    2  C   UNL     1      -8.112   7.229  69.881  1.00  0.00    -0.127 A  
HETATM    3  C   UNL     1      -9.290   7.360  70.642  1.00  0.00    -0.160 A  
HETATM    4  C   UNL     1     -10.242   8.378  70.428  1.00  0.00    -0.212 A  
HETATM    5  C   UNL     1     -10.009   9.297  69.385  1.00  0.00    -0.184 A  
HETATM    6  C   UNL     1      -8.797   9.189  68.653  1.00  0.00    -0.133 A  
HETATM    7  C   UNL     1     -11.020  10.405  69.043  1.00  0.00    -0.282 C  
HETATM    8  C   UNL     1      -7.848   8.163  68.871  1.00  0.00    -0.112 A  
HETATM    9  C   UNL     1     -10.482  11.764  69.551  1.00  0.00     0.244 C  
HETATM   10  C   UNL     1     -11.266  10.513  67.525  1.00  0.00    -0.299 C  
HETATM   11  C   UNL     1     -12.404  10.135  69.686  1.00  0.00     0.157 C  
HETATM   12  C   UNL     1     -12.402   7.213  70.923  1.00  0.00    -0.335 C  
HETATM   13  C   UNL     1     -12.290   9.725  71.144  1.00  0.00    -0.451 C  
HETATM   14  C   UNL     1     -11.157   8.289  72.812  1.00  0.00    -0.319 C  
HETATM   15  C   UNL     1     -11.502   8.408  71.308  1.00  0.00    -0.325 C  
ENDROOT
BRANCH   8  16
HETATM   16  C   UNL     1      -6.589   8.168  68.055  1.00  0.00    -0.057 C  
HETATM   17  C   UNL     1      -5.680   9.092  68.428  1.00  0.00    -0.038 C  
BRANCH  16  18
HETATM   18  C   UNL     1      -6.353   7.414  66.778  1.00  0.00    -0.045 A  
HETATM   19  C   UNL     1      -6.820   7.857  65.523  1.00  0.00    -0.055 A  
HETATM   20  C   UNL     1      -6.706   7.059  64.369  1.00  0.00    -0.046 A  
HETATM   21  C   UNL     1      -6.123   5.794  64.453  1.00  0.00    -0.025 A  
HETATM   22  C   UNL     1      -5.576   5.380  65.671  1.00  0.00    -0.013 A  
HETATM   23  C   UNL     1      -6.016   4.866  63.294  1.00  0.00    -0.017 C  
HETATM   24  C   UNL     1      -5.682   6.183  66.813  1.00  0.00    -0.016 A  
HETATM   25  O   UNL     1      -7.008   4.991  62.384  1.00  0.00    -0.029 OA 
HETATM   26  O   UNL     1      -5.140   4.025  63.199  1.00  0.00    -0.005 OA 
ENDBRANCH  16  18
ENDBRANCH   8  16
TORSDOF 2
ENDMDL
MODEL      142
REMARK 921   NORMALIZED FREE ENERGY PREDICTED BY IDOCK:   -3.29 KCAL/MOL
REMARK 922        TOTAL FREE ENERGY PREDICTED BY IDOCK:   -3.82 KCAL/MOL
REMARK 923 INTER-LIGAND FREE ENERGY PREDICTED BY IDOCK:   -3.07 KCAL/MOL
REMARK 924 INTRA-LIGAND FREE ENERGY PREDICTED BY IDOCK:   -0.76 KCAL/MOL
REMARK 927      BINDING AFFINITY PREDICTED BY RF-SCORE:    0.00 PKD
ROOT
HETATM    1  C   UNL     1     -10.437  10.007  70.600  1.00  0.00    -0.211 C  
HETATM    2  C   UNL     1      -9.660   9.740  69.340  1.00  0.00    -0.218 A  
HETATM    3  C   UNL     1      -9.936  10.559  68.228  1.00  0.00    -0.176 A  
HETATM    4  C   UNL     1      -9.262  10.445  66.995  1.00  0.00    -0.165 A  
HETATM    5  C   UNL     1      -8.276   9.445  66.866  1.00  0.00    -0.116 A  
HETATM    6  C   UNL     1      -7.969   8.655  68.005  1.00  0.00    -0.107 A  
HETATM    7  C   UNL     1      -7.531   9.212  65.541  1.00  0.00    -0.089 C  
HETATM    8  C   UNL     1      -8.651   8.772  69.238  1.00  0.00    -0.130 A  
HETATM    9  C   UNL     1      -6.092   9.770  65.657  1.00  0.00    -0.070 C  
HETATM   10  C   UNL     1      -7.447   7.714  65.182  1.00  0.00    -0.088 C  
HETATM   11  C   UNL     1      -8.248   9.901  64.352  1.00  0.00    -0.164 C  
HETATM   12  C   UNL     1     -11.067  10.971  65.341  1.00  0.00     0.001 C  
HETATM   13  C   UNL     1      -8.657  11.327  64.676  1.00  0.00     0.330 C  
HETATM   14  C   UNL     1      -9.727  12.859  66.299  1.00  0.00    -0.268 C  
HETATM   15  C   UNL     1      -9.664  11.381  65.844  1.00  0.00    -0.257 C  
ENDROOT
BRANCH   8  16
HETATM   16  C   UNL     1      -8.219   7.901  70.380  1.00  0.00    -0.119 C  
HETATM   17  C   UNL     1      -7.487   8.532  71.322  1.00  0.00    -0.107 C  
BRANCH  16  18
HETATM   18  C   UNL     1      -8.341   6.407  70.456  1.00  0.00    -0.129 A  
HETATM   19  C   UNL     1      -7.395   5.526  69.889  1.00  0.00    -0.069 A  
HETATM   20  C   UNL     1      -7.609   4.136  69.854  1.00  0.00    -0.052 A  
HETATM   21  C   UNL     1      -8.782   3.599  70.385  1.00  0.00    -0.125 A  
HETATM   22  C   UNL     1      -9.685   4.450  71.028  1.00  0.00    -0.260 A  
HETATM   23  C   UNL     1      -9.111   2.148  70.335  1.00  0.00    -0.099 C  
HETATM   24  C   UNL     1      -9.462   5.831  71.071  1.00  0.00    -0.195 A  
HETATM   25  O   UNL     1      -8.603   1.495  69.266  1.00  0.00    -0.052 OA 
HETATM   26  O   UNL     1      -9.825   1.604  71.159  1.00  0.00    -0.134 OA 
ENDBRANCH  16  18
ENDBRANCH   8  16
TORSDOF 2
ENDMDL
MODEL      143
REMARK 921   NORMALIZED FREE ENERGY PREDICTED BY IDOCK:   -3.06 KCAL/MOL
REMARK 922        TOTAL FREE ENERGY PREDICTED BY IDOCK:   -3.56 KCAL/MOL
REMARK 923 INTER-LIGAND FREE ENERGY PREDICTED BY IDOCK:   -3.85 KCAL/MOL
REMARK 924 INTRA-LIGAND FREE ENERGY PREDICTED BY IDOCK:    0.29 KCAL/MOL
REMARK 927      BINDING AFFINITY PREDICTED BY RF-SCORE:    0.00 PKD
ROOT
HETATM    1  C   UNL     1      -8.383   7.549  69.403  1.00  0.00    -0.132 C  
HETATM    2  C   UNL     1      -8.172   7.949  67.968  1.00  0.00    -0.127 A  
HETATM    3  C   UNL     1      -8.079   6.913  67.018  1.00  0.00    -0.117 A  
HETATM    4  C   UNL     1      -7.915   7.140  65.637  1.00  0.00    -0.126 A  
HETATM    5  C   UNL     1      -7.819   8.474  65.188  1.00  0.00    -0.116 A  
HETATM    6  C   UNL     1      -7.962   9.514  66.144  1.00  0.00    -0.107 A  
HETATM    7  C   UNL     1      -7.583   8.813  63.708  1.00  0.00    -0.124 C  
HETATM    8  C   UNL     1      -8.122   9.279  67.529  1.00  0.00    -0.107 A  
HETATM    9  C   UNL     1      -8.901   9.333  63.085  1.00  0.00    -0.163 C  
HETATM   10  C   UNL     1      -6.498   9.895  63.529  1.00  0.00    -0.124 C  
HETATM   11  C   UNL     1      -7.096   7.578  62.907  1.00  0.00    -0.078 C  
HETATM   12  C   UNL     1      -6.446   5.234  64.944  1.00  0.00    -0.039 C  
HETATM   13  C   UNL     1      -7.915   6.337  63.212  1.00  0.00    -0.098 C  
HETATM   14  C   UNL     1      -8.929   4.897  64.952  1.00  0.00    -0.138 C  
HETATM   15  C   UNL     1      -7.804   5.929  64.697  1.00  0.00    -0.114 C  
ENDROOT
BRANCH   8  16
HETATM   16  C   UNL     1      -8.291  10.459  68.440  1.00  0.00    -0.119 C  
HETATM   17  C   UNL     1      -8.326  10.156  69.754  1.00  0.00    -0.154 C  
BRANCH  16  18
HETATM   18  C   UNL     1      -8.627  11.863  68.025  1.00  0.00    -0.168 A  
HETATM   19  C   UNL     1      -7.649  12.855  67.801  1.00  0.00    -0.141 A  
HETATM   20  C   UNL     1      -8.001  14.195  67.553  1.00  0.00    -0.202 A  
HETATM   21  C   UNL     1      -9.345  14.569  67.528  1.00  0.00    -0.193 A  
HETATM   22  C   UNL     1     -10.325  13.581  67.660  1.00  0.00    -0.239 A  
HETATM   23  C   UNL     1      -9.799  15.973  67.330  1.00  0.00    -0.236 C  
HETATM   24  C   UNL     1      -9.969  12.247  67.895  1.00  0.00    -0.202 A  
HETATM   25  O   UNL     1      -8.942  16.908  67.797  1.00  0.00    -0.220 OA 
HETATM   26  O   UNL     1     -10.876  16.256  66.838  1.00  0.00    -0.271 OA 
ENDBRANCH  16  18
ENDBRANCH   8  16
TORSDOF 2
ENDMDL
MODEL      144
REMARK 921   NORMALIZED FREE ENERGY PREDICTED BY IDOCK:   -3.05 KCAL/MOL
REMARK 922        TOTAL FREE ENERGY PREDICTED BY IDOCK:   -3.56 KCAL/MOL
REMARK 923 INTER-LIGAND FREE ENERGY PREDICTED BY IDOCK:   -2.61 KCAL/MOL
REMARK 924 INTRA-LIGAND FREE ENERGY PREDICTED BY IDOCK:   -0.95 KCAL/MOL
REMARK 927      BINDING AFFINITY PREDICTED BY RF-SCORE:    0.00 PKD
ROOT
HETATM    1  C   UNL     1      -6.249   8.839  70.528  1.00  0.00    -0.037 C  
HETATM    2  C   UNL     1      -6.449   8.261  69.154  1.00  0.00    -0.040 A  
HETATM    3  C   UNL     1      -6.396   9.155  68.067  1.00  0.00    -0.055 A  
HETATM    4  C   UNL     1      -6.533   8.751  66.723  1.00  0.00    -0.060 A  
HETATM    5  C   UNL     1      -6.754   7.384  66.459  1.00  0.00    -0.061 A  
HETATM    6  C   UNL     1      -6.757   6.481  67.556  1.00  0.00    -0.067 A  
HETATM    7  C   UNL     1      -6.970   6.861  65.029  1.00  0.00    -0.051 C  
HETATM    8  C   UNL     1      -6.623   6.894  68.902  1.00  0.00    -0.044 A  
HETATM    9  C   UNL     1      -5.693   6.129  64.552  1.00  0.00    -0.022 C  
HETATM   10  C   UNL     1      -8.156   5.879  64.947  1.00  0.00    -0.132 C  
HETATM   11  C   UNL     1      -7.294   8.012  64.042  1.00  0.00    -0.097 C  
HETATM   12  C   UNL     1      -7.766  10.676  65.700  1.00  0.00    -0.109 C  
HETATM   13  C   UNL     1      -6.360   9.196  64.214  1.00  0.00    -0.076 C  
HETATM   14  C   UNL     1      -5.263  10.761  65.788  1.00  0.00    -0.122 C  
HETATM   15  C   UNL     1      -6.481   9.821  65.620  1.00  0.00    -0.082 C  
ENDROOT
BRANCH   8  16
HETATM   16  C   UNL     1      -6.613   5.845  69.974  1.00  0.00    -0.047 C  
HETATM   17  C   UNL     1      -5.577   4.983  69.907  1.00  0.00    -0.015 C  
BRANCH  16  18
HETATM   18  C   UNL     1      -7.721   5.552  70.943  1.00  0.00    -0.092 A  
HETATM   19  C   UNL     1      -7.494   5.087  72.256  1.00  0.00    -0.093 A  
HETATM   20  C   UNL     1      -8.554   4.687  73.091  1.00  0.00    -0.102 A  
HETATM   21  C   UNL     1      -9.867   4.742  72.623  1.00  0.00    -0.193 A  
HETATM   22  C   UNL     1     -10.113   5.284  71.358  1.00  0.00    -0.266 A  
HETATM   23  C   UNL     1     -11.038   4.284  73.420  1.00  0.00    -0.280 C  
HETATM   24  C   UNL     1      -9.056   5.692  70.536  1.00  0.00    -0.164 A  
HETATM   25  O   UNL     1     -10.768   3.279  74.283  1.00  0.00    -0.191 OA 
HETATM   26  O   UNL     1     -12.158   4.738  73.270  1.00  0.00    -0.112 OA 
ENDBRANCH  16  18
ENDBRANCH   8  16
TORSDOF 2
ENDMDL
MODEL      145
REMARK 921   NORMALIZED FREE ENERGY PREDICTED BY IDOCK:   -3.02 KCAL/MOL
REMARK 922        TOTAL FREE ENERGY PREDICTED BY IDOCK:   -3.52 KCAL/MOL
REMARK 923 INTER-LIGAND FREE ENERGY PREDICTED BY IDOCK:   -3.26 KCAL/MOL
REMARK 924 INTRA-LIGAND FREE ENERGY PREDICTED BY IDOCK:   -0.26 KCAL/MOL
REMARK 927      BINDING AFFINITY PREDICTED BY RF-SCORE:    0.00 PKD
ROOT
HETATM    1  C   UNL     1     -11.613   8.751  70.493  1.00  0.00    -0.170 C  
HETATM    2  C   UNL     1     -11.369  10.048  69.770  1.00  0.00    -0.281 A  
HETATM    3  C   UNL     1     -11.866  11.221  70.369  1.00  0.00    -0.443 A  
HETATM    4  C   UNL     1     -11.684  12.508  69.823  1.00  0.00    -0.355 A  
HETATM    5  C   UNL     1     -10.984  12.620  68.604  1.00  0.00    -0.292 A  
HETATM    6  C   UNL     1     -10.443  11.439  68.031  1.00  0.00    -0.215 A  
HETATM    7  C   UNL     1     -10.786  13.976  67.908  1.00  0.00    -0.255 C  
HETATM    8  C   UNL     1     -10.633  10.151  68.582  1.00  0.00    -0.236 A  
HETATM    9  C   UNL     1      -9.323  14.442  68.097  1.00  0.00    -0.203 C  
HETATM   10  C   UNL     1     -11.082  13.897  66.396  1.00  0.00    -0.309 C  
HETATM   11  C   UNL     1     -11.740  15.057  68.478  1.00  0.00    -0.345 C  
HETATM   12  C   UNL     1     -13.830  13.657  70.412  1.00  0.00     1.544 C  
HETATM   13  C   UNL     1     -11.769  15.055  69.996  1.00  0.00    -0.345 C  
HETATM   14  C   UNL     1     -11.947  13.707  72.064  1.00  0.00     0.796 C  
HETATM   15  C   UNL     1     -12.292  13.715  70.556  1.00  0.00    -0.425 C  
ENDROOT
BRANCH   8  16
HETATM   16  C   UNL     1      -9.989   8.979  67.902  1.00  0.00    -0.220 C  
HETATM   17  C   UNL     1      -9.902   9.086  66.560  1.00  0.00    -0.338 C  
BRANCH  16  18
HETATM   18  C   UNL     1      -9.642   7.662  68.535  1.00  0.00    -0.149 A  
HETATM   19  C   UNL     1      -8.634   7.518  69.512  1.00  0.00    -0.133 A  
HETATM   20  C   UNL     1      -8.236   6.253  69.981  1.00  0.00    -0.125 A  
HETATM   21  C   UNL     1      -8.841   5.102  69.475  1.00  0.00    -0.120 A  
HETATM   22  C   UNL     1      -9.901   5.234  68.573  1.00  0.00    -0.210 A  
HETATM   23  C   UNL     1      -8.439   3.725  69.875  1.00  0.00    -0.056 C  
HETATM   24  C   UNL     1     -10.301   6.497  68.118  1.00  0.00    -0.223 A  
HETATM   25  O   UNL     1      -7.137   3.599  70.213  1.00  0.00    -0.040 OA 
HETATM   26  O   UNL     1      -9.205   2.779  69.847  1.00  0.00    -0.116 OA 
ENDBRANCH  16  18
ENDBRANCH   8  16
TORSDOF 2
ENDMDL
MODEL      146
REMARK 921   NORMALIZED FREE ENERGY PREDICTED BY IDOCK:   -2.89 KCAL/MOL
REMARK 922        TOTAL FREE ENERGY PREDICTED BY IDOCK:   -3.38 KCAL/MOL
REMARK 923 INTER-LIGAND FREE ENERGY PREDICTED BY IDOCK:   -2.46 KCAL/MOL
REMARK 924 INTRA-LIGAND FREE ENERGY PREDICTED BY IDOCK:   -0.92 KCAL/MOL
REMARK 927      BINDING AFFINITY PREDICTED BY RF-SCORE:    0.00 PKD
ROOT
HETATM    1  C   UNL     1      -9.030   6.953  69.827  1.00  0.00    -0.141 C  
HETATM    2  C   UNL     1      -9.376   8.269  69.185  1.00  0.00    -0.151 A  
HETATM    3  C   UNL     1     -10.399   9.029  69.786  1.00  0.00    -0.219 A  
HETATM    4  C   UNL     1     -10.805  10.293  69.313  1.00  0.00    -0.275 A  
HETATM    5  C   UNL     1     -10.166  10.812  68.168  1.00  0.00    -0.194 A  
HETATM    6  C   UNL     1      -9.103  10.063  67.596  1.00  0.00    -0.142 A  
HETATM    7  C   UNL     1     -10.582  12.157  67.550  1.00  0.00    -0.240 C  
HETATM    8  C   UNL     1      -8.703   8.793  68.073  1.00  0.00    -0.141 A  
HETATM    9  C   UNL     1      -9.519  13.228  67.891  1.00  0.00    -0.214 C  
HETATM   10  C   UNL     1     -10.715  12.071  66.016  1.00  0.00    -0.317 C  
HETATM   11  C   UNL     1     -11.962  12.627  68.077  1.00  0.00    -0.300 C  
HETATM   12  C   UNL     1     -13.270  10.271  69.754  1.00  0.00     0.864 C  
HETATM   13  C   UNL     1     -12.078  12.491  69.585  1.00  0.00    -0.272 C  
HETATM   14  C   UNL     1     -11.731  11.053  71.570  1.00  0.00     0.669 C  
HETATM   15  C   UNL     1     -11.949  11.021  70.038  1.00  0.00    -0.430 C  
ENDROOT
BRANCH   8  16
HETATM   16  C   UNL     1      -7.548   8.110  67.405  1.00  0.00    -0.101 C  
HETATM   17  C   UNL     1      -6.431   8.860  67.305  1.00  0.00    -0.061 C  
BRANCH  16  18
HETATM   18  C   UNL     1      -7.590   6.797  66.677  1.00  0.00    -0.086 A  
HETATM   19  C   UNL     1      -8.696   6.376  65.909  1.00  0.00    -0.152 A  
HETATM   20  C   UNL     1      -8.763   5.084  65.357  1.00  0.00    -0.146 A  
HETATM   21  C   UNL     1      -7.719   4.183  65.567  1.00  0.00    -0.086 A  
HETATM   22  C   UNL     1      -6.578   4.616  66.249  1.00  0.00    -0.045 A  
HETATM   23  C   UNL     1      -7.737   2.781  65.067  1.00  0.00    -0.080 C  
HETATM   24  C   UNL     1      -6.512   5.907  66.786  1.00  0.00    -0.050 A  
HETATM   25  O   UNL     1      -8.970   2.234  64.981  1.00  0.00    -0.118 OA 
HETATM   26  O   UNL     1      -6.723   2.158  64.809  1.00  0.00    -0.030 OA 
ENDBRANCH  16  18
ENDBRANCH   8  16
TORSDOF 2
ENDMDL
MODEL      147
REMARK 921   NORMALIZED FREE ENERGY PREDICTED BY IDOCK:   -2.87 KCAL/MOL
REMARK 922        TOTAL FREE ENERGY PREDICTED BY IDOCK:   -3.35 KCAL/MOL
REMARK 923 INTER-LIGAND FREE ENERGY PREDICTED BY IDOCK:   -4.31 KCAL/MOL
REMARK 924 INTRA-LIGAND FREE ENERGY PREDICTED BY IDOCK:    0.97 KCAL/MOL
REMARK 927      BINDING AFFINITY PREDICTED BY RF-SCORE:    0.00 PKD
ROOT
HETATM    1  C   UNL     1     -10.740   8.612  68.637  1.00  0.00    -0.092 C  
HETATM    2  C   UNL     1      -9.880   8.275  67.450  1.00  0.00    -0.246 A  
HETATM    3  C   UNL     1      -9.939   6.952  66.968  1.00  0.00    -0.257 A  
HETATM    4  C   UNL     1      -9.215   6.503  65.845  1.00  0.00    -0.022 A  
HETATM    5  C   UNL     1      -8.374   7.423  65.185  1.00  0.00    -0.085 A  
HETATM    6  C   UNL     1      -8.357   8.766  65.645  1.00  0.00    -0.144 A  
HETATM    7  C   UNL     1      -7.506   7.007  63.986  1.00  0.00    -0.099 C  
HETATM    8  C   UNL     1      -9.083   9.209  66.775  1.00  0.00    -0.176 A  
HETATM    9  C   UNL     1      -8.130   7.561  62.683  1.00  0.00    -0.096 C  
HETATM   10  C   UNL     1      -6.064   7.544  64.104  1.00  0.00    -0.048 C  
HETATM   11  C   UNL     1      -7.384   5.465  63.875  1.00  0.00    -0.053 C  
HETATM   12  C   UNL     1      -8.631   4.152  66.480  1.00  0.00    -0.113 C  
HETATM   13  C   UNL     1      -8.725   4.770  64.034  1.00  0.00    -0.138 C  
HETATM   14  C   UNL     1     -10.820   4.581  65.338  1.00  0.00    -0.096 C  
HETATM   15  C   UNL     1      -9.341   5.030  65.425  1.00  0.00    -0.123 C  
ENDROOT
BRANCH   8  16
HETATM   16  C   UNL     1      -9.008  10.659  67.150  1.00  0.00    -0.143 C  
HETATM   17  C   UNL     1      -7.807  11.235  66.935  1.00  0.00    -0.156 C  
BRANCH  16  18
HETATM   18  C   UNL     1     -10.044  11.437  67.909  1.00  0.00    -0.198 A  
HETATM   19  C   UNL     1     -10.727  12.546  67.367  1.00  0.00    -0.254 A  
HETATM   20  C   UNL     1     -11.586  13.340  68.150  1.00  0.00    -0.373 A  
HETATM   21  C   UNL     1     -11.775  13.037  69.499  1.00  0.00    -0.381 A  
HETATM   22  C   UNL     1     -11.175  11.890  70.026  1.00  0.00     0.043 A  
HETATM   23  C   UNL     1     -12.620  13.859  70.408  1.00  0.00    -0.282 C  
HETATM   24  C   UNL     1     -10.331  11.097  69.239  1.00  0.00    -0.148 A  
HETATM   25  O   UNL     1     -12.668  15.172  70.093  1.00  0.00    -0.311 OA 
HETATM   26  O   UNL     1     -13.177  13.397  71.388  1.00  0.00    -0.324 OA 
ENDBRANCH  16  18
ENDBRANCH   8  16
TORSDOF 2
ENDMDL
MODEL      148
REMARK 921   NORMALIZED FREE ENERGY PREDICTED BY IDOCK:   -2.84 KCAL/MOL
REMARK 922        TOTAL FREE ENERGY PREDICTED BY IDOCK:   -3.32 KCAL/MOL
REMARK 923 INTER-LIGAND FREE ENERGY PREDICTED BY IDOCK:   -2.44 KCAL/MOL
REMARK 924 INTRA-LIGAND FREE ENERGY PREDICTED BY IDOCK:   -0.89 KCAL/MOL
REMARK 927      BINDING AFFINITY PREDICTED BY RF-SCORE:    0.00 PKD
ROOT
HETATM    1  C   UNL     1      -6.304   8.531  71.315  1.00  0.00    -0.047 C  
HETATM    2  C   UNL     1      -6.995   8.792  70.005  1.00  0.00    -0.043 A  
HETATM    3  C   UNL     1      -7.046  10.128  69.560  1.00  0.00    -0.101 A  
HETATM    4  C   UNL     1      -7.632  10.515  68.338  1.00  0.00    -0.097 A  
HETATM    5  C   UNL     1      -8.213   9.515  67.531  1.00  0.00    -0.121 A  
HETATM    6  C   UNL     1      -8.115   8.166  67.962  1.00  0.00    -0.128 A  
HETATM    7  C   UNL     1      -8.922   9.854  66.210  1.00  0.00    -0.169 C  
HETATM    8  C   UNL     1      -7.529   7.784  69.192  1.00  0.00    -0.094 A  
HETATM    9  C   UNL     1      -8.019   9.441  65.023  1.00  0.00    -0.118 C  
HETATM   10  C   UNL     1     -10.272   9.120  66.075  1.00  0.00    -0.093 C  
HETATM   11  C   UNL     1      -9.241  11.367  66.102  1.00  0.00    -0.223 C  
HETATM   12  C   UNL     1      -8.640  12.738  68.900  1.00  0.00     0.316 C  
HETATM   13  C   UNL     1      -8.058  12.233  66.496  1.00  0.00     0.157 C  
HETATM   14  C   UNL     1      -6.254  12.659  68.137  1.00  0.00    -0.083 C  
HETATM   15  C   UNL     1      -7.648  12.008  67.967  1.00  0.00    -0.120 C  
ENDROOT
BRANCH   8  16
HETATM   16  C   UNL     1      -7.458   6.324  69.527  1.00  0.00    -0.093 C  
HETATM   17  C   UNL     1      -6.837   5.564  68.601  1.00  0.00    -0.059 C  
BRANCH  16  18
HETATM   18  C   UNL     1      -8.175   5.632  70.650  1.00  0.00    -0.118 A  
HETATM   19  C   UNL     1      -7.507   4.907  71.660  1.00  0.00    -0.079 A  
HETATM   20  C   UNL     1      -8.212   4.152  72.616  1.00  0.00    -0.096 A  
HETATM   21  C   UNL     1      -9.606   4.107  72.576  1.00  0.00    -0.190 A  
HETATM   22  C   UNL     1     -10.283   4.891  71.637  1.00  0.00    -0.267 A  
HETATM   23  C   UNL     1     -10.424   3.289  73.514  1.00  0.00    -0.166 C  
HETATM   24  C   UNL     1      -9.576   5.650  70.696  1.00  0.00    -0.213 A  
HETATM   25  O   UNL     1      -9.816   2.163  73.948  1.00  0.00    -0.088 OA 
HETATM   26  O   UNL     1     -11.566   3.580  73.821  1.00  0.00    -0.102 OA 
ENDBRANCH  16  18
ENDBRANCH   8  16
TORSDOF 2
ENDMDL
MODEL      149
REMARK 921   NORMALIZED FREE ENERGY PREDICTED BY IDOCK:   -2.83 KCAL/MOL
REMARK 922        TOTAL FREE ENERGY PREDICTED BY IDOCK:   -3.31 KCAL/MOL
REMARK 923 INTER-LIGAND FREE ENERGY PREDICTED BY IDOCK:   -3.28 KCAL/MOL
REMARK 924 INTRA-LIGAND FREE ENERGY PREDICTED BY IDOCK:   -0.03 KCAL/MOL
REMARK 927      BINDING AFFINITY PREDICTED BY RF-SCORE:    0.00 PKD
ROOT
HETATM    1  C   UNL     1      -7.902   9.121  65.085  1.00  0.00    -0.106 C  
HETATM    2  C   UNL     1      -8.657   9.232  66.381  1.00  0.00    -0.141 A  
HETATM    3  C   UNL     1      -9.355  10.432  66.618  1.00  0.00    -0.185 A  
HETATM    4  C   UNL     1     -10.131  10.663  67.772  1.00  0.00    -0.203 A  
HETATM    5  C   UNL     1     -10.193   9.646  68.746  1.00  0.00    -0.213 A  
HETATM    6  C   UNL     1      -9.528   8.420  68.479  1.00  0.00    -0.149 A  
HETATM    7  C   UNL     1     -10.969   9.831  70.061  1.00  0.00    -0.319 C  
HETATM    8  C   UNL     1      -8.747   8.197  67.321  1.00  0.00    -0.125 A  
HETATM    9  C   UNL     1     -12.286   9.021  69.998  1.00  0.00     0.655 C  
HETATM   10  C   UNL     1     -10.158   9.353  71.282  1.00  0.00    -0.309 C  
HETATM   11  C   UNL     1     -11.303  11.323  70.322  1.00  0.00    -0.179 C  
HETATM   12  C   UNL     1      -9.759  13.103  68.198  1.00  0.00    -0.228 C  
HETATM   13  C   UNL     1     -11.855  12.013  69.087  1.00  0.00    -0.369 C  
HETATM   14  C   UNL     1     -11.614  12.421  66.658  1.00  0.00    -0.447 C  
HETATM   15  C   UNL     1     -10.831  12.023  67.932  1.00  0.00    -0.254 C  
ENDROOT
BRANCH   8  16
HETATM   16  C   UNL     1      -8.114   6.850  67.134  1.00  0.00    -0.117 C  
HETATM   17  C   UNL     1      -8.096   6.409  65.859  1.00  0.00    -0.124 C  
BRANCH  16  18
HETATM   18  C   UNL     1      -7.709   5.898  68.222  1.00  0.00    -0.101 A  
HETATM   19  C   UNL     1      -8.193   4.575  68.307  1.00  0.00    -0.090 A  
HETATM   20  C   UNL     1      -7.907   3.754  69.415  1.00  0.00    -0.052 A  
HETATM   21  C   UNL     1      -7.130   4.248  70.464  1.00  0.00    -0.038 A  
HETATM   22  C   UNL     1      -6.572   5.524  70.351  1.00  0.00    -0.043 A  
HETATM   23  C   UNL     1      -6.830   3.466  71.695  1.00  0.00    -0.027 C  
HETATM   24  C   UNL     1      -6.850   6.332  69.241  1.00  0.00    -0.062 A  
HETATM   25  O   UNL     1      -7.793   2.585  72.047  1.00  0.00    -0.051 OA 
HETATM   26  O   UNL     1      -5.827   3.644  72.362  1.00  0.00    -0.008 OA 
ENDBRANCH  16  18
ENDBRANCH   8  16
TORSDOF 2
ENDMDL
MODEL      150
REMARK 921   NORMALIZED FREE ENERGY PREDICTED BY IDOCK:   -2.78 KCAL/MOL
REMARK 922        TOTAL FREE ENERGY PREDICTED BY IDOCK:   -3.25 KCAL/MOL
REMARK 923 INTER-LIGAND FREE ENERGY PREDICTED BY IDOCK:   -2.38 KCAL/MOL
REMARK 924 INTRA-LIGAND FREE ENERGY PREDICTED BY IDOCK:   -0.87 KCAL/MOL
REMARK 927      BINDING AFFINITY PREDICTED BY RF-SCORE:    0.00 PKD
ROOT
HETATM    1  C   UNL     1     -10.764   7.038  70.411  1.00  0.00    -0.259 C  
HETATM    2  C   UNL     1     -10.049   8.034  69.540  1.00  0.00    -0.196 A  
HETATM    3  C   UNL     1     -10.535   9.356  69.543  1.00  0.00    -0.229 A  
HETATM    4  C   UNL     1      -9.945  10.400  68.801  1.00  0.00    -0.196 A  
HETATM    5  C   UNL     1      -8.824  10.097  68.002  1.00  0.00    -0.125 A  
HETATM    6  C   UNL     1      -8.310   8.774  68.041  1.00  0.00    -0.119 A  
HETATM    7  C   UNL     1      -8.151  11.160  67.118  1.00  0.00    -0.138 C  
HETATM    8  C   UNL     1      -8.909   7.730  68.784  1.00  0.00    -0.134 A  
HETATM    9  C   UNL     1      -6.816  11.597  67.767  1.00  0.00    -0.079 C  
HETATM   10  C   UNL     1      -7.854  10.628  65.701  1.00  0.00    -0.123 C  
HETATM   11  C   UNL     1      -9.055  12.405  66.930  1.00  0.00    -0.211 C  
HETATM   12  C   UNL     1     -11.928  11.767  68.117  1.00  0.00    -0.214 C  
HETATM   13  C   UNL     1      -9.663  12.876  68.240  1.00  0.00    -0.217 C  
HETATM   14  C   UNL     1     -10.841  12.246  70.324  1.00  0.00     1.355 C  
HETATM   15  C   UNL     1     -10.576  11.800  68.866  1.00  0.00    -0.211 C  
ENDROOT
BRANCH   8  16
HETATM   16  C   UNL     1      -8.259   6.378  68.771  1.00  0.00    -0.121 C  
HETATM   17  C   UNL     1      -7.373   6.171  69.766  1.00  0.00    -0.079 C  
BRANCH  16  18
HETATM   18  C   UNL     1      -8.344   5.360  67.670  1.00  0.00    -0.099 A  
HETATM   19  C   UNL     1      -7.610   5.460  66.469  1.00  0.00    -0.088 A  
HETATM   20  C   UNL     1      -7.817   4.567  65.401  1.00  0.00    -0.090 A  
HETATM   21  C   UNL     1      -8.772   3.556  65.515  1.00  0.00    -0.122 A  
HETATM   22  C   UNL     1      -9.442   3.391  66.731  1.00  0.00    -0.163 A  
HETATM   23  C   UNL     1      -9.093   2.608  64.413  1.00  0.00    -0.123 C  
HETATM   24  C   UNL     1      -9.223   4.275  67.795  1.00  0.00    -0.178 A  
HETATM   25  O   UNL     1      -8.930   3.118  63.172  1.00  0.00    -0.092 OA 
HETATM   26  O   UNL     1      -9.520   1.485  64.610  1.00  0.00    -0.134 OA 
ENDBRANCH  16  18
ENDBRANCH   8  16
TORSDOF 2
ENDMDL
MODEL      151
REMARK 921   NORMALIZED FREE ENERGY PREDICTED BY IDOCK:   -2.77 KCAL/MOL
REMARK 922        TOTAL FREE ENERGY PREDICTED BY IDOCK:   -3.25 KCAL/MOL
REMARK 923 INTER-LIGAND FREE ENERGY PREDICTED BY IDOCK:   -2.52 KCAL/MOL
REMARK 924 INTRA-LIGAND FREE ENERGY PREDICTED BY IDOCK:   -0.72 KCAL/MOL
REMARK 927      BINDING AFFINITY PREDICTED BY RF-SCORE:    0.00 PKD
ROOT
HETATM    1  C   UNL     1     -10.179  14.434  69.416  1.00  0.00     0.004 C  
HETATM    2  C   UNL     1     -10.083  15.658  68.547  1.00  0.00    -0.211 A  
HETATM    3  C   UNL     1      -9.491  16.804  69.113  1.00  0.00    -0.162 A  
HETATM    4  C   UNL     1      -9.304  18.010  68.407  1.00  0.00    -0.306 A  
HETATM    5  C   UNL     1      -9.752  18.075  67.071  1.00  0.00    -0.303 A  
HETATM    6  C   UNL     1     -10.303  16.901  66.491  1.00  0.00    -0.299 A  
HETATM    7  C   UNL     1      -9.640  19.365  66.243  1.00  0.00    -0.437 C  
HETATM    8  C   UNL     1     -10.492  15.696  67.207  1.00  0.00    -0.292 A  
HETATM    9  C   UNL     1      -8.491  19.218  65.217  1.00  0.00     1.335 C  
HETATM   10  C   UNL     1     -10.943  19.674  65.477  1.00  0.00    -0.140 C  
HETATM   11  C   UNL     1      -9.365  20.599  67.141  1.00  0.00    -0.464 C  
HETATM   12  C   UNL     1      -9.671  19.740  70.180  1.00  0.00     0.612 C  
HETATM   13  C   UNL     1      -8.273  20.334  68.162  1.00  0.00    -0.076 C  
HETATM   14  C   UNL     1      -7.369  18.796  69.879  1.00  0.00     0.533 C  
HETATM   15  C   UNL     1      -8.665  19.203  69.137  1.00  0.00    -0.136 C  
ENDROOT
BRANCH   8  16
HETATM   16  C   UNL     1     -11.058  14.513  66.479  1.00  0.00    -0.332 C  
HETATM   17  C   UNL     1     -12.292  14.705  65.969  1.00  0.00    -0.119 C  
BRANCH  16  18
HETATM   18  C   UNL     1     -10.487  13.125  66.456  1.00  0.00    -0.283 A  
HETATM   19  C   UNL     1      -9.103  12.862  66.364  1.00  0.00    -0.083 A  
HETATM   20  C   UNL     1      -8.610  11.555  66.201  1.00  0.00    -0.094 A  
HETATM   21  C   UNL     1      -9.497  10.481  66.123  1.00  0.00    -0.222 A  
HETATM   22  C   UNL     1     -10.863  10.717  66.302  1.00  0.00    -0.097 A  
HETATM   23  C   UNL     1      -9.060   9.076  65.894  1.00  0.00    -0.212 C  
HETATM   24  C   UNL     1     -11.348  12.019  66.475  1.00  0.00    -0.413 A  
HETATM   25  O   UNL     1      -7.931   8.954  65.161  1.00  0.00    -0.110 OA 
HETATM   26  O   UNL     1      -9.696   8.114  66.286  1.00  0.00    -0.216 OA 
ENDBRANCH  16  18
ENDBRANCH   8  16
TORSDOF 2
ENDMDL
MODEL      152
REMARK 921   NORMALIZED FREE ENERGY PREDICTED BY IDOCK:   -1.44 KCAL/MOL
REMARK 922        TOTAL FREE ENERGY PREDICTED BY IDOCK:   -1.75 KCAL/MOL
REMARK 923 INTER-LIGAND FREE ENERGY PREDICTED BY IDOCK:   -1.79 KCAL/MOL
REMARK 924 INTRA-LIGAND FREE ENERGY PREDICTED BY IDOCK:    0.03 KCAL/MOL
REMARK 927      BINDING AFFINITY PREDICTED BY RF-SCORE:    0.00 PKD
ROOT
HETATM    1  C   UNL     1     -10.818   8.791  71.423  1.00  0.00    -0.359 C  
HETATM    2  C   UNL     1     -10.577   9.848  70.381  1.00  0.00    -0.364 A  
HETATM    3  C   UNL     1     -11.262  11.069  70.533  1.00  0.00     0.035 A  
HETATM    4  C   UNL     1     -11.108  12.160  69.653  1.00  0.00    -0.046 A  
HETATM    5  C   UNL     1     -10.238  12.010  68.554  1.00  0.00    -0.218 A  
HETATM    6  C   UNL     1      -9.514  10.795  68.433  1.00  0.00    -0.174 A  
HETATM    7  C   UNL     1     -10.052  13.126  67.513  1.00  0.00    -0.222 C  
HETATM    8  C   UNL     1      -9.676   9.703  69.317  1.00  0.00    -0.191 A  
HETATM    9  C   UNL     1      -8.682  13.810  67.734  1.00  0.00    -0.182 C  
HETATM   10  C   UNL     1     -10.099  12.583  66.070  1.00  0.00    -0.268 C  
HETATM   11  C   UNL     1     -11.173  14.192  67.609  1.00  0.00    -0.315 C  
HETATM   12  C   UNL     1     -13.411  13.142  69.598  1.00  0.00     2.121 C  
HETATM   13  C   UNL     1     -11.439  14.618  69.042  1.00  0.00    -0.317 C  
HETATM   14  C   UNL     1     -11.822  13.902  71.381  1.00  0.00     0.167 C  
HETATM   15  C   UNL     1     -11.926  13.437  69.908  1.00  0.00    -0.408 C  
ENDROOT
BRANCH   8  16
HETATM   16  C   UNL     1      -8.834   8.480  69.105  1.00  0.00    -0.142 C  
HETATM   17  C   UNL     1      -8.239   8.007  70.219  1.00  0.00    -0.123 C  
BRANCH  16  18
HETATM   18  C   UNL     1      -8.440   7.888  67.783  1.00  0.00    -0.125 A  
HETATM   19  C   UNL     1      -9.033   8.269  66.560  1.00  0.00    -0.189 A  
HETATM   20  C   UNL     1      -8.744   7.597  65.358  1.00  0.00    -0.029 A  
HETATM   21  C   UNL     1      -7.853   6.523  65.359  1.00  0.00    -0.106 A  
HETATM   22  C   UNL     1      -7.192   6.193  66.545  1.00  0.00    -0.073 A  
HETATM   23  C   UNL     1      -7.538   5.724  64.143  1.00  0.00    -0.083 C  
HETATM   24  C   UNL     1      -7.474   6.873  67.736  1.00  0.00    -0.098 A  
HETATM   25  O   UNL     1      -8.548   5.643  63.249  1.00  0.00    -0.045 OA 
HETATM   26  O   UNL     1      -6.477   5.145  63.990  1.00  0.00    -0.032 OA 
ENDBRANCH  16  18
ENDBRANCH   8  16
TORSDOF 2
ENDMDL
MODEL      153
REMARK 921   NORMALIZED FREE ENERGY PREDICTED BY IDOCK:   -1.22 KCAL/MOL
REMARK 922        TOTAL FREE ENERGY PREDICTED BY IDOCK:   -1.51 KCAL/MOL
REMARK 923 INTER-LIGAND FREE ENERGY PREDICTED BY IDOCK:   -1.69 KCAL/MOL
REMARK 924 INTRA-LIGAND FREE ENERGY PREDICTED BY IDOCK:    0.18 KCAL/MOL
REMARK 927      BINDING AFFINITY PREDICTED BY RF-SCORE:    0.00 PKD
ROOT
HETATM    1  C   UNL     1     -11.297  10.237  71.313  1.00  0.00    -0.122 C  
HETATM    2  C   UNL     1     -11.086  11.292  70.262  1.00  0.00     0.105 A  
HETATM    3  C   UNL     1     -11.732  12.529  70.453  1.00  0.00    -0.100 A  
HETATM    4  C   UNL     1     -11.598  13.618  69.568  1.00  0.00    -0.361 A  
HETATM    5  C   UNL     1     -10.792  13.451  68.424  1.00  0.00    -0.284 A  
HETATM    6  C   UNL     1     -10.104  12.219  68.263  1.00  0.00    -0.218 A  
HETATM    7  C   UNL     1     -10.634  14.565  67.377  1.00  0.00    -0.271 C  
HETATM    8  C   UNL     1     -10.246  11.128  69.152  1.00  0.00    -0.163 A  
HETATM    9  C   UNL     1      -9.238  15.216  67.527  1.00  0.00    -0.188 C  
HETATM   10  C   UNL     1     -10.770  14.029  65.937  1.00  0.00    -0.293 C  
HETATM   11  C   UNL     1     -11.722  15.658  67.534  1.00  0.00     0.069 C  
HETATM   12  C   UNL     1     -13.876  14.656  69.638  1.00  0.00     2.912 C  
HETATM   13  C   UNL     1     -11.902  16.085  68.981  1.00  0.00    -0.258 C  
HETATM   14  C   UNL     1     -12.178  15.371  71.335  1.00  0.00    -0.433 C  
HETATM   15  C   UNL     1     -12.371  14.913  69.869  1.00  0.00    -0.322 C  
ENDROOT
BRANCH   8  16
HETATM   16  C   UNL     1      -9.446   9.886  68.893  1.00  0.00    -0.170 C  
HETATM   17  C   UNL     1      -8.773   9.417  69.964  1.00  0.00    -0.227 C  
BRANCH  16  18
HETATM   18  C   UNL     1      -9.170   9.268  67.553  1.00  0.00    -0.140 A  
HETATM   19  C   UNL     1      -8.621   7.977  67.398  1.00  0.00    -0.125 A  
HETATM   20  C   UNL     1      -8.242   7.483  66.136  1.00  0.00    -0.125 A  
HETATM   21  C   UNL     1      -8.403   8.278  65.001  1.00  0.00    -0.158 A  
HETATM   22  C   UNL     1      -9.027   9.522  65.128  1.00  0.00    -0.253 A  
HETATM   23  C   UNL     1      -7.975   7.853  63.639  1.00  0.00    -0.118 C  
HETATM   24  C   UNL     1      -9.413  10.004  66.385  1.00  0.00    -0.235 A  
HETATM   25  O   UNL     1      -6.911   7.021  63.622  1.00  0.00    -0.045 OA 
HETATM   26  O   UNL     1      -8.505   8.264  62.623  1.00  0.00    -0.163 OA 
ENDBRANCH  16  18
ENDBRANCH   8  16
TORSDOF 2
ENDMDL
MODEL      154
REMARK 921   NORMALIZED FREE ENERGY PREDICTED BY IDOCK:    0.51 KCAL/MOL
REMARK 922        TOTAL FREE ENERGY PREDICTED BY IDOCK:    0.42 KCAL/MOL
REMARK 923 INTER-LIGAND FREE ENERGY PREDICTED BY IDOCK:    0.04 KCAL/MOL
REMARK 924 INTRA-LIGAND FREE ENERGY PREDICTED BY IDOCK:    0.37 KCAL/MOL
REMARK 927      BINDING AFFINITY PREDICTED BY RF-SCORE:    0.00 PKD
ROOT
HETATM    1  C   UNL     1     -12.127  11.979  67.183  1.00  0.00     0.119 C  
HETATM    2  C   UNL     1     -10.656  11.987  67.497  1.00  0.00    -0.250 A  
HETATM    3  C   UNL     1     -10.134  13.147  68.103  1.00  0.00    -0.237 A  
HETATM    4  C   UNL     1      -8.783  13.282  68.482  1.00  0.00    -0.059 A  
HETATM    5  C   UNL     1      -7.908  12.206  68.223  1.00  0.00    -0.153 A  
HETATM    6  C   UNL     1      -8.451  11.022  67.658  1.00  0.00    -0.121 A  
HETATM    7  C   UNL     1      -6.409  12.287  68.552  1.00  0.00    -0.057 C  
HETATM    8  C   UNL     1      -9.807  10.895  67.275  1.00  0.00    -0.202 A  
HETATM    9  C   UNL     1      -6.113  11.438  69.811  1.00  0.00    -0.124 C  
HETATM   10  C   UNL     1      -5.535  11.764  67.393  1.00  0.00    -0.094 C  
HETATM   11  C   UNL     1      -5.956  13.748  68.808  1.00  0.00    -0.085 C  
HETATM   12  C   UNL     1      -8.331  15.702  68.028  1.00  0.00    -0.146 C  
HETATM   13  C   UNL     1      -6.909  14.491  69.727  1.00  0.00    -0.126 C  
HETATM   14  C   UNL     1      -9.260  15.051  70.263  1.00  0.00     0.718 C  
HETATM   15  C   UNL     1      -8.322  14.605  69.115  1.00  0.00    -0.055 C  
ENDROOT
BRANCH   8  16
HETATM   16  C   UNL     1     -10.271   9.584  66.714  1.00  0.00    -0.313 C  
HETATM   17  C   UNL     1     -11.529   9.595  66.227  1.00  0.00     2.225 C  
BRANCH  16  18
HETATM   18  C   UNL     1      -9.568   8.263  66.836  1.00  0.00    -0.269 A  
HETATM   19  C   UNL     1      -9.169   7.496  65.721  1.00  0.00     0.043 A  
HETATM   20  C   UNL     1      -8.640   6.200  65.867  1.00  0.00    -0.147 A  
HETATM   21  C   UNL     1      -8.504   5.644  67.139  1.00  0.00    -0.110 A  
HETATM   22  C   UNL     1      -8.812   6.426  68.257  1.00  0.00    -0.115 A  
HETATM   23  C   UNL     1      -8.009   4.260  67.377  1.00  0.00    -0.096 C  
HETATM   24  C   UNL     1      -9.326   7.719  68.106  1.00  0.00    -0.148 A  
HETATM   25  O   UNL     1      -8.294   3.386  66.386  1.00  0.00    -0.099 OA 
HETATM   26  O   UNL     1      -7.442   3.928  68.402  1.00  0.00    -0.058 OA 
ENDBRANCH  16  18
ENDBRANCH   8  16
TORSDOF 2
ENDMDL
MODEL      155
REMARK 921   NORMALIZED FREE ENERGY PREDICTED BY IDOCK:    0.68 KCAL/MOL
REMARK 922        TOTAL FREE ENERGY PREDICTED BY IDOCK:    0.61 KCAL/MOL
REMARK 923 INTER-LIGAND FREE ENERGY PREDICTED BY IDOCK:    0.50 KCAL/MOL
REMARK 924 INTRA-LIGAND FREE ENERGY PREDICTED BY IDOCK:    0.12 KCAL/MOL
REMARK 927      BINDING AFFINITY PREDICTED BY RF-SCORE:    0.00 PKD
ROOT
HETATM    1  C   UNL     1     -11.168  12.416  65.338  1.00  0.00    -0.358 C  
HETATM    2  C   UNL     1     -10.122  12.578  66.406  1.00  0.00    -0.255 A  
HETATM    3  C   UNL     1      -9.067  11.644  66.420  1.00  0.00    -0.209 A  
HETATM    4  C   UNL     1      -8.001  11.692  67.342  1.00  0.00    -0.147 A  
HETATM    5  C   UNL     1      -8.004  12.717  68.310  1.00  0.00    -0.153 A  
HETATM    6  C   UNL     1      -9.044  13.683  68.260  1.00  0.00    -0.193 A  
HETATM    7  C   UNL     1      -6.913  12.814  69.388  1.00  0.00     0.110 C  
HETATM    8  C   UNL     1     -10.112  13.627  67.336  1.00  0.00    -0.241 A  
HETATM    9  C   UNL     1      -5.948  13.972  69.038  1.00  0.00    -0.091 C  
HETATM   10  C   UNL     1      -7.505  13.077  70.788  1.00  0.00     4.096 C  
HETATM   11  C   UNL     1      -6.103  11.496  69.503  1.00  0.00    -0.100 C  
HETATM   12  C   UNL     1      -7.528   9.267  67.751  1.00  0.00    -0.088 C  
HETATM   13  C   UNL     1      -5.692  10.955  68.146  1.00  0.00    -0.046 C  
HETATM   14  C   UNL     1      -6.387  10.408  65.834  1.00  0.00    -0.119 C  
HETATM   15  C   UNL     1      -6.917  10.604  67.275  1.00  0.00    -0.084 C  
ENDROOT
BRANCH   8  16
HETATM   16  C   UNL     1     -11.138  14.721  67.360  1.00  0.00    -0.327 C  
HETATM   17  C   UNL     1     -12.375  14.341  66.980  1.00  0.00    -0.203 C  
BRANCH  16  18
HETATM   18  C   UNL     1     -10.873  16.186  67.555  1.00  0.00    -0.284 A  
HETATM   19  C   UNL     1     -10.930  17.126  66.505  1.00  0.00     0.202 A  
HETATM   20  C   UNL     1     -10.538  18.465  66.690  1.00  0.00    -0.359 A  
HETATM   21  C   UNL     1     -10.076  18.888  67.937  1.00  0.00    -0.431 A  
HETATM   22  C   UNL     1     -10.098  17.991  69.008  1.00  0.00    -0.301 A  
HETATM   23  C   UNL     1      -9.589  20.270  68.201  1.00  0.00    -0.192 C  
HETATM   24  C   UNL     1     -10.501  16.662  68.820  1.00  0.00    -0.324 A  
HETATM   25  O   UNL     1      -9.026  20.878  67.133  1.00  0.00    -0.241 OA 
HETATM   26  O   UNL     1      -9.643  20.791  69.300  1.00  0.00     0.836 OA 
ENDBRANCH  16  18
ENDBRANCH   8  16
TORSDOF 2
ENDMDL
MODEL      156
REMARK 921   NORMALIZED FREE ENERGY PREDICTED BY IDOCK:    1.04 KCAL/MOL
REMARK 922        TOTAL FREE ENERGY PREDICTED BY IDOCK:    1.02 KCAL/MOL
REMARK 923 INTER-LIGAND FREE ENERGY PREDICTED BY IDOCK:    0.98 KCAL/MOL
REMARK 924 INTRA-LIGAND FREE ENERGY PREDICTED BY IDOCK:    0.04 KCAL/MOL
REMARK 927      BINDING AFFINITY PREDICTED BY RF-SCORE:    0.00 PKD
ROOT
HETATM    1  C   UNL     1      -9.465  15.556  66.664  1.00  0.00    -0.281 C  
HETATM    2  C   UNL     1      -9.367  14.060  66.785  1.00  0.00    -0.289 A  
HETATM    3  C   UNL     1      -9.487  13.309  65.599  1.00  0.00     0.094 A  
HETATM    4  C   UNL     1      -9.383  11.904  65.556  1.00  0.00    -0.089 A  
HETATM    5  C   UNL     1      -9.167  11.216  66.768  1.00  0.00    -0.183 A  
HETATM    6  C   UNL     1      -8.999  11.981  67.953  1.00  0.00    -0.182 A  
HETATM    7  C   UNL     1      -9.096   9.681  66.824  1.00  0.00    -0.171 C  
HETATM    8  C   UNL     1      -9.109  13.391  67.989  1.00  0.00    -0.205 A  
HETATM    9  C   UNL     1      -7.624   9.243  67.011  1.00  0.00    -0.091 C  
HETATM   10  C   UNL     1      -9.929   9.107  67.989  1.00  0.00    -0.213 C  
HETATM   11  C   UNL     1      -9.659   9.034  65.532  1.00  0.00    -0.166 C  
HETATM   12  C   UNL     1     -11.034  11.291  63.776  1.00  0.00    -0.381 C  
HETATM   13  C   UNL     1      -9.132   9.707  64.277  1.00  0.00    -0.267 C  
HETATM   14  C   UNL     1      -8.684  11.838  63.099  1.00  0.00     0.547 C  
HETATM   15  C   UNL     1      -9.553  11.191  64.205  1.00  0.00    -0.290 C  
ENDROOT
BRANCH   8  16
HETATM   16  C   UNL     1      -8.882  14.092  69.295  1.00  0.00     0.357 C  
HETATM   17  C   UNL     1      -9.667  13.666  70.306  1.00  0.00     2.939 C  
BRANCH  16  18
HETATM   18  C   UNL     1      -8.048  15.321  69.513  1.00  0.00    -0.196 A  
HETATM   19  C   UNL     1      -6.736  15.280  70.031  1.00  0.00    -0.104 A  
HETATM   20  C   UNL     1      -6.033  16.455  70.356  1.00  0.00     0.029 A  
HETATM   21  C   UNL     1      -6.636  17.700  70.171  1.00  0.00     0.533 A  
HETATM   22  C   UNL     1      -7.899  17.758  69.576  1.00  0.00     0.510 A  
HETATM   23  C   UNL     1      -5.985  18.986  70.543  1.00  0.00    -0.064 C  
HETATM   24  C   UNL     1      -8.589  16.586  69.243  1.00  0.00    -0.061 A  
HETATM   25  O   UNL     1      -5.135  18.900  71.590  1.00  0.00    -0.463 OA 
HETATM   26  O   UNL     1      -6.237  20.039  69.986  1.00  0.00    -0.330 OA 
ENDBRANCH  16  18
ENDBRANCH   8  16
TORSDOF 2
ENDMDL
MODEL      157
REMARK 921   NORMALIZED FREE ENERGY PREDICTED BY IDOCK:    2.50 KCAL/MOL
REMARK 922        TOTAL FREE ENERGY PREDICTED BY IDOCK:    2.64 KCAL/MOL
REMARK 923 INTER-LIGAND FREE ENERGY PREDICTED BY IDOCK:    1.90 KCAL/MOL
REMARK 924 INTRA-LIGAND FREE ENERGY PREDICTED BY IDOCK:    0.73 KCAL/MOL
REMARK 927      BINDING AFFINITY PREDICTED BY RF-SCORE:    0.00 PKD
ROOT
HETATM    1  C   UNL     1     -12.053  13.314  72.680  1.00  0.00     1.642 C  
HETATM    2  C   UNL     1     -11.957  13.294  71.180  1.00  0.00     0.164 A  
HETATM    3  C   UNL     1     -11.746  14.527  70.532  1.00  0.00    -0.338 A  
HETATM    4  C   UNL     1     -11.603  14.655  69.135  1.00  0.00    -0.331 A  
HETATM    5  C   UNL     1     -11.697  13.489  68.348  1.00  0.00    -0.393 A  
HETATM    6  C   UNL     1     -11.860  12.244  69.010  1.00  0.00    -0.358 A  
HETATM    7  C   UNL     1     -11.609  13.541  66.813  1.00  0.00    -0.397 C  
HETATM    8  C   UNL     1     -12.007  12.123  70.411  1.00  0.00    -0.360 A  
HETATM    9  C   UNL     1     -10.227  13.012  66.361  1.00  0.00    -0.283 C  
HETATM   10  C   UNL     1     -12.703  12.686  66.143  1.00  0.00     0.707 C  
HETATM   11  C   UNL     1     -11.800  14.984  66.278  1.00  0.00    -0.024 C  
HETATM   12  C   UNL     1     -12.719  16.849  68.674  1.00  0.00     3.468 C  
HETATM   13  C   UNL     1     -10.979  15.998  67.054  1.00  0.00    -0.154 C  
HETATM   14  C   UNL     1     -10.287  16.841  69.277  1.00  0.00    -0.309 C  
HETATM   15  C   UNL     1     -11.399  16.057  68.538  1.00  0.00    -0.382 C  
ENDROOT
BRANCH   8  16
HETATM   16  C   UNL     1     -12.145  10.751  71.001  1.00  0.00    -0.452 C  
HETATM   17  C   UNL     1     -12.592  10.727  72.273  1.00  0.00     0.368 C  
BRANCH  16  18
HETATM   18  C   UNL     1     -11.647   9.469  70.398  1.00  0.00    -0.268 A  
HETATM   19  C   UNL     1     -11.149   8.397  71.169  1.00  0.00    -0.301 A  
HETATM   20  C   UNL     1     -10.559   7.268  70.570  1.00  0.00    -0.237 A  
HETATM   21  C   UNL     1     -10.453   7.194  69.181  1.00  0.00    -0.219 A  
HETATM   22  C   UNL     1     -11.021   8.206  68.403  1.00  0.00     0.166 A  
HETATM   23  C   UNL     1      -9.792   6.063  68.473  1.00  0.00    -0.130 C  
HETATM   24  C   UNL     1     -11.618   9.321  69.004  1.00  0.00     0.571 A  
HETATM   25  O   UNL     1      -8.791   5.477  69.166  1.00  0.00    -0.102 OA 
HETATM   26  O   UNL     1     -10.090   5.729  67.340  1.00  0.00    -0.143 OA 
ENDBRANCH  16  18
ENDBRANCH   8  16
TORSDOF 2
ENDMDL
MODEL      158
REMARK 921   NORMALIZED FREE ENERGY PREDICTED BY IDOCK:    2.86 KCAL/MOL
REMARK 922        TOTAL FREE ENERGY PREDICTED BY IDOCK:    3.05 KCAL/MOL
REMARK 923 INTER-LIGAND FREE ENERGY PREDICTED BY IDOCK:    2.48 KCAL/MOL
REMARK 924 INTRA-LIGAND FREE ENERGY PREDICTED BY IDOCK:    0.57 KCAL/MOL
REMARK 927      BINDING AFFINITY PREDICTED BY RF-SCORE:    0.00 PKD
ROOT
HETATM    1  C   UNL     1     -12.689  11.819  67.174  1.00  0.00     2.956 C  
HETATM    2  C   UNL     1     -11.262  12.145  67.519  1.00  0.00    -0.357 A  
HETATM    3  C   UNL     1     -11.012  13.400  68.107  1.00  0.00    -0.277 A  
HETATM    4  C   UNL     1      -9.730  13.826  68.511  1.00  0.00    -0.193 A  
HETATM    5  C   UNL     1      -8.642  12.955  68.297  1.00  0.00    -0.170 A  
HETATM    6  C   UNL     1      -8.907  11.672  67.749  1.00  0.00    -0.159 A  
HETATM    7  C   UNL     1      -7.202  13.358  68.655  1.00  0.00    -0.107 C  
HETATM    8  C   UNL     1     -10.195  11.253  67.342  1.00  0.00    -0.217 A  
HETATM    9  C   UNL     1      -6.767  12.615  69.941  1.00  0.00     0.243 C  
HETATM   10  C   UNL     1      -6.208  13.010  67.529  1.00  0.00    -0.143 C  
HETATM   11  C   UNL     1      -7.076  14.887  68.885  1.00  0.00    -0.117 C  
HETATM   12  C   UNL     1      -9.789  16.278  68.008  1.00  0.00    -0.236 C  
HETATM   13  C   UNL     1      -8.188  15.429  69.766  1.00  0.00    -0.018 C  
HETATM   14  C   UNL     1     -10.617  15.488  70.238  1.00  0.00    -0.324 C  
HETATM   15  C   UNL     1      -9.576  15.228  69.122  1.00  0.00    -0.243 C  
ENDROOT
BRANCH   8  16
HETATM   16  C   UNL     1     -10.357   9.863  66.802  1.00  0.00    -0.285 C  
HETATM   17  C   UNL     1     -11.616   9.546  66.434  1.00  0.00     2.948 C  
BRANCH  16  18
HETATM   18  C   UNL     1      -9.329   8.769  66.836  1.00  0.00    -0.213 A  
HETATM   19  C   UNL     1      -9.552   7.521  67.455  1.00  0.00    -0.175 A  
HETATM   20  C   UNL     1      -8.522   6.572  67.594  1.00  0.00    -0.117 A  
HETATM   21  C   UNL     1      -7.243   6.858  67.116  1.00  0.00    -0.085 A  
HETATM   22  C   UNL     1      -7.031   8.052  66.422  1.00  0.00    -0.070 A  
HETATM   23  C   UNL     1      -6.087   5.934  67.274  1.00  0.00    -0.018 C  
HETATM   24  C   UNL     1      -8.063   8.989  66.276  1.00  0.00    -0.110 A  
HETATM   25  O   UNL     1      -6.135   5.161  68.382  1.00  0.00    -0.024 OA 
HETATM   26  O   UNL     1      -5.147   5.913  66.500  1.00  0.00    -0.005 OA 
ENDBRANCH  16  18
ENDBRANCH   8  16
TORSDOF 2
ENDMDL
MODEL      159
REMARK 921   NORMALIZED FREE ENERGY PREDICTED BY IDOCK:    4.15 KCAL/MOL
REMARK 922        TOTAL FREE ENERGY PREDICTED BY IDOCK:    4.49 KCAL/MOL
REMARK 923 INTER-LIGAND FREE ENERGY PREDICTED BY IDOCK:    5.19 KCAL/MOL
REMARK 924 INTRA-LIGAND FREE ENERGY PREDICTED BY IDOCK:   -0.70 KCAL/MOL
REMARK 927      BINDING AFFINITY PREDICTED BY RF-SCORE:    0.00 PKD
ROOT
HETATM    1  C   UNL     1      -9.335  10.294  72.621  1.00  0.00     8.349 C  
HETATM    2  C   UNL     1      -9.204   9.171  71.630  1.00  0.00    -0.088 A  
HETATM    3  C   UNL     1      -8.416   8.066  72.010  1.00  0.00    -0.188 A  
HETATM    4  C   UNL     1      -8.232   6.930  71.197  1.00  0.00    -0.118 A  
HETATM    5  C   UNL     1      -8.853   6.909  69.931  1.00  0.00    -0.142 A  
HETATM    6  C   UNL     1      -9.685   8.003  69.574  1.00  0.00    -0.170 A  
HETATM    7  C   UNL     1      -8.662   5.736  68.956  1.00  0.00    -0.112 C  
HETATM    8  C   UNL     1      -9.862   9.143  70.393  1.00  0.00    -0.263 A  
HETATM    9  C   UNL     1      -9.946   4.874  68.933  1.00  0.00    -0.220 C  
HETATM   10  C   UNL     1      -8.371   6.219  67.521  1.00  0.00    -0.113 C  
HETATM   11  C   UNL     1      -7.460   4.844  69.362  1.00  0.00    -0.056 C  
HETATM   12  C   UNL     1      -5.865   6.282  71.698  1.00  0.00    -0.032 C  
HETATM   13  C   UNL     1      -7.460   4.520  70.845  1.00  0.00    -0.052 C  
HETATM   14  C   UNL     1      -7.693   5.379  73.155  1.00  0.00    -0.101 C  
HETATM   15  C   UNL     1      -7.331   5.793  71.708  1.00  0.00    -0.093 C  
ENDROOT
BRANCH   8  16
HETATM   16  C   UNL     1     -10.789  10.224  69.922  1.00  0.00    -0.355 C  
HETATM   17  C   UNL     1     -11.935  10.328  70.625  1.00  0.00    -0.436 C  
BRANCH  16  18
HETATM   18  C   UNL     1     -10.654  11.025  68.659  1.00  0.00    -0.225 A  
HETATM   19  C   UNL     1     -11.703  11.180  67.729  1.00  0.00    -0.220 A  
HETATM   20  C   UNL     1     -11.504  11.816  66.490  1.00  0.00    -0.325 A  
HETATM   21  C   UNL     1     -10.241  12.307  66.156  1.00  0.00    -0.263 A  
HETATM   22  C   UNL     1      -9.216  12.240  67.103  1.00  0.00    -0.196 A  
HETATM   23  C   UNL     1      -9.933  12.940  64.844  1.00  0.00    -0.130 C  
HETATM   24  C   UNL     1      -9.423  11.617  68.340  1.00  0.00    -0.193 A  
HETATM   25  O   UNL     1     -10.668  12.474  63.811  1.00  0.00    -0.405 OA 
HETATM   26  O   UNL     1      -9.053  13.770  64.702  1.00  0.00     1.338 OA 
ENDBRANCH  16  18
ENDBRANCH   8  16
TORSDOF 2
ENDMDL
MODEL      160
REMARK 921   NORMALIZED FREE ENERGY PREDICTED BY IDOCK:    5.43 KCAL/MOL
REMARK 922        TOTAL FREE ENERGY PREDICTED BY IDOCK:    5.91 KCAL/MOL
REMARK 923 INTER-LIGAND FREE ENERGY PREDICTED BY IDOCK:    6.83 KCAL/MOL
REMARK 924 INTRA-LIGAND FREE ENERGY PREDICTED BY IDOCK:   -0.92 KCAL/MOL
REMARK 927      BINDING AFFINITY PREDICTED BY RF-SCORE:    0.00 PKD
ROOT
HETATM    1  C   UNL     1      -9.510  15.493  66.844  1.00  0.00    -0.244 C  
HETATM    2  C   UNL     1      -9.483  13.994  66.956  1.00  0.00    -0.253 A  
HETATM    3  C   UNL     1      -9.477  13.259  65.754  1.00  0.00     0.031 A  
HETATM    4  C   UNL     1      -9.419  11.851  65.706  1.00  0.00    -0.210 A  
HETATM    5  C   UNL     1      -9.388  11.145  66.925  1.00  0.00    -0.189 A  
HETATM    6  C   UNL     1      -9.345  11.892  68.132  1.00  0.00    -0.191 A  
HETATM    7  C   UNL     1      -9.381   9.608  66.969  1.00  0.00    -0.180 C  
HETATM    8  C   UNL     1      -9.407  13.304  68.173  1.00  0.00    -0.220 A  
HETATM    9  C   UNL     1      -7.963   9.112  67.338  1.00  0.00    -0.103 C  
HETATM   10  C   UNL     1     -10.378   9.056  68.009  1.00  0.00    -0.275 C  
HETATM   11  C   UNL     1      -9.795   8.994  65.607  1.00  0.00    -0.086 C  
HETATM   12  C   UNL     1     -10.849  11.318  63.720  1.00  0.00    -0.424 C  
HETATM   13  C   UNL     1      -9.087   9.658  64.439  1.00  0.00    -0.279 C  
HETATM   14  C   UNL     1      -8.413  11.780  63.358  1.00  0.00     0.991 C  
HETATM   15  C   UNL     1      -9.440  11.157  64.334  1.00  0.00    -0.251 C  
ENDROOT
BRANCH   8  16
HETATM   16  C   UNL     1      -9.326  13.985  69.507  1.00  0.00     0.726 C  
HETATM   17  C   UNL     1      -8.073  14.152  69.978  1.00  0.00     1.178 C  
BRANCH  16  18
HETATM   18  C   UNL     1     -10.476  14.290  70.423  1.00  0.00     0.872 A  
HETATM   19  C   UNL     1     -11.086  15.560  70.499  1.00  0.00    -0.369 A  
HETATM   20  C   UNL     1     -12.065  15.853  71.466  1.00  0.00    -0.533 A  
HETATM   21  C   UNL     1     -12.452  14.874  72.382  1.00  0.00    -0.426 A  
HETATM   22  C   UNL     1     -11.922  13.587  72.262  1.00  0.00     1.209 A  
HETATM   23  C   UNL     1     -13.437  15.119  73.471  1.00  0.00     0.168 C  
HETATM   24  C   UNL     1     -10.956  13.298  71.290  1.00  0.00     3.611 A  
HETATM   25  O   UNL     1     -13.457  16.390  73.932  1.00  0.00    -0.560 OA 
HETATM   26  O   UNL     1     -14.129  14.237  73.947  1.00  0.00     2.839 OA 
ENDBRANCH  16  18
ENDBRANCH   8  16
TORSDOF 2
ENDMDL
MODEL      161
REMARK 921   NORMALIZED FREE ENERGY PREDICTED BY IDOCK:   10.23 KCAL/MOL
REMARK 922        TOTAL FREE ENERGY PREDICTED BY IDOCK:   11.28 KCAL/MOL
REMARK 923 INTER-LIGAND FREE ENERGY PREDICTED BY IDOCK:   10.60 KCAL/MOL
REMARK 924 INTRA-LIGAND FREE ENERGY PREDICTED BY IDOCK:    0.68 KCAL/MOL
REMARK 927      BINDING AFFINITY PREDICTED BY RF-SCORE:    0.00 PKD
ROOT
HETATM    1  C   UNL     1      -8.708  18.727  69.397  1.00  0.00     0.290 C  
HETATM    2  C   UNL     1      -9.747  17.720  69.810  1.00  0.00     0.702 A  
HETATM    3  C   UNL     1     -10.202  17.774  71.141  1.00  0.00     3.383 A  
HETATM    4  C   UNL     1     -11.195  16.915  71.657  1.00  0.00     0.689 A  
HETATM    5  C   UNL     1     -11.743  15.941  70.798  1.00  0.00    -0.433 A  
HETATM    6  C   UNL     1     -11.315  15.923  69.444  1.00  0.00    -0.349 A  
HETATM    7  C   UNL     1     -12.789  14.927  71.289  1.00  0.00    -0.419 C  
HETATM    8  C   UNL     1     -10.316  16.785  68.934  1.00  0.00    -0.317 A  
HETATM    9  C   UNL     1     -14.182  15.323  70.745  1.00  0.00     0.082 C  
HETATM   10  C   UNL     1     -12.469  13.493  70.818  1.00  0.00    -0.428 C  
HETATM   11  C   UNL     1     -12.847  14.868  72.838  1.00  0.00    -0.548 C  
HETATM   12  C   UNL     1     -10.428  16.552  74.013  1.00  0.00     7.099 C  
HETATM   13  C   UNL     1     -12.874  16.252  73.463  1.00  0.00    -0.566 C  
HETATM   14  C   UNL     1     -11.893  18.524  73.516  1.00  0.00     3.353 C  
HETATM   15  C   UNL     1     -11.597  17.053  73.135  1.00  0.00     0.491 C  
ENDROOT
BRANCH   8  16
HETATM   16  C   UNL     1      -9.966  16.692  67.479  1.00  0.00    -0.264 C  
HETATM   17  C   UNL     1      -9.115  17.644  67.043  1.00  0.00    -0.256 C  
BRANCH  16  18
HETATM   18  C   UNL     1     -10.620  15.803  66.461  1.00  0.00    -0.306 A  
HETATM   19  C   UNL     1     -11.994  15.484  66.485  1.00  0.00     0.589 A  
HETATM   20  C   UNL     1     -12.547  14.536  65.603  1.00  0.00    -0.218 A  
HETATM   21  C   UNL     1     -11.730  13.885  64.679  1.00  0.00    -0.413 A  
HETATM   22  C   UNL     1     -10.386  14.257  64.584  1.00  0.00    -0.256 A  
HETATM   23  C   UNL     1     -12.224  12.831  63.752  1.00  0.00    -0.489 C  
HETATM   24  C   UNL     1      -9.843  15.209  65.456  1.00  0.00    -0.356 A  
HETATM   25  O   UNL     1     -13.255  12.101  64.233  1.00  0.00    -0.768 OA 
HETATM   26  O   UNL     1     -11.709  12.606  62.672  1.00  0.00     0.311 OA 
ENDBRANCH  16  18
ENDBRANCH   8  16
TORSDOF 2
ENDMDL
MODEL      162
REMARK 921   NORMALIZED FREE ENERGY PREDICTED BY IDOCK:   13.79 KCAL/MOL
REMARK 922        TOTAL FREE ENERGY PREDICTED BY IDOCK:   15.25 KCAL/MOL
REMARK 923 INTER-LIGAND FREE ENERGY PREDICTED BY IDOCK:   15.79 KCAL/MOL
REMARK 924 INTRA-LIGAND FREE ENERGY PREDICTED BY IDOCK:   -0.54 KCAL/MOL
REMARK 927      BINDING AFFINITY PREDICTED BY RF-SCORE:    0.00 PKD
ROOT
HETATM    1  C   UNL     1      -7.342   9.458  73.013  1.00  0.00     1.306 C  
HETATM    2  C   UNL     1      -7.983   8.580  71.973  1.00  0.00    -0.160 A  
HETATM    3  C   UNL     1      -7.287   7.414  71.599  1.00  0.00    -0.075 A  
HETATM    4  C   UNL     1      -7.782   6.483  70.663  1.00  0.00    -0.105 A  
HETATM    5  C   UNL     1      -9.027   6.747  70.056  1.00  0.00    -0.141 A  
HETATM    6  C   UNL     1      -9.745   7.899  70.473  1.00  0.00    -0.174 A  
HETATM    7  C   UNL     1      -9.617   5.817  68.983  1.00  0.00    -0.168 C  
HETATM    8  C   UNL     1      -9.241   8.831  71.410  1.00  0.00    -0.325 A  
HETATM    9  C   UNL     1     -10.771   4.990  69.600  1.00  0.00     0.177 C  
HETATM   10  C   UNL     1     -10.169   6.603  67.777  1.00  0.00    -0.207 C  
HETATM   11  C   UNL     1      -8.548   4.849  68.414  1.00  0.00    -0.101 C  
HETATM   12  C   UNL     1      -5.698   5.724  69.500  1.00  0.00    -0.016 C  
HETATM   13  C   UNL     1      -7.715   4.205  69.509  1.00  0.00    -0.053 C  
HETATM   14  C   UNL     1      -6.411   4.534  71.587  1.00  0.00    -0.022 C  
HETATM   15  C   UNL     1      -6.923   5.255  70.317  1.00  0.00    -0.056 C  
ENDROOT
BRANCH   8  16
HETATM   16  C   UNL     1     -10.104   9.996  71.794  1.00  0.00     2.172 C  
HETATM   17  C   UNL     1     -10.571   9.958  73.059  1.00  0.00     5.877 C  
BRANCH  16  18
HETATM   18  C   UNL     1     -10.645  11.047  70.868  1.00  0.00     1.948 A  
HETATM   19  C   UNL     1     -11.576  10.766  69.845  1.00  0.00    -0.410 A  
HETATM   20  C   UNL     1     -11.956  11.742  68.904  1.00  0.00    -0.332 A  
HETATM   21  C   UNL     1     -11.405  13.022  68.970  1.00  0.00    -0.340 A  
HETATM   22  C   UNL     1     -10.551  13.339  70.030  1.00  0.00     1.127 A  
HETATM   23  C   UNL     1     -11.709  14.093  67.981  1.00  0.00    -0.359 C  
HETATM   24  C   UNL     1     -10.186  12.367  70.970  1.00  0.00     6.947 A  
HETATM   25  O   UNL     1     -11.993  13.643  66.739  1.00  0.00    -0.383 OA 
HETATM   26  O   UNL     1     -11.654  15.279  68.254  1.00  0.00    -0.333 OA 
ENDBRANCH  16  18
ENDBRANCH   8  16
TORSDOF 2
ENDMDL
MODEL      163
REMARK 921   NORMALIZED FREE ENERGY PREDICTED BY IDOCK:   19.38 KCAL/MOL
REMARK 922        TOTAL FREE ENERGY PREDICTED BY IDOCK:   21.50 KCAL/MOL
REMARK 923 INTER-LIGAND FREE ENERGY PREDICTED BY IDOCK:   21.18 KCAL/MOL
REMARK 924 INTRA-LIGAND FREE ENERGY PREDICTED BY IDOCK:    0.32 KCAL/MOL
REMARK 927      BINDING AFFINITY PREDICTED BY RF-SCORE:    0.00 PKD
ROOT
HETATM    1  C   UNL     1      -6.843  11.717  69.234  1.00  0.00    -0.104 C  
HETATM    2  C   UNL     1      -7.105  13.173  68.965  1.00  0.00    -0.030 A  
HETATM    3  C   UNL     1      -6.918  14.069  70.036  1.00  0.00     0.211 A  
HETATM    4  C   UNL     1      -7.094  15.463  69.920  1.00  0.00    -0.073 A  
HETATM    5  C   UNL     1      -7.497  15.981  68.672  1.00  0.00    -0.166 A  
HETATM    6  C   UNL     1      -7.637  15.079  67.585  1.00  0.00    -0.198 A  
HETATM    7  C   UNL     1      -7.767  17.481  68.469  1.00  0.00    -0.272 C  
HETATM    8  C   UNL     1      -7.463  13.681  67.709  1.00  0.00    -0.172 A  
HETATM    9  C   UNL     1      -6.597  18.110  67.675  1.00  0.00    -0.190 C  
HETATM   10  C   UNL     1      -9.076  17.733  67.693  1.00  0.00    -0.246 C  
HETATM   11  C   UNL     1      -7.918  18.224  69.822  1.00  0.00     1.010 C  
HETATM   12  C   UNL     1      -8.037  16.078  72.156  1.00  0.00     9.821 C  
HETATM   13  C   UNL     1      -6.831  17.842  70.811  1.00  0.00     2.397 C  
HETATM   14  C   UNL     1      -5.548  16.014  71.879  1.00  0.00     0.674 C  
HETATM   15  C   UNL     1      -6.882  16.341  71.165  1.00  0.00     2.773 C  
ENDROOT
BRANCH   8  16
HETATM   16  C   UNL     1      -7.609  12.831  66.482  1.00  0.00     0.762 C  
HETATM   17  C   UNL     1      -7.748  13.521  65.332  1.00  0.00     6.071 C  
BRANCH  16  18
HETATM   18  C   UNL     1      -7.822  11.344  66.449  1.00  0.00    -0.067 A  
HETATM   19  C   UNL     1      -9.090  10.751  66.270  1.00  0.00    -0.192 A  
HETATM   20  C   UNL     1      -9.277   9.361  66.386  1.00  0.00    -0.215 A  
HETATM   21  C   UNL     1      -8.194   8.536  66.688  1.00  0.00    -0.108 A  
HETATM   22  C   UNL     1      -6.918   9.100  66.779  1.00  0.00    -0.081 A  
HETATM   23  C   UNL     1      -8.317   7.065  66.884  1.00  0.00    -0.118 C  
HETATM   24  C   UNL     1      -6.735  10.482  66.651  1.00  0.00    -0.099 A  
HETATM   25  O   UNL     1      -9.510   6.665  67.378  1.00  0.00    -0.126 OA 
HETATM   26  O   UNL     1      -7.402   6.291  66.669  1.00  0.00    -0.075 OA 
ENDBRANCH  16  18
ENDBRANCH   8  16
TORSDOF 2
ENDMDL
MODEL      164
REMARK 921   NORMALIZED FREE ENERGY PREDICTED BY IDOCK:   26.33 KCAL/MOL
REMARK 922        TOTAL FREE ENERGY PREDICTED BY IDOCK:   29.26 KCAL/MOL
REMARK 923 INTER-LIGAND FREE ENERGY PREDICTED BY IDOCK:   29.65 KCAL/MOL
REMARK 924 INTRA-LIGAND FREE ENERGY PREDICTED BY IDOCK:   -0.39 KCAL/MOL
REMARK 927      BINDING AFFINITY PREDICTED BY RF-SCORE:    0.00 PKD
ROOT
HETATM    1  C   UNL     1     -10.681  17.317  69.975  1.00  0.00     0.485 C  
HETATM    2  C   UNL     1     -10.083  15.969  69.676  1.00  0.00    -0.244 A  
HETATM    3  C   UNL     1     -10.720  14.844  70.234  1.00  0.00    -0.082 A  
HETATM    4  C   UNL     1     -10.291  13.520  70.012  1.00  0.00     1.365 A  
HETATM    5  C   UNL     1      -9.152  13.317  69.205  1.00  0.00     0.850 A  
HETATM    6  C   UNL     1      -8.544  14.451  68.606  1.00  0.00    -0.161 A  
HETATM    7  C   UNL     1      -8.580  11.912  68.954  1.00  0.00     0.151 C  
HETATM    8  C   UNL     1      -8.978  15.777  68.836  1.00  0.00    -0.226 A  
HETATM    9  C   UNL     1      -8.936  11.462  67.517  1.00  0.00    -0.150 C  
HETATM   10  C   UNL     1      -7.046  11.877  69.111  1.00  0.00    -0.053 C  
HETATM   11  C   UNL     1      -9.140  10.877  69.964  1.00  0.00     1.059 C  
HETATM   12  C   UNL     1     -10.766  12.419  72.210  1.00  0.00    11.178 C  
HETATM   13  C   UNL     1     -10.645  10.993  70.130  1.00  0.00     0.315 C  
HETATM   14  C   UNL     1     -12.582  12.493  70.486  1.00  0.00    -0.177 C  
HETATM   15  C   UNL     1     -11.053  12.372  70.693  1.00  0.00     1.769 C  
ENDROOT
BRANCH   8  16
HETATM   16  C   UNL     1      -8.273  16.894  68.124  1.00  0.00    -0.207 C  
HETATM   17  C   UNL     1      -7.126  17.298  68.708  1.00  0.00    -0.238 C  
BRANCH  16  18
HETATM   18  C   UNL     1      -8.819  17.710  66.989  1.00  0.00    -0.256 A  
HETATM   19  C   UNL     1      -8.024  18.168  65.917  1.00  0.00    -0.049 A  
HETATM   20  C   UNL     1      -8.532  19.049  64.944  1.00  0.00     3.070 A  
HETATM   21  C   UNL     1      -9.853  19.492  65.028  1.00  0.00     1.840 A  
HETATM   22  C   UNL     1     -10.676  18.976  66.033  1.00  0.00    -0.417 A  
HETATM   23  C   UNL     1     -10.450  20.466  64.074  1.00  0.00     4.965 C  
HETATM   24  C   UNL     1     -10.168  18.091  66.992  1.00  0.00    -0.367 A  
HETATM   25  O   UNL     1      -9.570  21.351  63.556  1.00  0.00     2.978 OA 
HETATM   26  O   UNL     1     -11.641  20.499  63.823  1.00  0.00     2.249 OA 
ENDBRANCH  16  18
ENDBRANCH   8  16
TORSDOF 2
ENDMDL
MODEL      165
REMARK 921   NORMALIZED FREE ENERGY PREDICTED BY IDOCK:   30.18 KCAL/MOL
REMARK 922        TOTAL FREE ENERGY PREDICTED BY IDOCK:   33.56 KCAL/MOL
REMARK 923 INTER-LIGAND FREE ENERGY PREDICTED BY IDOCK:   33.21 KCAL/MOL
REMARK 924 INTRA-LIGAND FREE ENERGY PREDICTED BY IDOCK:    0.35 KCAL/MOL
REMARK 927      BINDING AFFINITY PREDICTED BY RF-SCORE:    0.00 PKD
ROOT
HETATM    1  C   UNL     1     -14.145  11.958  63.645  1.00  0.00     2.597 C  
HETATM    2  C   UNL     1     -13.030  12.573  64.445  1.00  0.00    -0.248 A  
HETATM    3  C   UNL     1     -13.294  13.805  65.075  1.00  0.00     0.446 A  
HETATM    4  C   UNL     1     -12.356  14.480  65.882  1.00  0.00    -0.238 A  
HETATM    5  C   UNL     1     -11.082  13.899  66.049  1.00  0.00    -0.289 A  
HETATM    6  C   UNL     1     -10.838  12.634  65.452  1.00  0.00    -0.318 A  
HETATM    7  C   UNL     1      -9.978  14.592  66.865  1.00  0.00    -0.259 C  
HETATM    8  C   UNL     1     -11.783  11.964  64.640  1.00  0.00    -0.306 A  
HETATM    9  C   UNL     1      -9.821  13.873  68.227  1.00  0.00    -0.231 C  
HETATM   10  C   UNL     1      -8.619  14.564  66.138  1.00  0.00     0.521 C  
HETATM   11  C   UNL     1     -10.304  16.087  67.115  1.00  0.00    -0.295 C  
HETATM   12  C   UNL     1     -12.833  16.885  65.374  1.00  0.00     6.348 C  
HETATM   13  C   UNL     1     -11.738  16.294  67.570  1.00  0.00     0.451 C  
HETATM   14  C   UNL     1     -14.127  15.763  67.203  1.00  0.00     9.323 C  
HETATM   15  C   UNL     1     -12.750  15.831  66.501  1.00  0.00     2.567 C  
ENDROOT
BRANCH   8  16
HETATM   16  C   UNL     1     -11.422  10.618  64.085  1.00  0.00     1.619 C  
HETATM   17  C   UNL     1     -12.082  10.278  62.958  1.00  0.00     5.184 C  
BRANCH  16  18
HETATM   18  C   UNL     1     -10.587   9.570  64.763  1.00  0.00     2.277 A  
HETATM   19  C   UNL     1      -9.922   8.542  64.062  1.00  0.00     3.829 A  
HETATM   20  C   UNL     1      -9.266   7.495  64.735  1.00  0.00     1.106 A  
HETATM   21  C   UNL     1      -9.267   7.456  66.130  1.00  0.00    -0.148 A  
HETATM   22  C   UNL     1      -9.845   8.514  66.837  1.00  0.00    -0.310 A  
HETATM   23  C   UNL     1      -8.646   6.354  66.916  1.00  0.00    -0.110 C  
HETATM   24  C   UNL     1     -10.486   9.560  66.162  1.00  0.00    -0.077 A  
HETATM   25  O   UNL     1      -8.658   5.152  66.300  1.00  0.00    -0.112 OA 
HETATM   26  O   UNL     1      -8.214   6.510  68.044  1.00  0.00    -0.115 OA 
ENDBRANCH  16  18
ENDBRANCH   8  16
TORSDOF 2
ENDMDL
MODEL      166
REMARK 921   NORMALIZED FREE ENERGY PREDICTED BY IDOCK:   31.14 KCAL/MOL
REMARK 922        TOTAL FREE ENERGY PREDICTED BY IDOCK:   34.64 KCAL/MOL
REMARK 923 INTER-LIGAND FREE ENERGY PREDICTED BY IDOCK:   35.54 KCAL/MOL
REMARK 924 INTRA-LIGAND FREE ENERGY PREDICTED BY IDOCK:   -0.90 KCAL/MOL
REMARK 927      BINDING AFFINITY PREDICTED BY RF-SCORE:    0.00 PKD
ROOT
HETATM    1  C   UNL     1      -6.091  14.296  71.213  1.00  0.00    -0.043 C  
HETATM    2  C   UNL     1      -6.991  15.454  70.877  1.00  0.00     1.103 A  
HETATM    3  C   UNL     1      -6.373  16.680  70.563  1.00  0.00     0.677 A  
HETATM    4  C   UNL     1      -7.089  17.838  70.198  1.00  0.00     1.238 A  
HETATM    5  C   UNL     1      -8.496  17.767  70.166  1.00  0.00     2.626 A  
HETATM    6  C   UNL     1      -9.112  16.516  70.436  1.00  0.00     2.289 A  
HETATM    7  C   UNL     1      -9.360  18.995  69.833  1.00  0.00     0.820 C  
HETATM    8  C   UNL     1      -8.388  15.359  70.805  1.00  0.00     2.135 A  
HETATM    9  C   UNL     1      -9.920  18.855  68.398  1.00  0.00    -0.447 C  
HETATM   10  C   UNL     1     -10.545  19.149  70.808  1.00  0.00     2.357 C  
HETATM   11  C   UNL     1      -8.546  20.311  69.934  1.00  0.00     1.224 C  
HETATM   12  C   UNL     1      -5.719  19.667  71.222  1.00  0.00    -0.267 C  
HETATM   13  C   UNL     1      -7.196  20.206  69.246  1.00  0.00    -0.062 C  
HETATM   14  C   UNL     1      -5.135  18.874  68.918  1.00  0.00    -0.191 C  
HETATM   15  C   UNL     1      -6.306  19.127  69.899  1.00  0.00    -0.216 C  
ENDROOT
BRANCH   8  16
HETATM   16  C   UNL     1      -9.145  14.086  71.038  1.00  0.00     5.488 C  
HETATM   17  C   UNL     1      -9.371  13.795  72.336  1.00  0.00    11.971 C  
BRANCH  16  18
HETATM   18  C   UNL     1      -9.471  13.042  70.009  1.00  0.00     3.176 A  
HETATM   19  C   UNL     1      -8.687  12.826  68.856  1.00  0.00     0.326 A  
HETATM   20  C   UNL     1      -9.096  11.940  67.841  1.00  0.00    -0.183 A  
HETATM   21  C   UNL     1     -10.306  11.255  67.961  1.00  0.00    -0.204 A  
HETATM   22  C   UNL     1     -11.048  11.392  69.138  1.00  0.00    -0.317 A  
HETATM   23  C   UNL     1     -10.837  10.346  66.909  1.00  0.00    -0.161 C  
HETATM   24  C   UNL     1     -10.630  12.265  70.150  1.00  0.00     1.577 A  
HETATM   25  O   UNL     1     -10.479  10.680  65.649  1.00  0.00    -0.236 OA 
HETATM   26  O   UNL     1     -11.578   9.412  67.156  1.00  0.00     0.857 OA 
ENDBRANCH  16  18
ENDBRANCH   8  16
TORSDOF 2
ENDMDL
MODEL      167
REMARK 921   NORMALIZED FREE ENERGY PREDICTED BY IDOCK:   33.94 KCAL/MOL
REMARK 922        TOTAL FREE ENERGY PREDICTED BY IDOCK:   37.76 KCAL/MOL
REMARK 923 INTER-LIGAND FREE ENERGY PREDICTED BY IDOCK:   37.88 KCAL/MOL
REMARK 924 INTRA-LIGAND FREE ENERGY PREDICTED BY IDOCK:   -0.12 KCAL/MOL
REMARK 927      BINDING AFFINITY PREDICTED BY RF-SCORE:    0.00 PKD
ROOT
HETATM    1  C   UNL     1     -10.393  13.409  67.086  1.00  0.00    -0.246 C  
HETATM    2  C   UNL     1      -9.384  13.463  68.201  1.00  0.00    -0.217 A  
HETATM    3  C   UNL     1      -9.690  14.281  69.306  1.00  0.00     0.140 A  
HETATM    4  C   UNL     1      -8.855  14.403  70.435  1.00  0.00     2.073 A  
HETATM    5  C   UNL     1      -7.643  13.682  70.447  1.00  0.00     2.079 A  
HETATM    6  C   UNL     1      -7.364  12.821  69.352  1.00  0.00     0.356 A  
HETATM    7  C   UNL     1      -6.646  13.797  71.611  1.00  0.00     1.707 C  
HETATM    8  C   UNL     1      -8.204  12.707  68.220  1.00  0.00    -0.164 A  
HETATM    9  C   UNL     1      -6.719  12.517  72.478  1.00  0.00     6.305 C  
HETATM   10  C   UNL     1      -5.196  13.970  71.115  1.00  0.00    -0.147 C  
HETATM   11  C   UNL     1      -6.946  15.030  72.503  1.00  0.00     3.254 C  
HETATM   12  C   UNL     1      -9.159  16.803  71.079  1.00  0.00     5.321 C  
HETATM   13  C   UNL     1      -8.422  15.150  72.839  1.00  0.00     9.148 C  
HETATM   14  C   UNL     1     -10.751  15.102  72.000  1.00  0.00     0.726 C  
HETATM   15  C   UNL     1      -9.283  15.345  71.572  1.00  0.00     3.833 C  
ENDROOT
BRANCH   8  16
HETATM   16  C   UNL     1      -7.819  11.743  67.138  1.00  0.00    -0.166 C  
HETATM   17  C   UNL     1      -6.758  12.124  66.397  1.00  0.00     0.717 C  
BRANCH  16  18
HETATM   18  C   UNL     1      -8.608  10.547  66.689  1.00  0.00    -0.133 A  
HETATM   19  C   UNL     1     -10.006  10.441  66.849  1.00  0.00    -0.254 A  
HETATM   20  C   UNL     1     -10.695   9.252  66.548  1.00  0.00     0.010 A  
HETATM   21  C   UNL     1      -9.993   8.140  66.082  1.00  0.00    -0.017 A  
HETATM   22  C   UNL     1      -8.623   8.259  65.835  1.00  0.00    -0.170 A  
HETATM   23  C   UNL     1     -10.637   6.828  65.796  1.00  0.00     1.852 C  
HETATM   24  C   UNL     1      -7.943   9.449  66.125  1.00  0.00    -0.110 A  
HETATM   25  O   UNL     1     -11.717   6.557  66.562  1.00  0.00     0.606 OA 
HETATM   26  O   UNL     1     -10.197   6.041  64.979  1.00  0.00     1.378 OA 
ENDBRANCH  16  18
ENDBRANCH   8  16
TORSDOF 2
ENDMDL
MODEL      168
REMARK 921   NORMALIZED FREE ENERGY PREDICTED BY IDOCK:   42.52 KCAL/MOL
REMARK 922        TOTAL FREE ENERGY PREDICTED BY IDOCK:   47.34 KCAL/MOL
REMARK 923 INTER-LIGAND FREE ENERGY PREDICTED BY IDOCK:   47.95 KCAL/MOL
REMARK 924 INTRA-LIGAND FREE ENERGY PREDICTED BY IDOCK:   -0.61 KCAL/MOL
REMARK 927      BINDING AFFINITY PREDICTED BY RF-SCORE:    0.00 PKD
ROOT
HETATM    1  C   UNL     1      -9.118  10.969  73.368  1.00  0.00    17.954 C  
HETATM    2  C   UNL     1      -9.364  10.401  71.997  1.00  0.00     6.622 A  
HETATM    3  C   UNL     1      -9.443   9.000  71.885  1.00  0.00    -0.179 A  
HETATM    4  C   UNL     1      -9.701   8.332  70.670  1.00  0.00    -0.191 A  
HETATM    5  C   UNL     1      -9.869   9.109  69.506  1.00  0.00    -0.182 A  
HETATM    6  C   UNL     1      -9.837  10.524  69.634  1.00  0.00    -0.117 A  
HETATM    7  C   UNL     1     -10.098   8.465  68.130  1.00  0.00    -0.239 C  
HETATM    8  C   UNL     1      -9.573  11.187  70.855  1.00  0.00     4.762 A  
HETATM    9  C   UNL     1     -11.584   8.629  67.727  1.00  0.00     1.854 C  
HETATM   10  C   UNL     1      -9.222   9.109  67.037  1.00  0.00    -0.167 C  
HETATM   11  C   UNL     1      -9.739   6.956  68.137  1.00  0.00    -0.134 C  
HETATM   12  C   UNL     1      -8.309   6.261  70.883  1.00  0.00    -0.127 C  
HETATM   13  C   UNL     1     -10.311   6.235  69.345  1.00  0.00    -0.266 C  
HETATM   14  C   UNL     1     -10.642   6.240  71.798  1.00  0.00    -0.266 C  
HETATM   15  C   UNL     1      -9.743   6.795  70.666  1.00  0.00    -0.180 C  
ENDROOT
BRANCH   8  16
HETATM   16  C   UNL     1      -9.593  12.686  70.873  1.00  0.00     8.888 C  
HETATM   17  C   UNL     1     -10.561  13.227  71.640  1.00  0.00     6.758 C  
BRANCH  16  18
HETATM   18  C   UNL     1      -8.800  13.598  69.981  1.00  0.00     2.580 A  
HETATM   19  C   UNL     1      -9.396  14.560  69.137  1.00  0.00     0.001 A  
HETATM   20  C   UNL     1      -8.637  15.299  68.210  1.00  0.00    -0.159 A  
HETATM   21  C   UNL     1      -7.262  15.086  68.108  1.00  0.00    -0.122 A  
HETATM   22  C   UNL     1      -6.647  14.201  68.998  1.00  0.00    -0.104 A  
HETATM   23  C   UNL     1      -6.399  15.783  67.116  1.00  0.00     0.038 C  
HETATM   24  C   UNL     1      -7.404  13.477  69.927  1.00  0.00     0.783 A  
HETATM   25  O   UNL     1      -7.025  16.113  65.964  1.00  0.00     0.433 OA 
HETATM   26  O   UNL     1      -5.214  15.992  67.303  1.00  0.00    -0.291 OA 
ENDBRANCH  16  18
ENDBRANCH   8  16
TORSDOF 2
ENDMDL
MODEL      169
REMARK 921   NORMALIZED FREE ENERGY PREDICTED BY IDOCK:   44.34 KCAL/MOL
REMARK 922        TOTAL FREE ENERGY PREDICTED BY IDOCK:   49.38 KCAL/MOL
REMARK 923 INTER-LIGAND FREE ENERGY PREDICTED BY IDOCK:   49.96 KCAL/MOL
REMARK 924 INTRA-LIGAND FREE ENERGY PREDICTED BY IDOCK:   -0.58 KCAL/MOL
REMARK 927      BINDING AFFINITY PREDICTED BY RF-SCORE:    0.00 PKD
ROOT
HETATM    1  C   UNL     1     -11.537  10.569  69.009  1.00  0.00    -0.278 C  
HETATM    2  C   UNL     1     -10.263  11.136  69.574  1.00  0.00     0.045 A  
HETATM    3  C   UNL     1      -9.796  10.586  70.783  1.00  0.00     1.505 A  
HETATM    4  C   UNL     1      -8.601  10.995  71.410  1.00  0.00     7.637 A  
HETATM    5  C   UNL     1      -7.849  12.021  70.803  1.00  0.00     5.662 A  
HETATM    6  C   UNL     1      -8.299  12.537  69.559  1.00  0.00     1.389 A  
HETATM    7  C   UNL     1      -6.563  12.569  71.444  1.00  0.00     3.051 C  
HETATM    8  C   UNL     1      -9.501  12.125  68.937  1.00  0.00     0.163 A  
HETATM    9  C   UNL     1      -5.335  12.033  70.670  1.00  0.00    -0.150 C  
HETATM   10  C   UNL     1      -6.519  14.110  71.424  1.00  0.00     0.624 C  
HETATM   11  C   UNL     1      -6.444  12.153  72.934  1.00  0.00     5.415 C  
HETATM   12  C   UNL     1      -9.176  10.819  73.841  1.00  0.00    16.059 C  
HETATM   13  C   UNL     1      -6.753  10.682  73.145  1.00  0.00     4.211 C  
HETATM   14  C   UNL     1      -8.281   8.794  72.668  1.00  0.00     0.111 C  
HETATM   15  C   UNL     1      -8.203  10.338  72.742  1.00  0.00     7.494 C  
ENDROOT
BRANCH   8  16
HETATM   16  C   UNL     1      -9.860  12.721  67.609  1.00  0.00    -0.214 C  
HETATM   17  C   UNL     1      -9.654  11.907  66.553  1.00  0.00    -0.226 C  
BRANCH  16  18
HETATM   18  C   UNL     1     -10.209  14.157  67.342  1.00  0.00    -0.244 A  
HETATM   19  C   UNL     1     -10.699  14.613  66.100  1.00  0.00    -0.314 A  
HETATM   20  C   UNL     1     -10.882  15.983  65.837  1.00  0.00    -0.210 A  
HETATM   21  C   UNL     1     -10.573  16.927  66.817  1.00  0.00    -0.201 A  
HETATM   22  C   UNL     1     -10.173  16.485  68.081  1.00  0.00    -0.271 A  
HETATM   23  C   UNL     1     -10.684  18.396  66.600  1.00  0.00    -0.212 C  
HETATM   24  C   UNL     1     -10.004  15.119  68.341  1.00  0.00    -0.222 A  
HETATM   25  O   UNL     1     -10.473  18.790  65.324  1.00  0.00    -0.390 OA 
HETATM   26  O   UNL     1     -10.892  19.183  67.505  1.00  0.00    -0.473 OA 
ENDBRANCH  16  18
ENDBRANCH   8  16
TORSDOF 2
ENDMDL
MODEL      170
REMARK 921   NORMALIZED FREE ENERGY PREDICTED BY IDOCK:   54.13 KCAL/MOL
REMARK 922        TOTAL FREE ENERGY PREDICTED BY IDOCK:   60.32 KCAL/MOL
REMARK 923 INTER-LIGAND FREE ENERGY PREDICTED BY IDOCK:   60.11 KCAL/MOL
REMARK 924 INTRA-LIGAND FREE ENERGY PREDICTED BY IDOCK:    0.21 KCAL/MOL
REMARK 927      BINDING AFFINITY PREDICTED BY RF-SCORE:    0.00 PKD
ROOT
HETATM    1  C   UNL     1      -6.091  14.296  71.213  1.00  0.00    -0.043 C  
HETATM    2  C   UNL     1      -6.991  15.454  70.877  1.00  0.00     1.103 A  
HETATM    3  C   UNL     1      -6.373  16.680  70.563  1.00  0.00     0.677 A  
HETATM    4  C   UNL     1      -7.089  17.838  70.198  1.00  0.00     1.238 A  
HETATM    5  C   UNL     1      -8.496  17.767  70.166  1.00  0.00     2.626 A  
HETATM    6  C   UNL     1      -9.112  16.516  70.436  1.00  0.00     2.289 A  
HETATM    7  C   UNL     1      -9.360  18.995  69.833  1.00  0.00     0.820 C  
HETATM    8  C   UNL     1      -8.388  15.359  70.805  1.00  0.00     2.135 A  
HETATM    9  C   UNL     1      -9.920  18.855  68.398  1.00  0.00    -0.447 C  
HETATM   10  C   UNL     1     -10.545  19.149  70.808  1.00  0.00     2.357 C  
HETATM   11  C   UNL     1      -8.546  20.311  69.934  1.00  0.00     1.224 C  
HETATM   12  C   UNL     1      -5.719  19.667  71.222  1.00  0.00    -0.267 C  
HETATM   13  C   UNL     1      -7.196  20.206  69.246  1.00  0.00    -0.062 C  
HETATM   14  C   UNL     1      -5.135  18.874  68.918  1.00  0.00    -0.191 C  
HETATM   15  C   UNL     1      -6.306  19.127  69.899  1.00  0.00    -0.216 C  
ENDROOT
BRANCH   8  16
HETATM   16  C   UNL     1      -9.145  14.086  71.038  1.00  0.00     5.488 C  
HETATM   17  C   UNL     1     -10.404  14.255  71.491  1.00  0.00     3.374 C  
BRANCH  16  18
HETATM   18  C   UNL     1      -8.578  12.695  71.019  1.00  0.00    10.764 A  
HETATM   19  C   UNL     1      -7.793  12.198  69.956  1.00  0.00     2.210 A  
HETATM   20  C   UNL     1      -7.396  10.849  69.900  1.00  0.00     0.076 A  
HETATM   21  C   UNL     1      -7.782   9.968  70.911  1.00  0.00     0.691 A  
HETATM   22  C   UNL     1      -8.483  10.466  72.013  1.00  0.00     6.473 A  
HETATM   23  C   UNL     1      -7.453   8.516  70.898  1.00  0.00    -0.074 C  
HETATM   24  C   UNL     1      -8.865  11.812  72.069  1.00  0.00    18.007 A  
HETATM   25  O   UNL     1      -7.349   7.977  69.662  1.00  0.00    -0.080 OA 
HETATM   26  O   UNL     1      -7.340   7.855  71.914  1.00  0.00    -0.065 OA 
ENDBRANCH  16  18
ENDBRANCH   8  16
TORSDOF 2
ENDMDL
MODEL      171
REMARK 921   NORMALIZED FREE ENERGY PREDICTED BY IDOCK:   55.54 KCAL/MOL
REMARK 922        TOTAL FREE ENERGY PREDICTED BY IDOCK:   61.88 KCAL/MOL
REMARK 923 INTER-LIGAND FREE ENERGY PREDICTED BY IDOCK:   60.90 KCAL/MOL
REMARK 924 INTRA-LIGAND FREE ENERGY PREDICTED BY IDOCK:    0.99 KCAL/MOL
REMARK 927      BINDING AFFINITY PREDICTED BY RF-SCORE:    0.00 PKD
ROOT
HETATM    1  C   UNL     1      -6.665  11.581  69.592  1.00  0.00    -0.083 C  
HETATM    2  C   UNL     1      -7.154  12.998  69.713  1.00  0.00     0.503 A  
HETATM    3  C   UNL     1      -7.208  13.551  71.007  1.00  0.00     3.042 A  
HETATM    4  C   UNL     1      -7.613  14.876  71.267  1.00  0.00     2.472 A  
HETATM    5  C   UNL     1      -8.003  15.679  70.176  1.00  0.00     0.657 A  
HETATM    6  C   UNL     1      -7.900  15.132  68.870  1.00  0.00    -0.164 A  
HETATM    7  C   UNL     1      -8.513  17.117  70.372  1.00  0.00     3.476 C  
HETATM    8  C   UNL     1      -7.497  13.800  68.616  1.00  0.00    -0.116 A  
HETATM    9  C   UNL     1      -7.412  18.114  69.938  1.00  0.00     0.957 C  
HETATM   10  C   UNL     1      -9.782  17.398  69.541  1.00  0.00     0.243 C  
HETATM   11  C   UNL     1      -8.894  17.393  71.849  1.00  0.00    12.714 C  
HETATM   12  C   UNL     1      -8.819  14.656  73.451  1.00  0.00     9.490 C  
HETATM   13  C   UNL     1      -7.837  16.894  72.818  1.00  0.00    16.257 C  
HETATM   14  C   UNL     1      -6.342  15.035  73.478  1.00  0.00     1.899 C  
HETATM   15  C   UNL     1      -7.653  15.364  72.725  1.00  0.00     7.704 C  
ENDROOT
BRANCH   8  16
HETATM   16  C   UNL     1      -7.399  13.342  67.191  1.00  0.00     0.076 C  
HETATM   17  C   UNL     1      -7.564  14.317  66.274  1.00  0.00     2.306 C  
BRANCH  16  18
HETATM   18  C   UNL     1      -7.349  11.919  66.715  1.00  0.00    -0.011 A  
HETATM   19  C   UNL     1      -6.333  11.014  67.092  1.00  0.00    -0.076 A  
HETATM   20  C   UNL     1      -6.236   9.733  66.518  1.00  0.00    -0.068 A  
HETATM   21  C   UNL     1      -7.156   9.333  65.549  1.00  0.00    -0.086 A  
HETATM   22  C   UNL     1      -8.219  10.184  65.232  1.00  0.00    -0.157 A  
HETATM   23  C   UNL     1      -7.089   8.019  64.853  1.00  0.00    -0.071 C  
HETATM   24  C   UNL     1      -8.318  11.453  65.815  1.00  0.00     0.100 A  
HETATM   25  O   UNL     1      -5.839   7.526  64.708  1.00  0.00    -0.037 OA 
HETATM   26  O   UNL     1      -8.072   7.459  64.401  1.00  0.00    -0.134 OA 
ENDBRANCH  16  18
ENDBRANCH   8  16
TORSDOF 2
ENDMDL
