MODEL        1
REMARK 921   NORMALIZED FREE ENERGY PREDICTED BY IDOCK:   -7.08 KCAL/MOL
REMARK 922        TOTAL FREE ENERGY PREDICTED BY IDOCK:  -10.15 KCAL/MOL
REMARK 923 INTER-LIGAND FREE ENERGY PREDICTED BY IDOCK:   -9.15 KCAL/MOL
REMARK 924 INTRA-LIGAND FREE ENERGY PREDICTED BY IDOCK:   -1.00 KCAL/MOL
REMARK 927      BINDING AFFINITY PREDICTED BY RF-SCORE:    0.00 PKD
ROOT
HETATM    1  C   UNL     1     -12.231  13.215  63.265  1.00  0.00    -0.438 C  
HETATM    2  C   UNL     1     -11.686  13.795  64.574  1.00  0.00    -0.407 C  
HETATM    3  O   UNL     1     -10.316  13.369  64.783  1.00  0.00    -0.378 OA 
HETATM    4  C   UNL     1     -12.630  13.596  65.770  1.00  0.00    -0.511 C  
HETATM    5  C   UNL     1     -11.581  15.324  64.374  1.00  0.00    -0.263 C  
HETATM    6  O   UNL     1     -10.337  15.815  64.602  1.00  0.00    -0.381 OA 
HETATM    7  O   UNL     1     -12.514  16.049  64.056  1.00  0.00    -0.703 OA 
ENDROOT
BRANCH   3   8
HETATM    8  C   UNL     1     -10.034  12.247  65.505  1.00  0.00    -0.244 A  
HETATM    9  C   UNL     1     -10.366  10.954  65.131  1.00  0.00    -0.344 A  
HETATM   10  C   UNL     1     -10.120   9.887  65.993  1.00  0.00    -0.314 A  
HETATM   11  C   UNL     1      -9.476  10.082  67.219  1.00  0.00    -0.179 A  
HETATM   12  C   UNL     1      -9.350  12.453  66.704  1.00  0.00    -0.227 A  
HETATM   13  C   UNL     1      -9.080  11.381  67.562  1.00  0.00    -0.157 A  
BRANCH  11  14
HETATM   14  C   UNL     1      -9.285   8.947  68.204  1.00  0.00    -0.145 C  
BRANCH  14  15
HETATM   15  C   UNL     1     -10.488   8.693  69.121  1.00  0.00    -0.211 C  
BRANCH  15  16
HETATM   16  N   UNL     1     -11.220   9.903  69.429  1.00  0.00    -0.378 N  
HETATM   17  C   UNL     1     -11.557  10.206  70.733  1.00  0.00    -0.357 C  
HETATM   18  H   UNL     1     -11.489  10.537  68.677  1.00  0.00     0.000 HD 
HETATM   19  O   UNL     1     -11.327   9.468  71.685  1.00  0.00    -0.383 OA 
BRANCH  17  20
HETATM   20  C   UNL     1     -12.180  11.534  70.949  1.00  0.00    -0.425 A  
HETATM   21  C   UNL     1     -11.935  12.604  70.080  1.00  0.00    -0.377 A  
HETATM   22  C   UNL     1     -12.525  13.847  70.322  1.00  0.00    -0.380 A  
HETATM   23  C   UNL     1     -13.363  14.015  71.425  1.00  0.00    -0.317 A  
HETATM   24 CL   UNL     1     -14.083  15.549  71.718  1.00  0.00    -0.587 Cl 
HETATM   25  C   UNL     1     -13.625  12.949  72.284  1.00  0.00    -0.611 A  
HETATM   26  C   UNL     1     -13.037  11.704  72.044  1.00  0.00    -0.433 A  
ENDBRANCH  17  20
ENDBRANCH  15  16
ENDBRANCH  14  15
ENDBRANCH  11  14
ENDBRANCH   3   8
TORSDOF 5
ENDMDL
MODEL        2
REMARK 921   NORMALIZED FREE ENERGY PREDICTED BY IDOCK:   -7.01 KCAL/MOL
REMARK 922        TOTAL FREE ENERGY PREDICTED BY IDOCK:  -10.05 KCAL/MOL
REMARK 923 INTER-LIGAND FREE ENERGY PREDICTED BY IDOCK:   -9.27 KCAL/MOL
REMARK 924 INTRA-LIGAND FREE ENERGY PREDICTED BY IDOCK:   -0.78 KCAL/MOL
REMARK 927      BINDING AFFINITY PREDICTED BY RF-SCORE:    0.00 PKD
ROOT
HETATM    1  C   UNL     1     -10.761  19.214  65.819  1.00  0.00    -0.388 C  
HETATM    2  C   UNL     1      -9.844  18.344  66.685  1.00  0.00    -0.353 C  
HETATM    3  O   UNL     1      -9.204  17.326  65.875  1.00  0.00    -0.507 OA 
HETATM    4  C   UNL     1     -10.518  17.840  67.971  1.00  0.00    -0.399 C  
HETATM    5  C   UNL     1      -8.680  19.248  67.149  1.00  0.00    -0.290 C  
HETATM    6  O   UNL     1      -7.456  18.763  66.822  1.00  0.00    -0.213 OA 
HETATM    7  O   UNL     1      -8.817  20.297  67.765  1.00  0.00    -0.298 OA 
ENDROOT
BRANCH   3   8
HETATM    8  C   UNL     1      -9.759  16.088  65.738  1.00  0.00    -0.305 A  
HETATM    9  C   UNL     1     -10.891  15.801  64.989  1.00  0.00    -0.461 A  
HETATM   10  C   UNL     1     -11.434  14.518  64.998  1.00  0.00    -0.382 A  
HETATM   11  C   UNL     1     -10.819  13.478  65.703  1.00  0.00    -0.292 A  
HETATM   12  C   UNL     1      -9.108  15.052  66.408  1.00  0.00    -0.312 A  
HETATM   13  C   UNL     1      -9.637  13.757  66.401  1.00  0.00    -0.285 A  
BRANCH  11  14
HETATM   14  C   UNL     1     -11.447  12.103  65.795  1.00  0.00    -0.414 C  
BRANCH  14  15
HETATM   15  C   UNL     1     -11.386  11.471  67.191  1.00  0.00    -0.284 C  
BRANCH  15  16
HETATM   16  N   UNL     1     -11.838  12.369  68.231  1.00  0.00    -0.335 N  
HETATM   17  C   UNL     1     -11.853  11.964  69.551  1.00  0.00    -0.331 C  
HETATM   18  H   UNL     1     -12.147  13.310  67.988  1.00  0.00     0.000 HD 
HETATM   19  O   UNL     1     -11.558  10.833  69.919  1.00  0.00    -0.274 OA 
BRANCH  17  20
HETATM   20  C   UNL     1     -12.199  13.009  70.545  1.00  0.00    -0.392 A  
HETATM   21  C   UNL     1     -11.708  14.315  70.431  1.00  0.00    -0.329 A  
HETATM   22  C   UNL     1     -12.040  15.270  71.394  1.00  0.00    -0.415 A  
HETATM   23  C   UNL     1     -12.867  14.921  72.462  1.00  0.00    -0.368 A  
HETATM   24 CL   UNL     1     -13.268  16.102  73.647  1.00  0.00    -0.581 Cl 
HETATM   25  C   UNL     1     -13.374  13.627  72.572  1.00  0.00    -0.638 A  
HETATM   26  C   UNL     1     -13.044  12.669  71.609  1.00  0.00    -0.421 A  
ENDBRANCH  17  20
ENDBRANCH  15  16
ENDBRANCH  14  15
ENDBRANCH  11  14
ENDBRANCH   3   8
TORSDOF 5
ENDMDL
MODEL        3
REMARK 921   NORMALIZED FREE ENERGY PREDICTED BY IDOCK:   -6.61 KCAL/MOL
REMARK 922        TOTAL FREE ENERGY PREDICTED BY IDOCK:   -9.54 KCAL/MOL
REMARK 923 INTER-LIGAND FREE ENERGY PREDICTED BY IDOCK:   -9.15 KCAL/MOL
REMARK 924 INTRA-LIGAND FREE ENERGY PREDICTED BY IDOCK:   -0.38 KCAL/MOL
REMARK 927      BINDING AFFINITY PREDICTED BY RF-SCORE:    0.00 PKD
ROOT
HETATM    1  C   UNL     1     -10.872   7.837  69.857  1.00  0.00    -0.228 C  
HETATM    2  C   UNL     1     -11.632   8.165  71.146  1.00  0.00    -0.279 C  
HETATM    3  O   UNL     1     -12.777   9.007  70.857  1.00  0.00    -0.156 OA 
HETATM    4  C   UNL     1     -10.722   8.656  72.283  1.00  0.00    -0.383 C  
HETATM    5  C   UNL     1     -12.251   6.841  71.647  1.00  0.00    -0.365 C  
HETATM    6  O   UNL     1     -13.596   6.904  71.817  1.00  0.00    -0.312 OA 
HETATM    7  O   UNL     1     -11.616   5.824  71.890  1.00  0.00    -0.232 OA 
ENDROOT
BRANCH   3   8
HETATM    8  C   UNL     1     -12.680  10.365  70.915  1.00  0.00    -0.385 A  
HETATM    9  C   UNL     1     -11.949  11.151  70.037  1.00  0.00    -0.447 A  
HETATM   10  C   UNL     1     -11.835  12.524  70.248  1.00  0.00    -0.305 A  
HETATM   11  C   UNL     1     -12.505  13.150  71.304  1.00  0.00    -0.327 A  
HETATM   12  C   UNL     1     -13.391  10.982  71.946  1.00  0.00    -0.423 A  
HETATM   13  C   UNL     1     -13.298  12.363  72.148  1.00  0.00    -0.508 A  
BRANCH  11  14
HETATM   14  C   UNL     1     -12.317  14.624  71.599  1.00  0.00    -0.416 C  
BRANCH  14  15
HETATM   15  C   UNL     1     -12.735  15.557  70.457  1.00  0.00    -0.388 C  
BRANCH  15  16
HETATM   16  N   UNL     1     -12.561  14.957  69.152  1.00  0.00    -0.512 N  
HETATM   17  C   UNL     1     -11.647  15.475  68.257  1.00  0.00    -0.334 C  
HETATM   18  H   UNL     1     -13.118  14.143  68.891  1.00  0.00     0.000 HD 
HETATM   19  O   UNL     1     -10.985  16.485  68.468  1.00  0.00    -0.331 OA 
BRANCH  17  20
HETATM   20  C   UNL     1     -11.450  14.698  67.009  1.00  0.00    -0.379 A  
HETATM   21  C   UNL     1     -10.530  15.105  66.035  1.00  0.00    -0.330 A  
HETATM   22  C   UNL     1     -10.381  14.360  64.863  1.00  0.00    -0.419 A  
HETATM   23  C   UNL     1     -11.145  13.208  64.671  1.00  0.00    -0.345 A  
HETATM   24 CL   UNL     1     -10.959  12.297  63.223  1.00  0.00    -0.445 Cl 
HETATM   25  C   UNL     1     -12.051  12.788  65.644  1.00  0.00    -0.514 A  
HETATM   26  C   UNL     1     -12.201  13.531  66.818  1.00  0.00    -0.392 A  
ENDBRANCH  17  20
ENDBRANCH  15  16
ENDBRANCH  14  15
ENDBRANCH  11  14
ENDBRANCH   3   8
TORSDOF 5
ENDMDL
MODEL        4
REMARK 921   NORMALIZED FREE ENERGY PREDICTED BY IDOCK:   -6.56 KCAL/MOL
REMARK 922        TOTAL FREE ENERGY PREDICTED BY IDOCK:   -9.48 KCAL/MOL
REMARK 923 INTER-LIGAND FREE ENERGY PREDICTED BY IDOCK:   -9.51 KCAL/MOL
REMARK 924 INTRA-LIGAND FREE ENERGY PREDICTED BY IDOCK:    0.03 KCAL/MOL
REMARK 927      BINDING AFFINITY PREDICTED BY RF-SCORE:    0.00 PKD
ROOT
HETATM    1  C   UNL     1     -10.688  16.538  68.019  1.00  0.00    -0.343 C  
HETATM    2  C   UNL     1     -10.178  16.210  66.612  1.00  0.00    -0.287 C  
HETATM    3  O   UNL     1     -11.056  15.253  65.968  1.00  0.00    -0.332 OA 
HETATM    4  C   UNL     1      -8.681  15.866  66.570  1.00  0.00    -0.350 C  
HETATM    5  C   UNL     1     -10.336  17.496  65.771  1.00  0.00    -0.209 C  
HETATM    6  O   UNL     1     -11.076  17.319  64.647  1.00  0.00    -1.052 OA 
HETATM    7  O   UNL     1      -9.842  18.579  66.055  1.00  0.00    -0.494 OA 
ENDROOT
BRANCH   3   8
HETATM    8  C   UNL     1     -10.813  13.914  66.050  1.00  0.00    -0.290 A  
HETATM    9  C   UNL     1     -11.538  12.930  65.395  1.00  0.00    -0.386 A  
HETATM   10  C   UNL     1     -11.268  11.583  65.629  1.00  0.00    -0.212 A  
HETATM   11  C   UNL     1     -10.223  11.191  66.471  1.00  0.00    -0.275 A  
HETATM   12  C   UNL     1      -9.737  13.540  66.857  1.00  0.00    -0.261 A  
HETATM   13  C   UNL     1      -9.447  12.189  67.076  1.00  0.00    -0.201 A  
BRANCH  11  14
HETATM   14  C   UNL     1      -9.977   9.735  66.804  1.00  0.00    -0.278 C  
BRANCH  14  15
HETATM   15  C   UNL     1     -10.754   9.223  68.023  1.00  0.00    -0.174 C  
BRANCH  15  16
HETATM   16  N   UNL     1     -11.513  10.265  68.679  1.00  0.00    -0.498 N  
HETATM   17  C   UNL     1     -11.315  10.542  70.017  1.00  0.00    -0.318 C  
HETATM   18  H   UNL     1     -12.200  10.801  68.149  1.00  0.00     0.000 HD 
HETATM   19  O   UNL     1     -10.556   9.905  70.739  1.00  0.00    -0.304 OA 
BRANCH  17  20
HETATM   20  C   UNL     1     -12.042  11.719  70.550  1.00  0.00    -0.439 A  
HETATM   21  C   UNL     1     -12.914  11.605  71.640  1.00  0.00    -0.483 A  
HETATM   22  C   UNL     1     -13.596  12.731  72.106  1.00  0.00    -0.547 A  
HETATM   23  C   UNL     1     -13.400  13.967  71.490  1.00  0.00    -0.350 A  
HETATM   24 CL   UNL     1     -14.246  15.349  72.067  1.00  0.00    -0.633 Cl 
HETATM   25  C   UNL     1     -12.520  14.091  70.416  1.00  0.00    -0.418 A  
HETATM   26  C   UNL     1     -11.835  12.966  69.947  1.00  0.00    -0.373 A  
ENDBRANCH  17  20
ENDBRANCH  15  16
ENDBRANCH  14  15
ENDBRANCH  11  14
ENDBRANCH   3   8
TORSDOF 5
ENDMDL
MODEL        5
REMARK 921   NORMALIZED FREE ENERGY PREDICTED BY IDOCK:   -6.49 KCAL/MOL
REMARK 922        TOTAL FREE ENERGY PREDICTED BY IDOCK:   -9.39 KCAL/MOL
REMARK 923 INTER-LIGAND FREE ENERGY PREDICTED BY IDOCK:   -8.76 KCAL/MOL
REMARK 924 INTRA-LIGAND FREE ENERGY PREDICTED BY IDOCK:   -0.63 KCAL/MOL
REMARK 927      BINDING AFFINITY PREDICTED BY RF-SCORE:    0.00 PKD
ROOT
HETATM    1  C   UNL     1     -10.717   7.800  69.669  1.00  0.00    -0.223 C  
HETATM    2  C   UNL     1     -11.397   8.147  70.996  1.00  0.00    -0.269 C  
HETATM    3  O   UNL     1     -12.587   8.942  70.761  1.00  0.00    -0.078 OA 
HETATM    4  C   UNL     1     -10.429   8.704  72.052  1.00  0.00    -0.422 C  
HETATM    5  C   UNL     1     -11.936   6.822  71.580  1.00  0.00    -0.347 C  
HETATM    6  O   UNL     1     -13.267   6.848  71.841  1.00  0.00    -0.307 OA 
HETATM    7  O   UNL     1     -11.252   5.834  71.810  1.00  0.00    -0.264 OA 
ENDROOT
BRANCH   3   8
HETATM    8  C   UNL     1     -12.532  10.304  70.770  1.00  0.00    -0.346 A  
HETATM    9  C   UNL     1     -11.925  11.085  69.798  1.00  0.00    -0.428 A  
HETATM   10  C   UNL     1     -11.838  12.466  69.957  1.00  0.00    -0.363 A  
HETATM   11  C   UNL     1     -12.415  13.104  71.059  1.00  0.00    -0.406 A  
HETATM   12  C   UNL     1     -13.153  10.930  71.852  1.00  0.00    -0.537 A  
HETATM   13  C   UNL     1     -13.089  12.319  72.004  1.00  0.00    -0.461 A  
BRANCH  11  14
HETATM   14  C   UNL     1     -12.250  14.592  71.290  1.00  0.00    -0.421 C  
BRANCH  14  15
HETATM   15  C   UNL     1     -12.653  15.468  70.098  1.00  0.00    -0.267 C  
BRANCH  15  16
HETATM   16  N   UNL     1     -11.647  16.451  69.762  1.00  0.00    -0.313 N  
HETATM   17  C   UNL     1     -11.055  16.452  68.515  1.00  0.00    -0.357 C  
HETATM   18  H   UNL     1     -11.372  17.150  70.452  1.00  0.00     0.000 HD 
HETATM   19  O   UNL     1     -11.282  15.610  67.653  1.00  0.00    -0.326 OA 
BRANCH  17  20
HETATM   20  C   UNL     1     -10.143  17.586  68.231  1.00  0.00    -0.346 A  
HETATM   21  C   UNL     1     -10.609  18.765  67.635  1.00  0.00    -0.481 A  
HETATM   22  C   UNL     1      -9.720  19.808  67.366  1.00  0.00    -0.498 A  
HETATM   23  C   UNL     1      -8.372  19.675  67.699  1.00  0.00    -0.308 A  
HETATM   24 CL   UNL     1      -7.282  20.962  67.362  1.00  0.00    -0.410 Cl 
HETATM   25  C   UNL     1      -7.905  18.511  68.309  1.00  0.00    -0.323 A  
HETATM   26  C   UNL     1      -8.792  17.466  68.580  1.00  0.00    -0.258 A  
ENDBRANCH  17  20
ENDBRANCH  15  16
ENDBRANCH  14  15
ENDBRANCH  11  14
ENDBRANCH   3   8
TORSDOF 5
ENDMDL
MODEL        6
REMARK 921   NORMALIZED FREE ENERGY PREDICTED BY IDOCK:   -6.44 KCAL/MOL
REMARK 922        TOTAL FREE ENERGY PREDICTED BY IDOCK:   -9.33 KCAL/MOL
REMARK 923 INTER-LIGAND FREE ENERGY PREDICTED BY IDOCK:   -8.70 KCAL/MOL
REMARK 924 INTRA-LIGAND FREE ENERGY PREDICTED BY IDOCK:   -0.63 KCAL/MOL
REMARK 927      BINDING AFFINITY PREDICTED BY RF-SCORE:    0.00 PKD
ROOT
HETATM    1  C   UNL     1     -10.963  13.346  64.118  1.00  0.00    -0.329 C  
HETATM    2  C   UNL     1     -11.451  14.224  65.274  1.00  0.00    -0.344 C  
HETATM    3  O   UNL     1     -10.636  14.004  66.453  1.00  0.00    -0.276 OA 
HETATM    4  C   UNL     1     -12.970  14.151  65.498  1.00  0.00    -0.303 C  
HETATM    5  C   UNL     1     -11.157  15.688  64.877  1.00  0.00    -0.402 C  
HETATM    6  O   UNL     1     -10.397  16.351  65.784  1.00  0.00    -0.355 OA 
HETATM    7  O   UNL     1     -11.566  16.228  63.858  1.00  0.00    -0.987 OA 
ENDROOT
BRANCH   3   8
HETATM    8  C   UNL     1     -10.994  13.081  67.390  1.00  0.00    -0.260 A  
HETATM    9  C   UNL     1     -10.949  11.706  67.213  1.00  0.00    -0.318 A  
HETATM   10  C   UNL     1     -11.435  10.853  68.201  1.00  0.00    -0.368 A  
HETATM   11  C   UNL     1     -11.914  11.353  69.416  1.00  0.00    -0.407 A  
HETATM   12  C   UNL     1     -11.426  13.593  68.614  1.00  0.00    -0.342 A  
HETATM   13  C   UNL     1     -11.893  12.738  69.618  1.00  0.00    -0.384 A  
BRANCH  11  14
HETATM   14  C   UNL     1     -12.528  10.444  70.460  1.00  0.00    -0.403 C  
BRANCH  14  15
HETATM   15  C   UNL     1     -11.517   9.577  71.220  1.00  0.00    -0.377 C  
BRANCH  15  16
HETATM   16  N   UNL     1     -10.945   8.535  70.396  1.00  0.00    -0.239 N  
HETATM   17  C   UNL     1     -11.535   7.288  70.331  1.00  0.00    -0.248 C  
HETATM   18  H   UNL     1     -10.099   8.722  69.858  1.00  0.00     0.000 HD 
HETATM   19  O   UNL     1     -12.514   6.963  70.992  1.00  0.00    -0.382 OA 
BRANCH  17  20
HETATM   20  C   UNL     1     -10.947   6.343  69.350  1.00  0.00    -0.421 A  
HETATM   21  C   UNL     1     -11.020   6.585  67.972  1.00  0.00    -0.368 A  
HETATM   22  C   UNL     1     -10.471   5.667  67.074  1.00  0.00    -0.344 A  
HETATM   23  C   UNL     1      -9.845   4.516  67.554  1.00  0.00    -0.140 A  
HETATM   24 CL   UNL     1      -9.174   3.388  66.442  1.00  0.00    -0.171 Cl 
HETATM   25  C   UNL     1      -9.753   4.279  68.925  1.00  0.00    -0.195 A  
HETATM   26  C   UNL     1     -10.300   5.196  69.826  1.00  0.00    -0.332 A  
ENDBRANCH  17  20
ENDBRANCH  15  16
ENDBRANCH  14  15
ENDBRANCH  11  14
ENDBRANCH   3   8
TORSDOF 5
ENDMDL
MODEL        7
REMARK 921   NORMALIZED FREE ENERGY PREDICTED BY IDOCK:   -6.37 KCAL/MOL
REMARK 922        TOTAL FREE ENERGY PREDICTED BY IDOCK:   -9.23 KCAL/MOL
REMARK 923 INTER-LIGAND FREE ENERGY PREDICTED BY IDOCK:   -8.62 KCAL/MOL
REMARK 924 INTRA-LIGAND FREE ENERGY PREDICTED BY IDOCK:   -0.62 KCAL/MOL
REMARK 927      BINDING AFFINITY PREDICTED BY RF-SCORE:    0.00 PKD
ROOT
HETATM    1  C   UNL     1     -10.141   8.621  69.395  1.00  0.00    -0.204 C  
HETATM    2  C   UNL     1     -10.977   8.525  70.676  1.00  0.00    -0.239 C  
HETATM    3  O   UNL     1     -12.263   9.168  70.487  1.00  0.00    -0.093 OA 
HETATM    4  C   UNL     1     -10.208   8.942  71.940  1.00  0.00    -0.403 C  
HETATM    5  C   UNL     1     -11.324   7.032  70.870  1.00  0.00    -0.295 C  
HETATM    6  O   UNL     1     -12.656   6.795  70.967  1.00  0.00    -0.347 OA 
HETATM    7  O   UNL     1     -10.500   6.131  70.947  1.00  0.00    -0.210 OA 
ENDROOT
BRANCH   3   8
HETATM    8  C   UNL     1     -12.446  10.478  70.816  1.00  0.00    -0.378 A  
HETATM    9  C   UNL     1     -13.159  10.932  71.916  1.00  0.00    -0.537 A  
HETATM   10  C   UNL     1     -13.370  12.297  72.103  1.00  0.00    -0.473 A  
HETATM   11  C   UNL     1     -12.816  13.240  71.232  1.00  0.00    -0.398 A  
HETATM   12  C   UNL     1     -11.848  11.408  69.964  1.00  0.00    -0.440 A  
HETATM   13  C   UNL     1     -12.039  12.780  70.161  1.00  0.00    -0.370 A  
BRANCH  11  14
HETATM   14  C   UNL     1     -13.113  14.718  71.371  1.00  0.00    -0.424 C  
BRANCH  14  15
HETATM   15  C   UNL     1     -11.899  15.577  71.745  1.00  0.00    -0.428 C  
BRANCH  15  16
HETATM   16  N   UNL     1     -11.569  16.551  70.727  1.00  0.00    -0.525 N  
HETATM   17  C   UNL     1     -10.551  16.309  69.827  1.00  0.00    -0.316 C  
HETATM   18  H   UNL     1     -12.093  17.424  70.674  1.00  0.00     0.000 HD 
HETATM   19  O   UNL     1      -9.833  15.315  69.861  1.00  0.00    -0.229 OA 
BRANCH  17  20
HETATM   20  C   UNL     1     -10.393  17.309  68.743  1.00  0.00    -0.358 A  
HETATM   21  C   UNL     1     -10.133  18.656  69.026  1.00  0.00    -0.289 A  
HETATM   22  C   UNL     1     -10.006  19.575  67.982  1.00  0.00    -0.513 A  
HETATM   23  C   UNL     1     -10.131  19.146  66.660  1.00  0.00    -0.395 A  
HETATM   24 CL   UNL     1      -9.977  20.284  65.380  1.00  0.00    -0.091 Cl 
HETATM   25  C   UNL     1     -10.372  17.804  66.371  1.00  0.00    -0.351 A  
HETATM   26  C   UNL     1     -10.499  16.881  67.413  1.00  0.00    -0.310 A  
ENDBRANCH  17  20
ENDBRANCH  15  16
ENDBRANCH  14  15
ENDBRANCH  11  14
ENDBRANCH   3   8
TORSDOF 5
ENDMDL
MODEL        8
REMARK 921   NORMALIZED FREE ENERGY PREDICTED BY IDOCK:   -6.33 KCAL/MOL
REMARK 922        TOTAL FREE ENERGY PREDICTED BY IDOCK:   -9.18 KCAL/MOL
REMARK 923 INTER-LIGAND FREE ENERGY PREDICTED BY IDOCK:   -8.10 KCAL/MOL
REMARK 924 INTRA-LIGAND FREE ENERGY PREDICTED BY IDOCK:   -1.09 KCAL/MOL
REMARK 927      BINDING AFFINITY PREDICTED BY RF-SCORE:    0.00 PKD
ROOT
HETATM    1  C   UNL     1      -8.185  11.161  66.134  1.00  0.00    -0.128 C  
HETATM    2  C   UNL     1      -9.624  11.596  65.841  1.00  0.00    -0.229 C  
HETATM    3  O   UNL     1      -9.711  13.041  65.774  1.00  0.00    -0.240 OA 
HETATM    4  C   UNL     1     -10.665  10.912  66.743  1.00  0.00    -0.309 C  
HETATM    5  C   UNL     1      -9.946  11.129  64.403  1.00  0.00    -0.301 C  
HETATM    6  O   UNL     1     -10.353  12.134  63.587  1.00  0.00    -0.398 OA 
HETATM    7  O   UNL     1      -9.866   9.972  64.013  1.00  0.00    -0.233 OA 
ENDROOT
BRANCH   3   8
HETATM    8  C   UNL     1     -10.025  13.776  66.878  1.00  0.00    -0.264 A  
HETATM    9  C   UNL     1      -9.161  14.047  67.928  1.00  0.00    -0.188 A  
HETATM   10  C   UNL     1      -9.616  14.724  69.057  1.00  0.00    -0.178 A  
HETATM   11  C   UNL     1     -10.927  15.204  69.133  1.00  0.00    -0.260 A  
HETATM   12  C   UNL     1     -11.323  14.288  66.918  1.00  0.00    -0.354 A  
HETATM   13  C   UNL     1     -11.777  14.989  68.041  1.00  0.00    -0.320 A  
BRANCH  11  14
HETATM   14  C   UNL     1     -11.460  15.860  70.390  1.00  0.00    -0.393 C  
BRANCH  14  15
HETATM   15  C   UNL     1     -12.457  15.002  71.179  1.00  0.00    -0.334 C  
BRANCH  15  16
HETATM   16  N   UNL     1     -12.155  13.589  71.110  1.00  0.00    -0.424 N  
HETATM   17  C   UNL     1     -12.960  12.667  71.747  1.00  0.00    -0.313 C  
HETATM   18  H   UNL     1     -11.339  13.271  70.587  1.00  0.00     0.000 HD 
HETATM   19  O   UNL     1     -13.920  12.970  72.448  1.00  0.00    -0.552 OA 
BRANCH  17  20
HETATM   20  C   UNL     1     -12.639  11.241  71.494  1.00  0.00    -0.418 A  
HETATM   21  C   UNL     1     -13.281  10.214  72.197  1.00  0.00    -0.463 A  
HETATM   22  C   UNL     1     -12.943   8.882  71.946  1.00  0.00    -0.436 A  
HETATM   23  C   UNL     1     -11.973   8.581  70.990  1.00  0.00    -0.231 A  
HETATM   24 CL   UNL     1     -11.559   6.938  70.689  1.00  0.00    -0.380 Cl 
HETATM   25  C   UNL     1     -11.343   9.597  70.274  1.00  0.00    -0.311 A  
HETATM   26  C   UNL     1     -11.680  10.931  70.522  1.00  0.00    -0.441 A  
ENDBRANCH  17  20
ENDBRANCH  15  16
ENDBRANCH  14  15
ENDBRANCH  11  14
ENDBRANCH   3   8
TORSDOF 5
ENDMDL
MODEL        9
REMARK 921   NORMALIZED FREE ENERGY PREDICTED BY IDOCK:   -6.33 KCAL/MOL
REMARK 922        TOTAL FREE ENERGY PREDICTED BY IDOCK:   -9.18 KCAL/MOL
REMARK 923 INTER-LIGAND FREE ENERGY PREDICTED BY IDOCK:   -8.67 KCAL/MOL
REMARK 924 INTRA-LIGAND FREE ENERGY PREDICTED BY IDOCK:   -0.51 KCAL/MOL
REMARK 927      BINDING AFFINITY PREDICTED BY RF-SCORE:    0.00 PKD
ROOT
HETATM    1  C   UNL     1      -9.905  18.885  68.810  1.00  0.00    -0.461 C  
HETATM    2  C   UNL     1      -9.813  17.707  67.835  1.00  0.00    -0.300 C  
HETATM    3  O   UNL     1     -11.102  17.056  67.708  1.00  0.00    -0.263 OA 
HETATM    4  C   UNL     1      -8.625  16.773  68.116  1.00  0.00    -0.218 C  
HETATM    5  C   UNL     1      -9.551  18.308  66.435  1.00  0.00    -0.305 C  
HETATM    6  O   UNL     1     -10.467  17.934  65.507  1.00  0.00    -0.650 OA 
HETATM    7  O   UNL     1      -8.611  19.039  66.157  1.00  0.00    -0.408 OA 
ENDROOT
BRANCH   3   8
HETATM    8  C   UNL     1     -11.431  15.995  68.498  1.00  0.00    -0.357 A  
HETATM    9  C   UNL     1     -11.519  16.029  69.882  1.00  0.00    -0.327 A  
HETATM   10  C   UNL     1     -11.765  14.860  70.600  1.00  0.00    -0.357 A  
HETATM   11  C   UNL     1     -11.995  13.645  69.947  1.00  0.00    -0.415 A  
HETATM   12  C   UNL     1     -11.705  14.801  67.830  1.00  0.00    -0.368 A  
HETATM   13  C   UNL     1     -11.975  13.630  68.547  1.00  0.00    -0.396 A  
BRANCH  11  14
HETATM   14  C   UNL     1     -12.173  12.353  70.716  1.00  0.00    -0.336 C  
BRANCH  14  15
HETATM   15  C   UNL     1     -11.871  11.086  69.906  1.00  0.00    -0.353 C  
BRANCH  15  16
HETATM   16  N   UNL     1     -11.461   9.976  70.739  1.00  0.00    -0.330 N  
HETATM   17  C   UNL     1     -12.402   9.160  71.334  1.00  0.00    -0.333 C  
HETATM   18  H   UNL     1     -10.469   9.794  70.887  1.00  0.00     0.000 HD 
HETATM   19  O   UNL     1     -13.612   9.347  71.259  1.00  0.00    -0.355 OA 
BRANCH  17  20
HETATM   20  C   UNL     1     -11.872   7.973  72.048  1.00  0.00    -0.376 A  
HETATM   21  C   UNL     1     -10.769   8.071  72.906  1.00  0.00    -0.403 A  
HETATM   22  C   UNL     1     -10.285   6.930  73.549  1.00  0.00    -0.345 A  
HETATM   23  C   UNL     1     -10.907   5.698  73.341  1.00  0.00    -0.275 A  
HETATM   24 CL   UNL     1     -10.302   4.297  74.134  1.00  0.00    -0.256 Cl 
HETATM   25  C   UNL     1     -12.015   5.597  72.502  1.00  0.00    -0.130 A  
HETATM   26  C   UNL     1     -12.503   6.737  71.858  1.00  0.00    -0.355 A  
ENDBRANCH  17  20
ENDBRANCH  15  16
ENDBRANCH  14  15
ENDBRANCH  11  14
ENDBRANCH   3   8
TORSDOF 5
ENDMDL
MODEL       10
REMARK 921   NORMALIZED FREE ENERGY PREDICTED BY IDOCK:   -6.32 KCAL/MOL
REMARK 922        TOTAL FREE ENERGY PREDICTED BY IDOCK:   -9.17 KCAL/MOL
REMARK 923 INTER-LIGAND FREE ENERGY PREDICTED BY IDOCK:   -8.56 KCAL/MOL
REMARK 924 INTRA-LIGAND FREE ENERGY PREDICTED BY IDOCK:   -0.61 KCAL/MOL
REMARK 927      BINDING AFFINITY PREDICTED BY RF-SCORE:    0.00 PKD
ROOT
HETATM    1  C   UNL     1     -10.651  13.482  64.640  1.00  0.00    -0.441 C  
HETATM    2  C   UNL     1     -11.331  14.509  65.550  1.00  0.00    -0.335 C  
HETATM    3  O   UNL     1     -10.639  14.591  66.822  1.00  0.00    -0.271 OA 
HETATM    4  C   UNL     1     -12.855  14.334  65.637  1.00  0.00    -0.321 C  
HETATM    5  C   UNL     1     -11.104  15.895  64.904  1.00  0.00    -0.389 C  
HETATM    6  O   UNL     1     -10.503  16.785  65.733  1.00  0.00    -0.389 OA 
HETATM    7  O   UNL     1     -11.436  16.194  63.766  1.00  0.00    -0.735 OA 
ENDROOT
BRANCH   3   8
HETATM    8  C   UNL     1     -11.030  13.829  67.882  1.00  0.00    -0.253 A  
HETATM    9  C   UNL     1     -10.937  12.447  67.948  1.00  0.00    -0.266 A  
HETATM   10  C   UNL     1     -11.461  11.758  69.040  1.00  0.00    -0.358 A  
HETATM   11  C   UNL     1     -12.028  12.440  70.121  1.00  0.00    -0.376 A  
HETATM   12  C   UNL     1     -11.551  14.527  68.973  1.00  0.00    -0.330 A  
HETATM   13  C   UNL     1     -12.056  13.840  70.082  1.00  0.00    -0.429 A  
BRANCH  11  14
HETATM   14  C   UNL     1     -12.681  11.701  71.270  1.00  0.00    -0.444 C  
BRANCH  14  15
HETATM   15  C   UNL     1     -12.996  10.228  70.980  1.00  0.00    -0.397 C  
BRANCH  15  16
HETATM   16  N   UNL     1     -12.124   9.320  71.692  1.00  0.00    -0.355 N  
HETATM   17  C   UNL     1     -12.466   7.991  71.842  1.00  0.00    -0.330 C  
HETATM   18  H   UNL     1     -11.248   9.664  72.085  1.00  0.00     0.000 HD 
HETATM   19  O   UNL     1     -13.527   7.513  71.455  1.00  0.00    -0.366 OA 
BRANCH  17  20
HETATM   20  C   UNL     1     -11.437   7.123  72.464  1.00  0.00    -0.297 A  
HETATM   21  C   UNL     1     -11.483   5.729  72.333  1.00  0.00    -0.343 A  
HETATM   22  C   UNL     1     -10.507   4.940  72.945  1.00  0.00    -0.257 A  
HETATM   23  C   UNL     1      -9.484   5.543  73.677  1.00  0.00    -0.138 A  
HETATM   24 CL   UNL     1      -8.287   4.564  74.431  1.00  0.00    -0.097 Cl 
HETATM   25  C   UNL     1      -9.422   6.931  73.796  1.00  0.00    -0.237 A  
HETATM   26  C   UNL     1     -10.397   7.724  73.184  1.00  0.00    -0.403 A  
ENDBRANCH  17  20
ENDBRANCH  15  16
ENDBRANCH  14  15
ENDBRANCH  11  14
ENDBRANCH   3   8
TORSDOF 5
ENDMDL
MODEL       11
REMARK 921   NORMALIZED FREE ENERGY PREDICTED BY IDOCK:   -6.32 KCAL/MOL
REMARK 922        TOTAL FREE ENERGY PREDICTED BY IDOCK:   -9.16 KCAL/MOL
REMARK 923 INTER-LIGAND FREE ENERGY PREDICTED BY IDOCK:   -8.72 KCAL/MOL
REMARK 924 INTRA-LIGAND FREE ENERGY PREDICTED BY IDOCK:   -0.44 KCAL/MOL
REMARK 927      BINDING AFFINITY PREDICTED BY RF-SCORE:    0.00 PKD
ROOT
HETATM    1  C   UNL     1     -10.544  17.028  68.307  1.00  0.00    -0.372 C  
HETATM    2  C   UNL     1     -10.392  15.725  67.515  1.00  0.00    -0.280 C  
HETATM    3  O   UNL     1     -11.619  14.956  67.570  1.00  0.00    -0.349 OA 
HETATM    4  C   UNL     1      -9.109  14.950  67.857  1.00  0.00    -0.182 C  
HETATM    5  C   UNL     1     -10.257  16.121  66.028  1.00  0.00    -0.356 C  
HETATM    6  O   UNL     1     -11.180  15.532  65.227  1.00  0.00    -0.334 OA 
HETATM    7  O   UNL     1      -9.404  16.877  65.583  1.00  0.00    -0.519 OA 
ENDROOT
BRANCH   3   8
HETATM    8  C   UNL     1     -11.809  14.007  68.530  1.00  0.00    -0.364 A  
HETATM    9  C   UNL     1     -11.610  12.646  68.356  1.00  0.00    -0.370 A  
HETATM   10  C   UNL     1     -11.931  11.751  69.375  1.00  0.00    -0.361 A  
HETATM   11  C   UNL     1     -12.395  12.204  70.614  1.00  0.00    -0.385 A  
HETATM   12  C   UNL     1     -12.227  14.478  69.776  1.00  0.00    -0.360 A  
HETATM   13  C   UNL     1     -12.528  13.585  70.810  1.00  0.00    -0.428 A  
BRANCH  11  14
HETATM   14  C   UNL     1     -12.833  11.240  71.697  1.00  0.00    -0.510 C  
BRANCH  14  15
HETATM   15  C   UNL     1     -13.409   9.918  71.175  1.00  0.00    -0.301 C  
BRANCH  15  16
HETATM   16  N   UNL     1     -12.461   8.828  71.250  1.00  0.00    -0.393 N  
HETATM   17  C   UNL     1     -12.899   7.524  71.366  1.00  0.00    -0.342 C  
HETATM   18  H   UNL     1     -11.461   9.024  71.217  1.00  0.00     0.000 HD 
HETATM   19  O   UNL     1     -14.078   7.209  71.475  1.00  0.00    -0.395 OA 
BRANCH  17  20
HETATM   20  C   UNL     1     -11.849   6.479  71.293  1.00  0.00    -0.385 A  
HETATM   21  C   UNL     1     -11.238   6.143  70.078  1.00  0.00    -0.471 A  
HETATM   22  C   UNL     1     -10.265   5.143  70.041  1.00  0.00    -0.354 A  
HETATM   23  C   UNL     1      -9.898   4.487  71.217  1.00  0.00    -0.190 A  
HETATM   24 CL   UNL     1      -8.701   3.253  71.163  1.00  0.00    -0.115 Cl 
HETATM   25  C   UNL     1     -10.489   4.829  72.432  1.00  0.00    -0.258 A  
HETATM   26  C   UNL     1     -11.463   5.830  72.472  1.00  0.00    -0.349 A  
ENDBRANCH  17  20
ENDBRANCH  15  16
ENDBRANCH  14  15
ENDBRANCH  11  14
ENDBRANCH   3   8
TORSDOF 5
ENDMDL
MODEL       12
REMARK 921   NORMALIZED FREE ENERGY PREDICTED BY IDOCK:   -6.30 KCAL/MOL
REMARK 922        TOTAL FREE ENERGY PREDICTED BY IDOCK:   -9.14 KCAL/MOL
REMARK 923 INTER-LIGAND FREE ENERGY PREDICTED BY IDOCK:   -8.57 KCAL/MOL
REMARK 924 INTRA-LIGAND FREE ENERGY PREDICTED BY IDOCK:   -0.57 KCAL/MOL
REMARK 927      BINDING AFFINITY PREDICTED BY RF-SCORE:    0.00 PKD
ROOT
HETATM    1  C   UNL     1     -10.528  19.043  65.851  1.00  0.00    -0.468 C  
HETATM    2  C   UNL     1      -9.384  18.238  66.476  1.00  0.00    -0.302 C  
HETATM    3  O   UNL     1      -9.195  16.991  65.761  1.00  0.00    -0.526 OA 
HETATM    4  C   UNL     1      -9.488  18.115  68.004  1.00  0.00    -0.290 C  
HETATM    5  C   UNL     1      -8.085  19.030  66.207  1.00  0.00    -0.285 C  
HETATM    6  O   UNL     1      -7.136  18.308  65.559  1.00  0.00    -0.523 OA 
HETATM    7  O   UNL     1      -7.894  20.190  66.547  1.00  0.00    -0.294 OA 
ENDROOT
BRANCH   3   8
HETATM    8  C   UNL     1      -9.825  15.851  66.163  1.00  0.00    -0.317 A  
HETATM    9  C   UNL     1     -11.160  15.554  65.934  1.00  0.00    -0.205 A  
HETATM   10  C   UNL     1     -11.729  14.405  66.477  1.00  0.00    -0.404 A  
HETATM   11  C   UNL     1     -10.959  13.492  67.206  1.00  0.00    -0.293 A  
HETATM   12  C   UNL     1      -9.033  14.928  66.848  1.00  0.00    -0.277 A  
HETATM   13  C   UNL     1      -9.595  13.761  67.376  1.00  0.00    -0.229 A  
BRANCH  11  14
HETATM   14  C   UNL     1     -11.583  12.287  67.878  1.00  0.00    -0.416 C  
BRANCH  14  15
HETATM   15  C   UNL     1     -11.613  12.360  69.410  1.00  0.00    -0.307 C  
BRANCH  15  16
HETATM   16  N   UNL     1     -11.321  11.088  70.034  1.00  0.00    -0.385 N  
HETATM   17  C   UNL     1     -12.205  10.528  70.934  1.00  0.00    -0.388 C  
HETATM   18  H   UNL     1     -10.454  10.600  69.808  1.00  0.00     0.000 HD 
HETATM   19  O   UNL     1     -13.236  11.077  71.307  1.00  0.00    -0.321 OA 
BRANCH  17  20
HETATM   20  C   UNL     1     -11.873   9.161  71.405  1.00  0.00    -0.415 A  
HETATM   21  C   UNL     1     -10.588   8.838  71.857  1.00  0.00    -0.425 A  
HETATM   22  C   UNL     1     -10.305   7.537  72.277  1.00  0.00    -0.263 A  
HETATM   23  C   UNL     1     -11.306   6.566  72.253  1.00  0.00    -0.282 A  
HETATM   24 CL   UNL     1     -10.948   4.964  72.769  1.00  0.00    -0.297 Cl 
HETATM   25  C   UNL     1     -12.592   6.885  71.820  1.00  0.00    -0.386 A  
HETATM   26  C   UNL     1     -12.879   8.186  71.400  1.00  0.00    -0.270 A  
ENDBRANCH  17  20
ENDBRANCH  15  16
ENDBRANCH  14  15
ENDBRANCH  11  14
ENDBRANCH   3   8
TORSDOF 5
ENDMDL
MODEL       13
REMARK 921   NORMALIZED FREE ENERGY PREDICTED BY IDOCK:   -6.27 KCAL/MOL
REMARK 922        TOTAL FREE ENERGY PREDICTED BY IDOCK:   -9.10 KCAL/MOL
REMARK 923 INTER-LIGAND FREE ENERGY PREDICTED BY IDOCK:   -8.10 KCAL/MOL
REMARK 924 INTRA-LIGAND FREE ENERGY PREDICTED BY IDOCK:   -1.00 KCAL/MOL
REMARK 927      BINDING AFFINITY PREDICTED BY RF-SCORE:    0.00 PKD
ROOT
HETATM    1  C   UNL     1     -13.317   7.417  71.432  1.00  0.00    -0.398 C  
HETATM    2  C   UNL     1     -11.790   7.351  71.324  1.00  0.00    -0.301 C  
HETATM    3  O   UNL     1     -11.216   8.671  71.502  1.00  0.00    -0.252 OA 
HETATM    4  C   UNL     1     -11.298   6.576  70.092  1.00  0.00    -0.463 C  
HETATM    5  C   UNL     1     -11.292   6.552  72.548  1.00  0.00    -0.262 C  
HETATM    6  O   UNL     1     -10.383   7.224  73.299  1.00  0.00    -0.268 OA 
HETATM    7  O   UNL     1     -11.650   5.417  72.831  1.00  0.00    -0.312 OA 
ENDROOT
BRANCH   3   8
HETATM    8  C   UNL     1     -10.964   9.475  70.430  1.00  0.00    -0.278 A  
HETATM    9  C   UNL     1     -11.929  10.131  69.682  1.00  0.00    -0.052 A  
HETATM   10  C   UNL     1     -11.569  10.848  68.543  1.00  0.00    -0.360 A  
HETATM   11  C   UNL     1     -10.229  10.981  68.165  1.00  0.00    -0.201 A  
HETATM   12  C   UNL     1      -9.619   9.635  70.094  1.00  0.00    -0.300 A  
HETATM   13  C   UNL     1      -9.251  10.374  68.964  1.00  0.00    -0.194 A  
BRANCH  11  14
HETATM   14  C   UNL     1      -9.832  11.679  66.882  1.00  0.00    -0.218 C  
BRANCH  14  15
HETATM   15  C   UNL     1      -9.587  13.186  67.029  1.00  0.00    -0.241 C  
BRANCH  15  16
HETATM   16  N   UNL     1     -10.007  13.696  68.316  1.00  0.00    -0.233 N  
HETATM   17  C   UNL     1     -11.189  14.398  68.442  1.00  0.00    -0.273 C  
HETATM   18  H   UNL     1      -9.424  13.536  69.138  1.00  0.00     0.000 HD 
HETATM   19  O   UNL     1     -11.913  14.688  67.496  1.00  0.00    -0.375 OA 
BRANCH  17  20
HETATM   20  C   UNL     1     -11.589  14.751  69.826  1.00  0.00    -0.338 A  
HETATM   21  C   UNL     1     -11.289  16.005  70.374  1.00  0.00    -0.405 A  
HETATM   22  C   UNL     1     -11.666  16.299  71.686  1.00  0.00    -0.490 A  
HETATM   23  C   UNL     1     -12.346  15.345  72.444  1.00  0.00    -0.381 A  
HETATM   24 CL   UNL     1     -12.804  15.713  74.061  1.00  0.00    -0.657 Cl 
HETATM   25  C   UNL     1     -12.663  14.102  71.898  1.00  0.00    -0.406 A  
HETATM   26  C   UNL     1     -12.289  13.805  70.585  1.00  0.00    -0.445 A  
ENDBRANCH  17  20
ENDBRANCH  15  16
ENDBRANCH  14  15
ENDBRANCH  11  14
ENDBRANCH   3   8
TORSDOF 5
ENDMDL
MODEL       14
REMARK 921   NORMALIZED FREE ENERGY PREDICTED BY IDOCK:   -6.21 KCAL/MOL
REMARK 922        TOTAL FREE ENERGY PREDICTED BY IDOCK:   -9.03 KCAL/MOL
REMARK 923 INTER-LIGAND FREE ENERGY PREDICTED BY IDOCK:   -8.23 KCAL/MOL
REMARK 924 INTRA-LIGAND FREE ENERGY PREDICTED BY IDOCK:   -0.80 KCAL/MOL
REMARK 927      BINDING AFFINITY PREDICTED BY RF-SCORE:    0.00 PKD
ROOT
HETATM    1  C   UNL     1      -7.813  10.782  65.735  1.00  0.00    -0.106 C  
HETATM    2  C   UNL     1      -9.269  10.859  65.265  1.00  0.00    -0.210 C  
HETATM    3  O   UNL     1      -9.685  12.242  65.136  1.00  0.00    -0.203 OA 
HETATM    4  C   UNL     1     -10.218   9.956  66.069  1.00  0.00    -0.269 C  
HETATM    5  C   UNL     1      -9.300  10.316  63.819  1.00  0.00    -0.295 C  
HETATM    6  O   UNL     1      -9.832  11.188  62.926  1.00  0.00    -0.317 OA 
HETATM    7  O   UNL     1      -8.904   9.208  63.483  1.00  0.00    -0.181 OA 
ENDROOT
BRANCH   3   8
HETATM    8  C   UNL     1     -10.292  12.891  66.170  1.00  0.00    -0.276 A  
HETATM    9  C   UNL     1     -11.656  13.115  66.280  1.00  0.00    -0.399 A  
HETATM   10  C   UNL     1     -12.161  13.879  67.330  1.00  0.00    -0.380 A  
HETATM   11  C   UNL     1     -11.320  14.379  68.330  1.00  0.00    -0.312 A  
HETATM   12  C   UNL     1      -9.445  13.343  67.184  1.00  0.00    -0.244 A  
HETATM   13  C   UNL     1      -9.952  14.090  68.253  1.00  0.00    -0.236 A  
BRANCH  11  14
HETATM   14  C   UNL     1     -11.842  15.285  69.426  1.00  0.00    -0.367 C  
BRANCH  14  15
HETATM   15  C   UNL     1     -12.494  14.547  70.602  1.00  0.00    -0.343 C  
BRANCH  15  16
HETATM   16  N   UNL     1     -12.133  13.147  70.652  1.00  0.00    -0.504 N  
HETATM   17  C   UNL     1     -12.827  12.272  71.463  1.00  0.00    -0.280 C  
HETATM   18  H   UNL     1     -11.359  12.803  70.084  1.00  0.00     0.000 HD 
HETATM   19  O   UNL     1     -13.726  12.615  72.223  1.00  0.00    -0.507 OA 
BRANCH  17  20
HETATM   20  C   UNL     1     -12.465  10.840  71.331  1.00  0.00    -0.478 A  
HETATM   21  C   UNL     1     -11.381  10.432  70.543  1.00  0.00    -0.424 A  
HETATM   22  C   UNL     1     -11.078   9.074  70.427  1.00  0.00    -0.279 A  
HETATM   23  C   UNL     1     -11.850   8.129  71.102  1.00  0.00    -0.279 A  
HETATM   24 CL   UNL     1     -11.473   6.457  70.951  1.00  0.00    -0.396 Cl 
HETATM   25  C   UNL     1     -12.920   8.529  71.902  1.00  0.00    -0.394 A  
HETATM   26  C   UNL     1     -13.225   9.888  72.022  1.00  0.00    -0.555 A  
ENDBRANCH  17  20
ENDBRANCH  15  16
ENDBRANCH  14  15
ENDBRANCH  11  14
ENDBRANCH   3   8
TORSDOF 5
ENDMDL
MODEL       15
REMARK 921   NORMALIZED FREE ENERGY PREDICTED BY IDOCK:   -6.19 KCAL/MOL
REMARK 922        TOTAL FREE ENERGY PREDICTED BY IDOCK:   -8.99 KCAL/MOL
REMARK 923 INTER-LIGAND FREE ENERGY PREDICTED BY IDOCK:   -8.57 KCAL/MOL
REMARK 924 INTRA-LIGAND FREE ENERGY PREDICTED BY IDOCK:   -0.42 KCAL/MOL
REMARK 927      BINDING AFFINITY PREDICTED BY RF-SCORE:    0.00 PKD
ROOT
HETATM    1  C   UNL     1      -9.670  19.977  66.056  1.00  0.00    -0.464 C  
HETATM    2  C   UNL     1      -8.491  19.208  66.659  1.00  0.00    -0.310 C  
HETATM    3  O   UNL     1      -8.727  17.779  66.579  1.00  0.00    -0.253 OA 
HETATM    4  C   UNL     1      -8.064  19.731  68.040  1.00  0.00    -0.338 C  
HETATM    5  C   UNL     1      -7.281  19.446  65.729  1.00  0.00    -0.280 C  
HETATM    6  O   UNL     1      -6.722  18.300  65.265  1.00  0.00    -0.479 OA 
HETATM    7  O   UNL     1      -6.838  20.547  65.432  1.00  0.00    -0.260 OA 
ENDROOT
BRANCH   3   8
HETATM    8  C   UNL     1      -9.314  17.107  67.610  1.00  0.00    -0.239 A  
HETATM    9  C   UNL     1      -8.645  16.304  68.521  1.00  0.00    -0.211 A  
HETATM   10  C   UNL     1      -9.356  15.581  69.476  1.00  0.00    -0.276 A  
HETATM   11  C   UNL     1     -10.746  15.698  69.584  1.00  0.00    -0.278 A  
HETATM   12  C   UNL     1     -10.695  17.271  67.734  1.00  0.00    -0.333 A  
HETATM   13  C   UNL     1     -11.410  16.564  68.707  1.00  0.00    -0.221 A  
BRANCH  11  14
HETATM   14  C   UNL     1     -11.539  14.850  70.557  1.00  0.00    -0.336 C  
BRANCH  14  15
HETATM   15  C   UNL     1     -12.278  13.670  69.913  1.00  0.00    -0.304 C  
BRANCH  15  16
HETATM   16  N   UNL     1     -12.112  12.437  70.652  1.00  0.00    -0.490 N  
HETATM   17  C   UNL     1     -12.052  11.226  69.992  1.00  0.00    -0.348 C  
HETATM   18  H   UNL     1     -12.039  12.463  71.669  1.00  0.00     0.000 HD 
HETATM   19  O   UNL     1     -12.194  11.103  68.781  1.00  0.00    -0.555 OA 
BRANCH  17  20
HETATM   20  C   UNL     1     -11.740  10.045  70.833  1.00  0.00    -0.462 A  
HETATM   21  C   UNL     1     -10.427   9.582  70.981  1.00  0.00    -0.377 A  
HETATM   22  C   UNL     1     -10.170   8.457  71.767  1.00  0.00    -0.323 A  
HETATM   23  C   UNL     1     -11.222   7.803  72.409  1.00  0.00    -0.337 A  
HETATM   24 CL   UNL     1     -10.898   6.415  73.373  1.00  0.00    -0.271 Cl 
HETATM   25  C   UNL     1     -12.529   8.269  72.281  1.00  0.00    -0.384 A  
HETATM   26  C   UNL     1     -12.790   9.396  71.496  1.00  0.00    -0.442 A  
ENDBRANCH  17  20
ENDBRANCH  15  16
ENDBRANCH  14  15
ENDBRANCH  11  14
ENDBRANCH   3   8
TORSDOF 5
ENDMDL
MODEL       16
REMARK 921   NORMALIZED FREE ENERGY PREDICTED BY IDOCK:   -6.17 KCAL/MOL
REMARK 922        TOTAL FREE ENERGY PREDICTED BY IDOCK:   -8.98 KCAL/MOL
REMARK 923 INTER-LIGAND FREE ENERGY PREDICTED BY IDOCK:   -7.76 KCAL/MOL
REMARK 924 INTRA-LIGAND FREE ENERGY PREDICTED BY IDOCK:   -1.22 KCAL/MOL
REMARK 927      BINDING AFFINITY PREDICTED BY RF-SCORE:    0.00 PKD
ROOT
HETATM    1  C   UNL     1      -9.940   8.244  72.120  1.00  0.00    -0.343 C  
HETATM    2  C   UNL     1     -10.922   8.399  70.954  1.00  0.00    -0.243 C  
HETATM    3  O   UNL     1     -10.228   8.261  69.688  1.00  0.00    -0.199 OA 
HETATM    4  C   UNL     1     -11.829   9.634  71.079  1.00  0.00    -0.428 C  
HETATM    5  C   UNL     1     -11.868   7.178  71.004  1.00  0.00    -0.333 C  
HETATM    6  O   UNL     1     -11.893   6.467  69.849  1.00  0.00    -0.384 OA 
HETATM    7  O   UNL     1     -12.551   6.866  71.970  1.00  0.00    -0.302 OA 
ENDROOT
BRANCH   3   8
HETATM    8  C   UNL     1      -9.738   9.352  69.036  1.00  0.00    -0.166 A  
HETATM    9  C   UNL     1      -8.604  10.060  69.406  1.00  0.00    -0.182 A  
HETATM   10  C   UNL     1      -8.247  11.223  68.727  1.00  0.00    -0.122 A  
HETATM   11  C   UNL     1      -8.979  11.668  67.621  1.00  0.00    -0.166 A  
HETATM   12  C   UNL     1     -10.452   9.757  67.906  1.00  0.00    -0.288 A  
HETATM   13  C   UNL     1     -10.083  10.912  67.208  1.00  0.00    -0.225 A  
BRANCH  11  14
HETATM   14  C   UNL     1      -8.657  12.977  66.932  1.00  0.00    -0.126 C  
BRANCH  14  15
HETATM   15  C   UNL     1      -9.827  13.967  66.872  1.00  0.00    -0.268 C  
BRANCH  15  16
HETATM   16  N   UNL     1     -10.278  14.379  68.183  1.00  0.00    -0.228 N  
HETATM   17  C   UNL     1     -11.546  14.057  68.624  1.00  0.00    -0.325 C  
HETATM   18  H   UNL     1      -9.654  14.913  68.788  1.00  0.00     0.000 HD 
HETATM   19  O   UNL     1     -12.377  13.474  67.937  1.00  0.00    -0.225 OA 
BRANCH  17  20
HETATM   20  C   UNL     1     -11.851  14.406  70.032  1.00  0.00    -0.377 A  
HETATM   21  C   UNL     1     -12.518  13.510  70.877  1.00  0.00    -0.448 A  
HETATM   22  C   UNL     1     -12.805  13.877  72.194  1.00  0.00    -0.392 A  
HETATM   23  C   UNL     1     -12.419  15.133  72.664  1.00  0.00    -0.376 A  
HETATM   24 CL   UNL     1     -12.779  15.580  74.286  1.00  0.00    -0.639 Cl 
HETATM   25  C   UNL     1     -11.739  16.023  71.834  1.00  0.00    -0.594 A  
HETATM   26  C   UNL     1     -11.450  15.658  70.516  1.00  0.00    -0.380 A  
ENDBRANCH  17  20
ENDBRANCH  15  16
ENDBRANCH  14  15
ENDBRANCH  11  14
ENDBRANCH   3   8
TORSDOF 5
ENDMDL
MODEL       17
REMARK 921   NORMALIZED FREE ENERGY PREDICTED BY IDOCK:   -6.16 KCAL/MOL
REMARK 922        TOTAL FREE ENERGY PREDICTED BY IDOCK:   -8.97 KCAL/MOL
REMARK 923 INTER-LIGAND FREE ENERGY PREDICTED BY IDOCK:   -8.50 KCAL/MOL
REMARK 924 INTRA-LIGAND FREE ENERGY PREDICTED BY IDOCK:   -0.47 KCAL/MOL
REMARK 927      BINDING AFFINITY PREDICTED BY RF-SCORE:    0.00 PKD
ROOT
HETATM    1  C   UNL     1      -9.600  18.907  68.803  1.00  0.00    -0.433 C  
HETATM    2  C   UNL     1      -9.587  17.980  67.583  1.00  0.00    -0.271 C  
HETATM    3  O   UNL     1     -10.857  17.290  67.461  1.00  0.00    -0.314 OA 
HETATM    4  C   UNL     1      -8.339  17.086  67.509  1.00  0.00    -0.199 C  
HETATM    5  C   UNL     1      -9.527  18.888  66.335  1.00  0.00    -0.336 C  
HETATM    6  O   UNL     1     -10.538  18.668  65.457  1.00  0.00    -0.608 OA 
HETATM    7  O   UNL     1      -8.657  19.722  66.123  1.00  0.00    -0.360 OA 
ENDROOT
BRANCH   3   8
HETATM    8  C   UNL     1     -11.044  16.063  68.024  1.00  0.00    -0.334 A  
HETATM    9  C   UNL     1     -11.007  14.857  67.340  1.00  0.00    -0.314 A  
HETATM   10  C   UNL     1     -11.313  13.667  67.995  1.00  0.00    -0.316 A  
HETATM   11  C   UNL     1     -11.597  13.647  69.365  1.00  0.00    -0.368 A  
HETATM   12  C   UNL     1     -11.280  16.055  69.400  1.00  0.00    -0.349 A  
HETATM   13  C   UNL     1     -11.564  14.859  70.067  1.00  0.00    -0.331 A  
BRANCH  11  14
HETATM   14  C   UNL     1     -12.019  12.375  70.069  1.00  0.00    -0.372 C  
BRANCH  14  15
HETATM   15  C   UNL     1     -11.924  11.111  69.206  1.00  0.00    -0.351 C  
BRANCH  15  16
HETATM   16  N   UNL     1     -11.852   9.900  69.995  1.00  0.00    -0.443 N  
HETATM   17  C   UNL     1     -10.636   9.428  70.446  1.00  0.00    -0.261 C  
HETATM   18  H   UNL     1     -12.707   9.391  70.220  1.00  0.00     0.000 HD 
HETATM   19  O   UNL     1      -9.559   9.944  70.168  1.00  0.00    -0.245 OA 
BRANCH  17  20
HETATM   20  C   UNL     1     -10.693   8.262  71.361  1.00  0.00    -0.282 A  
HETATM   21  C   UNL     1     -10.114   8.307  72.636  1.00  0.00    -0.365 A  
HETATM   22  C   UNL     1     -10.171   7.185  73.466  1.00  0.00    -0.394 A  
HETATM   23  C   UNL     1     -10.811   6.027  73.025  1.00  0.00    -0.260 A  
HETATM   24 CL   UNL     1     -10.874   4.648  74.052  1.00  0.00    -0.350 Cl 
HETATM   25  C   UNL     1     -11.405   5.981  71.765  1.00  0.00    -0.324 A  
HETATM   26  C   UNL     1     -11.350   7.102  70.932  1.00  0.00    -0.319 A  
ENDBRANCH  17  20
ENDBRANCH  15  16
ENDBRANCH  14  15
ENDBRANCH  11  14
ENDBRANCH   3   8
TORSDOF 5
ENDMDL
MODEL       18
REMARK 921   NORMALIZED FREE ENERGY PREDICTED BY IDOCK:   -6.12 KCAL/MOL
REMARK 922        TOTAL FREE ENERGY PREDICTED BY IDOCK:   -8.91 KCAL/MOL
REMARK 923 INTER-LIGAND FREE ENERGY PREDICTED BY IDOCK:   -8.50 KCAL/MOL
REMARK 924 INTRA-LIGAND FREE ENERGY PREDICTED BY IDOCK:   -0.41 KCAL/MOL
REMARK 927      BINDING AFFINITY PREDICTED BY RF-SCORE:    0.00 PKD
ROOT
HETATM    1  C   UNL     1      -8.953   7.864  69.144  1.00  0.00    -0.145 C  
HETATM    2  C   UNL     1      -9.467   9.253  69.533  1.00  0.00    -0.173 C  
HETATM    3  O   UNL     1     -10.753   9.507  68.914  1.00  0.00    -0.222 OA 
HETATM    4  C   UNL     1      -8.418  10.364  69.359  1.00  0.00    -0.145 C  
HETATM    5  C   UNL     1      -9.777   9.205  71.046  1.00  0.00    -0.289 C  
HETATM    6  O   UNL     1     -11.053   9.557  71.348  1.00  0.00    -0.351 OA 
HETATM    7  O   UNL     1      -8.970   8.899  71.913  1.00  0.00    -0.331 OA 
ENDROOT
BRANCH   3   8
HETATM    8  C   UNL     1     -10.837  10.136  67.707  1.00  0.00    -0.292 A  
HETATM    9  C   UNL     1     -10.273   9.676  66.527  1.00  0.00    -0.294 A  
HETATM   10  C   UNL     1     -10.333  10.450  65.370  1.00  0.00    -0.270 A  
HETATM   11  C   UNL     1     -11.017  11.669  65.350  1.00  0.00    -0.328 A  
HETATM   12  C   UNL     1     -11.563  11.329  67.693  1.00  0.00    -0.290 A  
HETATM   13  C   UNL     1     -11.646  12.097  66.527  1.00  0.00    -0.425 A  
BRANCH  11  14
HETATM   14  C   UNL     1     -11.013  12.561  64.127  1.00  0.00    -0.425 C  
BRANCH  14  15
HETATM   15  C   UNL     1     -11.644  13.942  64.346  1.00  0.00    -0.382 C  
BRANCH  15  16
HETATM   16  N   UNL     1     -10.811  14.816  65.142  1.00  0.00    -0.375 N  
HETATM   17  C   UNL     1     -10.824  16.181  64.931  1.00  0.00    -0.334 C  
HETATM   18  H   UNL     1     -10.209  14.422  65.865  1.00  0.00     0.000 HD 
HETATM   19  O   UNL     1     -11.469  16.727  64.043  1.00  0.00    -1.198 OA 
BRANCH  17  20
HETATM   20  C   UNL     1     -10.040  16.992  65.895  1.00  0.00    -0.281 A  
HETATM   21  C   UNL     1      -8.866  16.500  66.477  1.00  0.00    -0.317 A  
HETATM   22  C   UNL     1      -8.161  17.284  67.393  1.00  0.00    -0.204 A  
HETATM   23  C   UNL     1      -8.626  18.558  67.718  1.00  0.00    -0.271 A  
HETATM   24 CL   UNL     1      -7.755  19.517  68.850  1.00  0.00    -0.394 Cl 
HETATM   25  C   UNL     1      -9.785  19.061  67.129  1.00  0.00    -0.372 A  
HETATM   26  C   UNL     1     -10.492  18.280  66.211  1.00  0.00    -0.397 A  
ENDBRANCH  17  20
ENDBRANCH  15  16
ENDBRANCH  14  15
ENDBRANCH  11  14
ENDBRANCH   3   8
TORSDOF 5
ENDMDL
MODEL       19
REMARK 921   NORMALIZED FREE ENERGY PREDICTED BY IDOCK:   -6.10 KCAL/MOL
REMARK 922        TOTAL FREE ENERGY PREDICTED BY IDOCK:   -8.89 KCAL/MOL
REMARK 923 INTER-LIGAND FREE ENERGY PREDICTED BY IDOCK:   -8.26 KCAL/MOL
REMARK 924 INTRA-LIGAND FREE ENERGY PREDICTED BY IDOCK:   -0.63 KCAL/MOL
REMARK 927      BINDING AFFINITY PREDICTED BY RF-SCORE:    0.00 PKD
ROOT
HETATM    1  C   UNL     1     -12.481   9.098  72.391  1.00  0.00    -0.350 C  
HETATM    2  C   UNL     1     -11.199   8.586  71.727  1.00  0.00    -0.309 C  
HETATM    3  O   UNL     1     -10.453   9.688  71.152  1.00  0.00    -0.307 OA 
HETATM    4  C   UNL     1     -11.431   7.387  70.794  1.00  0.00    -0.313 C  
HETATM    5  C   UNL     1     -10.289   8.062  72.861  1.00  0.00    -0.327 C  
HETATM    6  O   UNL     1      -9.063   8.643  72.882  1.00  0.00    -0.314 OA 
HETATM    7  O   UNL     1     -10.609   7.200  73.668  1.00  0.00    -0.372 OA 
ENDROOT
BRANCH   3   8
HETATM    8  C   UNL     1     -10.632  10.052  69.851  1.00  0.00    -0.282 A  
HETATM    9  C   UNL     1      -9.874   9.594  68.783  1.00  0.00    -0.173 A  
HETATM   10  C   UNL     1     -10.077  10.108  67.505  1.00  0.00    -0.244 A  
HETATM   11  C   UNL     1     -11.087  11.042  67.252  1.00  0.00    -0.359 A  
HETATM   12  C   UNL     1     -11.675  10.948  69.608  1.00  0.00    -0.403 A  
HETATM   13  C   UNL     1     -11.897  11.449  68.321  1.00  0.00    -0.320 A  
BRANCH  11  14
HETATM   14  C   UNL     1     -11.259  11.675  65.888  1.00  0.00    -0.296 C  
BRANCH  14  15
HETATM   15  C   UNL     1     -10.038  12.463  65.396  1.00  0.00    -0.269 C  
BRANCH  15  16
HETATM   16  N   UNL     1      -9.894  13.740  66.060  1.00  0.00    -0.371 N  
HETATM   17  C   UNL     1     -10.666  14.820  65.682  1.00  0.00    -0.336 C  
HETATM   18  H   UNL     1      -9.215  13.845  66.814  1.00  0.00     0.000 HD 
HETATM   19  O   UNL     1     -11.458  14.796  64.746  1.00  0.00    -0.390 OA 
BRANCH  17  20
HETATM   20  C   UNL     1     -10.536  16.036  66.520  1.00  0.00    -0.303 A  
HETATM   21  C   UNL     1     -10.223  17.280  65.957  1.00  0.00    -0.314 A  
HETATM   22  C   UNL     1     -10.091  18.402  66.778  1.00  0.00    -0.391 A  
HETATM   23  C   UNL     1     -10.280  18.281  68.155  1.00  0.00    -0.387 A  
HETATM   24 CL   UNL     1     -10.112  19.668  69.160  1.00  0.00    -0.477 Cl 
HETATM   25  C   UNL     1     -10.609  17.050  68.720  1.00  0.00    -0.346 A  
HETATM   26  C   UNL     1     -10.743  15.925  67.901  1.00  0.00    -0.312 A  
ENDBRANCH  17  20
ENDBRANCH  15  16
ENDBRANCH  14  15
ENDBRANCH  11  14
ENDBRANCH   3   8
TORSDOF 5
ENDMDL
MODEL       20
REMARK 921   NORMALIZED FREE ENERGY PREDICTED BY IDOCK:   -6.10 KCAL/MOL
REMARK 922        TOTAL FREE ENERGY PREDICTED BY IDOCK:   -8.89 KCAL/MOL
REMARK 923 INTER-LIGAND FREE ENERGY PREDICTED BY IDOCK:   -8.23 KCAL/MOL
REMARK 924 INTRA-LIGAND FREE ENERGY PREDICTED BY IDOCK:   -0.65 KCAL/MOL
REMARK 927      BINDING AFFINITY PREDICTED BY RF-SCORE:    0.00 PKD
ROOT
HETATM    1  C   UNL     1     -13.460   7.230  71.685  1.00  0.00    -0.428 C  
HETATM    2  C   UNL     1     -11.935   7.314  71.561  1.00  0.00    -0.316 C  
HETATM    3  O   UNL     1     -11.480   8.662  71.839  1.00  0.00    -0.302 OA 
HETATM    4  C   UNL     1     -11.393   6.686  70.267  1.00  0.00    -0.431 C  
HETATM    5  C   UNL     1     -11.348   6.469  72.714  1.00  0.00    -0.185 C  
HETATM    6  O   UNL     1     -10.494   7.161  73.509  1.00  0.00    -0.328 OA 
HETATM    7  O   UNL     1     -11.598   5.288  72.908  1.00  0.00    -0.310 OA 
ENDROOT
BRANCH   3   8
HETATM    8  C   UNL     1     -11.318   9.568  70.833  1.00  0.00    -0.341 A  
HETATM    9  C   UNL     1     -12.307  10.412  70.352  1.00  0.00    -0.370 A  
HETATM   10  C   UNL     1     -12.062  11.229  69.251  1.00  0.00    -0.372 A  
HETATM   11  C   UNL     1     -10.801  11.269  68.648  1.00  0.00    -0.246 A  
HETATM   12  C   UNL     1     -10.041   9.630  70.271  1.00  0.00    -0.331 A  
HETATM   13  C   UNL     1      -9.784  10.467  69.180  1.00  0.00    -0.234 A  
BRANCH  11  14
HETATM   14  C   UNL     1     -10.547  12.083  67.396  1.00  0.00    -0.253 C  
BRANCH  14  15
HETATM   15  C   UNL     1     -11.708  12.997  66.987  1.00  0.00    -0.383 C  
BRANCH  15  16
HETATM   16  N   UNL     1     -11.307  14.380  66.845  1.00  0.00    -0.335 N  
HETATM   17  C   UNL     1     -11.322  15.231  67.933  1.00  0.00    -0.334 C  
HETATM   18  H   UNL     1     -11.010  14.730  65.935  1.00  0.00     0.000 HD 
HETATM   19  O   UNL     1     -11.723  14.907  69.045  1.00  0.00    -0.293 OA 
BRANCH  17  20
HETATM   20  C   UNL     1     -10.759  16.584  67.705  1.00  0.00    -0.329 A  
HETATM   21  C   UNL     1     -10.490  17.053  66.414  1.00  0.00    -0.252 A  
HETATM   22  C   UNL     1      -9.944  18.327  66.236  1.00  0.00    -0.361 A  
HETATM   23  C   UNL     1      -9.676  19.129  67.345  1.00  0.00    -0.320 A  
HETATM   24 CL   UNL     1      -9.001  20.695  67.118  1.00  0.00    -0.415 Cl 
HETATM   25  C   UNL     1      -9.958  18.674  68.633  1.00  0.00    -0.431 A  
HETATM   26  C   UNL     1     -10.505  17.401  68.814  1.00  0.00    -0.333 A  
ENDBRANCH  17  20
ENDBRANCH  15  16
ENDBRANCH  14  15
ENDBRANCH  11  14
ENDBRANCH   3   8
TORSDOF 5
ENDMDL
MODEL       21
REMARK 921   NORMALIZED FREE ENERGY PREDICTED BY IDOCK:   -6.10 KCAL/MOL
REMARK 922        TOTAL FREE ENERGY PREDICTED BY IDOCK:   -8.88 KCAL/MOL
REMARK 923 INTER-LIGAND FREE ENERGY PREDICTED BY IDOCK:   -8.14 KCAL/MOL
REMARK 924 INTRA-LIGAND FREE ENERGY PREDICTED BY IDOCK:   -0.74 KCAL/MOL
REMARK 927      BINDING AFFINITY PREDICTED BY RF-SCORE:    0.00 PKD
ROOT
HETATM    1  C   UNL     1      -7.553  18.473  68.582  1.00  0.00    -0.330 C  
HETATM    2  C   UNL     1      -8.247  18.746  67.244  1.00  0.00    -0.263 C  
HETATM    3  O   UNL     1      -9.563  18.138  67.226  1.00  0.00    -0.272 OA 
HETATM    4  C   UNL     1      -7.363  18.445  66.024  1.00  0.00    -0.273 C  
HETATM    5  C   UNL     1      -8.530  20.264  67.192  1.00  0.00    -0.339 C  
HETATM    6  O   UNL     1      -9.838  20.564  66.989  1.00  0.00    -0.449 OA 
HETATM    7  O   UNL     1      -7.678  21.135  67.304  1.00  0.00    -0.344 OA 
ENDROOT
BRANCH   3   8
HETATM    8  C   UNL     1      -9.747  16.881  66.730  1.00  0.00    -0.266 A  
HETATM    9  C   UNL     1      -9.132  15.736  67.212  1.00  0.00    -0.219 A  
HETATM   10  C   UNL     1      -9.313  14.515  66.565  1.00  0.00    -0.307 A  
HETATM   11  C   UNL     1     -10.166  14.400  65.463  1.00  0.00    -0.386 A  
HETATM   12  C   UNL     1     -10.637  16.775  65.660  1.00  0.00    -0.258 A  
HETATM   13  C   UNL     1     -10.840  15.546  65.022  1.00  0.00    -0.468 A  
BRANCH  11  14
HETATM   14  C   UNL     1     -10.300  13.101  64.697  1.00  0.00    -0.381 C  
BRANCH  14  15
HETATM   15  C   UNL     1     -11.480  12.225  65.136  1.00  0.00    -0.341 C  
BRANCH  15  16
HETATM   16  N   UNL     1     -11.199  11.473  66.339  1.00  0.00    -0.288 N  
HETATM   17  C   UNL     1     -11.647  11.919  67.567  1.00  0.00    -0.304 C  
HETATM   18  H   UNL     1     -10.667  10.605  66.281  1.00  0.00     0.000 HD 
HETATM   19  O   UNL     1     -12.238  12.980  67.731  1.00  0.00    -0.249 OA 
BRANCH  17  20
HETATM   20  C   UNL     1     -11.426  11.001  68.711  1.00  0.00    -0.372 A  
HETATM   21  C   UNL     1     -10.611   9.869  68.589  1.00  0.00    -0.244 A  
HETATM   22  C   UNL     1     -10.436   9.016  69.681  1.00  0.00    -0.227 A  
HETATM   23  C   UNL     1     -11.069   9.300  70.892  1.00  0.00    -0.306 A  
HETATM   24 CL   UNL     1     -10.853   8.243  72.232  1.00  0.00    -0.382 Cl 
HETATM   25  C   UNL     1     -11.867  10.435  71.025  1.00  0.00    -0.458 A  
HETATM   26  C   UNL     1     -12.043  11.291  69.934  1.00  0.00    -0.414 A  
ENDBRANCH  17  20
ENDBRANCH  15  16
ENDBRANCH  14  15
ENDBRANCH  11  14
ENDBRANCH   3   8
TORSDOF 5
ENDMDL
MODEL       22
REMARK 921   NORMALIZED FREE ENERGY PREDICTED BY IDOCK:   -6.10 KCAL/MOL
REMARK 922        TOTAL FREE ENERGY PREDICTED BY IDOCK:   -8.88 KCAL/MOL
REMARK 923 INTER-LIGAND FREE ENERGY PREDICTED BY IDOCK:   -7.92 KCAL/MOL
REMARK 924 INTRA-LIGAND FREE ENERGY PREDICTED BY IDOCK:   -0.96 KCAL/MOL
REMARK 927      BINDING AFFINITY PREDICTED BY RF-SCORE:    0.00 PKD
ROOT
HETATM    1  C   UNL     1     -10.977  15.612  65.001  1.00  0.00    -0.445 C  
HETATM    2  C   UNL     1     -10.729  15.086  66.418  1.00  0.00    -0.322 C  
HETATM    3  O   UNL     1      -9.523  14.282  66.453  1.00  0.00    -0.280 OA 
HETATM    4  C   UNL     1     -11.971  14.444  67.057  1.00  0.00    -0.424 C  
HETATM    5  C   UNL     1     -10.394  16.313  67.296  1.00  0.00    -0.285 C  
HETATM    6  O   UNL     1      -9.204  16.208  67.939  1.00  0.00    -0.198 OA 
HETATM    7  O   UNL     1     -11.117  17.290  67.430  1.00  0.00    -0.126 OA 
ENDROOT
BRANCH   3   8
HETATM    8  C   UNL     1      -9.577  12.931  66.277  1.00  0.00    -0.243 A  
HETATM    9  C   UNL     1     -10.366  12.280  65.342  1.00  0.00    -0.298 A  
HETATM   10  C   UNL     1     -10.421  10.888  65.314  1.00  0.00    -0.299 A  
HETATM   11  C   UNL     1      -9.636  10.116  66.177  1.00  0.00    -0.256 A  
HETATM   12  C   UNL     1      -8.753  12.176  67.114  1.00  0.00    -0.190 A  
HETATM   13  C   UNL     1      -8.787  10.778  67.073  1.00  0.00    -0.137 A  
BRANCH  11  14
HETATM   14  C   UNL     1      -9.754   8.607  66.220  1.00  0.00    -0.322 C  
BRANCH  14  15
HETATM   15  C   UNL     1     -10.393   8.057  67.500  1.00  0.00    -0.261 C  
BRANCH  15  16
HETATM   16  N   UNL     1     -11.128   9.063  68.235  1.00  0.00    -0.467 N  
HETATM   17  C   UNL     1     -10.920   9.236  69.589  1.00  0.00    -0.175 C  
HETATM   18  H   UNL     1     -11.805   9.651  67.749  1.00  0.00     0.000 HD 
HETATM   19  O   UNL     1     -10.173   8.531  70.258  1.00  0.00    -0.187 OA 
BRANCH  17  20
HETATM   20  C   UNL     1     -11.620  10.386  70.211  1.00  0.00    -0.410 A  
HETATM   21  C   UNL     1     -11.499  11.681  69.691  1.00  0.00    -0.359 A  
HETATM   22  C   UNL     1     -12.158  12.744  70.311  1.00  0.00    -0.373 A  
HETATM   23  C   UNL     1     -12.942  12.511  71.441  1.00  0.00    -0.251 A  
HETATM   24 CL   UNL     1     -13.749  13.827  72.201  1.00  0.00    -0.582 Cl 
HETATM   25  C   UNL     1     -13.082  11.222  71.953  1.00  0.00    -0.510 A  
HETATM   26  C   UNL     1     -12.424  10.155  71.334  1.00  0.00    -0.524 A  
ENDBRANCH  17  20
ENDBRANCH  15  16
ENDBRANCH  14  15
ENDBRANCH  11  14
ENDBRANCH   3   8
TORSDOF 5
ENDMDL
MODEL       23
REMARK 921   NORMALIZED FREE ENERGY PREDICTED BY IDOCK:   -6.09 KCAL/MOL
REMARK 922        TOTAL FREE ENERGY PREDICTED BY IDOCK:   -8.87 KCAL/MOL
REMARK 923 INTER-LIGAND FREE ENERGY PREDICTED BY IDOCK:   -8.55 KCAL/MOL
REMARK 924 INTRA-LIGAND FREE ENERGY PREDICTED BY IDOCK:   -0.33 KCAL/MOL
REMARK 927      BINDING AFFINITY PREDICTED BY RF-SCORE:    0.00 PKD
ROOT
HETATM    1  C   UNL     1     -11.221   7.335  70.251  1.00  0.00    -0.287 C  
HETATM    2  C   UNL     1     -11.158   8.624  71.077  1.00  0.00    -0.264 C  
HETATM    3  O   UNL     1     -12.143   9.576  70.601  1.00  0.00    -0.252 OA 
HETATM    4  C   UNL     1      -9.732   9.175  71.241  1.00  0.00    -0.351 C  
HETATM    5  C   UNL     1     -11.635   8.264  72.502  1.00  0.00    -0.385 C  
HETATM    6  O   UNL     1     -12.678   9.020  72.929  1.00  0.00    -0.276 OA 
HETATM    7  O   UNL     1     -11.132   7.399  73.205  1.00  0.00    -0.365 OA 
ENDROOT
BRANCH   3   8
HETATM    8  C   UNL     1     -11.819  10.509  69.661  1.00  0.00    -0.234 A  
HETATM    9  C   UNL     1     -11.883  11.882  69.845  1.00  0.00    -0.418 A  
HETATM   10  C   UNL     1     -11.625  12.747  68.784  1.00  0.00    -0.353 A  
HETATM   11  C   UNL     1     -11.233  12.260  67.533  1.00  0.00    -0.354 A  
HETATM   12  C   UNL     1     -11.383  10.009  68.433  1.00  0.00    -0.117 A  
HETATM   13  C   UNL     1     -11.101  10.875  67.372  1.00  0.00    -0.373 A  
BRANCH  11  14
HETATM   14  C   UNL     1     -11.038  13.183  66.349  1.00  0.00    -0.311 C  
BRANCH  14  15
HETATM   15  C   UNL     1     -11.712  14.552  66.494  1.00  0.00    -0.368 C  
BRANCH  15  16
HETATM   16  N   UNL     1     -10.762  15.623  66.705  1.00  0.00    -0.309 N  
HETATM   17  C   UNL     1     -10.525  16.556  65.716  1.00  0.00    -0.329 C  
HETATM   18  H   UNL     1     -10.264  15.689  67.592  1.00  0.00     0.000 HD 
HETATM   19  O   UNL     1     -11.034  16.512  64.602  1.00  0.00    -0.732 OA 
BRANCH  17  20
HETATM   20  C   UNL     1      -9.640  17.687  66.090  1.00  0.00    -0.206 A  
HETATM   21  C   UNL     1      -8.285  17.486  66.380  1.00  0.00    -0.305 A  
HETATM   22  C   UNL     1      -7.484  18.570  66.745  1.00  0.00    -0.240 A  
HETATM   23  C   UNL     1      -8.035  19.850  66.812  1.00  0.00    -0.310 A  
HETATM   24 CL   UNL     1      -7.043  21.180  67.266  1.00  0.00    -0.406 Cl 
HETATM   25  C   UNL     1      -9.380  20.059  66.507  1.00  0.00    -0.494 A  
HETATM   26  C   UNL     1     -10.184  18.976  66.140  1.00  0.00    -0.508 A  
ENDBRANCH  17  20
ENDBRANCH  15  16
ENDBRANCH  14  15
ENDBRANCH  11  14
ENDBRANCH   3   8
TORSDOF 5
ENDMDL
MODEL       24
REMARK 921   NORMALIZED FREE ENERGY PREDICTED BY IDOCK:   -6.09 KCAL/MOL
REMARK 922        TOTAL FREE ENERGY PREDICTED BY IDOCK:   -8.87 KCAL/MOL
REMARK 923 INTER-LIGAND FREE ENERGY PREDICTED BY IDOCK:   -8.14 KCAL/MOL
REMARK 924 INTRA-LIGAND FREE ENERGY PREDICTED BY IDOCK:   -0.72 KCAL/MOL
REMARK 927      BINDING AFFINITY PREDICTED BY RF-SCORE:    0.00 PKD
ROOT
HETATM    1  C   UNL     1     -12.751   8.837  72.492  1.00  0.00    -0.378 C  
HETATM    2  C   UNL     1     -11.433   8.414  71.835  1.00  0.00    -0.318 C  
HETATM    3  O   UNL     1     -10.645   9.581  71.489  1.00  0.00    -0.323 OA 
HETATM    4  C   UNL     1     -11.616   7.383  70.710  1.00  0.00    -0.317 C  
HETATM    5  C   UNL     1     -10.601   7.702  72.924  1.00  0.00    -0.354 C  
HETATM    6  O   UNL     1      -9.374   8.250  73.112  1.00  0.00    -0.261 OA 
HETATM    7  O   UNL     1     -10.977   6.728  73.562  1.00  0.00    -0.252 OA 
ENDROOT
BRANCH   3   8
HETATM    8  C   UNL     1     -10.739  10.149  70.254  1.00  0.00    -0.293 A  
HETATM    9  C   UNL     1     -11.742  11.016  69.849  1.00  0.00    -0.424 A  
HETATM   10  C   UNL     1     -11.799  11.460  68.530  1.00  0.00    -0.364 A  
HETATM   11  C   UNL     1     -10.816  11.101  67.603  1.00  0.00    -0.295 A  
HETATM   12  C   UNL     1      -9.724   9.818  69.354  1.00  0.00    -0.214 A  
HETATM   13  C   UNL     1      -9.765  10.281  68.034  1.00  0.00    -0.167 A  
BRANCH  11  14
HETATM   14  C   UNL     1     -10.915  11.501  66.146  1.00  0.00    -0.320 C  
BRANCH  14  15
HETATM   15  C   UNL     1      -9.700  12.274  65.617  1.00  0.00    -0.192 C  
BRANCH  15  16
HETATM   16  N   UNL     1      -9.648  13.634  66.106  1.00  0.00    -0.432 N  
HETATM   17  C   UNL     1     -10.419  14.620  65.523  1.00  0.00    -0.356 C  
HETATM   18  H   UNL     1      -9.036  13.868  66.887  1.00  0.00     0.000 HD 
HETATM   19  O   UNL     1     -11.132  14.436  64.543  1.00  0.00    -0.362 OA 
BRANCH  17  20
HETATM   20  C   UNL     1     -10.393  15.944  66.192  1.00  0.00    -0.341 A  
HETATM   21  C   UNL     1     -10.451  17.133  65.456  1.00  0.00    -0.158 A  
HETATM   22  C   UNL     1     -10.408  18.363  66.116  1.00  0.00    -0.431 A  
HETATM   23  C   UNL     1     -10.315  18.402  67.507  1.00  0.00    -0.393 A  
HETATM   24 CL   UNL     1     -10.258  19.920  68.314  1.00  0.00    -0.567 Cl 
HETATM   25  C   UNL     1     -10.275  17.221  68.248  1.00  0.00    -0.348 A  
HETATM   26  C   UNL     1     -10.319  15.989  67.590  1.00  0.00    -0.284 A  
ENDBRANCH  17  20
ENDBRANCH  15  16
ENDBRANCH  14  15
ENDBRANCH  11  14
ENDBRANCH   3   8
TORSDOF 5
ENDMDL
MODEL       25
REMARK 921   NORMALIZED FREE ENERGY PREDICTED BY IDOCK:   -6.08 KCAL/MOL
REMARK 922        TOTAL FREE ENERGY PREDICTED BY IDOCK:   -8.86 KCAL/MOL
REMARK 923 INTER-LIGAND FREE ENERGY PREDICTED BY IDOCK:   -8.36 KCAL/MOL
REMARK 924 INTRA-LIGAND FREE ENERGY PREDICTED BY IDOCK:   -0.50 KCAL/MOL
REMARK 927      BINDING AFFINITY PREDICTED BY RF-SCORE:    0.00 PKD
ROOT
HETATM    1  C   UNL     1     -10.860  16.545  68.283  1.00  0.00    -0.352 C  
HETATM    2  C   UNL     1     -10.574  15.375  67.336  1.00  0.00    -0.289 C  
HETATM    3  O   UNL     1     -11.715  14.481  67.282  1.00  0.00    -0.380 OA 
HETATM    4  C   UNL     1      -9.217  14.700  67.592  1.00  0.00    -0.193 C  
HETATM    5  C   UNL     1     -10.486  15.966  65.911  1.00  0.00    -0.359 C  
HETATM    6  O   UNL     1     -11.345  15.389  65.033  1.00  0.00    -0.370 OA 
HETATM    7  O   UNL     1      -9.718  16.857  65.574  1.00  0.00    -0.541 OA 
ENDROOT
BRANCH   3   8
HETATM    8  C   UNL     1     -11.801  13.405  68.113  1.00  0.00    -0.361 A  
HETATM    9  C   UNL     1     -11.635  12.083  67.727  1.00  0.00    -0.400 A  
HETATM   10  C   UNL     1     -11.846  11.052  68.640  1.00  0.00    -0.318 A  
HETATM   11  C   UNL     1     -12.161  11.321  69.975  1.00  0.00    -0.425 A  
HETATM   12  C   UNL     1     -12.070  13.692  69.453  1.00  0.00    -0.364 A  
HETATM   13  C   UNL     1     -12.259  12.659  70.378  1.00  0.00    -0.368 A  
BRANCH  11  14
HETATM   14  C   UNL     1     -12.481  10.211  70.954  1.00  0.00    -0.455 C  
BRANCH  14  15
HETATM   15  C   UNL     1     -11.255   9.445  71.467  1.00  0.00    -0.386 C  
BRANCH  15  16
HETATM   16  N   UNL     1     -10.761   8.478  70.512  1.00  0.00    -0.216 N  
HETATM   17  C   UNL     1     -11.304   7.210  70.450  1.00  0.00    -0.289 C  
HETATM   18  H   UNL     1     -10.004   8.734  69.877  1.00  0.00     0.000 HD 
HETATM   19  O   UNL     1     -12.170   6.803  71.216  1.00  0.00    -0.356 OA 
BRANCH  17  20
HETATM   20  C   UNL     1     -10.820   6.350  69.343  1.00  0.00    -0.381 A  
HETATM   21  C   UNL     1     -11.069   6.677  68.004  1.00  0.00    -0.296 A  
HETATM   22  C   UNL     1     -10.613   5.836  66.986  1.00  0.00    -0.373 A  
HETATM   23  C   UNL     1      -9.903   4.679  67.307  1.00  0.00    -0.180 A  
HETATM   24 CL   UNL     1      -9.348   3.646  66.048  1.00  0.00    -0.165 Cl 
HETATM   25  C   UNL     1      -9.637   4.357  68.637  1.00  0.00    -0.216 A  
HETATM   26  C   UNL     1     -10.091   5.197  69.658  1.00  0.00    -0.332 A  
ENDBRANCH  17  20
ENDBRANCH  15  16
ENDBRANCH  14  15
ENDBRANCH  11  14
ENDBRANCH   3   8
TORSDOF 5
ENDMDL
MODEL       26
REMARK 921   NORMALIZED FREE ENERGY PREDICTED BY IDOCK:   -6.03 KCAL/MOL
REMARK 922        TOTAL FREE ENERGY PREDICTED BY IDOCK:   -8.80 KCAL/MOL
REMARK 923 INTER-LIGAND FREE ENERGY PREDICTED BY IDOCK:   -8.21 KCAL/MOL
REMARK 924 INTRA-LIGAND FREE ENERGY PREDICTED BY IDOCK:   -0.58 KCAL/MOL
REMARK 927      BINDING AFFINITY PREDICTED BY RF-SCORE:    0.00 PKD
ROOT
HETATM    1  C   UNL     1     -10.785  16.856  68.174  1.00  0.00    -0.375 C  
HETATM    2  C   UNL     1     -10.532  15.649  67.266  1.00  0.00    -0.292 C  
HETATM    3  O   UNL     1     -11.705  14.797  67.222  1.00  0.00    -0.379 OA 
HETATM    4  C   UNL     1      -9.205  14.931  67.560  1.00  0.00    -0.194 C  
HETATM    5  C   UNL     1     -10.404  16.194  65.826  1.00  0.00    -0.378 C  
HETATM    6  O   UNL     1     -11.272  15.624  64.953  1.00  0.00    -0.401 OA 
HETATM    7  O   UNL     1      -9.598  17.045  65.474  1.00  0.00    -0.522 OA 
ENDROOT
BRANCH   3   8
HETATM    8  C   UNL     1     -11.843  13.750  68.083  1.00  0.00    -0.376 A  
HETATM    9  C   UNL     1     -12.126  13.862  69.436  1.00  0.00    -0.384 A  
HETATM   10  C   UNL     1     -12.146  12.729  70.247  1.00  0.00    -0.373 A  
HETATM   11  C   UNL     1     -11.948  11.453  69.711  1.00  0.00    -0.422 A  
HETATM   12  C   UNL     1     -11.690  12.479  67.525  1.00  0.00    -0.439 A  
HETATM   13  C   UNL     1     -11.732  11.338  68.332  1.00  0.00    -0.365 A  
BRANCH  11  14
HETATM   14  C   UNL     1     -11.876  10.225  70.594  1.00  0.00    -0.439 C  
BRANCH  14  15
HETATM   15  C   UNL     1     -10.797   9.214  70.189  1.00  0.00    -0.240 C  
BRANCH  15  16
HETATM   16  N   UNL     1     -10.793   8.034  71.026  1.00  0.00    -0.231 N  
HETATM   17  C   UNL     1     -10.898   6.776  70.467  1.00  0.00    -0.258 C  
HETATM   18  H   UNL     1     -10.712   8.132  72.038  1.00  0.00     0.000 HD 
HETATM   19  O   UNL     1     -11.061   6.575  69.269  1.00  0.00    -0.300 OA 
BRANCH  17  20
HETATM   20  C   UNL     1     -10.742   5.636  71.403  1.00  0.00    -0.310 A  
HETATM   21  C   UNL     1     -11.261   5.684  72.703  1.00  0.00    -0.350 A  
HETATM   22  C   UNL     1     -11.082   4.600  73.565  1.00  0.00    -0.412 A  
HETATM   23  C   UNL     1     -10.393   3.469  73.124  1.00  0.00    -0.162 A  
HETATM   24 CL   UNL     1     -10.173   2.139  74.192  1.00  0.00    -0.156 Cl 
HETATM   25  C   UNL     1      -9.889   3.408  71.826  1.00  0.00    -0.229 A  
HETATM   26  C   UNL     1     -10.068   4.491  70.961  1.00  0.00    -0.222 A  
ENDBRANCH  17  20
ENDBRANCH  15  16
ENDBRANCH  14  15
ENDBRANCH  11  14
ENDBRANCH   3   8
TORSDOF 5
ENDMDL
MODEL       27
REMARK 921   NORMALIZED FREE ENERGY PREDICTED BY IDOCK:   -6.03 KCAL/MOL
REMARK 922        TOTAL FREE ENERGY PREDICTED BY IDOCK:   -8.79 KCAL/MOL
REMARK 923 INTER-LIGAND FREE ENERGY PREDICTED BY IDOCK:   -8.02 KCAL/MOL
REMARK 924 INTRA-LIGAND FREE ENERGY PREDICTED BY IDOCK:   -0.77 KCAL/MOL
REMARK 927      BINDING AFFINITY PREDICTED BY RF-SCORE:    0.00 PKD
ROOT
HETATM    1  C   UNL     1     -11.043  16.237  67.846  1.00  0.00    -0.270 C  
HETATM    2  C   UNL     1     -10.468  15.848  66.481  1.00  0.00    -0.304 C  
HETATM    3  O   UNL     1     -11.337  14.892  65.822  1.00  0.00    -0.341 OA 
HETATM    4  C   UNL     1      -8.981  15.465  66.531  1.00  0.00    -0.344 C  
HETATM    5  C   UNL     1     -10.545  17.108  65.590  1.00  0.00    -0.179 C  
HETATM    6  O   UNL     1     -11.229  16.912  64.434  1.00  0.00    -1.159 OA 
HETATM    7  O   UNL     1     -10.038  18.187  65.865  1.00  0.00    -0.546 OA 
ENDROOT
BRANCH   3   8
HETATM    8  C   UNL     1     -11.135  13.551  65.961  1.00  0.00    -0.293 A  
HETATM    9  C   UNL     1     -11.511  12.798  67.063  1.00  0.00    -0.397 A  
HETATM   10  C   UNL     1     -11.165  11.451  67.146  1.00  0.00    -0.363 A  
HETATM   11  C   UNL     1     -10.495  10.810  66.099  1.00  0.00    -0.278 A  
HETATM   12  C   UNL     1     -10.508  12.916  64.888  1.00  0.00    -0.351 A  
HETATM   13  C   UNL     1     -10.180  11.558  64.957  1.00  0.00    -0.328 A  
BRANCH  11  14
HETATM   14  C   UNL     1     -10.035   9.373  66.215  1.00  0.00    -0.353 C  
BRANCH  14  15
HETATM   15  C   UNL     1      -8.866   9.157  67.184  1.00  0.00    -0.119 C  
BRANCH  15  16
HETATM   16  N   UNL     1      -9.206   8.276  68.280  1.00  0.00    -0.135 N  
HETATM   17  C   UNL     1      -9.276   8.758  69.572  1.00  0.00    -0.149 C  
HETATM   18  H   UNL     1      -9.395   7.291  68.098  1.00  0.00     0.000 HD 
HETATM   19  O   UNL     1      -9.002   9.911  69.885  1.00  0.00    -0.211 OA 
BRANCH  17  20
HETATM   20  C   UNL     1      -9.769   7.802  70.594  1.00  0.00    -0.177 A  
HETATM   21  C   UNL     1     -10.003   8.205  71.915  1.00  0.00    -0.277 A  
HETATM   22  C   UNL     1     -10.452   7.276  72.857  1.00  0.00    -0.326 A  
HETATM   23  C   UNL     1     -10.671   5.952  72.476  1.00  0.00    -0.234 A  
HETATM   24 CL   UNL     1     -11.220   4.813  73.642  1.00  0.00    -0.385 Cl 
HETATM   25  C   UNL     1     -10.456   5.549  71.159  1.00  0.00    -0.304 A  
HETATM   26  C   UNL     1     -10.009   6.476  70.214  1.00  0.00    -0.198 A  
ENDBRANCH  17  20
ENDBRANCH  15  16
ENDBRANCH  14  15
ENDBRANCH  11  14
ENDBRANCH   3   8
TORSDOF 5
ENDMDL
MODEL       28
REMARK 921   NORMALIZED FREE ENERGY PREDICTED BY IDOCK:   -5.99 KCAL/MOL
REMARK 922        TOTAL FREE ENERGY PREDICTED BY IDOCK:   -8.74 KCAL/MOL
REMARK 923 INTER-LIGAND FREE ENERGY PREDICTED BY IDOCK:   -8.15 KCAL/MOL
REMARK 924 INTRA-LIGAND FREE ENERGY PREDICTED BY IDOCK:   -0.59 KCAL/MOL
REMARK 927      BINDING AFFINITY PREDICTED BY RF-SCORE:    0.00 PKD
ROOT
HETATM    1  C   UNL     1     -10.632  13.522  64.369  1.00  0.00    -0.394 C  
HETATM    2  C   UNL     1     -11.321  14.366  65.446  1.00  0.00    -0.339 C  
HETATM    3  O   UNL     1     -10.648  14.204  66.720  1.00  0.00    -0.275 OA 
HETATM    4  C   UNL     1     -12.848  14.188  65.477  1.00  0.00    -0.404 C  
HETATM    5  C   UNL     1     -11.080  15.846  65.073  1.00  0.00    -0.360 C  
HETATM    6  O   UNL     1     -10.488  16.562  66.062  1.00  0.00    -0.328 OA 
HETATM    7  O   UNL     1     -11.394  16.355  64.006  1.00  0.00    -0.964 OA 
ENDROOT
BRANCH   3   8
HETATM    8  C   UNL     1     -11.058  13.260  67.613  1.00  0.00    -0.269 A  
HETATM    9  C   UNL     1     -11.038  11.891  67.392  1.00  0.00    -0.336 A  
HETATM   10  C   UNL     1     -11.575  11.018  68.336  1.00  0.00    -0.372 A  
HETATM   11  C   UNL     1     -12.082  11.490  69.551  1.00  0.00    -0.351 A  
HETATM   12  C   UNL     1     -11.517  13.743  68.840  1.00  0.00    -0.344 A  
HETATM   13  C   UNL     1     -12.035  12.867  69.800  1.00  0.00    -0.365 A  
BRANCH  11  14
HETATM   14  C   UNL     1     -12.750  10.563  70.545  1.00  0.00    -0.385 C  
BRANCH  14  15
HETATM   15  C   UNL     1     -11.780   9.823  71.474  1.00  0.00    -0.375 C  
BRANCH  15  16
HETATM   16  N   UNL     1     -11.327   8.565  70.921  1.00  0.00    -0.266 N  
HETATM   17  C   UNL     1     -10.543   7.711  71.670  1.00  0.00    -0.202 C  
HETATM   18  H   UNL     1     -11.590   8.306  69.971  1.00  0.00     0.000 HD 
HETATM   19  O   UNL     1     -10.132   7.974  72.795  1.00  0.00    -0.266 OA 
BRANCH  17  20
HETATM   20  C   UNL     1     -10.255   6.391  71.059  1.00  0.00    -0.227 A  
HETATM   21  C   UNL     1     -10.142   5.234  71.841  1.00  0.00    -0.252 A  
HETATM   22  C   UNL     1      -9.854   4.010  71.234  1.00  0.00    -0.242 A  
HETATM   23  C   UNL     1      -9.688   3.942  69.851  1.00  0.00    -0.164 A  
HETATM   24 CL   UNL     1      -9.330   2.430  69.111  1.00  0.00    -0.204 Cl 
HETATM   25  C   UNL     1      -9.818   5.086  69.065  1.00  0.00    -0.252 A  
HETATM   26  C   UNL     1     -10.107   6.313  69.668  1.00  0.00    -0.215 A  
ENDBRANCH  17  20
ENDBRANCH  15  16
ENDBRANCH  14  15
ENDBRANCH  11  14
ENDBRANCH   3   8
TORSDOF 5
ENDMDL
MODEL       29
REMARK 921   NORMALIZED FREE ENERGY PREDICTED BY IDOCK:   -5.98 KCAL/MOL
REMARK 922        TOTAL FREE ENERGY PREDICTED BY IDOCK:   -8.73 KCAL/MOL
REMARK 923 INTER-LIGAND FREE ENERGY PREDICTED BY IDOCK:   -7.68 KCAL/MOL
REMARK 924 INTRA-LIGAND FREE ENERGY PREDICTED BY IDOCK:   -1.05 KCAL/MOL
REMARK 927      BINDING AFFINITY PREDICTED BY RF-SCORE:    0.00 PKD
ROOT
HETATM    1  C   UNL     1     -11.862  15.663  69.338  1.00  0.00    -0.391 C  
HETATM    2  C   UNL     1     -10.818  16.011  68.273  1.00  0.00    -0.319 C  
HETATM    3  O   UNL     1     -11.408  15.950  66.950  1.00  0.00    -0.081 OA 
HETATM    4  C   UNL     1      -9.494  15.248  68.442  1.00  0.00    -0.206 C  
HETATM    5  C   UNL     1     -10.468  17.504  68.464  1.00  0.00    -0.361 C  
HETATM    6  O   UNL     1     -10.651  18.249  67.345  1.00  0.00    -0.404 OA 
HETATM    7  O   UNL     1     -10.051  17.993  69.505  1.00  0.00    -0.104 OA 
ENDROOT
BRANCH   3   8
HETATM    8  C   UNL     1     -11.352  14.806  66.210  1.00  0.00    -0.334 A  
HETATM    9  C   UNL     1     -12.291  13.787  66.246  1.00  0.00    -0.479 A  
HETATM   10  C   UNL     1     -12.085  12.614  65.524  1.00  0.00    -0.515 A  
HETATM   11  C   UNL     1     -10.968  12.461  64.696  1.00  0.00    -0.344 A  
HETATM   12  C   UNL     1     -10.256  14.689  65.354  1.00  0.00    -0.415 A  
HETATM   13  C   UNL     1     -10.057  13.522  64.609  1.00  0.00    -0.246 A  
BRANCH  11  14
HETATM   14  C   UNL     1     -10.685  11.159  63.978  1.00  0.00    -0.409 C  
BRANCH  14  15
HETATM   15  C   UNL     1      -9.802  10.180  64.762  1.00  0.00    -0.312 C  
BRANCH  15  16
HETATM   16  N   UNL     1     -10.342   9.865  66.067  1.00  0.00    -0.187 N  
HETATM   17  C   UNL     1      -9.832  10.465  67.201  1.00  0.00    -0.181 C  
HETATM   18  H   UNL     1     -11.105   9.194  66.150  1.00  0.00     0.000 HD 
HETATM   19  O   UNL     1      -8.876  11.233  67.194  1.00  0.00    -0.147 OA 
BRANCH  17  20
HETATM   20  C   UNL     1     -10.551  10.176  68.466  1.00  0.00    -0.245 A  
HETATM   21  C   UNL     1     -10.268   9.031  69.220  1.00  0.00    -0.210 A  
HETATM   22  C   UNL     1     -10.975   8.780  70.398  1.00  0.00    -0.262 A  
HETATM   23  C   UNL     1     -11.956   9.676  70.823  1.00  0.00    -0.277 A  
HETATM   24 CL   UNL     1     -12.825   9.359  72.273  1.00  0.00    -0.464 Cl 
HETATM   25  C   UNL     1     -12.231  10.827  70.086  1.00  0.00    -0.425 A  
HETATM   26  C   UNL     1     -11.524  11.082  68.908  1.00  0.00    -0.364 A  
ENDBRANCH  17  20
ENDBRANCH  15  16
ENDBRANCH  14  15
ENDBRANCH  11  14
ENDBRANCH   3   8
TORSDOF 5
ENDMDL
MODEL       30
REMARK 921   NORMALIZED FREE ENERGY PREDICTED BY IDOCK:   -5.98 KCAL/MOL
REMARK 922        TOTAL FREE ENERGY PREDICTED BY IDOCK:   -8.73 KCAL/MOL
REMARK 923 INTER-LIGAND FREE ENERGY PREDICTED BY IDOCK:   -7.37 KCAL/MOL
REMARK 924 INTRA-LIGAND FREE ENERGY PREDICTED BY IDOCK:   -1.36 KCAL/MOL
REMARK 927      BINDING AFFINITY PREDICTED BY RF-SCORE:    0.00 PKD
ROOT
HETATM    1  C   UNL     1      -7.290  10.962  66.524  1.00  0.00    -0.142 C  
HETATM    2  C   UNL     1      -8.821  10.961  66.568  1.00  0.00    -0.163 C  
HETATM    3  O   UNL     1      -9.347  12.073  65.801  1.00  0.00    -0.215 OA 
HETATM    4  C   UNL     1      -9.391  10.807  67.987  1.00  0.00    -0.152 C  
HETATM    5  C   UNL     1      -9.288   9.709  65.791  1.00  0.00    -0.228 C  
HETATM    6  O   UNL     1     -10.140   9.992  64.774  1.00  0.00    -0.296 OA 
HETATM    7  O   UNL     1      -8.951   8.563  66.053  1.00  0.00    -0.163 OA 
ENDROOT
BRANCH   3   8
HETATM    8  C   UNL     1      -9.623  13.267  66.398  1.00  0.00    -0.254 A  
HETATM    9  C   UNL     1      -8.683  14.104  66.979  1.00  0.00    -0.222 A  
HETATM   10  C   UNL     1      -9.086  15.255  67.653  1.00  0.00    -0.184 A  
HETATM   11  C   UNL     1     -10.432  15.630  67.702  1.00  0.00    -0.283 A  
HETATM   12  C   UNL     1     -10.965  13.651  66.398  1.00  0.00    -0.297 A  
HETATM   13  C   UNL     1     -11.371  14.819  67.053  1.00  0.00    -0.358 A  
BRANCH  11  14
HETATM   14  C   UNL     1     -10.893  16.828  68.506  1.00  0.00    -0.345 C  
BRANCH  14  15
HETATM   15  C   UNL     1     -10.791  16.648  70.026  1.00  0.00    -0.167 C  
BRANCH  15  16
HETATM   16  N   UNL     1     -11.091  15.298  70.450  1.00  0.00    -0.291 N  
HETATM   17  C   UNL     1     -12.388  14.926  70.746  1.00  0.00    -0.329 C  
HETATM   18  H   UNL     1     -10.339  14.614  70.532  1.00  0.00     0.000 HD 
HETATM   19  O   UNL     1     -13.338  15.701  70.734  1.00  0.00    -0.535 OA 
BRANCH  17  20
HETATM   20  C   UNL     1     -12.600  13.487  71.033  1.00  0.00    -0.438 A  
HETATM   21  C   UNL     1     -13.438  13.067  72.073  1.00  0.00    -0.584 A  
HETATM   22  C   UNL     1     -13.603  11.704  72.327  1.00  0.00    -0.007 A  
HETATM   23  C   UNL     1     -12.938  10.765  71.538  1.00  0.00    -0.456 A  
HETATM   24 CL   UNL     1     -13.143   9.087  71.859  1.00  0.00    -0.418 Cl 
HETATM   25  C   UNL     1     -12.116  11.176  70.490  1.00  0.00    -0.474 A  
HETATM   26  C   UNL     1     -11.949  12.539  70.232  1.00  0.00    -0.364 A  
ENDBRANCH  17  20
ENDBRANCH  15  16
ENDBRANCH  14  15
ENDBRANCH  11  14
ENDBRANCH   3   8
TORSDOF 5
ENDMDL
MODEL       31
REMARK 921   NORMALIZED FREE ENERGY PREDICTED BY IDOCK:   -5.97 KCAL/MOL
REMARK 922        TOTAL FREE ENERGY PREDICTED BY IDOCK:   -8.72 KCAL/MOL
REMARK 923 INTER-LIGAND FREE ENERGY PREDICTED BY IDOCK:   -8.20 KCAL/MOL
REMARK 924 INTRA-LIGAND FREE ENERGY PREDICTED BY IDOCK:   -0.52 KCAL/MOL
REMARK 927      BINDING AFFINITY PREDICTED BY RF-SCORE:    0.00 PKD
ROOT
HETATM    1  C   UNL     1     -12.677   8.925  72.133  1.00  0.00    -0.470 C  
HETATM    2  C   UNL     1     -11.313   8.615  71.508  1.00  0.00    -0.289 C  
HETATM    3  O   UNL     1     -10.624   9.845  71.166  1.00  0.00    -0.250 OA 
HETATM    4  C   UNL     1     -11.379   7.562  70.390  1.00  0.00    -0.253 C  
HETATM    5  C   UNL     1     -10.444   7.990  72.622  1.00  0.00    -0.339 C  
HETATM    6  O   UNL     1      -9.275   8.648  72.828  1.00  0.00    -0.293 OA 
HETATM    7  O   UNL     1     -10.745   6.992  73.262  1.00  0.00    -0.297 OA 
ENDROOT
BRANCH   3   8
HETATM    8  C   UNL     1     -10.743  10.392  69.923  1.00  0.00    -0.279 A  
HETATM    9  C   UNL     1      -9.913  10.113  68.847  1.00  0.00    -0.207 A  
HETATM   10  C   UNL     1     -10.061  10.805  67.647  1.00  0.00    -0.205 A  
HETATM   11  C   UNL     1     -11.083  11.743  67.475  1.00  0.00    -0.330 A  
HETATM   12  C   UNL     1     -11.796  11.291  69.752  1.00  0.00    -0.437 A  
HETATM   13  C   UNL     1     -11.962  11.971  68.541  1.00  0.00    -0.273 A  
BRANCH  11  14
HETATM   14  C   UNL     1     -11.198  12.566  66.209  1.00  0.00    -0.359 C  
BRANCH  14  15
HETATM   15  C   UNL     1     -11.938  13.898  66.384  1.00  0.00    -0.438 C  
BRANCH  15  16
HETATM   16  N   UNL     1     -11.047  14.996  66.689  1.00  0.00    -0.330 N  
HETATM   17  C   UNL     1     -10.735  15.936  65.727  1.00  0.00    -0.316 C  
HETATM   18  H   UNL     1     -10.645  15.077  67.623  1.00  0.00     0.000 HD 
HETATM   19  O   UNL     1     -11.125  15.877  64.566  1.00  0.00    -0.495 OA 
BRANCH  17  20
HETATM   20  C   UNL     1      -9.928  17.092  66.187  1.00  0.00    -0.314 A  
HETATM   21  C   UNL     1     -10.520  18.330  66.465  1.00  0.00    -0.378 A  
HETATM   22  C   UNL     1      -9.729  19.403  66.881  1.00  0.00    -0.431 A  
HETATM   23  C   UNL     1      -8.352  19.234  67.026  1.00  0.00    -0.278 A  
HETATM   24 CL   UNL     1      -7.382  20.561  67.535  1.00  0.00    -0.357 Cl 
HETATM   25  C   UNL     1      -7.758  18.000  66.768  1.00  0.00    -0.252 A  
HETATM   26  C   UNL     1      -8.548  16.924  66.353  1.00  0.00    -0.328 A  
ENDBRANCH  17  20
ENDBRANCH  15  16
ENDBRANCH  14  15
ENDBRANCH  11  14
ENDBRANCH   3   8
TORSDOF 5
ENDMDL
MODEL       32
REMARK 921   NORMALIZED FREE ENERGY PREDICTED BY IDOCK:   -5.94 KCAL/MOL
REMARK 922        TOTAL FREE ENERGY PREDICTED BY IDOCK:   -8.67 KCAL/MOL
REMARK 923 INTER-LIGAND FREE ENERGY PREDICTED BY IDOCK:   -7.82 KCAL/MOL
REMARK 924 INTRA-LIGAND FREE ENERGY PREDICTED BY IDOCK:   -0.86 KCAL/MOL
REMARK 927      BINDING AFFINITY PREDICTED BY RF-SCORE:    0.00 PKD
ROOT
HETATM    1  C   UNL     1      -8.025  18.631  66.432  1.00  0.00    -0.298 C  
HETATM    2  C   UNL     1      -9.404  18.596  67.097  1.00  0.00    -0.290 C  
HETATM    3  O   UNL     1      -9.463  17.534  68.082  1.00  0.00    -0.272 OA 
HETATM    4  C   UNL     1     -10.567  18.630  66.092  1.00  0.00    -0.409 C  
HETATM    5  C   UNL     1      -9.531  19.893  67.927  1.00  0.00    -0.359 C  
HETATM    6  O   UNL     1      -9.809  19.670  69.236  1.00  0.00    -0.416 OA 
HETATM    7  O   UNL     1      -9.413  21.023  67.474  1.00  0.00    -0.324 OA 
ENDROOT
BRANCH   3   8
HETATM    8  C   UNL     1      -9.917  16.293  67.748  1.00  0.00    -0.246 A  
HETATM    9  C   UNL     1      -9.267  15.407  66.902  1.00  0.00    -0.254 A  
HETATM   10  C   UNL     1      -9.870  14.202  66.547  1.00  0.00    -0.298 A  
HETATM   11  C   UNL     1     -11.105  13.826  67.085  1.00  0.00    -0.315 A  
HETATM   12  C   UNL     1     -11.127  15.912  68.330  1.00  0.00    -0.345 A  
HETATM   13  C   UNL     1     -11.725  14.692  67.994  1.00  0.00    -0.371 A  
BRANCH  11  14
HETATM   14  C   UNL     1     -11.812  12.563  66.639  1.00  0.00    -0.422 C  
BRANCH  14  15
HETATM   15  C   UNL     1     -10.906  11.330  66.539  1.00  0.00    -0.265 C  
BRANCH  15  16
HETATM   16  N   UNL     1     -10.931  10.520  67.738  1.00  0.00    -0.294 N  
HETATM   17  C   UNL     1      -9.943  10.649  68.693  1.00  0.00    -0.181 C  
HETATM   18  H   UNL     1     -11.685   9.848  67.878  1.00  0.00     0.000 HD 
HETATM   19  O   UNL     1      -8.971  11.386  68.572  1.00  0.00    -0.164 OA 
BRANCH  17  20
HETATM   20  C   UNL     1     -10.144   9.874  69.942  1.00  0.00    -0.297 A  
HETATM   21  C   UNL     1      -9.065   9.301  70.626  1.00  0.00    -0.309 A  
HETATM   22  C   UNL     1      -9.290   8.563  71.790  1.00  0.00    -0.323 A  
HETATM   23  C   UNL     1     -10.590   8.406  72.271  1.00  0.00    -0.342 A  
HETATM   24 CL   UNL     1     -10.861   7.493  73.703  1.00  0.00    -0.245 Cl 
HETATM   25  C   UNL     1     -11.668   8.988  71.605  1.00  0.00    -0.431 A  
HETATM   26  C   UNL     1     -11.445   9.728  70.440  1.00  0.00    -0.347 A  
ENDBRANCH  17  20
ENDBRANCH  15  16
ENDBRANCH  14  15
ENDBRANCH  11  14
ENDBRANCH   3   8
TORSDOF 5
ENDMDL
MODEL       33
REMARK 921   NORMALIZED FREE ENERGY PREDICTED BY IDOCK:   -5.90 KCAL/MOL
REMARK 922        TOTAL FREE ENERGY PREDICTED BY IDOCK:   -8.63 KCAL/MOL
REMARK 923 INTER-LIGAND FREE ENERGY PREDICTED BY IDOCK:   -8.06 KCAL/MOL
REMARK 924 INTRA-LIGAND FREE ENERGY PREDICTED BY IDOCK:   -0.57 KCAL/MOL
REMARK 927      BINDING AFFINITY PREDICTED BY RF-SCORE:    0.00 PKD
ROOT
HETATM    1  C   UNL     1     -10.581   7.852  69.526  1.00  0.00    -0.220 C  
HETATM    2  C   UNL     1      -9.934   7.855  68.137  1.00  0.00    -0.180 C  
HETATM    3  O   UNL     1      -9.387   9.164  67.838  1.00  0.00    -0.137 OA 
HETATM    4  C   UNL     1     -10.829   7.247  67.046  1.00  0.00    -0.350 C  
HETATM    5  C   UNL     1      -8.695   6.936  68.222  1.00  0.00    -0.123 C  
HETATM    6  O   UNL     1      -7.542   7.549  67.853  1.00  0.00    -0.105 OA 
HETATM    7  O   UNL     1      -8.720   5.764  68.571  1.00  0.00    -0.112 OA 
ENDROOT
BRANCH   3   8
HETATM    8  C   UNL     1     -10.126  10.096  67.173  1.00  0.00    -0.209 A  
HETATM    9  C   UNL     1     -10.087  10.317  65.805  1.00  0.00    -0.325 A  
HETATM   10  C   UNL     1     -10.810  11.365  65.239  1.00  0.00    -0.297 A  
HETATM   11  C   UNL     1     -11.641  12.174  66.021  1.00  0.00    -0.420 A  
HETATM   12  C   UNL     1     -10.987  10.864  67.959  1.00  0.00    -0.317 A  
HETATM   13  C   UNL     1     -11.732  11.903  67.392  1.00  0.00    -0.326 A  
BRANCH  11  14
HETATM   14  C   UNL     1     -12.360  13.371  65.436  1.00  0.00    -0.522 C  
BRANCH  14  15
HETATM   15  C   UNL     1     -11.475  14.290  64.585  1.00  0.00    -0.385 C  
BRANCH  15  16
HETATM   16  N   UNL     1     -10.619  15.138  65.385  1.00  0.00    -0.359 N  
HETATM   17  C   UNL     1     -10.652  16.510  65.235  1.00  0.00    -0.253 C  
HETATM   18  H   UNL     1      -9.985  14.720  66.066  1.00  0.00     0.000 HD 
HETATM   19  O   UNL     1     -11.337  17.087  64.398  1.00  0.00    -1.140 OA 
BRANCH  17  20
HETATM   20  C   UNL     1      -9.839  17.288  66.201  1.00  0.00    -0.269 A  
HETATM   21  C   UNL     1     -10.399  18.326  66.956  1.00  0.00    -0.408 A  
HETATM   22  C   UNL     1      -9.602  19.049  67.846  1.00  0.00    -0.373 A  
HETATM   23  C   UNL     1      -8.251  18.729  67.984  1.00  0.00    -0.291 A  
HETATM   24 CL   UNL     1      -7.273  19.627  69.079  1.00  0.00    -0.393 Cl 
HETATM   25  C   UNL     1      -7.690  17.686  67.248  1.00  0.00    -0.222 A  
HETATM   26  C   UNL     1      -8.487  16.960  66.359  1.00  0.00    -0.325 A  
ENDBRANCH  17  20
ENDBRANCH  15  16
ENDBRANCH  14  15
ENDBRANCH  11  14
ENDBRANCH   3   8
TORSDOF 5
ENDMDL
MODEL       34
REMARK 921   NORMALIZED FREE ENERGY PREDICTED BY IDOCK:   -5.89 KCAL/MOL
REMARK 922        TOTAL FREE ENERGY PREDICTED BY IDOCK:   -8.62 KCAL/MOL
REMARK 923 INTER-LIGAND FREE ENERGY PREDICTED BY IDOCK:   -8.04 KCAL/MOL
REMARK 924 INTRA-LIGAND FREE ENERGY PREDICTED BY IDOCK:   -0.57 KCAL/MOL
REMARK 927      BINDING AFFINITY PREDICTED BY RF-SCORE:    0.00 PKD
ROOT
HETATM    1  C   UNL     1      -8.938   6.155  71.699  1.00  0.00    -0.142 C  
HETATM    2  C   UNL     1     -10.120   6.634  72.548  1.00  0.00    -0.172 C  
HETATM    3  O   UNL     1     -11.252   6.954  71.701  1.00  0.00    -0.235 OA 
HETATM    4  C   UNL     1      -9.737   7.711  73.575  1.00  0.00    -0.358 C  
HETATM    5  C   UNL     1     -10.595   5.418  73.374  1.00  0.00    -0.258 C  
HETATM    6  O   UNL     1     -11.908   5.125  73.198  1.00  0.00    -0.263 OA 
HETATM    7  O   UNL     1      -9.885   4.772  74.133  1.00  0.00    -0.142 OA 
ENDROOT
BRANCH   3   8
HETATM    8  C   UNL     1     -11.447   8.222  71.242  1.00  0.00    -0.274 A  
HETATM    9  C   UNL     1     -10.743   8.811  70.203  1.00  0.00    -0.239 A  
HETATM   10  C   UNL     1     -10.953  10.150  69.880  1.00  0.00    -0.344 A  
HETATM   11  C   UNL     1     -11.919  10.911  70.545  1.00  0.00    -0.466 A  
HETATM   12  C   UNL     1     -12.448   8.954  71.884  1.00  0.00    -0.445 A  
HETATM   13  C   UNL     1     -12.678  10.292  71.547  1.00  0.00    -0.557 A  
BRANCH  11  14
HETATM   14  C   UNL     1     -12.094  12.389  70.267  1.00  0.00    -0.377 C  
BRANCH  14  15
HETATM   15  C   UNL     1     -11.895  12.787  68.800  1.00  0.00    -0.307 C  
BRANCH  15  16
HETATM   16  N   UNL     1     -11.462  14.159  68.647  1.00  0.00    -0.279 N  
HETATM   17  C   UNL     1     -11.028  14.626  67.422  1.00  0.00    -0.308 C  
HETATM   18  H   UNL     1     -11.476  14.787  69.450  1.00  0.00     0.000 HD 
HETATM   19  O   UNL     1     -10.921  13.922  66.424  1.00  0.00    -0.299 OA 
BRANCH  17  20
HETATM   20  C   UNL     1     -10.743  16.079  67.346  1.00  0.00    -0.306 A  
HETATM   21  C   UNL     1     -10.526  16.716  66.118  1.00  0.00    -0.291 A  
HETATM   22  C   UNL     1     -10.243  18.084  66.084  1.00  0.00    -0.364 A  
HETATM   23  C   UNL     1     -10.185  18.811  67.273  1.00  0.00    -0.390 A  
HETATM   24 CL   UNL     1      -9.832  20.494  67.224  1.00  0.00    -0.605 Cl 
HETATM   25  C   UNL     1     -10.417  18.186  68.498  1.00  0.00    -0.267 A  
HETATM   26  C   UNL     1     -10.702  16.818  68.535  1.00  0.00    -0.358 A  
ENDBRANCH  17  20
ENDBRANCH  15  16
ENDBRANCH  14  15
ENDBRANCH  11  14
ENDBRANCH   3   8
TORSDOF 5
ENDMDL
MODEL       35
REMARK 921   NORMALIZED FREE ENERGY PREDICTED BY IDOCK:   -5.89 KCAL/MOL
REMARK 922        TOTAL FREE ENERGY PREDICTED BY IDOCK:   -8.62 KCAL/MOL
REMARK 923 INTER-LIGAND FREE ENERGY PREDICTED BY IDOCK:   -8.23 KCAL/MOL
REMARK 924 INTRA-LIGAND FREE ENERGY PREDICTED BY IDOCK:   -0.39 KCAL/MOL
REMARK 927      BINDING AFFINITY PREDICTED BY RF-SCORE:    0.00 PKD
ROOT
HETATM    1  C   UNL     1     -10.586  13.540  64.366  1.00  0.00    -0.394 C  
HETATM    2  C   UNL     1     -11.256  14.374  65.462  1.00  0.00    -0.330 C  
HETATM    3  O   UNL     1     -10.534  14.238  66.712  1.00  0.00    -0.270 OA 
HETATM    4  C   UNL     1     -12.776  14.158  65.550  1.00  0.00    -0.468 C  
HETATM    5  C   UNL     1     -11.067  15.857  65.072  1.00  0.00    -0.360 C  
HETATM    6  O   UNL     1     -10.458  16.595  66.034  1.00  0.00    -0.327 OA 
HETATM    7  O   UNL     1     -11.432  16.350  64.014  1.00  0.00    -1.048 OA 
ENDROOT
BRANCH   3   8
HETATM    8  C   UNL     1     -10.887  13.290  67.625  1.00  0.00    -0.258 A  
HETATM    9  C   UNL     1     -11.647  13.522  68.762  1.00  0.00    -0.362 A  
HETATM   10  C   UNL     1     -11.864  12.500  69.683  1.00  0.00    -0.382 A  
HETATM   11  C   UNL     1     -11.383  11.207  69.456  1.00  0.00    -0.359 A  
HETATM   12  C   UNL     1     -10.439  11.995  67.360  1.00  0.00    -0.239 A  
HETATM   13  C   UNL     1     -10.676  10.960  68.272  1.00  0.00    -0.244 A  
BRANCH  11  14
HETATM   14  C   UNL     1     -11.534  10.111  70.490  1.00  0.00    -0.417 C  
BRANCH  14  15
HETATM   15  C   UNL     1     -10.208   9.555  71.023  1.00  0.00    -0.262 C  
BRANCH  15  16
HETATM   16  N   UNL     1     -10.350   8.241  71.611  1.00  0.00    -0.208 N  
HETATM   17  C   UNL     1     -10.478   7.123  70.810  1.00  0.00    -0.212 C  
HETATM   18  H   UNL     1     -10.355   8.138  72.626  1.00  0.00     0.000 HD 
HETATM   19  O   UNL     1     -10.545   7.166  69.587  1.00  0.00    -0.222 OA 
BRANCH  17  20
HETATM   20  C   UNL     1     -10.475   5.818  71.514  1.00  0.00    -0.291 A  
HETATM   21  C   UNL     1      -9.719   4.738  71.043  1.00  0.00    -0.257 A  
HETATM   22  C   UNL     1      -9.751   3.517  71.720  1.00  0.00    -0.235 A  
HETATM   23  C   UNL     1     -10.531   3.381  72.869  1.00  0.00    -0.153 A  
HETATM   24 CL   UNL     1     -10.569   1.873  73.697  1.00  0.00    -0.193 Cl 
HETATM   25  C   UNL     1     -11.272   4.457  73.354  1.00  0.00    -0.386 A  
HETATM   26  C   UNL     1     -11.241   5.681  72.679  1.00  0.00    -0.350 A  
ENDBRANCH  17  20
ENDBRANCH  15  16
ENDBRANCH  14  15
ENDBRANCH  11  14
ENDBRANCH   3   8
TORSDOF 5
ENDMDL
MODEL       36
REMARK 921   NORMALIZED FREE ENERGY PREDICTED BY IDOCK:   -5.89 KCAL/MOL
REMARK 922        TOTAL FREE ENERGY PREDICTED BY IDOCK:   -8.61 KCAL/MOL
REMARK 923 INTER-LIGAND FREE ENERGY PREDICTED BY IDOCK:   -7.92 KCAL/MOL
REMARK 924 INTRA-LIGAND FREE ENERGY PREDICTED BY IDOCK:   -0.69 KCAL/MOL
REMARK 927      BINDING AFFINITY PREDICTED BY RF-SCORE:    0.00 PKD
ROOT
HETATM    1  C   UNL     1      -6.881   9.572  62.410  1.00  0.00    -0.099 C  
HETATM    2  C   UNL     1      -7.099   9.260  63.894  1.00  0.00    -0.095 C  
HETATM    3  O   UNL     1      -8.492   8.944  64.144  1.00  0.00    -0.178 OA 
HETATM    4  C   UNL     1      -6.479  10.306  64.835  1.00  0.00    -0.113 C  
HETATM    5  C   UNL     1      -6.351   7.939  64.186  1.00  0.00    -0.057 C  
HETATM    6  O   UNL     1      -7.145   6.975  64.717  1.00  0.00    -0.056 OA 
HETATM    7  O   UNL     1      -5.159   7.755  63.983  1.00  0.00    -0.029 OA 
ENDROOT
BRANCH   3   8
HETATM    8  C   UNL     1      -9.373   9.913  64.519  1.00  0.00    -0.275 A  
HETATM    9  C   UNL     1      -9.804  10.140  65.818  1.00  0.00    -0.331 A  
HETATM   10  C   UNL     1     -10.786  11.093  66.078  1.00  0.00    -0.272 A  
HETATM   11  C   UNL     1     -11.311  11.888  65.054  1.00  0.00    -0.333 A  
HETATM   12  C   UNL     1      -9.853  10.729  63.494  1.00  0.00    -0.401 A  
HETATM   13  C   UNL     1     -10.822  11.704  63.754  1.00  0.00    -0.493 A  
BRANCH  11  14
HETATM   14  C   UNL     1     -12.442  12.863  65.307  1.00  0.00    -0.552 C  
BRANCH  14  15
HETATM   15  C   UNL     1     -11.992  14.234  65.827  1.00  0.00    -0.393 C  
BRANCH  15  16
HETATM   16  N   UNL     1     -12.239  14.402  67.243  1.00  0.00    -0.608 N  
HETATM   17  C   UNL     1     -11.198  14.352  68.148  1.00  0.00    -0.281 C  
HETATM   18  H   UNL     1     -13.190  14.560  67.575  1.00  0.00     0.000 HD 
HETATM   19  O   UNL     1     -10.038  14.104  67.838  1.00  0.00    -0.227 OA 
BRANCH  17  20
HETATM   20  C   UNL     1     -11.544  14.677  69.553  1.00  0.00    -0.350 A  
HETATM   21  C   UNL     1     -11.213  15.915  70.117  1.00  0.00    -0.368 A  
HETATM   22  C   UNL     1     -11.539  16.183  71.448  1.00  0.00    -0.495 A  
HETATM   23  C   UNL     1     -12.201  15.219  72.209  1.00  0.00    -0.383 A  
HETATM   24 CL   UNL     1     -12.596  15.554  73.849  1.00  0.00    -0.704 Cl 
HETATM   25  C   UNL     1     -12.549  13.991  71.648  1.00  0.00    -0.403 A  
HETATM   26  C   UNL     1     -12.225  13.720  70.316  1.00  0.00    -0.429 A  
ENDBRANCH  17  20
ENDBRANCH  15  16
ENDBRANCH  14  15
ENDBRANCH  11  14
ENDBRANCH   3   8
TORSDOF 5
ENDMDL
MODEL       37
REMARK 921   NORMALIZED FREE ENERGY PREDICTED BY IDOCK:   -5.89 KCAL/MOL
REMARK 922        TOTAL FREE ENERGY PREDICTED BY IDOCK:   -8.61 KCAL/MOL
REMARK 923 INTER-LIGAND FREE ENERGY PREDICTED BY IDOCK:   -9.43 KCAL/MOL
REMARK 924 INTRA-LIGAND FREE ENERGY PREDICTED BY IDOCK:    0.82 KCAL/MOL
REMARK 927      BINDING AFFINITY PREDICTED BY RF-SCORE:    0.00 PKD
ROOT
HETATM    1  C   UNL     1     -11.377  15.350  71.756  1.00  0.00    -0.457 C  
HETATM    2  C   UNL     1     -12.572  14.510  71.295  1.00  0.00    -0.345 C  
HETATM    3  O   UNL     1     -12.117  13.274  70.689  1.00  0.00    -0.348 OA 
HETATM    4  C   UNL     1     -13.600  15.308  70.478  1.00  0.00    -0.035 C  
HETATM    5  C   UNL     1     -13.315  14.055  72.572  1.00  0.00    -0.539 C  
HETATM    6  O   UNL     1     -13.459  12.709  72.662  1.00  0.00    -0.400 OA 
HETATM    7  O   UNL     1     -13.754  14.811  73.428  1.00  0.00    -0.323 OA 
ENDROOT
BRANCH   3   8
HETATM    8  C   UNL     1     -11.913  13.188  69.343  1.00  0.00    -0.291 A  
HETATM    9  C   UNL     1     -11.938  14.259  68.463  1.00  0.00    -0.352 A  
HETATM   10  C   UNL     1     -11.818  14.046  67.092  1.00  0.00    -0.444 A  
HETATM   11  C   UNL     1     -11.602  12.765  66.576  1.00  0.00    -0.435 A  
HETATM   12  C   UNL     1     -11.651  11.910  68.849  1.00  0.00    -0.370 A  
HETATM   13  C   UNL     1     -11.506  11.694  67.474  1.00  0.00    -0.360 A  
BRANCH  11  14
HETATM   14  C   UNL     1     -11.560  12.507  65.084  1.00  0.00    -0.395 C  
BRANCH  14  15
HETATM   15  C   UNL     1     -11.123  13.713  64.244  1.00  0.00    -0.315 C  
BRANCH  15  16
HETATM   16  N   UNL     1     -10.444  14.723  65.027  1.00  0.00    -0.417 N  
HETATM   17  C   UNL     1     -10.764  16.058  64.881  1.00  0.00    -0.316 C  
HETATM   18  H   UNL     1      -9.723  14.446  65.693  1.00  0.00     0.000 HD 
HETATM   19  O   UNL     1     -11.572  16.479  64.060  1.00  0.00    -1.154 OA 
BRANCH  17  20
HETATM   20  C   UNL     1     -10.109  16.989  65.831  1.00  0.00    -0.281 A  
HETATM   21  C   UNL     1     -10.532  18.318  65.957  1.00  0.00    -0.380 A  
HETATM   22  C   UNL     1      -9.882  19.174  66.850  1.00  0.00    -0.403 A  
HETATM   23  C   UNL     1      -8.819  18.698  67.617  1.00  0.00    -0.275 A  
HETATM   24 CL   UNL     1      -8.020  19.759  68.712  1.00  0.00    -0.301 Cl 
HETATM   25  C   UNL     1      -8.404  17.372  67.509  1.00  0.00    -0.212 A  
HETATM   26  C   UNL     1      -9.053  16.513  66.618  1.00  0.00    -0.283 A  
ENDBRANCH  17  20
ENDBRANCH  15  16
ENDBRANCH  14  15
ENDBRANCH  11  14
ENDBRANCH   3   8
TORSDOF 5
ENDMDL
MODEL       38
REMARK 921   NORMALIZED FREE ENERGY PREDICTED BY IDOCK:   -5.85 KCAL/MOL
REMARK 922        TOTAL FREE ENERGY PREDICTED BY IDOCK:   -8.57 KCAL/MOL
REMARK 923 INTER-LIGAND FREE ENERGY PREDICTED BY IDOCK:   -7.27 KCAL/MOL
REMARK 924 INTRA-LIGAND FREE ENERGY PREDICTED BY IDOCK:   -1.30 KCAL/MOL
REMARK 927      BINDING AFFINITY PREDICTED BY RF-SCORE:    0.00 PKD
ROOT
HETATM    1  C   UNL     1     -10.604   4.979  66.392  1.00  0.00    -0.317 C  
HETATM    2  C   UNL     1      -9.646   6.089  66.838  1.00  0.00    -0.140 C  
HETATM    3  O   UNL     1      -9.272   5.904  68.227  1.00  0.00    -0.117 OA 
HETATM    4  C   UNL     1     -10.131   7.499  66.467  1.00  0.00    -0.194 C  
HETATM    5  C   UNL     1      -8.329   5.880  66.058  1.00  0.00    -0.128 C  
HETATM    6  O   UNL     1      -7.241   5.756  66.859  1.00  0.00    -0.072 OA 
HETATM    7  O   UNL     1      -8.242   5.841  64.838  1.00  0.00    -0.130 OA 
ENDROOT
BRANCH   3   8
HETATM    8  C   UNL     1      -9.972   6.509  69.228  1.00  0.00    -0.153 A  
HETATM    9  C   UNL     1     -11.218   6.109  69.684  1.00  0.00    -0.488 A  
HETATM   10  C   UNL     1     -11.891   6.860  70.645  1.00  0.00    -0.418 A  
HETATM   11  C   UNL     1     -11.303   7.991  71.220  1.00  0.00    -0.295 A  
HETATM   12  C   UNL     1      -9.351   7.608  69.824  1.00  0.00    -0.150 A  
HETATM   13  C   UNL     1     -10.014   8.352  70.806  1.00  0.00    -0.222 A  
BRANCH  11  14
HETATM   14  C   UNL     1     -12.058   8.868  72.197  1.00  0.00    -0.430 C  
BRANCH  14  15
HETATM   15  C   UNL     1     -13.129   9.758  71.554  1.00  0.00    -0.411 C  
BRANCH  15  16
HETATM   16  N   UNL     1     -12.761  10.205  70.228  1.00  0.00    -0.552 N  
HETATM   17  C   UNL     1     -12.267  11.478  70.028  1.00  0.00    -0.278 C  
HETATM   18  H   UNL     1     -12.868   9.574  69.434  1.00  0.00     0.000 HD 
HETATM   19  O   UNL     1     -12.167  12.317  70.917  1.00  0.00    -0.353 OA 
BRANCH  17  20
HETATM   20  C   UNL     1     -11.792  11.781  68.656  1.00  0.00    -0.369 A  
HETATM   21  C   UNL     1     -11.186  10.800  67.862  1.00  0.00    -0.386 A  
HETATM   22  C   UNL     1     -10.735  11.122  66.580  1.00  0.00    -0.322 A  
HETATM   23  C   UNL     1     -10.897  12.420  66.094  1.00  0.00    -0.273 A  
HETATM   24 CL   UNL     1     -10.335  12.811  64.515  1.00  0.00    -0.368 Cl 
HETATM   25  C   UNL     1     -11.515  13.397  66.872  1.00  0.00    -0.376 A  
HETATM   26  C   UNL     1     -11.969  13.076  68.155  1.00  0.00    -0.322 A  
ENDBRANCH  17  20
ENDBRANCH  15  16
ENDBRANCH  14  15
ENDBRANCH  11  14
ENDBRANCH   3   8
TORSDOF 5
ENDMDL
MODEL       39
REMARK 921   NORMALIZED FREE ENERGY PREDICTED BY IDOCK:   -5.82 KCAL/MOL
REMARK 922        TOTAL FREE ENERGY PREDICTED BY IDOCK:   -8.52 KCAL/MOL
REMARK 923 INTER-LIGAND FREE ENERGY PREDICTED BY IDOCK:   -8.19 KCAL/MOL
REMARK 924 INTRA-LIGAND FREE ENERGY PREDICTED BY IDOCK:   -0.32 KCAL/MOL
REMARK 927      BINDING AFFINITY PREDICTED BY RF-SCORE:    0.00 PKD
ROOT
HETATM    1  C   UNL     1     -10.741   8.454  69.378  1.00  0.00    -0.162 C  
HETATM    2  C   UNL     1      -9.947   7.977  68.157  1.00  0.00    -0.185 C  
HETATM    3  O   UNL     1      -9.208   9.080  67.574  1.00  0.00    -0.134 OA 
HETATM    4  C   UNL     1     -10.784   7.146  67.172  1.00  0.00    -0.422 C  
HETATM    5  C   UNL     1      -8.852   7.023  68.684  1.00  0.00    -0.128 C  
HETATM    6  O   UNL     1      -7.597   7.390  68.324  1.00  0.00    -0.109 OA 
HETATM    7  O   UNL     1      -9.065   6.019  69.351  1.00  0.00    -0.131 OA 
ENDROOT
BRANCH   3   8
HETATM    8  C   UNL     1      -9.744   9.826  66.566  1.00  0.00    -0.209 A  
HETATM    9  C   UNL     1      -9.429   9.694  65.222  1.00  0.00    -0.342 A  
HETATM   10  C   UNL     1      -9.960  10.578  64.285  1.00  0.00    -0.398 A  
HETATM   11  C   UNL     1     -10.870  11.570  64.662  1.00  0.00    -0.372 A  
HETATM   12  C   UNL     1     -10.686  10.781  66.952  1.00  0.00    -0.309 A  
HETATM   13  C   UNL     1     -11.240  11.655  66.011  1.00  0.00    -0.299 A  
BRANCH  11  14
HETATM   14  C   UNL     1     -11.384  12.593  63.671  1.00  0.00    -0.544 C  
BRANCH  14  15
HETATM   15  C   UNL     1     -12.100  13.790  64.308  1.00  0.00    -0.440 C  
BRANCH  15  16
HETATM   16  N   UNL     1     -11.201  14.648  65.048  1.00  0.00    -0.365 N  
HETATM   17  C   UNL     1     -11.140  16.001  64.779  1.00  0.00    -0.365 C  
HETATM   18  H   UNL     1     -10.607  14.251  65.776  1.00  0.00     0.000 HD 
HETATM   19  O   UNL     1     -11.772  16.546  63.881  1.00  0.00    -1.148 OA 
BRANCH  17  20
HETATM   20  C   UNL     1     -10.291  16.806  65.691  1.00  0.00    -0.284 A  
HETATM   21  C   UNL     1      -9.147  16.263  66.290  1.00  0.00    -0.366 A  
HETATM   22  C   UNL     1      -8.379  17.044  67.157  1.00  0.00    -0.213 A  
HETATM   23  C   UNL     1      -8.749  18.363  67.416  1.00  0.00    -0.260 A  
HETATM   24 CL   UNL     1      -7.800  19.317  68.488  1.00  0.00    -0.371 Cl 
HETATM   25  C   UNL     1      -9.877  18.915  66.809  1.00  0.00    -0.387 A  
HETATM   26  C   UNL     1     -10.647  18.137  65.941  1.00  0.00    -0.247 A  
ENDBRANCH  17  20
ENDBRANCH  15  16
ENDBRANCH  14  15
ENDBRANCH  11  14
ENDBRANCH   3   8
TORSDOF 5
ENDMDL
MODEL       40
REMARK 921   NORMALIZED FREE ENERGY PREDICTED BY IDOCK:   -5.82 KCAL/MOL
REMARK 922        TOTAL FREE ENERGY PREDICTED BY IDOCK:   -8.52 KCAL/MOL
REMARK 923 INTER-LIGAND FREE ENERGY PREDICTED BY IDOCK:   -7.06 KCAL/MOL
REMARK 924 INTRA-LIGAND FREE ENERGY PREDICTED BY IDOCK:   -1.46 KCAL/MOL
REMARK 927      BINDING AFFINITY PREDICTED BY RF-SCORE:    0.00 PKD
ROOT
HETATM    1  C   UNL     1     -10.439  15.142  69.781  1.00  0.00    -0.248 C  
HETATM    2  C   UNL     1     -11.611  14.194  69.508  1.00  0.00    -0.295 C  
HETATM    3  O   UNL     1     -11.231  12.826  69.800  1.00  0.00    -0.090 OA 
HETATM    4  C   UNL     1     -12.273  14.419  68.139  1.00  0.00    -0.142 C  
HETATM    5  C   UNL     1     -12.699  14.518  70.557  1.00  0.00    -0.345 C  
HETATM    6  O   UNL     1     -13.076  13.442  71.294  1.00  0.00    -0.311 OA 
HETATM    7  O   UNL     1     -13.200  15.621  70.722  1.00  0.00    -0.517 OA 
ENDROOT
BRANCH   3   8
HETATM    8  C   UNL     1     -10.730  12.015  68.824  1.00  0.00    -0.220 A  
HETATM    9  C   UNL     1      -9.404  11.977  68.422  1.00  0.00    -0.175 A  
HETATM   10  C   UNL     1      -9.018  11.183  67.345  1.00  0.00    -0.139 A  
HETATM   11  C   UNL     1      -9.937  10.358  66.688  1.00  0.00    -0.262 A  
HETATM   12  C   UNL     1     -11.650  11.164  68.210  1.00  0.00    -0.359 A  
HETATM   13  C   UNL     1     -11.262  10.347  67.143  1.00  0.00    -0.086 A  
BRANCH  11  14
HETATM   14  C   UNL     1      -9.551   9.561  65.460  1.00  0.00    -0.349 C  
BRANCH  14  15
HETATM   15  C   UNL     1      -9.502  10.377  64.163  1.00  0.00    -0.300 C  
BRANCH  15  16
HETATM   16  N   UNL     1      -9.540  11.804  64.400  1.00  0.00    -0.431 N  
HETATM   17  C   UNL     1     -10.738  12.489  64.370  1.00  0.00    -0.350 C  
HETATM   18  H   UNL     1      -8.674  12.308  64.590  1.00  0.00     0.000 HD 
HETATM   19  O   UNL     1     -11.812  11.970  64.087  1.00  0.00    -0.376 OA 
BRANCH  17  20
HETATM   20  C   UNL     1     -10.678  13.918  64.764  1.00  0.00    -0.437 A  
HETATM   21  C   UNL     1      -9.662  14.401  65.598  1.00  0.00    -0.258 A  
HETATM   22  C   UNL     1      -9.644  15.749  65.963  1.00  0.00    -0.388 A  
HETATM   23  C   UNL     1     -10.634  16.610  65.489  1.00  0.00    -0.258 A  
HETATM   24 CL   UNL     1     -10.608  18.268  65.947  1.00  0.00    -0.378 Cl 
HETATM   25  C   UNL     1     -11.638  16.139  64.645  1.00  0.00    -0.133 A  
HETATM   26  C   UNL     1     -11.658  14.791  64.276  1.00  0.00    -0.215 A  
ENDBRANCH  17  20
ENDBRANCH  15  16
ENDBRANCH  14  15
ENDBRANCH  11  14
ENDBRANCH   3   8
TORSDOF 5
ENDMDL
MODEL       41
REMARK 921   NORMALIZED FREE ENERGY PREDICTED BY IDOCK:   -5.80 KCAL/MOL
REMARK 922        TOTAL FREE ENERGY PREDICTED BY IDOCK:   -8.50 KCAL/MOL
REMARK 923 INTER-LIGAND FREE ENERGY PREDICTED BY IDOCK:   -7.27 KCAL/MOL
REMARK 924 INTRA-LIGAND FREE ENERGY PREDICTED BY IDOCK:   -1.23 KCAL/MOL
REMARK 927      BINDING AFFINITY PREDICTED BY RF-SCORE:    0.00 PKD
ROOT
HETATM    1  C   UNL     1      -7.949   8.084  72.143  1.00  0.00    -0.154 C  
HETATM    2  C   UNL     1      -9.368   7.831  71.623  1.00  0.00    -0.140 C  
HETATM    3  O   UNL     1      -9.326   7.027  70.416  1.00  0.00    -0.159 OA 
HETATM    4  C   UNL     1     -10.224   9.104  71.539  1.00  0.00    -0.403 C  
HETATM    5  C   UNL     1     -10.066   6.923  72.660  1.00  0.00    -0.175 C  
HETATM    6  O   UNL     1     -10.556   5.774  72.129  1.00  0.00    -0.205 OA 
HETATM    7  O   UNL     1     -10.195   7.193  73.846  1.00  0.00    -0.346 OA 
ENDROOT
BRANCH   3   8
HETATM    8  C   UNL     1      -9.295   7.612  69.186  1.00  0.00    -0.147 A  
HETATM    9  C   UNL     1      -8.199   8.264  68.640  1.00  0.00    -0.120 A  
HETATM   10  C   UNL     1      -8.307   8.916  67.414  1.00  0.00    -0.108 A  
HETATM   11  C   UNL     1      -9.494   8.874  66.675  1.00  0.00    -0.261 A  
HETATM   12  C   UNL     1     -10.471   7.522  68.440  1.00  0.00    -0.212 A  
HETATM   13  C   UNL     1     -10.576   8.156  67.197  1.00  0.00    -0.355 A  
BRANCH  11  14
HETATM   14  C   UNL     1      -9.653   9.653  65.386  1.00  0.00    -0.361 C  
BRANCH  14  15
HETATM   15  C   UNL     1      -9.486  11.170  65.537  1.00  0.00    -0.221 C  
BRANCH  15  16
HETATM   16  N   UNL     1      -9.990  11.664  66.800  1.00  0.00    -0.202 N  
HETATM   17  C   UNL     1     -11.294  12.101  66.913  1.00  0.00    -0.343 C  
HETATM   18  H   UNL     1      -9.376  11.690  67.614  1.00  0.00     0.000 HD 
HETATM   19  O   UNL     1     -12.076  12.162  65.971  1.00  0.00    -0.612 OA 
BRANCH  17  20
HETATM   20  C   UNL     1     -11.743  12.453  68.282  1.00  0.00    -0.398 A  
HETATM   21  C   UNL     1     -11.974  13.783  68.655  1.00  0.00    -0.401 A  
HETATM   22  C   UNL     1     -12.381  14.081  69.957  1.00  0.00    -0.397 A  
HETATM   23  C   UNL     1     -12.563  13.051  70.880  1.00  0.00    -0.280 A  
HETATM   24 CL   UNL     1     -13.060  13.426  72.484  1.00  0.00    -0.484 Cl 
HETATM   25  C   UNL     1     -12.352  11.724  70.511  1.00  0.00    -0.387 A  
HETATM   26  C   UNL     1     -11.946  11.422  69.208  1.00  0.00    -0.400 A  
ENDBRANCH  17  20
ENDBRANCH  15  16
ENDBRANCH  14  15
ENDBRANCH  11  14
ENDBRANCH   3   8
TORSDOF 5
ENDMDL
MODEL       42
REMARK 921   NORMALIZED FREE ENERGY PREDICTED BY IDOCK:   -5.77 KCAL/MOL
REMARK 922        TOTAL FREE ENERGY PREDICTED BY IDOCK:   -8.45 KCAL/MOL
REMARK 923 INTER-LIGAND FREE ENERGY PREDICTED BY IDOCK:   -7.55 KCAL/MOL
REMARK 924 INTRA-LIGAND FREE ENERGY PREDICTED BY IDOCK:   -0.90 KCAL/MOL
REMARK 927      BINDING AFFINITY PREDICTED BY RF-SCORE:    0.00 PKD
ROOT
HETATM    1  C   UNL     1     -11.534   7.953  72.645  1.00  0.00    -0.454 C  
HETATM    2  C   UNL     1     -10.062   7.878  72.230  1.00  0.00    -0.236 C  
HETATM    3  O   UNL     1      -9.614   9.163  71.728  1.00  0.00    -0.283 OA 
HETATM    4  C   UNL     1      -9.740   6.670  71.335  1.00  0.00    -0.181 C  
HETATM    5  C   UNL     1      -9.244   7.670  73.524  1.00  0.00    -0.275 C  
HETATM    6  O   UNL     1      -8.286   8.612  73.715  1.00  0.00    -0.388 OA 
HETATM    7  O   UNL     1      -9.410   6.749  74.312  1.00  0.00    -0.196 OA 
ENDROOT
BRANCH   3   8
HETATM    8  C   UNL     1      -9.671   9.453  70.397  1.00  0.00    -0.261 A  
HETATM    9  C   UNL     1     -10.823   9.437  69.626  1.00  0.00    -0.245 A  
HETATM   10  C   UNL     1     -10.754   9.652  68.251  1.00  0.00    -0.262 A  
HETATM   11  C   UNL     1      -9.539   9.953  67.627  1.00  0.00    -0.172 A  
HETATM   12  C   UNL     1      -8.458   9.798  69.798  1.00  0.00    -0.206 A  
HETATM   13  C   UNL     1      -8.388  10.037  68.421  1.00  0.00    -0.111 A  
BRANCH  11  14
HETATM   14  C   UNL     1      -9.434  10.098  66.124  1.00  0.00    -0.238 C  
BRANCH  14  15
HETATM   15  C   UNL     1      -9.608  11.533  65.611  1.00  0.00    -0.231 C  
BRANCH  15  16
HETATM   16  N   UNL     1      -9.926  12.468  66.668  1.00  0.00    -0.231 N  
HETATM   17  C   UNL     1     -11.235  12.834  66.910  1.00  0.00    -0.296 C  
HETATM   18  H   UNL     1      -9.178  12.861  67.239  1.00  0.00     0.000 HD 
HETATM   19  O   UNL     1     -12.185  12.457  66.232  1.00  0.00    -0.620 OA 
BRANCH  17  20
HETATM   20  C   UNL     1     -11.460  13.686  68.103  1.00  0.00    -0.348 A  
HETATM   21  C   UNL     1     -11.168  15.056  68.086  1.00  0.00    -0.316 A  
HETATM   22  C   UNL     1     -11.376  15.826  69.232  1.00  0.00    -0.350 A  
HETATM   23  C   UNL     1     -11.880  15.230  70.388  1.00  0.00    -0.324 A  
HETATM   24 CL   UNL     1     -12.130  16.185  71.797  1.00  0.00    -0.541 Cl 
HETATM   25  C   UNL     1     -12.189  13.871  70.407  1.00  0.00    -0.438 A  
HETATM   26  C   UNL     1     -11.984  13.097  69.261  1.00  0.00    -0.344 A  
ENDBRANCH  17  20
ENDBRANCH  15  16
ENDBRANCH  14  15
ENDBRANCH  11  14
ENDBRANCH   3   8
TORSDOF 5
ENDMDL
MODEL       43
REMARK 921   NORMALIZED FREE ENERGY PREDICTED BY IDOCK:   -5.75 KCAL/MOL
REMARK 922        TOTAL FREE ENERGY PREDICTED BY IDOCK:   -8.44 KCAL/MOL
REMARK 923 INTER-LIGAND FREE ENERGY PREDICTED BY IDOCK:   -8.02 KCAL/MOL
REMARK 924 INTRA-LIGAND FREE ENERGY PREDICTED BY IDOCK:   -0.42 KCAL/MOL
REMARK 927      BINDING AFFINITY PREDICTED BY RF-SCORE:    0.00 PKD
ROOT
HETATM    1  C   UNL     1     -11.397  15.712  66.841  1.00  0.00    -0.017 C  
HETATM    2  C   UNL     1     -11.261  14.777  65.635  1.00  0.00    -0.343 C  
HETATM    3  O   UNL     1     -12.065  13.586  65.827  1.00  0.00    -0.382 OA 
HETATM    4  C   UNL     1      -9.803  14.530  65.216  1.00  0.00    -0.221 C  
HETATM    5  C   UNL     1     -11.925  15.495  64.438  1.00  0.00    -0.183 C  
HETATM    6  O   UNL     1     -12.904  14.766  63.847  1.00  0.00    -0.694 OA 
HETATM    7  O   UNL     1     -11.610  16.605  64.031  1.00  0.00    -1.197 OA 
ENDROOT
BRANCH   3   8
HETATM    8  C   UNL     1     -11.532  12.463  66.386  1.00  0.00    -0.373 A  
HETATM    9  C   UNL     1     -10.822  11.490  65.698  1.00  0.00    -0.310 A  
HETATM   10  C   UNL     1     -10.407  10.330  66.349  1.00  0.00    -0.262 A  
HETATM   11  C   UNL     1     -10.634  10.148  67.717  1.00  0.00    -0.304 A  
HETATM   12  C   UNL     1     -11.725  12.318  67.760  1.00  0.00    -0.403 A  
HETATM   13  C   UNL     1     -11.289  11.165  68.422  1.00  0.00    -0.357 A  
BRANCH  11  14
HETATM   14  C   UNL     1     -10.269   8.855  68.416  1.00  0.00    -0.231 C  
BRANCH  14  15
HETATM   15  C   UNL     1     -10.458   8.881  69.937  1.00  0.00    -0.214 C  
BRANCH  15  16
HETATM   16  N   UNL     1     -10.181   7.603  70.556  1.00  0.00    -0.200 N  
HETATM   17  C   UNL     1     -11.106   7.014  71.394  1.00  0.00    -0.245 C  
HETATM   18  H   UNL     1      -9.294   7.134  70.373  1.00  0.00     0.000 HD 
HETATM   19  O   UNL     1     -12.166   7.539  71.715  1.00  0.00    -0.292 OA 
BRANCH  17  20
HETATM   20  C   UNL     1     -10.779   5.644  71.860  1.00  0.00    -0.299 A  
HETATM   21  C   UNL     1     -11.313   5.131  73.048  1.00  0.00    -0.381 A  
HETATM   22  C   UNL     1     -10.971   3.843  73.466  1.00  0.00    -0.343 A  
HETATM   23  C   UNL     1     -10.104   3.070  72.694  1.00  0.00    -0.158 A  
HETATM   24 CL   UNL     1      -9.684   1.486  73.218  1.00  0.00    -0.095 Cl 
HETATM   25  C   UNL     1      -9.582   3.568  71.502  1.00  0.00    -0.232 A  
HETATM   26  C   UNL     1      -9.924   4.856  71.080  1.00  0.00    -0.282 A  
ENDBRANCH  17  20
ENDBRANCH  15  16
ENDBRANCH  14  15
ENDBRANCH  11  14
ENDBRANCH   3   8
TORSDOF 5
ENDMDL
MODEL       44
REMARK 921   NORMALIZED FREE ENERGY PREDICTED BY IDOCK:   -5.73 KCAL/MOL
REMARK 922        TOTAL FREE ENERGY PREDICTED BY IDOCK:   -8.41 KCAL/MOL
REMARK 923 INTER-LIGAND FREE ENERGY PREDICTED BY IDOCK:   -7.27 KCAL/MOL
REMARK 924 INTRA-LIGAND FREE ENERGY PREDICTED BY IDOCK:   -1.14 KCAL/MOL
REMARK 927      BINDING AFFINITY PREDICTED BY RF-SCORE:    0.00 PKD
ROOT
HETATM    1  C   UNL     1     -11.539  12.470  65.063  1.00  0.00    -0.392 C  
HETATM    2  C   UNL     1     -10.748  12.509  66.373  1.00  0.00    -0.249 C  
HETATM    3  O   UNL     1      -9.494  11.796  66.227  1.00  0.00    -0.214 OA 
HETATM    4  C   UNL     1     -11.585  12.128  67.604  1.00  0.00    -0.413 C  
HETATM    5  C   UNL     1     -10.326  13.979  66.594  1.00  0.00    -0.278 C  
HETATM    6  O   UNL     1      -8.986  14.140  66.743  1.00  0.00    -0.242 OA 
HETATM    7  O   UNL     1     -11.100  14.925  66.649  1.00  0.00    -0.322 OA 
ENDROOT
BRANCH   3   8
HETATM    8  C   UNL     1      -9.397  10.476  66.550  1.00  0.00    -0.163 A  
HETATM    9  C   UNL     1      -9.883   9.429  65.781  1.00  0.00    -0.345 A  
HETATM   10  C   UNL     1      -9.821   8.120  66.254  1.00  0.00    -0.193 A  
HETATM   11  C   UNL     1      -9.211   7.822  67.477  1.00  0.00    -0.147 A  
HETATM   12  C   UNL     1      -8.744  10.190  67.750  1.00  0.00    -0.121 A  
HETATM   13  C   UNL     1      -8.659   8.874  68.218  1.00  0.00    -0.134 A  
BRANCH  11  14
HETATM   14  C   UNL     1      -9.217   6.418  68.044  1.00  0.00    -0.110 C  
BRANCH  14  15
HETATM   15  C   UNL     1     -10.480   6.060  68.837  1.00  0.00    -0.248 C  
BRANCH  15  16
HETATM   16  N   UNL     1     -11.175   7.226  69.336  1.00  0.00    -0.462 N  
HETATM   17  C   UNL     1     -11.342   7.417  70.693  1.00  0.00    -0.281 C  
HETATM   18  H   UNL     1     -11.545   7.914  68.680  1.00  0.00     0.000 HD 
HETATM   19  O   UNL     1     -10.984   6.610  71.543  1.00  0.00    -0.234 OA 
BRANCH  17  20
HETATM   20  C   UNL     1     -11.943   8.712  71.097  1.00  0.00    -0.320 A  
HETATM   21  C   UNL     1     -12.967   8.774  72.050  1.00  0.00    -0.437 A  
HETATM   22  C   UNL     1     -13.522  10.008  72.395  1.00  0.00    -0.232 A  
HETATM   23  C   UNL     1     -13.049  11.175  71.794  1.00  0.00    -0.431 A  
HETATM   24 CL   UNL     1     -13.740  12.691  72.221  1.00  0.00    -0.548 Cl 
HETATM   25  C   UNL     1     -12.018  11.121  70.857  1.00  0.00    -0.362 A  
HETATM   26  C   UNL     1     -11.459   9.888  70.511  1.00  0.00    -0.391 A  
ENDBRANCH  17  20
ENDBRANCH  15  16
ENDBRANCH  14  15
ENDBRANCH  11  14
ENDBRANCH   3   8
TORSDOF 5
ENDMDL
MODEL       45
REMARK 921   NORMALIZED FREE ENERGY PREDICTED BY IDOCK:   -5.71 KCAL/MOL
REMARK 922        TOTAL FREE ENERGY PREDICTED BY IDOCK:   -8.38 KCAL/MOL
REMARK 923 INTER-LIGAND FREE ENERGY PREDICTED BY IDOCK:   -7.25 KCAL/MOL
REMARK 924 INTRA-LIGAND FREE ENERGY PREDICTED BY IDOCK:   -1.13 KCAL/MOL
REMARK 927      BINDING AFFINITY PREDICTED BY RF-SCORE:    0.00 PKD
ROOT
HETATM    1  C   UNL     1     -10.340   8.115  72.273  1.00  0.00    -0.361 C  
HETATM    2  C   UNL     1     -11.359   8.117  71.130  1.00  0.00    -0.269 C  
HETATM    3  O   UNL     1     -11.374   6.828  70.466  1.00  0.00    -0.297 OA 
HETATM    4  C   UNL     1     -11.236   9.337  70.204  1.00  0.00    -0.237 C  
HETATM    5  C   UNL     1     -12.757   8.225  71.780  1.00  0.00    -0.336 C  
HETATM    6  O   UNL     1     -13.597   7.220  71.425  1.00  0.00    -0.388 OA 
HETATM    7  O   UNL     1     -13.106   9.123  72.533  1.00  0.00    -0.429 OA 
ENDROOT
BRANCH   3   8
HETATM    8  C   UNL     1     -10.590   6.594  69.375  1.00  0.00    -0.240 A  
HETATM    9  C   UNL     1      -9.205   6.528  69.388  1.00  0.00    -0.144 A  
HETATM   10  C   UNL     1      -8.496   6.384  68.197  1.00  0.00    -0.115 A  
HETATM   11  C   UNL     1      -9.160   6.234  66.975  1.00  0.00    -0.125 A  
HETATM   12  C   UNL     1     -11.268   6.399  68.170  1.00  0.00    -0.270 A  
HETATM   13  C   UNL     1     -10.560   6.230  66.975  1.00  0.00    -0.386 A  
BRANCH  11  14
HETATM   14  C   UNL     1      -8.403   6.168  65.665  1.00  0.00    -0.146 C  
BRANCH  14  15
HETATM   15  C   UNL     1      -7.880   7.520  65.165  1.00  0.00    -0.122 C  
BRANCH  15  16
HETATM   16  N   UNL     1      -8.914   8.530  65.101  1.00  0.00    -0.411 N  
HETATM   17  C   UNL     1      -8.949   9.559  66.020  1.00  0.00    -0.163 C  
HETATM   18  H   UNL     1      -9.624   8.481  64.370  1.00  0.00     0.000 HD 
HETATM   19  O   UNL     1      -8.173   9.655  66.964  1.00  0.00    -0.116 OA 
BRANCH  17  20
HETATM   20  C   UNL     1      -9.965  10.612  65.776  1.00  0.00    -0.315 A  
HETATM   21  C   UNL     1     -10.344  10.972  64.477  1.00  0.00    -0.420 A  
HETATM   22  C   UNL     1     -11.291  11.979  64.281  1.00  0.00    -0.433 A  
HETATM   23  C   UNL     1     -11.863  12.617  65.382  1.00  0.00    -0.427 A  
HETATM   24 CL   UNL     1     -13.026  13.860  65.134  1.00  0.00    -0.371 Cl 
HETATM   25  C   UNL     1     -11.503  12.252  66.679  1.00  0.00    -0.431 A  
HETATM   26  C   UNL     1     -10.556  11.243  66.877  1.00  0.00    -0.300 A  
ENDBRANCH  17  20
ENDBRANCH  15  16
ENDBRANCH  14  15
ENDBRANCH  11  14
ENDBRANCH   3   8
TORSDOF 5
ENDMDL
MODEL       46
REMARK 921   NORMALIZED FREE ENERGY PREDICTED BY IDOCK:   -5.66 KCAL/MOL
REMARK 922        TOTAL FREE ENERGY PREDICTED BY IDOCK:   -8.31 KCAL/MOL
REMARK 923 INTER-LIGAND FREE ENERGY PREDICTED BY IDOCK:   -7.93 KCAL/MOL
REMARK 924 INTRA-LIGAND FREE ENERGY PREDICTED BY IDOCK:   -0.39 KCAL/MOL
REMARK 927      BINDING AFFINITY PREDICTED BY RF-SCORE:    0.00 PKD
ROOT
HETATM    1  C   UNL     1      -8.420   7.090  67.164  1.00  0.00    -0.121 C  
HETATM    2  C   UNL     1      -9.058   8.085  68.138  1.00  0.00    -0.134 C  
HETATM    3  O   UNL     1     -10.357   8.506  67.650  1.00  0.00    -0.226 OA 
HETATM    4  C   UNL     1      -8.111   9.220  68.559  1.00  0.00    -0.106 C  
HETATM    5  C   UNL     1      -9.374   7.301  69.432  1.00  0.00    -0.151 C  
HETATM    6  O   UNL     1     -10.677   7.371  69.801  1.00  0.00    -0.236 OA 
HETATM    7  O   UNL     1      -8.548   6.682  70.089  1.00  0.00    -0.137 OA 
ENDROOT
BRANCH   3   8
HETATM    8  C   UNL     1     -10.488   9.624  66.881  1.00  0.00    -0.212 A  
HETATM    9  C   UNL     1     -11.136  10.787  67.269  1.00  0.00    -0.339 A  
HETATM   10  C   UNL     1     -11.301  11.835  66.367  1.00  0.00    -0.361 A  
HETATM   11  C   UNL     1     -10.762  11.771  65.078  1.00  0.00    -0.344 A  
HETATM   12  C   UNL     1      -9.905   9.562  65.615  1.00  0.00    -0.343 A  
HETATM   13  C   UNL     1     -10.048  10.623  64.713  1.00  0.00    -0.412 A  
BRANCH  11  14
HETATM   14  C   UNL     1     -11.011  12.863  64.059  1.00  0.00    -0.447 C  
BRANCH  14  15
HETATM   15  C   UNL     1     -11.775  14.076  64.604  1.00  0.00    -0.405 C  
BRANCH  15  16
HETATM   16  N   UNL     1     -10.912  15.027  65.269  1.00  0.00    -0.359 N  
HETATM   17  C   UNL     1     -10.907  16.355  64.892  1.00  0.00    -0.250 C  
HETATM   18  H   UNL     1     -10.301  14.715  66.024  1.00  0.00     0.000 HD 
HETATM   19  O   UNL     1     -11.562  16.800  63.956  1.00  0.00    -1.195 OA 
BRANCH  17  20
HETATM   20  C   UNL     1     -10.091  17.265  65.732  1.00  0.00    -0.159 A  
HETATM   21  C   UNL     1     -10.424  18.617  65.879  1.00  0.00    -0.395 A  
HETATM   22  C   UNL     1      -9.625  19.450  66.664  1.00  0.00    -0.429 A  
HETATM   23  C   UNL     1      -8.501  18.930  67.307  1.00  0.00    -0.277 A  
HETATM   24 CL   UNL     1      -7.519  19.963  68.270  1.00  0.00    -0.336 Cl 
HETATM   25  C   UNL     1      -8.173  17.581  67.180  1.00  0.00    -0.229 A  
HETATM   26  C   UNL     1      -8.972  16.745  66.395  1.00  0.00    -0.325 A  
ENDBRANCH  17  20
ENDBRANCH  15  16
ENDBRANCH  14  15
ENDBRANCH  11  14
ENDBRANCH   3   8
TORSDOF 5
ENDMDL
MODEL       47
REMARK 921   NORMALIZED FREE ENERGY PREDICTED BY IDOCK:   -5.65 KCAL/MOL
REMARK 922        TOTAL FREE ENERGY PREDICTED BY IDOCK:   -8.30 KCAL/MOL
REMARK 923 INTER-LIGAND FREE ENERGY PREDICTED BY IDOCK:   -7.80 KCAL/MOL
REMARK 924 INTRA-LIGAND FREE ENERGY PREDICTED BY IDOCK:   -0.50 KCAL/MOL
REMARK 927      BINDING AFFINITY PREDICTED BY RF-SCORE:    0.00 PKD
ROOT
HETATM    1  C   UNL     1     -12.231  14.244  68.263  1.00  0.00    -0.181 C  
HETATM    2  C   UNL     1     -11.573  13.088  67.503  1.00  0.00    -0.356 C  
HETATM    3  O   UNL     1     -12.209  11.831  67.847  1.00  0.00    -0.538 OA 
HETATM    4  C   UNL     1     -10.039  13.097  67.587  1.00  0.00    -0.221 C  
HETATM    5  C   UNL     1     -11.911  13.288  66.009  1.00  0.00    -0.423 C  
HETATM    6  O   UNL     1     -12.526  12.217  65.446  1.00  0.00    -0.596 OA 
HETATM    7  O   UNL     1     -11.650  14.295  65.365  1.00  0.00    -0.329 OA 
ENDROOT
BRANCH   3   8
HETATM    8  C   UNL     1     -11.725  11.055  68.858  1.00  0.00    -0.330 A  
HETATM    9  C   UNL     1     -12.316  10.909  70.104  1.00  0.00    -0.399 A  
HETATM   10  C   UNL     1     -11.683  10.170  71.101  1.00  0.00    -0.453 A  
HETATM   11  C   UNL     1     -10.478   9.505  70.852  1.00  0.00    -0.382 A  
HETATM   12  C   UNL     1     -10.548  10.360  68.580  1.00  0.00    -0.237 A  
HETATM   13  C   UNL     1      -9.920   9.597  69.571  1.00  0.00    -0.223 A  
BRANCH  11  14
HETATM   14  C   UNL     1      -9.735   8.774  71.951  1.00  0.00    -0.386 C  
BRANCH  14  15
HETATM   15  C   UNL     1     -10.107   7.293  72.093  1.00  0.00    -0.181 C  
BRANCH  15  16
HETATM   16  N   UNL     1      -9.870   6.539  70.881  1.00  0.00    -0.183 N  
HETATM   17  C   UNL     1     -10.922   6.160  70.072  1.00  0.00    -0.372 C  
HETATM   18  H   UNL     1      -8.917   6.285  70.622  1.00  0.00     0.000 HD 
HETATM   19  O   UNL     1     -12.100   6.370  70.343  1.00  0.00    -0.305 OA 
BRANCH  17  20
HETATM   20  C   UNL     1     -10.554   5.516  68.788  1.00  0.00    -0.236 A  
HETATM   21  C   UNL     1     -10.891   6.096  67.559  1.00  0.00    -0.422 A  
HETATM   22  C   UNL     1     -10.543   5.454  66.368  1.00  0.00    -0.322 A  
HETATM   23  C   UNL     1      -9.854   4.242  66.408  1.00  0.00    -0.220 A  
HETATM   24 CL   UNL     1      -9.433   3.456  64.937  1.00  0.00    -0.152 Cl 
HETATM   25  C   UNL     1      -9.500   3.668  67.628  1.00  0.00    -0.234 A  
HETATM   26  C   UNL     1      -9.846   4.308  68.821  1.00  0.00    -0.120 A  
ENDBRANCH  17  20
ENDBRANCH  15  16
ENDBRANCH  14  15
ENDBRANCH  11  14
ENDBRANCH   3   8
TORSDOF 5
ENDMDL
MODEL       48
REMARK 921   NORMALIZED FREE ENERGY PREDICTED BY IDOCK:   -5.65 KCAL/MOL
REMARK 922        TOTAL FREE ENERGY PREDICTED BY IDOCK:   -8.30 KCAL/MOL
REMARK 923 INTER-LIGAND FREE ENERGY PREDICTED BY IDOCK:   -7.64 KCAL/MOL
REMARK 924 INTRA-LIGAND FREE ENERGY PREDICTED BY IDOCK:   -0.65 KCAL/MOL
REMARK 927      BINDING AFFINITY PREDICTED BY RF-SCORE:    0.00 PKD
ROOT
HETATM    1  C   UNL     1     -10.119  10.551  65.414  1.00  0.00    -0.358 C  
HETATM    2  C   UNL     1      -9.987   9.852  66.771  1.00  0.00    -0.214 C  
HETATM    3  O   UNL     1     -11.252   9.883  67.479  1.00  0.00    -0.196 OA 
HETATM    4  C   UNL     1      -8.764  10.314  67.579  1.00  0.00    -0.125 C  
HETATM    5  C   UNL     1      -9.752   8.353  66.477  1.00  0.00    -0.260 C  
HETATM    6  O   UNL     1     -10.657   7.537  67.075  1.00  0.00    -0.319 OA 
HETATM    7  O   UNL     1      -8.841   7.913  65.790  1.00  0.00    -0.163 OA 
ENDROOT
BRANCH   3   8
HETATM    8  C   UNL     1     -11.539  10.887  68.355  1.00  0.00    -0.276 A  
HETATM    9  C   UNL     1     -11.770  10.719  69.712  1.00  0.00    -0.399 A  
HETATM   10  C   UNL     1     -12.156  11.801  70.500  1.00  0.00    -0.439 A  
HETATM   11  C   UNL     1     -12.255  13.088  69.961  1.00  0.00    -0.306 A  
HETATM   12  C   UNL     1     -11.588  12.172  67.812  1.00  0.00    -0.410 A  
HETATM   13  C   UNL     1     -11.953  13.265  68.605  1.00  0.00    -0.345 A  
BRANCH  11  14
HETATM   14  C   UNL     1     -12.760  14.255  70.783  1.00  0.00    -0.419 C  
BRANCH  14  15
HETATM   15  C   UNL     1     -11.668  15.231  71.238  1.00  0.00    -0.372 C  
BRANCH  15  16
HETATM   16  N   UNL     1     -11.437  16.295  70.286  1.00  0.00    -0.444 N  
HETATM   17  C   UNL     1     -10.258  16.353  69.570  1.00  0.00    -0.244 C  
HETATM   18  H   UNL     1     -12.151  17.008  70.141  1.00  0.00     0.000 HD 
HETATM   19  O   UNL     1      -9.325  15.573  69.730  1.00  0.00    -0.274 OA 
BRANCH  17  20
HETATM   20  C   UNL     1     -10.185  17.401  68.523  1.00  0.00    -0.369 A  
HETATM   21  C   UNL     1      -9.766  18.703  68.823  1.00  0.00    -0.407 A  
HETATM   22  C   UNL     1      -9.725  19.670  67.817  1.00  0.00    -0.481 A  
HETATM   23  C   UNL     1     -10.095  19.333  66.515  1.00  0.00    -0.415 A  
HETATM   24 CL   UNL     1     -10.046  20.531  65.281  1.00  0.00     0.199 Cl 
HETATM   25  C   UNL     1     -10.497  18.034  66.206  1.00  0.00    -0.340 A  
HETATM   26  C   UNL     1     -10.538  17.064  67.210  1.00  0.00    -0.267 A  
ENDBRANCH  17  20
ENDBRANCH  15  16
ENDBRANCH  14  15
ENDBRANCH  11  14
ENDBRANCH   3   8
TORSDOF 5
ENDMDL
MODEL       49
REMARK 921   NORMALIZED FREE ENERGY PREDICTED BY IDOCK:   -5.64 KCAL/MOL
REMARK 922        TOTAL FREE ENERGY PREDICTED BY IDOCK:   -8.29 KCAL/MOL
REMARK 923 INTER-LIGAND FREE ENERGY PREDICTED BY IDOCK:   -7.81 KCAL/MOL
REMARK 924 INTRA-LIGAND FREE ENERGY PREDICTED BY IDOCK:   -0.48 KCAL/MOL
REMARK 927      BINDING AFFINITY PREDICTED BY RF-SCORE:    0.00 PKD
ROOT
HETATM    1  C   UNL     1     -11.721  15.898  69.238  1.00  0.00    -0.360 C  
HETATM    2  C   UNL     1     -10.754  16.123  68.071  1.00  0.00    -0.321 C  
HETATM    3  O   UNL     1     -11.410  15.834  66.811  1.00  0.00    -0.115 OA 
HETATM    4  C   UNL     1      -9.386  15.453  68.274  1.00  0.00    -0.193 C  
HETATM    5  C   UNL     1     -10.472  17.641  68.014  1.00  0.00    -0.394 C  
HETATM    6  O   UNL     1     -10.753  18.197  66.808  1.00  0.00    -0.321 OA 
HETATM    7  O   UNL     1     -10.026  18.302  68.942  1.00  0.00    -0.375 OA 
ENDROOT
BRANCH   3   8
HETATM    8  C   UNL     1     -11.335  14.594  66.250  1.00  0.00    -0.347 A  
HETATM    9  C   UNL     1     -11.892  13.442  66.785  1.00  0.00    -0.452 A  
HETATM   10  C   UNL     1     -11.669  12.207  66.182  1.00  0.00    -0.384 A  
HETATM   11  C   UNL     1     -10.939  12.104  64.993  1.00  0.00    -0.355 A  
HETATM   12  C   UNL     1     -10.644  14.515  65.040  1.00  0.00    -0.458 A  
HETATM   13  C   UNL     1     -10.437  13.279  64.419  1.00  0.00    -0.424 A  
BRANCH  11  14
HETATM   14  C   UNL     1     -10.612  10.760  64.377  1.00  0.00    -0.246 C  
BRANCH  14  15
HETATM   15  C   UNL     1      -9.641   9.904  65.199  1.00  0.00    -0.300 C  
BRANCH  15  16
HETATM   16  N   UNL     1     -10.252   9.353  66.389  1.00  0.00    -0.258 N  
HETATM   17  C   UNL     1      -9.705   8.250  67.013  1.00  0.00    -0.211 C  
HETATM   18  H   UNL     1     -11.095   9.783  66.771  1.00  0.00     0.000 HD 
HETATM   19  O   UNL     1      -8.734   7.638  66.584  1.00  0.00    -0.129 OA 
BRANCH  17  20
HETATM   20  C   UNL     1     -10.330   7.857  68.299  1.00  0.00    -0.239 A  
HETATM   21  C   UNL     1     -10.441   8.762  69.362  1.00  0.00    -0.228 A  
HETATM   22  C   UNL     1     -11.020   8.355  70.566  1.00  0.00    -0.258 A  
HETATM   23  C   UNL     1     -11.491   7.049  70.703  1.00  0.00    -0.324 A  
HETATM   24 CL   UNL     1     -12.200   6.553  72.190  1.00  0.00    -0.322 Cl 
HETATM   25  C   UNL     1     -11.399   6.148  69.643  1.00  0.00    -0.442 A  
HETATM   26  C   UNL     1     -10.822   6.553  68.436  1.00  0.00    -0.357 A  
ENDBRANCH  17  20
ENDBRANCH  15  16
ENDBRANCH  14  15
ENDBRANCH  11  14
ENDBRANCH   3   8
TORSDOF 5
ENDMDL
MODEL       50
REMARK 921   NORMALIZED FREE ENERGY PREDICTED BY IDOCK:   -5.62 KCAL/MOL
REMARK 922        TOTAL FREE ENERGY PREDICTED BY IDOCK:   -8.26 KCAL/MOL
REMARK 923 INTER-LIGAND FREE ENERGY PREDICTED BY IDOCK:   -7.92 KCAL/MOL
REMARK 924 INTRA-LIGAND FREE ENERGY PREDICTED BY IDOCK:   -0.34 KCAL/MOL
REMARK 927      BINDING AFFINITY PREDICTED BY RF-SCORE:    0.00 PKD
ROOT
HETATM    1  C   UNL     1      -9.841  18.879  68.559  1.00  0.00    -0.455 C  
HETATM    2  C   UNL     1      -9.705  18.265  67.162  1.00  0.00    -0.304 C  
HETATM    3  O   UNL     1     -10.751  17.286  66.938  1.00  0.00    -0.253 OA 
HETATM    4  C   UNL     1      -8.278  17.795  66.838  1.00  0.00    -0.254 C  
HETATM    5  C   UNL     1     -10.015  19.391  66.150  1.00  0.00    -0.425 C  
HETATM    6  O   UNL     1     -11.015  19.080  65.286  1.00  0.00    -0.511 OA 
HETATM    7  O   UNL     1      -9.426  20.461  66.097  1.00  0.00    -0.273 OA 
ENDROOT
BRANCH   3   8
HETATM    8  C   UNL     1     -10.546  15.967  67.217  1.00  0.00    -0.313 A  
HETATM    9  C   UNL     1      -9.927  15.480  68.358  1.00  0.00    -0.214 A  
HETATM   10  C   UNL     1      -9.678  14.117  68.497  1.00  0.00    -0.219 A  
HETATM   11  C   UNL     1     -10.103  13.202  67.527  1.00  0.00    -0.222 A  
HETATM   12  C   UNL     1     -11.017  15.064  66.263  1.00  0.00    -0.338 A  
HETATM   13  C   UNL     1     -10.790  13.691  66.409  1.00  0.00    -0.290 A  
BRANCH  11  14
HETATM   14  C   UNL     1      -9.759  11.730  67.621  1.00  0.00    -0.186 C  
BRANCH  14  15
HETATM   15  C   UNL     1     -10.969  10.791  67.550  1.00  0.00    -0.312 C  
BRANCH  15  16
HETATM   16  N   UNL     1     -10.884   9.699  68.496  1.00  0.00    -0.375 N  
HETATM   17  C   UNL     1     -11.276   9.874  69.808  1.00  0.00    -0.235 C  
HETATM   18  H   UNL     1     -10.531   8.792  68.191  1.00  0.00     0.000 HD 
HETATM   19  O   UNL     1     -11.652  10.946  70.269  1.00  0.00    -0.299 OA 
BRANCH  17  20
HETATM   20  C   UNL     1     -11.280   8.654  70.651  1.00  0.00    -0.284 A  
HETATM   21  C   UNL     1     -11.282   7.374  70.082  1.00  0.00    -0.239 A  
HETATM   22  C   UNL     1     -11.302   6.247  70.906  1.00  0.00    -0.389 A  
HETATM   23  C   UNL     1     -11.311   6.399  72.292  1.00  0.00    -0.290 A  
HETATM   24 CL   UNL     1     -11.339   5.005  73.300  1.00  0.00    -0.405 Cl 
HETATM   25  C   UNL     1     -11.291   7.670  72.865  1.00  0.00    -0.394 A  
HETATM   26  C   UNL     1     -11.270   8.800  72.044  1.00  0.00    -0.443 A  
ENDBRANCH  17  20
ENDBRANCH  15  16
ENDBRANCH  14  15
ENDBRANCH  11  14
ENDBRANCH   3   8
TORSDOF 5
ENDMDL
MODEL       51
REMARK 921   NORMALIZED FREE ENERGY PREDICTED BY IDOCK:   -5.61 KCAL/MOL
REMARK 922        TOTAL FREE ENERGY PREDICTED BY IDOCK:   -8.26 KCAL/MOL
REMARK 923 INTER-LIGAND FREE ENERGY PREDICTED BY IDOCK:   -8.36 KCAL/MOL
REMARK 924 INTRA-LIGAND FREE ENERGY PREDICTED BY IDOCK:    0.11 KCAL/MOL
REMARK 927      BINDING AFFINITY PREDICTED BY RF-SCORE:    0.00 PKD
ROOT
HETATM    1  C   UNL     1     -13.590   7.105  71.620  1.00  0.00    -0.399 C  
HETATM    2  C   UNL     1     -12.111   7.503  71.600  1.00  0.00    -0.311 C  
HETATM    3  O   UNL     1     -11.940   8.837  72.143  1.00  0.00    -0.350 OA 
HETATM    4  C   UNL     1     -11.428   7.249  70.246  1.00  0.00    -0.242 C  
HETATM    5  C   UNL     1     -11.388   6.586  72.611  1.00  0.00    -0.222 C  
HETATM    6  O   UNL     1     -10.706   7.266  73.566  1.00  0.00    -0.382 OA 
HETATM    7  O   UNL     1     -11.400   5.363  72.573  1.00  0.00    -0.264 OA 
ENDROOT
BRANCH   3   8
HETATM    8  C   UNL     1     -11.943   9.930  71.329  1.00  0.00    -0.402 A  
HETATM    9  C   UNL     1     -11.132  10.099  70.217  1.00  0.00    -0.384 A  
HETATM   10  C   UNL     1     -11.144  11.301  69.512  1.00  0.00    -0.299 A  
HETATM   11  C   UNL     1     -12.017  12.336  69.864  1.00  0.00    -0.377 A  
HETATM   12  C   UNL     1     -12.853  10.935  71.664  1.00  0.00    -0.554 A  
HETATM   13  C   UNL     1     -12.885  12.134  70.945  1.00  0.00    -0.190 A  
BRANCH  11  14
HETATM   14  C   UNL     1     -11.977  13.678  69.164  1.00  0.00    -0.394 C  
BRANCH  14  15
HETATM   15  C   UNL     1     -12.380  13.635  67.686  1.00  0.00    -0.017 C  
BRANCH  15  16
HETATM   16  N   UNL     1     -11.471  12.848  66.881  1.00  0.00    -0.323 N  
HETATM   17  C   UNL     1     -11.849  12.395  65.633  1.00  0.00    -0.409 C  
HETATM   18  H   UNL     1     -10.542  12.625  67.239  1.00  0.00     0.000 HD 
HETATM   19  O   UNL     1     -12.966  12.566  65.157  1.00  0.00    -0.700 OA 
BRANCH  17  20
HETATM   20  C   UNL     1     -10.793  11.720  64.841  1.00  0.00    -0.353 A  
HETATM   21  C   UNL     1     -10.418  12.191  63.576  1.00  0.00    -0.490 A  
HETATM   22  C   UNL     1      -9.431  11.522  62.849  1.00  0.00    -0.309 A  
HETATM   23  C   UNL     1      -8.816  10.392  63.389  1.00  0.00    -0.213 A  
HETATM   24 CL   UNL     1      -7.604   9.571  62.487  1.00  0.00    -0.108 Cl 
HETATM   25  C   UNL     1      -9.172   9.929  64.655  1.00  0.00    -0.313 A  
HETATM   26  C   UNL     1     -10.159  10.597  65.386  1.00  0.00    -0.356 A  
ENDBRANCH  17  20
ENDBRANCH  15  16
ENDBRANCH  14  15
ENDBRANCH  11  14
ENDBRANCH   3   8
TORSDOF 5
ENDMDL
MODEL       52
REMARK 921   NORMALIZED FREE ENERGY PREDICTED BY IDOCK:   -5.59 KCAL/MOL
REMARK 922        TOTAL FREE ENERGY PREDICTED BY IDOCK:   -8.23 KCAL/MOL
REMARK 923 INTER-LIGAND FREE ENERGY PREDICTED BY IDOCK:   -7.65 KCAL/MOL
REMARK 924 INTRA-LIGAND FREE ENERGY PREDICTED BY IDOCK:   -0.58 KCAL/MOL
REMARK 927      BINDING AFFINITY PREDICTED BY RF-SCORE:    0.00 PKD
ROOT
HETATM    1  C   UNL     1     -12.204   6.115  72.184  1.00  0.00    -0.202 C  
HETATM    2  C   UNL     1     -11.010   6.477  71.296  1.00  0.00    -0.262 C  
HETATM    3  O   UNL     1     -10.464   7.763  71.684  1.00  0.00    -0.199 OA 
HETATM    4  C   UNL     1     -11.292   6.305  69.795  1.00  0.00    -0.506 C  
HETATM    5  C   UNL     1      -9.886   5.471  71.629  1.00  0.00    -0.173 C  
HETATM    6  O   UNL     1      -8.726   6.063  72.010  1.00  0.00    -0.136 OA 
HETATM    7  O   UNL     1      -9.996   4.255  71.552  1.00  0.00    -0.183 OA 
ENDROOT
BRANCH   3   8
HETATM    8  C   UNL     1     -10.884   8.913  71.084  1.00  0.00    -0.281 A  
HETATM    9  C   UNL     1     -12.116   9.514  71.288  1.00  0.00    -0.443 A  
HETATM   10  C   UNL     1     -12.484  10.634  70.546  1.00  0.00    -0.445 A  
HETATM   11  C   UNL     1     -11.602  11.218  69.632  1.00  0.00    -0.401 A  
HETATM   12  C   UNL     1      -9.974   9.509  70.210  1.00  0.00    -0.310 A  
HETATM   13  C   UNL     1     -10.331  10.648  69.480  1.00  0.00    -0.214 A  
BRANCH  11  14
HETATM   14  C   UNL     1     -12.021  12.378  68.754  1.00  0.00    -0.276 C  
BRANCH  14  15
HETATM   15  C   UNL     1     -12.080  13.730  69.476  1.00  0.00    -0.334 C  
BRANCH  15  16
HETATM   16  N   UNL     1     -11.464  14.796  68.716  1.00  0.00    -0.285 N  
HETATM   17  C   UNL     1     -11.161  16.002  69.315  1.00  0.00    -0.346 C  
HETATM   18  H   UNL     1     -11.250  14.655  67.728  1.00  0.00     0.000 HD 
HETATM   19  O   UNL     1     -11.442  16.274  70.477  1.00  0.00    -0.367 OA 
BRANCH  17  20
HETATM   20  C   UNL     1     -10.406  16.969  68.482  1.00  0.00    -0.359 A  
HETATM   21  C   UNL     1     -10.117  18.259  68.944  1.00  0.00    -0.358 A  
HETATM   22  C   UNL     1      -9.418  19.150  68.127  1.00  0.00    -0.400 A  
HETATM   23  C   UNL     1      -9.003  18.749  66.857  1.00  0.00    -0.297 A  
HETATM   24 CL   UNL     1      -8.146  19.854  65.855  1.00  0.00    -0.333 Cl 
HETATM   25  C   UNL     1      -9.272  17.461  66.398  1.00  0.00    -0.272 A  
HETATM   26  C   UNL     1      -9.970  16.566  67.214  1.00  0.00    -0.264 A  
ENDBRANCH  17  20
ENDBRANCH  15  16
ENDBRANCH  14  15
ENDBRANCH  11  14
ENDBRANCH   3   8
TORSDOF 5
ENDMDL
MODEL       53
REMARK 921   NORMALIZED FREE ENERGY PREDICTED BY IDOCK:   -5.57 KCAL/MOL
REMARK 922        TOTAL FREE ENERGY PREDICTED BY IDOCK:   -8.20 KCAL/MOL
REMARK 923 INTER-LIGAND FREE ENERGY PREDICTED BY IDOCK:   -7.67 KCAL/MOL
REMARK 924 INTRA-LIGAND FREE ENERGY PREDICTED BY IDOCK:   -0.52 KCAL/MOL
REMARK 927      BINDING AFFINITY PREDICTED BY RF-SCORE:    0.00 PKD
ROOT
HETATM    1  C   UNL     1      -7.972   5.777  73.047  1.00  0.00    -0.107 C  
HETATM    2  C   UNL     1      -9.458   5.471  73.261  1.00  0.00    -0.145 C  
HETATM    3  O   UNL     1     -10.200   5.693  72.036  1.00  0.00    -0.193 OA 
HETATM    4  C   UNL     1     -10.043   6.134  74.518  1.00  0.00    -0.345 C  
HETATM    5  C   UNL     1      -9.569   3.948  73.502  1.00  0.00    -0.106 C  
HETATM    6  O   UNL     1     -10.413   3.326  72.641  1.00  0.00    -0.159 OA 
HETATM    7  O   UNL     1      -8.977   3.338  74.382  1.00  0.00    -0.085 OA 
ENDROOT
BRANCH   3   8
HETATM    8  C   UNL     1     -10.786   6.897  71.781  1.00  0.00    -0.225 A  
HETATM    9  C   UNL     1     -10.109   8.097  71.627  1.00  0.00    -0.259 A  
HETATM   10  C   UNL     1     -10.814   9.288  71.469  1.00  0.00    -0.442 A  
HETATM   11  C   UNL     1     -12.210   9.297  71.395  1.00  0.00    -0.426 A  
HETATM   12  C   UNL     1     -12.177   6.883  71.662  1.00  0.00    -0.403 A  
HETATM   13  C   UNL     1     -12.888   8.074  71.481  1.00  0.00    -0.331 A  
BRANCH  11  14
HETATM   14  C   UNL     1     -12.992  10.592  71.315  1.00  0.00    -0.513 C  
BRANCH  14  15
HETATM   15  C   UNL     1     -12.261  11.731  70.593  1.00  0.00    -0.349 C  
BRANCH  15  16
HETATM   16  N   UNL     1     -11.939  11.405  69.221  1.00  0.00    -0.334 N  
HETATM   17  C   UNL     1     -11.764  12.405  68.284  1.00  0.00    -0.345 C  
HETATM   18  H   UNL     1     -11.840  10.429  68.942  1.00  0.00     0.000 HD 
HETATM   19  O   UNL     1     -11.926  13.596  68.522  1.00  0.00    -0.356 OA 
BRANCH  17  20
HETATM   20  C   UNL     1     -11.299  11.965  66.946  1.00  0.00    -0.392 A  
HETATM   21  C   UNL     1     -10.335  10.959  66.804  1.00  0.00    -0.289 A  
HETATM   22  C   UNL     1      -9.908  10.581  65.529  1.00  0.00    -0.324 A  
HETATM   23  C   UNL     1     -10.449  11.201  64.403  1.00  0.00    -0.353 A  
HETATM   24 CL   UNL     1      -9.914  10.732  62.836  1.00  0.00    -0.300 Cl 
HETATM   25  C   UNL     1     -11.421  12.190  64.537  1.00  0.00    -0.397 A  
HETATM   26  C   UNL     1     -11.852  12.571  65.811  1.00  0.00    -0.494 A  
ENDBRANCH  17  20
ENDBRANCH  15  16
ENDBRANCH  14  15
ENDBRANCH  11  14
ENDBRANCH   3   8
TORSDOF 5
ENDMDL
MODEL       54
REMARK 921   NORMALIZED FREE ENERGY PREDICTED BY IDOCK:   -5.57 KCAL/MOL
REMARK 922        TOTAL FREE ENERGY PREDICTED BY IDOCK:   -8.19 KCAL/MOL
REMARK 923 INTER-LIGAND FREE ENERGY PREDICTED BY IDOCK:   -7.19 KCAL/MOL
REMARK 924 INTRA-LIGAND FREE ENERGY PREDICTED BY IDOCK:   -1.01 KCAL/MOL
REMARK 927      BINDING AFFINITY PREDICTED BY RF-SCORE:    0.00 PKD
ROOT
HETATM    1  C   UNL     1      -8.337  10.714  66.532  1.00  0.00    -0.143 C  
HETATM    2  C   UNL     1      -9.822  11.087  66.584  1.00  0.00    -0.200 C  
HETATM    3  O   UNL     1     -10.127  11.771  67.826  1.00  0.00    -0.183 OA 
HETATM    4  C   UNL     1     -10.758   9.922  66.224  1.00  0.00     0.013 C  
HETATM    5  C   UNL     1     -10.050  12.159  65.495  1.00  0.00    -0.248 C  
HETATM    6  O   UNL     1     -10.594  13.307  65.972  1.00  0.00    -0.278 OA 
HETATM    7  O   UNL     1      -9.790  12.012  64.308  1.00  0.00    -0.243 OA 
ENDROOT
BRANCH   3   8
HETATM    8  C   UNL     1     -10.564  11.080  68.917  1.00  0.00    -0.207 A  
HETATM    9  C   UNL     1      -9.771  10.275  69.721  1.00  0.00    -0.183 A  
HETATM   10  C   UNL     1     -10.341   9.532  70.752  1.00  0.00    -0.377 A  
HETATM   11  C   UNL     1     -11.705   9.630  71.045  1.00  0.00    -0.433 A  
HETATM   12  C   UNL     1     -11.917  11.224  69.225  1.00  0.00    -0.411 A  
HETATM   13  C   UNL     1     -12.489  10.498  70.275  1.00  0.00    -0.345 A  
BRANCH  11  14
HETATM   14  C   UNL     1     -12.353   8.761  72.103  1.00  0.00    -0.458 C  
BRANCH  14  15
HETATM   15  C   UNL     1     -12.954   7.455  71.570  1.00  0.00    -0.375 C  
BRANCH  15  16
HETATM   16  N   UNL     1     -12.298   6.988  70.368  1.00  0.00    -0.618 N  
HETATM   17  C   UNL     1     -11.195   6.162  70.446  1.00  0.00    -0.353 C  
HETATM   18  H   UNL     1     -12.654   7.271  69.455  1.00  0.00     0.000 HD 
HETATM   19  O   UNL     1     -10.668   5.827  71.501  1.00  0.00    -0.243 OA 
BRANCH  17  20
HETATM   20  C   UNL     1     -10.690   5.632  69.156  1.00  0.00    -0.325 A  
HETATM   21  C   UNL     1     -11.016   6.244  67.939  1.00  0.00    -0.421 A  
HETATM   22  C   UNL     1     -10.537   5.709  66.741  1.00  0.00    -0.372 A  
HETATM   23  C   UNL     1      -9.730   4.572  66.762  1.00  0.00    -0.206 A  
HETATM   24 CL   UNL     1      -9.147   3.916  65.282  1.00  0.00    -0.135 Cl 
HETATM   25  C   UNL     1      -9.387   3.968  67.971  1.00  0.00    -0.220 A  
HETATM   26  C   UNL     1      -9.863   4.502  69.171  1.00  0.00    -0.222 A  
ENDBRANCH  17  20
ENDBRANCH  15  16
ENDBRANCH  14  15
ENDBRANCH  11  14
ENDBRANCH   3   8
TORSDOF 5
ENDMDL
MODEL       55
REMARK 921   NORMALIZED FREE ENERGY PREDICTED BY IDOCK:   -5.56 KCAL/MOL
REMARK 922        TOTAL FREE ENERGY PREDICTED BY IDOCK:   -8.19 KCAL/MOL
REMARK 923 INTER-LIGAND FREE ENERGY PREDICTED BY IDOCK:   -7.64 KCAL/MOL
REMARK 924 INTRA-LIGAND FREE ENERGY PREDICTED BY IDOCK:   -0.55 KCAL/MOL
REMARK 927      BINDING AFFINITY PREDICTED BY RF-SCORE:    0.00 PKD
ROOT
HETATM    1  C   UNL     1     -10.829  19.272  65.751  1.00  0.00    -0.338 C  
HETATM    2  C   UNL     1      -9.803  18.452  66.540  1.00  0.00    -0.359 C  
HETATM    3  O   UNL     1      -9.287  17.370  65.724  1.00  0.00    -0.518 OA 
HETATM    4  C   UNL     1     -10.290  18.049  67.941  1.00  0.00    -0.402 C  
HETATM    5  C   UNL     1      -8.581  19.370  66.769  1.00  0.00    -0.311 C  
HETATM    6  O   UNL     1      -7.418  18.846  66.309  1.00  0.00    -0.245 OA 
HETATM    7  O   UNL     1      -8.625  20.461  67.321  1.00  0.00    -0.341 OA 
ENDROOT
BRANCH   3   8
HETATM    8  C   UNL     1      -9.862  16.134  65.755  1.00  0.00    -0.320 A  
HETATM    9  C   UNL     1     -10.967  15.750  65.011  1.00  0.00    -0.431 A  
HETATM   10  C   UNL     1     -11.536  14.492  65.194  1.00  0.00    -0.371 A  
HETATM   11  C   UNL     1     -10.972  13.565  66.077  1.00  0.00    -0.281 A  
HETATM   12  C   UNL     1      -9.260  15.205  66.605  1.00  0.00    -0.298 A  
HETATM   13  C   UNL     1      -9.814  13.932  66.775  1.00  0.00    -0.274 A  
BRANCH  11  14
HETATM   14  C   UNL     1     -11.632  12.230  66.353  1.00  0.00    -0.445 C  
BRANCH  14  15
HETATM   15  C   UNL     1     -11.484  11.736  67.797  1.00  0.00    -0.311 C  
BRANCH  15  16
HETATM   16  N   UNL     1     -11.329  10.301  67.884  1.00  0.00    -0.482 N  
HETATM   17  C   UNL     1     -10.108   9.709  67.631  1.00  0.00    -0.194 C  
HETATM   18  H   UNL     1     -12.129   9.720  68.133  1.00  0.00     0.000 HD 
HETATM   19  O   UNL     1      -9.114  10.328  67.265  1.00  0.00    -0.138 OA 
BRANCH  17  20
HETATM   20  C   UNL     1     -10.029   8.250  67.885  1.00  0.00    -0.227 A  
HETATM   21  C   UNL     1     -10.800   7.340  67.152  1.00  0.00    -0.378 A  
HETATM   22  C   UNL     1     -10.714   5.974  67.429  1.00  0.00    -0.393 A  
HETATM   23  C   UNL     1      -9.854   5.520  68.429  1.00  0.00    -0.141 A  
HETATM   24 CL   UNL     1      -9.756   3.836  68.766  1.00  0.00    -0.167 Cl 
HETATM   25  C   UNL     1      -9.070   6.419  69.150  1.00  0.00    -0.131 A  
HETATM   26  C   UNL     1      -9.153   7.787  68.875  1.00  0.00    -0.141 A  
ENDBRANCH  17  20
ENDBRANCH  15  16
ENDBRANCH  14  15
ENDBRANCH  11  14
ENDBRANCH   3   8
TORSDOF 5
ENDMDL
MODEL       56
REMARK 921   NORMALIZED FREE ENERGY PREDICTED BY IDOCK:   -5.55 KCAL/MOL
REMARK 922        TOTAL FREE ENERGY PREDICTED BY IDOCK:   -8.18 KCAL/MOL
REMARK 923 INTER-LIGAND FREE ENERGY PREDICTED BY IDOCK:   -7.45 KCAL/MOL
REMARK 924 INTRA-LIGAND FREE ENERGY PREDICTED BY IDOCK:   -0.72 KCAL/MOL
REMARK 927      BINDING AFFINITY PREDICTED BY RF-SCORE:    0.00 PKD
ROOT
HETATM    1  C   UNL     1     -10.202  10.610  64.394  1.00  0.00    -0.400 C  
HETATM    2  C   UNL     1      -9.487  10.665  65.748  1.00  0.00    -0.200 C  
HETATM    3  O   UNL     1     -10.029  11.736  66.562  1.00  0.00    -0.198 OA 
HETATM    4  C   UNL     1      -7.955  10.635  65.631  1.00  0.00    -0.136 C  
HETATM    5  C   UNL     1      -9.874   9.377  66.508  1.00  0.00    -0.258 C  
HETATM    6  O   UNL     1     -10.429   9.613  67.724  1.00  0.00    -0.223 OA 
HETATM    7  O   UNL     1      -9.696   8.241  66.089  1.00  0.00    -0.207 OA 
ENDROOT
BRANCH   3   8
HETATM    8  C   UNL     1      -9.470  12.979  66.547  1.00  0.00    -0.245 A  
HETATM    9  C   UNL     1      -8.292  13.331  67.187  1.00  0.00    -0.143 A  
HETATM   10  C   UNL     1      -7.862  14.656  67.191  1.00  0.00    -0.155 A  
HETATM   11  C   UNL     1      -8.566  15.646  66.499  1.00  0.00    -0.335 A  
HETATM   12  C   UNL     1     -10.159  13.946  65.812  1.00  0.00    -0.336 A  
HETATM   13  C   UNL     1      -9.718  15.273  65.795  1.00  0.00    -0.385 A  
BRANCH  11  14
HETATM   14  C   UNL     1      -8.161  17.104  66.570  1.00  0.00    -0.318 C  
BRANCH  14  15
HETATM   15  C   UNL     1      -8.310  17.736  67.959  1.00  0.00    -0.249 C  
BRANCH  15  16
HETATM   16  N   UNL     1      -9.115  16.934  68.854  1.00  0.00    -0.252 N  
HETATM   17  C   UNL     1     -10.494  16.973  68.785  1.00  0.00    -0.347 C  
HETATM   18  H   UNL     1      -8.661  16.334  69.542  1.00  0.00     0.000 HD 
HETATM   19  O   UNL     1     -11.117  17.713  68.032  1.00  0.00    -0.219 OA 
BRANCH  17  20
HETATM   20  C   UNL     1     -11.214  16.008  69.651  1.00  0.00    -0.336 A  
HETATM   21  C   UNL     1     -11.499  16.302  70.990  1.00  0.00    -0.343 A  
HETATM   22  C   UNL     1     -12.164  15.364  71.783  1.00  0.00    -0.450 A  
HETATM   23  C   UNL     1     -12.549  14.140  71.234  1.00  0.00    -0.363 A  
HETATM   24 CL   UNL     1     -13.365  12.988  72.218  1.00  0.00    -0.628 Cl 
HETATM   25  C   UNL     1     -12.284  13.848  69.897  1.00  0.00    -0.393 A  
HETATM   26  C   UNL     1     -11.620  14.786  69.101  1.00  0.00    -0.330 A  
ENDBRANCH  17  20
ENDBRANCH  15  16
ENDBRANCH  14  15
ENDBRANCH  11  14
ENDBRANCH   3   8
TORSDOF 5
ENDMDL
MODEL       57
REMARK 921   NORMALIZED FREE ENERGY PREDICTED BY IDOCK:   -5.54 KCAL/MOL
REMARK 922        TOTAL FREE ENERGY PREDICTED BY IDOCK:   -8.16 KCAL/MOL
REMARK 923 INTER-LIGAND FREE ENERGY PREDICTED BY IDOCK:   -7.62 KCAL/MOL
REMARK 924 INTRA-LIGAND FREE ENERGY PREDICTED BY IDOCK:   -0.55 KCAL/MOL
REMARK 927      BINDING AFFINITY PREDICTED BY RF-SCORE:    0.00 PKD
ROOT
HETATM    1  C   UNL     1      -7.024   9.773  65.890  1.00  0.00    -0.101 C  
HETATM    2  C   UNL     1      -8.179   9.009  65.236  1.00  0.00    -0.137 C  
HETATM    3  O   UNL     1      -9.417   9.258  65.949  1.00  0.00    -0.220 OA 
HETATM    4  C   UNL     1      -7.858   7.530  64.967  1.00  0.00    -0.127 C  
HETATM    5  C   UNL     1      -8.405   9.647  63.847  1.00  0.00    -0.172 C  
HETATM    6  O   UNL     1      -9.676  10.082  63.653  1.00  0.00    -0.229 OA 
HETATM    7  O   UNL     1      -7.548   9.750  62.981  1.00  0.00    -0.118 OA 
ENDROOT
BRANCH   3   8
HETATM    8  C   UNL     1      -9.826   8.432  66.953  1.00  0.00    -0.245 A  
HETATM    9  C   UNL     1     -10.658   7.334  66.793  1.00  0.00    -0.288 A  
HETATM   10  C   UNL     1     -11.096   6.616  67.903  1.00  0.00    -0.310 A  
HETATM   11  C   UNL     1     -10.658   6.937  69.192  1.00  0.00    -0.245 A  
HETATM   12  C   UNL     1      -9.342   8.737  68.226  1.00  0.00    -0.143 A  
HETATM   13  C   UNL     1      -9.762   8.003  69.341  1.00  0.00    -0.170 A  
BRANCH  11  14
HETATM   14  C   UNL     1     -11.196   6.224  70.414  1.00  0.00    -0.439 C  
BRANCH  14  15
HETATM   15  C   UNL     1     -12.280   6.997  71.174  1.00  0.00    -0.382 C  
BRANCH  15  16
HETATM   16  N   UNL     1     -12.307   8.403  70.832  1.00  0.00    -0.494 N  
HETATM   17  C   UNL     1     -12.905   9.319  71.674  1.00  0.00    -0.372 C  
HETATM   18  H   UNL     1     -11.880   8.720  69.962  1.00  0.00     0.000 HD 
HETATM   19  O   UNL     1     -13.494   9.013  72.705  1.00  0.00    -0.463 OA 
BRANCH  17  20
HETATM   20  C   UNL     1     -12.751  10.745  71.295  1.00  0.00    -0.546 A  
HETATM   21  C   UNL     1     -11.996  11.124  70.178  1.00  0.00    -0.449 A  
HETATM   22  C   UNL     1     -11.857  12.477  69.858  1.00  0.00    -0.373 A  
HETATM   23  C   UNL     1     -12.478  13.444  70.649  1.00  0.00    -0.311 A  
HETATM   24 CL   UNL     1     -12.300  15.108  70.251  1.00  0.00    -0.380 Cl 
HETATM   25  C   UNL     1     -13.246  13.072  71.752  1.00  0.00    -0.486 A  
HETATM   26  C   UNL     1     -13.387  11.719  72.073  1.00  0.00    -0.417 A  
ENDBRANCH  17  20
ENDBRANCH  15  16
ENDBRANCH  14  15
ENDBRANCH  11  14
ENDBRANCH   3   8
TORSDOF 5
ENDMDL
MODEL       58
REMARK 921   NORMALIZED FREE ENERGY PREDICTED BY IDOCK:   -5.51 KCAL/MOL
REMARK 922        TOTAL FREE ENERGY PREDICTED BY IDOCK:   -8.12 KCAL/MOL
REMARK 923 INTER-LIGAND FREE ENERGY PREDICTED BY IDOCK:   -7.38 KCAL/MOL
REMARK 924 INTRA-LIGAND FREE ENERGY PREDICTED BY IDOCK:   -0.75 KCAL/MOL
REMARK 927      BINDING AFFINITY PREDICTED BY RF-SCORE:    0.00 PKD
ROOT
HETATM    1  C   UNL     1     -10.489  16.584  69.548  1.00  0.00    -0.298 C  
HETATM    2  C   UNL     1     -10.101  17.005  68.127  1.00  0.00    -0.308 C  
HETATM    3  O   UNL     1     -11.149  16.648  67.191  1.00  0.00    -0.097 OA 
HETATM    4  C   UNL     1      -8.681  16.571  67.728  1.00  0.00    -0.197 C  
HETATM    5  C   UNL     1     -10.086  18.550  68.110  1.00  0.00    -0.375 C  
HETATM    6  O   UNL     1     -10.893  19.087  67.160  1.00  0.00    -0.462 OA 
HETATM    7  O   UNL     1      -9.413  19.248  68.855  1.00  0.00    -0.384 OA 
ENDROOT
BRANCH   3   8
HETATM    8  C   UNL     1     -11.121  15.456  66.530  1.00  0.00    -0.227 A  
HETATM    9  C   UNL     1     -10.580  15.256  65.269  1.00  0.00    -0.438 A  
HETATM   10  C   UNL     1     -10.694  14.017  64.642  1.00  0.00    -0.416 A  
HETATM   11  C   UNL     1     -11.294  12.932  65.290  1.00  0.00    -0.333 A  
HETATM   12  C   UNL     1     -11.680  14.372  67.208  1.00  0.00    -0.429 A  
HETATM   13  C   UNL     1     -11.776  13.120  66.591  1.00  0.00    -0.427 A  
BRANCH  11  14
HETATM   14  C   UNL     1     -11.506  11.608  64.587  1.00  0.00    -0.249 C  
BRANCH  14  15
HETATM   15  C   UNL     1     -10.248  10.738  64.480  1.00  0.00    -0.359 C  
BRANCH  15  16
HETATM   16  N   UNL     1     -10.248   9.636  65.418  1.00  0.00    -0.256 N  
HETATM   17  C   UNL     1      -9.694   9.783  66.673  1.00  0.00    -0.201 C  
HETATM   18  H   UNL     1     -10.663   8.744  65.150  1.00  0.00     0.000 HD 
HETATM   19  O   UNL     1      -9.122  10.800  67.050  1.00  0.00    -0.144 OA 
BRANCH  17  20
HETATM   20  C   UNL     1      -9.875   8.639  67.600  1.00  0.00    -0.229 A  
HETATM   21  C   UNL     1     -10.707   7.561  67.273  1.00  0.00    -0.365 A  
HETATM   22  C   UNL     1     -10.868   6.508  68.175  1.00  0.00    -0.370 A  
HETATM   23  C   UNL     1     -10.193   6.530  69.396  1.00  0.00    -0.183 A  
HETATM   24 CL   UNL     1     -10.400   5.230  70.504  1.00  0.00    -0.338 Cl 
HETATM   25  C   UNL     1      -9.350   7.591  69.720  1.00  0.00    -0.150 A  
HETATM   26  C   UNL     1      -9.185   8.646  68.819  1.00  0.00    -0.142 A  
ENDBRANCH  17  20
ENDBRANCH  15  16
ENDBRANCH  14  15
ENDBRANCH  11  14
ENDBRANCH   3   8
TORSDOF 5
ENDMDL
MODEL       59
REMARK 921   NORMALIZED FREE ENERGY PREDICTED BY IDOCK:   -5.51 KCAL/MOL
REMARK 922        TOTAL FREE ENERGY PREDICTED BY IDOCK:   -8.12 KCAL/MOL
REMARK 923 INTER-LIGAND FREE ENERGY PREDICTED BY IDOCK:   -6.99 KCAL/MOL
REMARK 924 INTRA-LIGAND FREE ENERGY PREDICTED BY IDOCK:   -1.12 KCAL/MOL
REMARK 927      BINDING AFFINITY PREDICTED BY RF-SCORE:    0.00 PKD
ROOT
HETATM    1  C   UNL     1      -9.790   9.463  65.804  1.00  0.00    -0.345 C  
HETATM    2  C   UNL     1      -8.685   9.195  66.829  1.00  0.00    -0.127 C  
HETATM    3  O   UNL     1      -8.653   7.788  67.179  1.00  0.00    -0.125 OA 
HETATM    4  C   UNL     1      -8.703  10.171  68.017  1.00  0.00    -0.122 C  
HETATM    5  C   UNL     1      -7.340   9.438  66.108  1.00  0.00    -0.096 C  
HETATM    6  O   UNL     1      -6.502   8.372  66.155  1.00  0.00    -0.052 OA 
HETATM    7  O   UNL     1      -7.027  10.482  65.554  1.00  0.00    -0.141 OA 
ENDROOT
BRANCH   3   8
HETATM    8  C   UNL     1      -9.355   7.316  68.249  1.00  0.00    -0.135 A  
HETATM    9  C   UNL     1     -10.691   6.947  68.225  1.00  0.00    -0.265 A  
HETATM   10  C   UNL     1     -11.339   6.573  69.400  1.00  0.00    -0.395 A  
HETATM   11  C   UNL     1     -10.647   6.495  70.613  1.00  0.00    -0.280 A  
HETATM   12  C   UNL     1      -8.639   7.199  69.441  1.00  0.00    -0.134 A  
HETATM   13  C   UNL     1      -9.280   6.801  70.619  1.00  0.00    -0.155 A  
BRANCH  11  14
HETATM   14  C   UNL     1     -11.358   6.179  71.912  1.00  0.00    -0.350 C  
BRANCH  14  15
HETATM   15  C   UNL     1     -11.532   7.380  72.849  1.00  0.00    -0.221 C  
BRANCH  15  16
HETATM   16  N   UNL     1     -11.507   8.644  72.146  1.00  0.00    -0.367 N  
HETATM   17  C   UNL     1     -12.674   9.347  71.924  1.00  0.00    -0.401 C  
HETATM   18  H   UNL     1     -10.620   9.020  71.812  1.00  0.00     0.000 HD 
HETATM   19  O   UNL     1     -13.787   8.937  72.237  1.00  0.00    -0.434 OA 
BRANCH  17  20
HETATM   20  C   UNL     1     -12.516  10.693  71.321  1.00  0.00    -0.515 A  
HETATM   21  C   UNL     1     -13.041  11.835  71.939  1.00  0.00    -0.482 A  
HETATM   22  C   UNL     1     -12.889  13.085  71.336  1.00  0.00    -0.385 A  
HETATM   23  C   UNL     1     -12.206  13.193  70.124  1.00  0.00    -0.290 A  
HETATM   24 CL   UNL     1     -12.025  14.736  69.385  1.00  0.00    -0.342 Cl 
HETATM   25  C   UNL     1     -11.665  12.063  69.513  1.00  0.00    -0.408 A  
HETATM   26  C   UNL     1     -11.815  10.810  70.115  1.00  0.00    -0.427 A  
ENDBRANCH  17  20
ENDBRANCH  15  16
ENDBRANCH  14  15
ENDBRANCH  11  14
ENDBRANCH   3   8
TORSDOF 5
ENDMDL
MODEL       60
REMARK 921   NORMALIZED FREE ENERGY PREDICTED BY IDOCK:   -5.50 KCAL/MOL
REMARK 922        TOTAL FREE ENERGY PREDICTED BY IDOCK:   -8.10 KCAL/MOL
REMARK 923 INTER-LIGAND FREE ENERGY PREDICTED BY IDOCK:   -6.87 KCAL/MOL
REMARK 924 INTRA-LIGAND FREE ENERGY PREDICTED BY IDOCK:   -1.24 KCAL/MOL
REMARK 927      BINDING AFFINITY PREDICTED BY RF-SCORE:    0.00 PKD
ROOT
HETATM    1  C   UNL     1     -11.212  12.004  64.941  1.00  0.00    -0.374 C  
HETATM    2  C   UNL     1     -10.886  12.434  66.375  1.00  0.00    -0.258 C  
HETATM    3  O   UNL     1     -11.764  13.510  66.790  1.00  0.00    -0.350 OA 
HETATM    4  C   UNL     1      -9.386  12.675  66.613  1.00  0.00    -0.236 C  
HETATM    5  C   UNL     1     -11.271  11.252  67.293  1.00  0.00    -0.296 C  
HETATM    6  O   UNL     1     -12.148  11.592  68.270  1.00  0.00    -0.580 OA 
HETATM    7  O   UNL     1     -10.834  10.115  67.183  1.00  0.00    -0.251 OA 
ENDROOT
BRANCH   3   8
HETATM    8  C   UNL     1     -11.400  14.814  66.629  1.00  0.00    -0.347 A  
HETATM    9  C   UNL     1     -11.147  15.426  65.410  1.00  0.00    -0.331 A  
HETATM   10  C   UNL     1     -10.683  16.738  65.365  1.00  0.00    -0.201 A  
HETATM   11  C   UNL     1     -10.524  17.490  66.533  1.00  0.00    -0.270 A  
HETATM   12  C   UNL     1     -11.292  15.564  67.800  1.00  0.00    -0.286 A  
HETATM   13  C   UNL     1     -10.848  16.890  67.757  1.00  0.00    -0.281 A  
BRANCH  11  14
HETATM   14  C   UNL     1      -9.935  18.884  66.506  1.00  0.00    -0.426 C  
BRANCH  14  15
HETATM   15  C   UNL     1      -8.409  18.925  66.362  1.00  0.00    -0.296 C  
BRANCH  15  16
HETATM   16  N   UNL     1      -7.749  17.879  67.114  1.00  0.00    -0.205 N  
HETATM   17  C   UNL     1      -7.458  18.052  68.452  1.00  0.00    -0.278 C  
HETATM   18  H   UNL     1      -7.497  17.006  66.651  1.00  0.00     0.000 HD 
HETATM   19  O   UNL     1      -7.670  19.092  69.066  1.00  0.00    -0.339 OA 
BRANCH  17  20
HETATM   20  C   UNL     1      -6.911  16.867  69.155  1.00  0.00    -0.234 A  
HETATM   21  C   UNL     1      -7.488  15.600  69.005  1.00  0.00    -0.181 A  
HETATM   22  C   UNL     1      -6.958  14.507  69.695  1.00  0.00    -0.122 A  
HETATM   23  C   UNL     1      -5.851  14.681  70.525  1.00  0.00    -0.168 A  
HETATM   24 CL   UNL     1      -5.206  13.331  71.375  1.00  0.00    -0.174 Cl 
HETATM   25  C   UNL     1      -5.261  15.936  70.666  1.00  0.00    -0.168 A  
HETATM   26  C   UNL     1      -5.788  17.031  69.976  1.00  0.00    -0.215 A  
ENDBRANCH  17  20
ENDBRANCH  15  16
ENDBRANCH  14  15
ENDBRANCH  11  14
ENDBRANCH   3   8
TORSDOF 5
ENDMDL
MODEL       61
REMARK 921   NORMALIZED FREE ENERGY PREDICTED BY IDOCK:   -5.48 KCAL/MOL
REMARK 922        TOTAL FREE ENERGY PREDICTED BY IDOCK:   -8.09 KCAL/MOL
REMARK 923 INTER-LIGAND FREE ENERGY PREDICTED BY IDOCK:   -7.90 KCAL/MOL
REMARK 924 INTRA-LIGAND FREE ENERGY PREDICTED BY IDOCK:   -0.19 KCAL/MOL
REMARK 927      BINDING AFFINITY PREDICTED BY RF-SCORE:    0.00 PKD
ROOT
HETATM    1  C   UNL     1     -10.054  13.165  65.661  1.00  0.00    -0.279 C  
HETATM    2  C   UNL     1     -10.959  14.021  66.553  1.00  0.00    -0.306 C  
HETATM    3  O   UNL     1     -10.536  13.928  67.937  1.00  0.00    -0.239 OA 
HETATM    4  C   UNL     1     -12.458  13.791  66.303  1.00  0.00    -0.441 C  
HETATM    5  C   UNL     1     -10.693  15.495  66.172  1.00  0.00    -0.313 C  
HETATM    6  O   UNL     1     -10.320  16.266  67.225  1.00  0.00    -0.276 OA 
HETATM    7  O   UNL     1     -10.813  15.955  65.045  1.00  0.00    -0.428 OA 
ENDROOT
BRANCH   3   8
HETATM    8  C   UNL     1     -11.082  13.002  68.775  1.00  0.00    -0.270 A  
HETATM    9  C   UNL     1     -12.034  13.269  69.747  1.00  0.00    -0.391 A  
HETATM   10  C   UNL     1     -12.451  12.265  70.619  1.00  0.00    -0.323 A  
HETATM   11  C   UNL     1     -11.973  10.956  70.495  1.00  0.00    -0.466 A  
HETATM   12  C   UNL     1     -10.631  11.692  68.609  1.00  0.00    -0.236 A  
HETATM   13  C   UNL     1     -11.064  10.676  69.467  1.00  0.00    -0.328 A  
BRANCH  11  14
HETATM   14  C   UNL     1     -12.347   9.878  71.490  1.00  0.00    -0.504 C  
BRANCH  14  15
HETATM   15  C   UNL     1     -11.178   8.990  71.933  1.00  0.00    -0.368 C  
BRANCH  15  16
HETATM   16  N   UNL     1     -10.696   8.133  70.872  1.00  0.00    -0.217 N  
HETATM   17  C   UNL     1     -11.435   7.042  70.460  1.00  0.00    -0.319 C  
HETATM   18  H   UNL     1      -9.802   8.335  70.424  1.00  0.00     0.000 HD 
HETATM   19  O   UNL     1     -12.486   6.693  70.987  1.00  0.00    -0.328 OA 
BRANCH  17  20
HETATM   20  C   UNL     1     -10.915   6.317  69.275  1.00  0.00    -0.435 A  
HETATM   21  C   UNL     1     -10.079   5.202  69.412  1.00  0.00    -0.305 A  
HETATM   22  C   UNL     1      -9.594   4.552  68.275  1.00  0.00    -0.203 A  
HETATM   23  C   UNL     1      -9.951   5.012  67.007  1.00  0.00    -0.203 A  
HETATM   24 CL   UNL     1      -9.347   4.209  65.610  1.00  0.00    -0.150 Cl 
HETATM   25  C   UNL     1     -10.798   6.110  66.864  1.00  0.00    -0.411 A  
HETATM   26  C   UNL     1     -11.286   6.762  68.000  1.00  0.00    -0.159 A  
ENDBRANCH  17  20
ENDBRANCH  15  16
ENDBRANCH  14  15
ENDBRANCH  11  14
ENDBRANCH   3   8
TORSDOF 5
ENDMDL
MODEL       62
REMARK 921   NORMALIZED FREE ENERGY PREDICTED BY IDOCK:   -5.48 KCAL/MOL
REMARK 922        TOTAL FREE ENERGY PREDICTED BY IDOCK:   -8.08 KCAL/MOL
REMARK 923 INTER-LIGAND FREE ENERGY PREDICTED BY IDOCK:   -7.53 KCAL/MOL
REMARK 924 INTRA-LIGAND FREE ENERGY PREDICTED BY IDOCK:   -0.55 KCAL/MOL
REMARK 927      BINDING AFFINITY PREDICTED BY RF-SCORE:    0.00 PKD
ROOT
HETATM    1  C   UNL     1      -8.898   6.409  71.619  1.00  0.00    -0.136 C  
HETATM    2  C   UNL     1      -9.767   5.932  70.452  1.00  0.00    -0.174 C  
HETATM    3  O   UNL     1      -9.208   6.380  69.191  1.00  0.00    -0.134 OA 
HETATM    4  C   UNL     1     -11.264   6.217  70.649  1.00  0.00    -0.387 C  
HETATM    5  C   UNL     1      -9.637   4.393  70.400  1.00  0.00    -0.196 C  
HETATM    6  O   UNL     1      -9.216   3.927  69.197  1.00  0.00    -0.127 OA 
HETATM    7  O   UNL     1      -9.894   3.641  71.330  1.00  0.00    -0.179 OA 
ENDROOT
BRANCH   3   8
HETATM    8  C   UNL     1      -9.608   7.554  68.626  1.00  0.00    -0.151 A  
HETATM    9  C   UNL     1     -10.468   7.666  67.544  1.00  0.00    -0.336 A  
HETATM   10  C   UNL     1     -10.732   8.912  66.980  1.00  0.00    -0.180 A  
HETATM   11  C   UNL     1     -10.194  10.082  67.527  1.00  0.00    -0.260 A  
HETATM   12  C   UNL     1      -9.100   8.715  69.211  1.00  0.00    -0.149 A  
HETATM   13  C   UNL     1      -9.381   9.971  68.662  1.00  0.00    -0.156 A  
BRANCH  11  14
HETATM   14  C   UNL     1     -10.398  11.431  66.871  1.00  0.00    -0.262 C  
BRANCH  14  15
HETATM   15  C   UNL     1     -11.740  12.098  67.197  1.00  0.00    -0.302 C  
BRANCH  15  16
HETATM   16  N   UNL     1     -11.784  12.636  68.539  1.00  0.00    -0.314 N  
HETATM   17  C   UNL     1     -11.885  13.997  68.747  1.00  0.00    -0.361 C  
HETATM   18  H   UNL     1     -11.741  12.005  69.339  1.00  0.00     0.000 HD 
HETATM   19  O   UNL     1     -11.880  14.826  67.844  1.00  0.00    -0.345 OA 
BRANCH  17  20
HETATM   20  C   UNL     1     -12.065  14.426  70.155  1.00  0.00    -0.397 A  
HETATM   21  C   UNL     1     -12.773  13.639  71.072  1.00  0.00    -0.408 A  
HETATM   22  C   UNL     1     -12.937  14.080  72.387  1.00  0.00    -0.471 A  
HETATM   23  C   UNL     1     -12.390  15.301  72.784  1.00  0.00    -0.396 A  
HETATM   24 CL   UNL     1     -12.600  15.840  74.404  1.00  0.00    -0.732 Cl 
HETATM   25  C   UNL     1     -11.669  16.081  71.881  1.00  0.00    -0.594 A  
HETATM   26  C   UNL     1     -11.501  15.641  70.565  1.00  0.00    -0.380 A  
ENDBRANCH  17  20
ENDBRANCH  15  16
ENDBRANCH  14  15
ENDBRANCH  11  14
ENDBRANCH   3   8
TORSDOF 5
ENDMDL
MODEL       63
REMARK 921   NORMALIZED FREE ENERGY PREDICTED BY IDOCK:   -5.47 KCAL/MOL
REMARK 922        TOTAL FREE ENERGY PREDICTED BY IDOCK:   -8.06 KCAL/MOL
REMARK 923 INTER-LIGAND FREE ENERGY PREDICTED BY IDOCK:   -7.01 KCAL/MOL
REMARK 924 INTRA-LIGAND FREE ENERGY PREDICTED BY IDOCK:   -1.05 KCAL/MOL
REMARK 927      BINDING AFFINITY PREDICTED BY RF-SCORE:    0.00 PKD
ROOT
HETATM    1  C   UNL     1      -9.797   8.855  71.768  1.00  0.00    -0.386 C  
HETATM    2  C   UNL     1     -10.966   8.691  70.792  1.00  0.00    -0.245 C  
HETATM    3  O   UNL     1     -10.656   7.680  69.800  1.00  0.00    -0.237 OA 
HETATM    4  C   UNL     1     -11.490  10.025  70.237  1.00  0.00    -0.372 C  
HETATM    5  C   UNL     1     -12.137   8.085  71.598  1.00  0.00    -0.303 C  
HETATM    6  O   UNL     1     -12.614   6.929  71.072  1.00  0.00    -0.374 OA 
HETATM    7  O   UNL     1     -12.618   8.582  72.607  1.00  0.00    -0.355 OA 
ENDROOT
BRANCH   3   8
HETATM    8  C   UNL     1     -10.091   8.021  68.607  1.00  0.00    -0.199 A  
HETATM    9  C   UNL     1     -10.733   7.974  67.378  1.00  0.00    -0.260 A  
HETATM   10  C   UNL     1     -10.031   8.247  66.207  1.00  0.00    -0.179 A  
HETATM   11  C   UNL     1      -8.689   8.639  66.243  1.00  0.00    -0.165 A  
HETATM   12  C   UNL     1      -8.766   8.455  68.664  1.00  0.00    -0.133 A  
HETATM   13  C   UNL     1      -8.064   8.754  67.491  1.00  0.00    -0.106 A  
BRANCH  11  14
HETATM   14  C   UNL     1      -7.890   8.851  64.974  1.00  0.00    -0.112 C  
BRANCH  14  15
HETATM   15  C   UNL     1      -8.271  10.110  64.187  1.00  0.00    -0.165 C  
BRANCH  15  16
HETATM   16  N   UNL     1      -8.766  11.172  65.036  1.00  0.00    -0.384 N  
HETATM   17  C   UNL     1     -10.030  11.693  64.846  1.00  0.00    -0.255 C  
HETATM   18  H   UNL     1      -8.175  11.539  65.783  1.00  0.00     0.000 HD 
HETATM   19  O   UNL     1     -10.776  11.352  63.935  1.00  0.00    -0.350 OA 
BRANCH  17  20
HETATM   20  C   UNL     1     -10.485  12.675  65.859  1.00  0.00    -0.295 A  
HETATM   21  C   UNL     1     -11.307  12.293  66.927  1.00  0.00    -0.392 A  
HETATM   22  C   UNL     1     -11.731  13.246  67.855  1.00  0.00    -0.395 A  
HETATM   23  C   UNL     1     -11.329  14.575  67.718  1.00  0.00    -0.317 A  
HETATM   24 CL   UNL     1     -11.859  15.745  68.863  1.00  0.00    -0.398 Cl 
HETATM   25  C   UNL     1     -10.497  14.959  66.668  1.00  0.00    -0.292 A  
HETATM   26  C   UNL     1     -10.069  14.007  65.738  1.00  0.00    -0.345 A  
ENDBRANCH  17  20
ENDBRANCH  15  16
ENDBRANCH  14  15
ENDBRANCH  11  14
ENDBRANCH   3   8
TORSDOF 5
ENDMDL
MODEL       64
REMARK 921   NORMALIZED FREE ENERGY PREDICTED BY IDOCK:   -5.45 KCAL/MOL
REMARK 922        TOTAL FREE ENERGY PREDICTED BY IDOCK:   -8.04 KCAL/MOL
REMARK 923 INTER-LIGAND FREE ENERGY PREDICTED BY IDOCK:   -7.05 KCAL/MOL
REMARK 924 INTRA-LIGAND FREE ENERGY PREDICTED BY IDOCK:   -0.99 KCAL/MOL
REMARK 927      BINDING AFFINITY PREDICTED BY RF-SCORE:    0.00 PKD
ROOT
HETATM    1  C   UNL     1      -9.482   3.995  69.051  1.00  0.00    -0.243 C  
HETATM    2  C   UNL     1      -8.632   5.188  69.500  1.00  0.00    -0.092 C  
HETATM    3  O   UNL     1      -8.922   5.523  70.881  1.00  0.00    -0.136 OA 
HETATM    4  C   UNL     1      -8.663   6.366  68.514  1.00  0.00    -0.121 C  
HETATM    5  C   UNL     1      -7.164   4.704  69.527  1.00  0.00    -0.051 C  
HETATM    6  O   UNL     1      -6.560   4.878  70.729  1.00  0.00    -0.029 OA 
HETATM    7  O   UNL     1      -6.574   4.221  68.571  1.00  0.00    -0.043 OA 
ENDROOT
BRANCH   3   8
HETATM    8  C   UNL     1      -9.867   6.455  71.192  1.00  0.00    -0.179 A  
HETATM    9  C   UNL     1      -9.602   7.753  71.602  1.00  0.00    -0.191 A  
HETATM   10  C   UNL     1     -10.642   8.593  71.993  1.00  0.00    -0.421 A  
HETATM   11  C   UNL     1     -11.975   8.177  71.919  1.00  0.00    -0.367 A  
HETATM   12  C   UNL     1     -11.194   6.039  71.068  1.00  0.00    -0.332 A  
HETATM   13  C   UNL     1     -12.242   6.888  71.438  1.00  0.00    -0.418 A  
BRANCH  11  14
HETATM   14  C   UNL     1     -13.107   9.046  72.425  1.00  0.00    -0.487 C  
BRANCH  14  15
HETATM   15  C   UNL     1     -13.267  10.377  71.681  1.00  0.00    -0.400 C  
BRANCH  15  16
HETATM   16  N   UNL     1     -12.779  10.317  70.320  1.00  0.00    -0.544 N  
HETATM   17  C   UNL     1     -12.117  11.393  69.763  1.00  0.00    -0.320 C  
HETATM   18  H   UNL     1     -12.925   9.473  69.766  1.00  0.00     0.000 HD 
HETATM   19  O   UNL     1     -11.956  12.464  70.337  1.00  0.00    -0.344 OA 
BRANCH  17  20
HETATM   20  C   UNL     1     -11.539  11.172  68.415  1.00  0.00    -0.376 A  
HETATM   21  C   UNL     1     -11.651  12.137  67.407  1.00  0.00    -0.410 A  
HETATM   22  C   UNL     1     -11.110  11.890  66.143  1.00  0.00    -0.374 A  
HETATM   23  C   UNL     1     -10.452  10.686  65.894  1.00  0.00    -0.174 A  
HETATM   24 CL   UNL     1      -9.790  10.387  64.334  1.00  0.00    -0.392 Cl 
HETATM   25  C   UNL     1     -10.321   9.728  66.898  1.00  0.00    -0.301 A  
HETATM   26  C   UNL     1     -10.861   9.973  68.164  1.00  0.00    -0.303 A  
ENDBRANCH  17  20
ENDBRANCH  15  16
ENDBRANCH  14  15
ENDBRANCH  11  14
ENDBRANCH   3   8
TORSDOF 5
ENDMDL
MODEL       65
REMARK 921   NORMALIZED FREE ENERGY PREDICTED BY IDOCK:   -5.44 KCAL/MOL
REMARK 922        TOTAL FREE ENERGY PREDICTED BY IDOCK:   -8.03 KCAL/MOL
REMARK 923 INTER-LIGAND FREE ENERGY PREDICTED BY IDOCK:   -7.44 KCAL/MOL
REMARK 924 INTRA-LIGAND FREE ENERGY PREDICTED BY IDOCK:   -0.60 KCAL/MOL
REMARK 927      BINDING AFFINITY PREDICTED BY RF-SCORE:    0.00 PKD
ROOT
HETATM    1  C   UNL     1      -8.140  18.758  66.443  1.00  0.00    -0.296 C  
HETATM    2  C   UNL     1      -9.559  18.667  67.013  1.00  0.00    -0.304 C  
HETATM    3  O   UNL     1      -9.642  17.600  67.991  1.00  0.00    -0.272 OA 
HETATM    4  C   UNL     1     -10.652  18.661  65.932  1.00  0.00    -0.365 C  
HETATM    5  C   UNL     1      -9.792  19.955  67.836  1.00  0.00    -0.404 C  
HETATM    6  O   UNL     1     -10.148  19.716  69.123  1.00  0.00    -0.438 OA 
HETATM    7  O   UNL     1      -9.687  21.091  67.395  1.00  0.00    -0.416 OA 
ENDROOT
BRANCH   3   8
HETATM    8  C   UNL     1     -10.025  16.343  67.624  1.00  0.00    -0.252 A  
HETATM    9  C   UNL     1      -9.284  15.486  66.825  1.00  0.00    -0.272 A  
HETATM   10  C   UNL     1      -9.814  14.260  66.427  1.00  0.00    -0.309 A  
HETATM   11  C   UNL     1     -11.069  13.836  66.876  1.00  0.00    -0.311 A  
HETATM   12  C   UNL     1     -11.258  15.915  68.118  1.00  0.00    -0.339 A  
HETATM   13  C   UNL     1     -11.784  14.675  67.741  1.00  0.00    -0.386 A  
BRANCH  11  14
HETATM   14  C   UNL     1     -11.695  12.549  66.380  1.00  0.00    -0.458 C  
BRANCH  14  15
HETATM   15  C   UNL     1     -10.694  11.418  66.116  1.00  0.00    -0.267 C  
BRANCH  15  16
HETATM   16  N   UNL     1     -10.820  10.329  67.060  1.00  0.00    -0.223 N  
HETATM   17  C   UNL     1     -10.265   9.095  66.787  1.00  0.00    -0.261 C  
HETATM   18  H   UNL     1     -11.324  10.474  67.935  1.00  0.00     0.000 HD 
HETATM   19  O   UNL     1      -9.700   8.820  65.734  1.00  0.00    -0.204 OA 
BRANCH  17  20
HETATM   20  C   UNL     1     -10.333   8.097  67.882  1.00  0.00    -0.280 A  
HETATM   21  C   UNL     1     -10.580   8.483  69.206  1.00  0.00    -0.193 A  
HETATM   22  C   UNL     1     -10.621   7.519  70.216  1.00  0.00    -0.235 A  
HETATM   23  C   UNL     1     -10.423   6.175  69.901  1.00  0.00    -0.233 A  
HETATM   24 CL   UNL     1     -10.471   4.993  71.151  1.00  0.00    -0.248 Cl 
HETATM   25  C   UNL     1     -10.194   5.782  68.583  1.00  0.00    -0.254 A  
HETATM   26  C   UNL     1     -10.153   6.743  67.570  1.00  0.00    -0.215 A  
ENDBRANCH  17  20
ENDBRANCH  15  16
ENDBRANCH  14  15
ENDBRANCH  11  14
ENDBRANCH   3   8
TORSDOF 5
ENDMDL
MODEL       66
REMARK 921   NORMALIZED FREE ENERGY PREDICTED BY IDOCK:   -5.43 KCAL/MOL
REMARK 922        TOTAL FREE ENERGY PREDICTED BY IDOCK:   -8.02 KCAL/MOL
REMARK 923 INTER-LIGAND FREE ENERGY PREDICTED BY IDOCK:   -6.70 KCAL/MOL
REMARK 924 INTRA-LIGAND FREE ENERGY PREDICTED BY IDOCK:   -1.32 KCAL/MOL
REMARK 927      BINDING AFFINITY PREDICTED BY RF-SCORE:    0.00 PKD
ROOT
HETATM    1  C   UNL     1     -12.884  14.073  65.912  1.00  0.00    -0.354 C  
HETATM    2  C   UNL     1     -11.922  13.101  65.221  1.00  0.00    -0.398 C  
HETATM    3  O   UNL     1     -12.057  11.772  65.786  1.00  0.00    -0.357 OA 
HETATM    4  C   UNL     1     -10.484  13.633  65.120  1.00  0.00    -0.388 C  
HETATM    5  C   UNL     1     -12.415  12.946  63.765  1.00  0.00    -0.347 C  
HETATM    6  O   UNL     1     -12.660  11.659  63.411  1.00  0.00    -0.485 OA 
HETATM    7  O   UNL     1     -12.566  13.872  62.980  1.00  0.00    -0.694 OA 
ENDROOT
BRANCH   3   8
HETATM    8  C   UNL     1     -11.263  11.365  66.816  1.00  0.00    -0.252 A  
HETATM    9  C   UNL     1     -11.413  11.752  68.139  1.00  0.00    -0.382 A  
HETATM   10  C   UNL     1     -10.483  11.356  69.098  1.00  0.00    -0.159 A  
HETATM   11  C   UNL     1      -9.419  10.510  68.768  1.00  0.00    -0.181 A  
HETATM   12  C   UNL     1     -10.235  10.483  66.479  1.00  0.00    -0.288 A  
HETATM   13  C   UNL     1      -9.312  10.065  67.444  1.00  0.00    -0.167 A  
BRANCH  11  14
HETATM   14  C   UNL     1      -8.352  10.147  69.778  1.00  0.00    -0.154 C  
BRANCH  14  15
HETATM   15  C   UNL     1      -7.033  10.911  69.610  1.00  0.00    -0.128 C  
BRANCH  15  16
HETATM   16  N   UNL     1      -7.217  12.346  69.605  1.00  0.00    -0.250 N  
HETATM   17  C   UNL     1      -7.234  13.048  68.416  1.00  0.00    -0.110 C  
HETATM   18  H   UNL     1      -7.335  12.844  70.487  1.00  0.00     0.000 HD 
HETATM   19  O   UNL     1      -7.037  12.535  67.320  1.00  0.00    -0.148 OA 
BRANCH  17  20
HETATM   20  C   UNL     1      -7.569  14.489  68.519  1.00  0.00    -0.123 A  
HETATM   21  C   UNL     1      -8.827  14.974  68.141  1.00  0.00    -0.167 A  
HETATM   22  C   UNL     1      -9.104  16.340  68.235  1.00  0.00    -0.197 A  
HETATM   23  C   UNL     1      -8.128  17.215  68.713  1.00  0.00    -0.252 A  
HETATM   24 CL   UNL     1      -8.475  18.896  68.822  1.00  0.00    -0.370 Cl 
HETATM   25  C   UNL     1      -6.879  16.737  69.107  1.00  0.00    -0.227 A  
HETATM   26  C   UNL     1      -6.600  15.370  69.016  1.00  0.00    -0.123 A  
ENDBRANCH  17  20
ENDBRANCH  15  16
ENDBRANCH  14  15
ENDBRANCH  11  14
ENDBRANCH   3   8
TORSDOF 5
ENDMDL
MODEL       67
REMARK 921   NORMALIZED FREE ENERGY PREDICTED BY IDOCK:   -5.38 KCAL/MOL
REMARK 922        TOTAL FREE ENERGY PREDICTED BY IDOCK:   -7.96 KCAL/MOL
REMARK 923 INTER-LIGAND FREE ENERGY PREDICTED BY IDOCK:   -7.25 KCAL/MOL
REMARK 924 INTRA-LIGAND FREE ENERGY PREDICTED BY IDOCK:   -0.70 KCAL/MOL
REMARK 927      BINDING AFFINITY PREDICTED BY RF-SCORE:    0.00 PKD
ROOT
HETATM    1  C   UNL     1      -7.129   8.421  65.622  1.00  0.00    -0.075 C  
HETATM    2  C   UNL     1      -7.411   9.437  66.733  1.00  0.00    -0.094 C  
HETATM    3  O   UNL     1      -8.803   9.373  67.133  1.00  0.00    -0.127 OA 
HETATM    4  C   UNL     1      -6.876  10.844  66.424  1.00  0.00    -0.135 C  
HETATM    5  C   UNL     1      -6.635   8.959  67.981  1.00  0.00    -0.061 C  
HETATM    6  O   UNL     1      -7.422   8.788  69.073  1.00  0.00    -0.078 OA 
HETATM    7  O   UNL     1      -5.429   8.760  68.016  1.00  0.00    -0.034 OA 
ENDROOT
BRANCH   3   8
HETATM    8  C   UNL     1      -9.735  10.185  66.557  1.00  0.00    -0.200 A  
HETATM    9  C   UNL     1      -9.969  10.289  65.194  1.00  0.00    -0.395 A  
HETATM   10  C   UNL     1     -10.877  11.226  64.705  1.00  0.00    -0.335 A  
HETATM   11  C   UNL     1     -11.621  12.033  65.572  1.00  0.00    -0.352 A  
HETATM   12  C   UNL     1     -10.503  10.949  67.437  1.00  0.00    -0.263 A  
HETATM   13  C   UNL     1     -11.433  11.875  66.951  1.00  0.00    -0.390 A  
BRANCH  11  14
HETATM   14  C   UNL     1     -12.542  13.116  65.053  1.00  0.00    -0.499 C  
BRANCH  14  15
HETATM   15  C   UNL     1     -11.834  14.235  64.280  1.00  0.00    -0.379 C  
BRANCH  15  16
HETATM   16  N   UNL     1     -10.836  14.917  65.075  1.00  0.00    -0.398 N  
HETATM   17  C   UNL     1     -10.733  16.293  65.044  1.00  0.00    -0.298 C  
HETATM   18  H   UNL     1     -10.202  14.377  65.663  1.00  0.00     0.000 HD 
HETATM   19  O   UNL     1     -11.413  17.010  64.317  1.00  0.00    -1.124 OA 
BRANCH  17  20
HETATM   20  C   UNL     1      -9.773  16.894  66.001  1.00  0.00    -0.260 A  
HETATM   21  C   UNL     1      -8.668  16.174  66.472  1.00  0.00    -0.337 A  
HETATM   22  C   UNL     1      -7.792  16.764  67.386  1.00  0.00    -0.193 A  
HETATM   23  C   UNL     1      -8.017  18.070  67.820  1.00  0.00    -0.235 A  
HETATM   24 CL   UNL     1      -6.936  18.789  68.949  1.00  0.00    -0.324 Cl 
HETATM   25  C   UNL     1      -9.105  18.798  67.342  1.00  0.00    -0.293 A  
HETATM   26  C   UNL     1      -9.983  18.211  66.426  1.00  0.00    -0.376 A  
ENDBRANCH  17  20
ENDBRANCH  15  16
ENDBRANCH  14  15
ENDBRANCH  11  14
ENDBRANCH   3   8
TORSDOF 5
ENDMDL
MODEL       68
REMARK 921   NORMALIZED FREE ENERGY PREDICTED BY IDOCK:   -5.38 KCAL/MOL
REMARK 922        TOTAL FREE ENERGY PREDICTED BY IDOCK:   -7.95 KCAL/MOL
REMARK 923 INTER-LIGAND FREE ENERGY PREDICTED BY IDOCK:   -7.28 KCAL/MOL
REMARK 924 INTRA-LIGAND FREE ENERGY PREDICTED BY IDOCK:   -0.67 KCAL/MOL
REMARK 927      BINDING AFFINITY PREDICTED BY RF-SCORE:    0.00 PKD
ROOT
HETATM    1  C   UNL     1     -11.071   6.426  69.521  1.00  0.00    -0.460 C  
HETATM    2  C   UNL     1     -10.237   6.512  68.239  1.00  0.00    -0.172 C  
HETATM    3  O   UNL     1      -9.444   7.726  68.234  1.00  0.00    -0.145 OA 
HETATM    4  C   UNL     1     -11.051   6.248  66.962  1.00  0.00    -0.379 C  
HETATM    5  C   UNL     1      -9.192   5.376  68.311  1.00  0.00    -0.111 C  
HETATM    6  O   UNL     1      -7.912   5.811  68.189  1.00  0.00    -0.102 OA 
HETATM    7  O   UNL     1      -9.461   4.191  68.449  1.00  0.00    -0.145 OA 
ENDROOT
BRANCH   3   8
HETATM    8  C   UNL     1      -9.915   8.867  67.655  1.00  0.00    -0.196 A  
HETATM    9  C   UNL     1     -10.792   9.761  68.252  1.00  0.00    -0.256 A  
HETATM   10  C   UNL     1     -11.290  10.845  67.532  1.00  0.00    -0.309 A  
HETATM   11  C   UNL     1     -10.870  11.097  66.222  1.00  0.00    -0.266 A  
HETATM   12  C   UNL     1      -9.451   9.130  66.366  1.00  0.00    -0.288 A  
HETATM   13  C   UNL     1      -9.930  10.231  65.648  1.00  0.00    -0.347 A  
BRANCH  11  14
HETATM   14  C   UNL     1     -11.470  12.217  65.399  1.00  0.00    -0.402 C  
BRANCH  14  15
HETATM   15  C   UNL     1     -10.443  13.078  64.654  1.00  0.00    -0.380 C  
BRANCH  15  16
HETATM   16  N   UNL     1     -10.415  14.446  65.124  1.00  0.00    -0.389 N  
HETATM   17  C   UNL     1      -9.553  14.825  66.134  1.00  0.00    -0.309 C  
HETATM   18  H   UNL     1     -11.038  15.137  64.707  1.00  0.00     0.000 HD 
HETATM   19  O   UNL     1      -8.818  14.045  66.730  1.00  0.00    -0.225 OA 
BRANCH  17  20
HETATM   20  C   UNL     1      -9.508  16.276  66.438  1.00  0.00    -0.322 A  
HETATM   21  C   UNL     1      -8.402  17.060  66.089  1.00  0.00    -0.276 A  
HETATM   22  C   UNL     1      -8.386  18.420  66.405  1.00  0.00    -0.272 A  
HETATM   23  C   UNL     1      -9.475  18.994  67.061  1.00  0.00    -0.317 A  
HETATM   24 CL   UNL     1      -9.446  20.669  67.451  1.00  0.00    -0.560 Cl 
HETATM   25  C   UNL     1     -10.587  18.222  67.396  1.00  0.00    -0.425 A  
HETATM   26  C   UNL     1     -10.607  16.861  67.080  1.00  0.00    -0.230 A  
ENDBRANCH  17  20
ENDBRANCH  15  16
ENDBRANCH  14  15
ENDBRANCH  11  14
ENDBRANCH   3   8
TORSDOF 5
ENDMDL
MODEL       69
REMARK 921   NORMALIZED FREE ENERGY PREDICTED BY IDOCK:   -5.34 KCAL/MOL
REMARK 922        TOTAL FREE ENERGY PREDICTED BY IDOCK:   -7.91 KCAL/MOL
REMARK 923 INTER-LIGAND FREE ENERGY PREDICTED BY IDOCK:   -7.03 KCAL/MOL
REMARK 924 INTRA-LIGAND FREE ENERGY PREDICTED BY IDOCK:   -0.88 KCAL/MOL
REMARK 927      BINDING AFFINITY PREDICTED BY RF-SCORE:    0.00 PKD
ROOT
HETATM    1  C   UNL     1     -11.415   7.585  70.469  1.00  0.00    -0.259 C  
HETATM    2  C   UNL     1      -9.941   7.998  70.422  1.00  0.00    -0.188 C  
HETATM    3  O   UNL     1      -9.825   9.431  70.227  1.00  0.00    -0.209 OA 
HETATM    4  C   UNL     1      -9.094   7.132  69.476  1.00  0.00    -0.146 C  
HETATM    5  C   UNL     1      -9.366   7.759  71.836  1.00  0.00    -0.153 C  
HETATM    6  O   UNL     1      -8.803   8.865  72.384  1.00  0.00    -0.396 OA 
HETATM    7  O   UNL     1      -9.387   6.686  72.423  1.00  0.00    -0.143 OA 
ENDROOT
BRANCH   3   8
HETATM    8  C   UNL     1      -9.710   9.961  68.977  1.00  0.00    -0.193 A  
HETATM    9  C   UNL     1      -8.526  10.395  68.400  1.00  0.00    -0.124 A  
HETATM   10  C   UNL     1      -8.537  11.015  67.153  1.00  0.00    -0.136 A  
HETATM   11  C   UNL     1      -9.723  11.154  66.425  1.00  0.00    -0.235 A  
HETATM   12  C   UNL     1     -10.895  10.049  68.243  1.00  0.00    -0.286 A  
HETATM   13  C   UNL     1     -10.906  10.650  66.980  1.00  0.00    -0.298 A  
BRANCH  11  14
HETATM   14  C   UNL     1      -9.763  11.906  65.111  1.00  0.00    -0.197 C  
BRANCH  14  15
HETATM   15  C   UNL     1     -10.380  13.307  65.200  1.00  0.00    -0.323 C  
BRANCH  15  16
HETATM   16  N   UNL     1     -10.486  13.784  66.561  1.00  0.00    -0.279 N  
HETATM   17  C   UNL     1     -11.703  14.192  67.070  1.00  0.00    -0.405 C  
HETATM   18  H   UNL     1      -9.654  13.821  67.151  1.00  0.00     0.000 HD 
HETATM   19  O   UNL     1     -12.735  14.238  66.411  1.00  0.00    -0.314 OA 
BRANCH  17  20
HETATM   20  C   UNL     1     -11.722  14.528  68.515  1.00  0.00    -0.353 A  
HETATM   21  C   UNL     1     -11.363  15.802  68.971  1.00  0.00    -0.354 A  
HETATM   22  C   UNL     1     -11.376  16.080  70.340  1.00  0.00    -0.405 A  
HETATM   23  C   UNL     1     -11.754  15.090  71.246  1.00  0.00    -0.347 A  
HETATM   24 CL   UNL     1     -11.764  15.439  72.931  1.00  0.00    -0.548 Cl 
HETATM   25  C   UNL     1     -12.129  13.824  70.797  1.00  0.00    -0.395 A  
HETATM   26  C   UNL     1     -12.119  13.543  69.428  1.00  0.00    -0.340 A  
ENDBRANCH  17  20
ENDBRANCH  15  16
ENDBRANCH  14  15
ENDBRANCH  11  14
ENDBRANCH   3   8
TORSDOF 5
ENDMDL
MODEL       70
REMARK 921   NORMALIZED FREE ENERGY PREDICTED BY IDOCK:   -5.32 KCAL/MOL
REMARK 922        TOTAL FREE ENERGY PREDICTED BY IDOCK:   -7.88 KCAL/MOL
REMARK 923 INTER-LIGAND FREE ENERGY PREDICTED BY IDOCK:   -6.59 KCAL/MOL
REMARK 924 INTRA-LIGAND FREE ENERGY PREDICTED BY IDOCK:   -1.29 KCAL/MOL
REMARK 927      BINDING AFFINITY PREDICTED BY RF-SCORE:    0.00 PKD
ROOT
HETATM    1  C   UNL     1     -12.205  12.822  65.412  1.00  0.00    -0.532 C  
HETATM    2  C   UNL     1     -11.170  12.766  66.539  1.00  0.00    -0.307 C  
HETATM    3  O   UNL     1      -9.845  12.535  65.997  1.00  0.00    -0.254 OA 
HETATM    4  C   UNL     1     -11.580  11.844  67.699  1.00  0.00    -0.382 C  
HETATM    5  C   UNL     1     -11.091  14.187  67.142  1.00  0.00    -0.307 C  
HETATM    6  O   UNL     1      -9.838  14.707  67.136  1.00  0.00    -0.231 OA 
HETATM    7  O   UNL     1     -12.044  14.802  67.600  1.00  0.00    -0.299 OA 
ENDROOT
BRANCH   3   8
HETATM    8  C   UNL     1      -9.349  11.271  65.876  1.00  0.00    -0.219 A  
HETATM    9  C   UNL     1      -9.620  10.405  64.827  1.00  0.00    -0.352 A  
HETATM   10  C   UNL     1      -9.141   9.097  64.853  1.00  0.00    -0.190 A  
HETATM   11  C   UNL     1      -8.325   8.646  65.895  1.00  0.00    -0.140 A  
HETATM   12  C   UNL     1      -8.499  10.851  66.900  1.00  0.00    -0.135 A  
HETATM   13  C   UNL     1      -7.997   9.546  66.918  1.00  0.00    -0.109 A  
BRANCH  11  14
HETATM   14  C   UNL     1      -7.873   7.203  65.982  1.00  0.00    -0.107 C  
BRANCH  14  15
HETATM   15  C   UNL     1      -8.988   6.210  66.331  1.00  0.00    -0.150 C  
BRANCH  15  16
HETATM   16  N   UNL     1      -9.911   6.729  67.316  1.00  0.00    -0.136 N  
HETATM   17  C   UNL     1      -9.663   6.567  68.665  1.00  0.00    -0.127 C  
HETATM   18  H   UNL     1     -10.752   7.220  67.013  1.00  0.00     0.000 HD 
HETATM   19  O   UNL     1      -8.710   5.937  69.111  1.00  0.00    -0.117 OA 
BRANCH  17  20
HETATM   20  C   UNL     1     -10.598   7.259  69.584  1.00  0.00    -0.246 A  
HETATM   21  C   UNL     1     -10.560   8.649  69.752  1.00  0.00    -0.224 A  
HETATM   22  C   UNL     1     -11.444   9.268  70.638  1.00  0.00    -0.327 A  
HETATM   23  C   UNL     1     -12.368   8.499  71.347  1.00  0.00    -0.297 A  
HETATM   24 CL   UNL     1     -13.452   9.268  72.439  1.00  0.00    -0.528 Cl 
HETATM   25  C   UNL     1     -12.424   7.118  71.171  1.00  0.00    -0.400 A  
HETATM   26  C   UNL     1     -11.541   6.496  70.284  1.00  0.00    -0.473 A  
ENDBRANCH  17  20
ENDBRANCH  15  16
ENDBRANCH  14  15
ENDBRANCH  11  14
ENDBRANCH   3   8
TORSDOF 5
ENDMDL
MODEL       71
REMARK 921   NORMALIZED FREE ENERGY PREDICTED BY IDOCK:   -5.28 KCAL/MOL
REMARK 922        TOTAL FREE ENERGY PREDICTED BY IDOCK:   -7.83 KCAL/MOL
REMARK 923 INTER-LIGAND FREE ENERGY PREDICTED BY IDOCK:   -6.87 KCAL/MOL
REMARK 924 INTRA-LIGAND FREE ENERGY PREDICTED BY IDOCK:   -0.96 KCAL/MOL
REMARK 927      BINDING AFFINITY PREDICTED BY RF-SCORE:    0.00 PKD
ROOT
HETATM    1  C   UNL     1     -11.380   8.671  70.590  1.00  0.00    -0.277 C  
HETATM    2  C   UNL     1      -9.910   8.551  70.175  1.00  0.00    -0.178 C  
HETATM    3  O   UNL     1      -9.468   9.769  69.525  1.00  0.00    -0.185 OA 
HETATM    4  C   UNL     1      -9.592   7.248  69.424  1.00  0.00    -0.154 C  
HETATM    5  C   UNL     1      -9.083   8.495  71.479  1.00  0.00    -0.216 C  
HETATM    6  O   UNL     1      -8.126   9.453  71.553  1.00  0.00    -0.285 OA 
HETATM    7  O   UNL     1      -9.242   7.670  72.369  1.00  0.00    -0.137 OA 
ENDROOT
BRANCH   3   8
HETATM    8  C   UNL     1      -9.535   9.903  68.170  1.00  0.00    -0.138 A  
HETATM    9  C   UNL     1     -10.706   9.950  67.430  1.00  0.00    -0.323 A  
HETATM   10  C   UNL     1     -10.658   9.987  66.038  1.00  0.00    -0.045 A  
HETATM   11  C   UNL     1      -9.438  10.047  65.358  1.00  0.00    -0.310 A  
HETATM   12  C   UNL     1      -8.310  10.009  67.509  1.00  0.00    -0.118 A  
HETATM   13  C   UNL     1      -8.258  10.070  66.112  1.00  0.00    -0.121 A  
BRANCH  11  14
HETATM   14  C   UNL     1      -9.369   9.996  63.846  1.00  0.00    -0.315 C  
BRANCH  14  15
HETATM   15  C   UNL     1      -9.722  11.316  63.150  1.00  0.00    -0.386 C  
BRANCH  15  16
HETATM   16  N   UNL     1      -9.769  12.435  64.067  1.00  0.00    -0.585 N  
HETATM   17  C   UNL     1     -10.925  13.175  64.213  1.00  0.00    -0.403 C  
HETATM   18  H   UNL     1      -8.941  12.680  64.609  1.00  0.00     0.000 HD 
HETATM   19  O   UNL     1     -11.942  12.987  63.555  1.00  0.00    -0.514 OA 
BRANCH  17  20
HETATM   20  C   UNL     1     -10.904  14.207  65.279  1.00  0.00    -0.356 A  
HETATM   21  C   UNL     1     -11.269  13.901  66.596  1.00  0.00    -0.328 A  
HETATM   22  C   UNL     1     -11.254  14.900  67.572  1.00  0.00    -0.334 A  
HETATM   23  C   UNL     1     -10.868  16.197  67.232  1.00  0.00    -0.235 A  
HETATM   24 CL   UNL     1     -10.855  17.423  68.438  1.00  0.00    -0.296 Cl 
HETATM   25  C   UNL     1     -10.486  16.503  65.927  1.00  0.00    -0.335 A  
HETATM   26  C   UNL     1     -10.499  15.506  64.948  1.00  0.00    -0.300 A  
ENDBRANCH  17  20
ENDBRANCH  15  16
ENDBRANCH  14  15
ENDBRANCH  11  14
ENDBRANCH   3   8
TORSDOF 5
ENDMDL
MODEL       72
REMARK 921   NORMALIZED FREE ENERGY PREDICTED BY IDOCK:   -5.22 KCAL/MOL
REMARK 922        TOTAL FREE ENERGY PREDICTED BY IDOCK:   -7.74 KCAL/MOL
REMARK 923 INTER-LIGAND FREE ENERGY PREDICTED BY IDOCK:   -7.53 KCAL/MOL
REMARK 924 INTRA-LIGAND FREE ENERGY PREDICTED BY IDOCK:   -0.21 KCAL/MOL
REMARK 927      BINDING AFFINITY PREDICTED BY RF-SCORE:    0.00 PKD
ROOT
HETATM    1  C   UNL     1     -10.619  13.579  64.547  1.00  0.00    -0.439 C  
HETATM    2  C   UNL     1     -11.372  14.493  65.519  1.00  0.00    -0.335 C  
HETATM    3  O   UNL     1     -10.751  14.458  66.829  1.00  0.00    -0.286 OA 
HETATM    4  C   UNL     1     -12.894  14.278  65.504  1.00  0.00    -0.334 C  
HETATM    5  C   UNL     1     -11.149  15.942  65.031  1.00  0.00    -0.360 C  
HETATM    6  O   UNL     1     -10.616  16.754  65.978  1.00  0.00    -0.307 OA 
HETATM    7  O   UNL     1     -11.429  16.350  63.913  1.00  0.00    -1.063 OA 
ENDROOT
BRANCH   3   8
HETATM    8  C   UNL     1     -11.176  13.582  67.783  1.00  0.00    -0.282 A  
HETATM    9  C   UNL     1     -11.576  13.930  69.064  1.00  0.00    -0.351 A  
HETATM   10  C   UNL     1     -11.897  12.944  69.994  1.00  0.00    -0.356 A  
HETATM   11  C   UNL     1     -11.890  11.590  69.643  1.00  0.00    -0.421 A  
HETATM   12  C   UNL     1     -11.209  12.239  67.403  1.00  0.00    -0.358 A  
HETATM   13  C   UNL     1     -11.553  11.247  68.328  1.00  0.00    -0.370 A  
BRANCH  11  14
HETATM   14  C   UNL     1     -12.147  10.505  70.667  1.00  0.00    -0.452 C  
BRANCH  14  15
HETATM   15  C   UNL     1     -10.892   9.751  71.122  1.00  0.00    -0.263 C  
BRANCH  15  16
HETATM   16  N   UNL     1      -9.961   9.514  70.041  1.00  0.00    -0.221 N  
HETATM   17  C   UNL     1      -9.996   8.331  69.330  1.00  0.00    -0.192 C  
HETATM   18  H   UNL     1      -9.271  10.226  69.801  1.00  0.00     0.000 HD 
HETATM   19  O   UNL     1     -10.750   7.400  69.594  1.00  0.00    -0.236 OA 
BRANCH  17  20
HETATM   20  C   UNL     1      -9.093   8.252  68.156  1.00  0.00    -0.134 A  
HETATM   21  C   UNL     1      -9.568   8.467  66.856  1.00  0.00    -0.264 A  
HETATM   22  C   UNL     1      -8.694   8.369  65.771  1.00  0.00    -0.199 A  
HETATM   23  C   UNL     1      -7.349   8.066  65.988  1.00  0.00    -0.073 A  
HETATM   24 CL   UNL     1      -6.279   7.943  64.646  1.00  0.00    -0.048 Cl 
HETATM   25  C   UNL     1      -6.867   7.869  67.281  1.00  0.00    -0.070 A  
HETATM   26  C   UNL     1      -7.739   7.967  68.368  1.00  0.00    -0.117 A  
ENDBRANCH  17  20
ENDBRANCH  15  16
ENDBRANCH  14  15
ENDBRANCH  11  14
ENDBRANCH   3   8
TORSDOF 5
ENDMDL
MODEL       73
REMARK 921   NORMALIZED FREE ENERGY PREDICTED BY IDOCK:   -5.20 KCAL/MOL
REMARK 922        TOTAL FREE ENERGY PREDICTED BY IDOCK:   -7.72 KCAL/MOL
REMARK 923 INTER-LIGAND FREE ENERGY PREDICTED BY IDOCK:   -7.16 KCAL/MOL
REMARK 924 INTRA-LIGAND FREE ENERGY PREDICTED BY IDOCK:   -0.56 KCAL/MOL
REMARK 927      BINDING AFFINITY PREDICTED BY RF-SCORE:    0.00 PKD
ROOT
HETATM    1  C   UNL     1     -10.289  18.168  66.352  1.00  0.00    -0.404 C  
HETATM    2  C   UNL     1      -9.332  18.574  67.477  1.00  0.00    -0.279 C  
HETATM    3  O   UNL     1      -8.016  18.009  67.249  1.00  0.00    -0.208 OA 
HETATM    4  C   UNL     1      -9.913  18.350  68.883  1.00  0.00    -0.374 C  
HETATM    5  C   UNL     1      -9.118  20.099  67.351  1.00  0.00    -0.364 C  
HETATM    6  O   UNL     1      -7.814  20.453  67.235  1.00  0.00    -0.311 OA 
HETATM    7  O   UNL     1     -10.015  20.931  67.366  1.00  0.00    -0.397 OA 
ENDROOT
BRANCH   3   8
HETATM    8  C   UNL     1      -7.668  16.805  67.785  1.00  0.00    -0.168 A  
HETATM    9  C   UNL     1      -6.953  16.632  68.960  1.00  0.00    -0.212 A  
HETATM   10  C   UNL     1      -6.563  15.358  69.366  1.00  0.00    -0.155 A  
HETATM   11  C   UNL     1      -6.936  14.222  68.641  1.00  0.00    -0.105 A  
HETATM   12  C   UNL     1      -8.089  15.679  67.075  1.00  0.00    -0.276 A  
HETATM   13  C   UNL     1      -7.718  14.396  67.492  1.00  0.00    -0.210 A  
BRANCH  11  14
HETATM   14  C   UNL     1      -6.443  12.842  69.020  1.00  0.00    -0.096 C  
BRANCH  14  15
HETATM   15  C   UNL     1      -7.289  11.691  68.462  1.00  0.00    -0.102 C  
BRANCH  15  16
HETATM   16  N   UNL     1      -8.416  11.366  69.309  1.00  0.00    -0.363 N  
HETATM   17  C   UNL     1      -9.513  10.705  68.794  1.00  0.00    -0.183 C  
HETATM   18  H   UNL     1      -8.401  11.627  70.294  1.00  0.00     0.000 HD 
HETATM   19  O   UNL     1      -9.638  10.412  67.610  1.00  0.00    -0.147 OA 
BRANCH  17  20
HETATM   20  C   UNL     1     -10.546  10.299  69.778  1.00  0.00    -0.312 A  
HETATM   21  C   UNL     1     -10.273   9.349  70.771  1.00  0.00    -0.368 A  
HETATM   22  C   UNL     1     -11.273   8.977  71.672  1.00  0.00    -0.431 A  
HETATM   23  C   UNL     1     -12.538   9.558  71.583  1.00  0.00    -0.388 A  
HETATM   24 CL   UNL     1     -13.767   9.092  72.694  1.00  0.00    -0.485 Cl 
HETATM   25  C   UNL     1     -12.812  10.517  70.609  1.00  0.00    -0.407 A  
HETATM   26  C   UNL     1     -11.812  10.892  69.707  1.00  0.00    -0.419 A  
ENDBRANCH  17  20
ENDBRANCH  15  16
ENDBRANCH  14  15
ENDBRANCH  11  14
ENDBRANCH   3   8
TORSDOF 5
ENDMDL
MODEL       74
REMARK 921   NORMALIZED FREE ENERGY PREDICTED BY IDOCK:   -5.16 KCAL/MOL
REMARK 922        TOTAL FREE ENERGY PREDICTED BY IDOCK:   -7.68 KCAL/MOL
REMARK 923 INTER-LIGAND FREE ENERGY PREDICTED BY IDOCK:   -7.00 KCAL/MOL
REMARK 924 INTRA-LIGAND FREE ENERGY PREDICTED BY IDOCK:   -0.68 KCAL/MOL
REMARK 927      BINDING AFFINITY PREDICTED BY RF-SCORE:    0.00 PKD
ROOT
HETATM    1  C   UNL     1      -8.124   7.509  68.265  1.00  0.00    -0.124 C  
HETATM    2  C   UNL     1      -7.384   8.595  67.477  1.00  0.00    -0.089 C  
HETATM    3  O   UNL     1      -7.863   9.910  67.859  1.00  0.00    -0.090 OA 
HETATM    4  C   UNL     1      -7.332   8.324  65.965  1.00  0.00    -0.080 C  
HETATM    5  C   UNL     1      -5.915   8.571  67.957  1.00  0.00    -0.046 C  
HETATM    6  O   UNL     1      -5.478   9.770  68.419  1.00  0.00    -0.039 OA 
HETATM    7  O   UNL     1      -5.188   7.588  67.923  1.00  0.00    -0.023 OA 
ENDROOT
BRANCH   3   8
HETATM    8  C   UNL     1      -8.874  10.513  67.173  1.00  0.00    -0.136 A  
HETATM    9  C   UNL     1      -8.719  11.251  66.009  1.00  0.00    -0.165 A  
HETATM   10  C   UNL     1      -9.808  11.911  65.444  1.00  0.00    -0.258 A  
HETATM   11  C   UNL     1     -11.089  11.794  65.993  1.00  0.00    -0.363 A  
HETATM   12  C   UNL     1     -10.153  10.348  67.707  1.00  0.00    -0.212 A  
HETATM   13  C   UNL     1     -11.254  10.991  67.129  1.00  0.00    -0.290 A  
BRANCH  11  14
HETATM   14  C   UNL     1     -12.262  12.577  65.443  1.00  0.00    -0.475 C  
BRANCH  14  15
HETATM   15  C   UNL     1     -12.320  14.039  65.904  1.00  0.00    -0.486 C  
BRANCH  15  16
HETATM   16  N   UNL     1     -12.498  14.167  67.334  1.00  0.00    -0.510 N  
HETATM   17  C   UNL     1     -11.420  14.435  68.154  1.00  0.00    -0.310 C  
HETATM   18  H   UNL     1     -13.427  14.058  67.740  1.00  0.00     0.000 HD 
HETATM   19  O   UNL     1     -10.264  14.517  67.754  1.00  0.00    -0.224 OA 
BRANCH  17  20
HETATM   20  C   UNL     1     -11.738  14.684  69.581  1.00  0.00    -0.358 A  
HETATM   21  C   UNL     1     -11.461  15.918  70.184  1.00  0.00    -0.366 A  
HETATM   22  C   UNL     1     -11.758  16.114  71.535  1.00  0.00    -0.533 A  
HETATM   23  C   UNL     1     -12.336  15.083  72.276  1.00  0.00    -0.353 A  
HETATM   24 CL   UNL     1     -12.695  15.331  73.940  1.00  0.00    -0.685 Cl 
HETATM   25  C   UNL     1     -12.630  13.859  71.677  1.00  0.00    -0.387 A  
HETATM   26  C   UNL     1     -12.335  13.660  70.326  1.00  0.00    -0.392 A  
ENDBRANCH  17  20
ENDBRANCH  15  16
ENDBRANCH  14  15
ENDBRANCH  11  14
ENDBRANCH   3   8
TORSDOF 5
ENDMDL
MODEL       75
REMARK 921   NORMALIZED FREE ENERGY PREDICTED BY IDOCK:   -5.16 KCAL/MOL
REMARK 922        TOTAL FREE ENERGY PREDICTED BY IDOCK:   -7.67 KCAL/MOL
REMARK 923 INTER-LIGAND FREE ENERGY PREDICTED BY IDOCK:   -7.12 KCAL/MOL
REMARK 924 INTRA-LIGAND FREE ENERGY PREDICTED BY IDOCK:   -0.56 KCAL/MOL
REMARK 927      BINDING AFFINITY PREDICTED BY RF-SCORE:    0.00 PKD
ROOT
HETATM    1  C   UNL     1     -10.841  18.355  65.634  1.00  0.00     0.055 C  
HETATM    2  C   UNL     1      -9.665  17.760  66.415  1.00  0.00    -0.308 C  
HETATM    3  O   UNL     1      -9.115  16.620  65.708  1.00  0.00    -0.503 OA 
HETATM    4  C   UNL     1      -9.976  17.527  67.903  1.00  0.00    -0.312 C  
HETATM    5  C   UNL     1      -8.532  18.809  66.383  1.00  0.00    -0.284 C  
HETATM    6  O   UNL     1      -7.367  18.331  65.879  1.00  0.00    -0.403 OA 
HETATM    7  O   UNL     1      -8.640  19.962  66.779  1.00  0.00    -0.310 OA 
ENDROOT
BRANCH   3   8
HETATM    8  C   UNL     1      -9.551  15.355  65.972  1.00  0.00    -0.347 A  
HETATM    9  C   UNL     1      -9.035  14.523  66.954  1.00  0.00    -0.267 A  
HETATM   10  C   UNL     1      -9.486  13.210  67.072  1.00  0.00    -0.242 A  
HETATM   11  C   UNL     1     -10.510  12.721  66.255  1.00  0.00    -0.273 A  
HETATM   12  C   UNL     1     -10.605  14.897  65.179  1.00  0.00    -0.450 A  
HETATM   13  C   UNL     1     -11.076  13.587  65.310  1.00  0.00    -0.307 A  
BRANCH  11  14
HETATM   14  C   UNL     1     -10.945  11.272  66.311  1.00  0.00    -0.265 C  
BRANCH  14  15
HETATM   15  C   UNL     1      -9.806  10.276  66.561  1.00  0.00    -0.212 C  
BRANCH  15  16
HETATM   16  N   UNL     1     -10.125   9.310  67.589  1.00  0.00    -0.200 N  
HETATM   17  C   UNL     1      -9.928   9.613  68.922  1.00  0.00    -0.178 C  
HETATM   18  H   UNL     1     -10.497   8.397  67.328  1.00  0.00     0.000 HD 
HETATM   19  O   UNL     1      -9.427  10.660  69.316  1.00  0.00    -0.197 OA 
BRANCH  17  20
HETATM   20  C   UNL     1     -10.419   8.606  69.894  1.00  0.00    -0.221 A  
HETATM   21  C   UNL     1     -10.617   8.930  71.242  1.00  0.00    -0.351 A  
HETATM   22  C   UNL     1     -11.064   7.954  72.135  1.00  0.00    -0.351 A  
HETATM   23  C   UNL     1     -11.320   6.661  71.679  1.00  0.00    -0.276 A  
HETATM   24 CL   UNL     1     -11.867   5.462  72.785  1.00  0.00    -0.263 Cl 
HETATM   25  C   UNL     1     -11.142   6.336  70.335  1.00  0.00    -0.416 A  
HETATM   26  C   UNL     1     -10.696   7.311  69.439  1.00  0.00    -0.236 A  
ENDBRANCH  17  20
ENDBRANCH  15  16
ENDBRANCH  14  15
ENDBRANCH  11  14
ENDBRANCH   3   8
TORSDOF 5
ENDMDL
MODEL       76
REMARK 921   NORMALIZED FREE ENERGY PREDICTED BY IDOCK:   -5.15 KCAL/MOL
REMARK 922        TOTAL FREE ENERGY PREDICTED BY IDOCK:   -7.65 KCAL/MOL
REMARK 923 INTER-LIGAND FREE ENERGY PREDICTED BY IDOCK:   -7.09 KCAL/MOL
REMARK 924 INTRA-LIGAND FREE ENERGY PREDICTED BY IDOCK:   -0.56 KCAL/MOL
REMARK 927      BINDING AFFINITY PREDICTED BY RF-SCORE:    0.00 PKD
ROOT
HETATM    1  C   UNL     1      -8.096   8.632  62.748  1.00  0.00    -0.178 C  
HETATM    2  C   UNL     1      -7.999   8.833  64.264  1.00  0.00    -0.146 C  
HETATM    3  O   UNL     1      -9.322   8.844  64.857  1.00  0.00    -0.031 OA 
HETATM    4  C   UNL     1      -7.084   9.999  64.667  1.00  0.00    -0.140 C  
HETATM    5  C   UNL     1      -7.336   7.561  64.839  1.00  0.00    -0.079 C  
HETATM    6  O   UNL     1      -8.076   6.953  65.799  1.00  0.00    -0.109 OA 
HETATM    7  O   UNL     1      -6.244   7.129  64.494  1.00  0.00    -0.036 OA 
ENDROOT
BRANCH   3   8
HETATM    8  C   UNL     1      -9.997  10.014  65.040  1.00  0.00    -0.250 A  
HETATM    9  C   UNL     1     -10.288  10.932  64.043  1.00  0.00    -0.417 A  
HETATM   10  C   UNL     1     -10.895  12.145  64.358  1.00  0.00    -0.372 A  
HETATM   11  C   UNL     1     -11.286  12.439  65.668  1.00  0.00    -0.387 A  
HETATM   12  C   UNL     1     -10.423  10.272  66.345  1.00  0.00    -0.233 A  
HETATM   13  C   UNL     1     -11.054  11.479  66.662  1.00  0.00    -0.355 A  
BRANCH  11  14
HETATM   14  C   UNL     1     -11.864  13.789  66.040  1.00  0.00    -0.415 C  
BRANCH  14  15
HETATM   15  C   UNL     1     -11.362  14.953  65.177  1.00  0.00    -0.379 C  
BRANCH  15  16
HETATM   16  N   UNL     1     -10.398  15.783  65.866  1.00  0.00    -0.332 N  
HETATM   17  C   UNL     1     -10.398  17.153  65.690  1.00  0.00    -0.183 C  
HETATM   18  H   UNL     1      -9.712  15.354  66.486  1.00  0.00     0.000 HD 
HETATM   19  O   UNL     1     -11.146  17.740  64.916  1.00  0.00    -0.821 OA 
BRANCH  17  20
HETATM   20  C   UNL     1      -9.462  17.917  66.550  1.00  0.00    -0.307 A  
HETATM   21  C   UNL     1      -9.331  19.306  66.430  1.00  0.00    -0.399 A  
HETATM   22  C   UNL     1      -8.428  19.993  67.244  1.00  0.00    -0.390 A  
HETATM   23  C   UNL     1      -7.665  19.293  68.179  1.00  0.00    -0.297 A  
HETATM   24 CL   UNL     1      -6.551  20.146  69.176  1.00  0.00    -0.336 Cl 
HETATM   25  C   UNL     1      -7.803  17.913  68.315  1.00  0.00    -0.285 A  
HETATM   26  C   UNL     1      -8.707  17.222  67.503  1.00  0.00    -0.212 A  
ENDBRANCH  17  20
ENDBRANCH  15  16
ENDBRANCH  14  15
ENDBRANCH  11  14
ENDBRANCH   3   8
TORSDOF 5
ENDMDL
MODEL       77
REMARK 921   NORMALIZED FREE ENERGY PREDICTED BY IDOCK:   -5.14 KCAL/MOL
REMARK 922        TOTAL FREE ENERGY PREDICTED BY IDOCK:   -7.64 KCAL/MOL
REMARK 923 INTER-LIGAND FREE ENERGY PREDICTED BY IDOCK:   -6.69 KCAL/MOL
REMARK 924 INTRA-LIGAND FREE ENERGY PREDICTED BY IDOCK:   -0.96 KCAL/MOL
REMARK 927      BINDING AFFINITY PREDICTED BY RF-SCORE:    0.00 PKD
ROOT
HETATM    1  C   UNL     1      -7.612   9.688  70.329  1.00  0.00    -0.175 C  
HETATM    2  C   UNL     1      -8.953   9.039  69.968  1.00  0.00    -0.175 C  
HETATM    3  O   UNL     1      -8.928   8.558  68.601  1.00  0.00    -0.139 OA 
HETATM    4  C   UNL     1     -10.168   9.902  70.344  1.00  0.00    -0.299 C  
HETATM    5  C   UNL     1      -9.070   7.756  70.821  1.00  0.00    -0.149 C  
HETATM    6  O   UNL     1      -9.271   6.635  70.084  1.00  0.00    -0.154 OA 
HETATM    7  O   UNL     1      -9.007   7.724  72.042  1.00  0.00    -0.122 OA 
ENDROOT
BRANCH   3   8
HETATM    8  C   UNL     1      -9.365   9.341  67.574  1.00  0.00    -0.127 A  
HETATM    9  C   UNL     1     -10.695   9.609  67.286  1.00  0.00    -0.284 A  
HETATM   10  C   UNL     1     -11.035  10.342  66.151  1.00  0.00     0.186 A  
HETATM   11  C   UNL     1     -10.051  10.880  65.316  1.00  0.00    -0.340 A  
HETATM   12  C   UNL     1      -8.370   9.910  66.778  1.00  0.00    -0.125 A  
HETATM   13  C   UNL     1      -8.707  10.666  65.650  1.00  0.00    -0.198 A  
BRANCH  11  14
HETATM   14  C   UNL     1     -10.407  11.599  64.032  1.00  0.00    -0.405 C  
BRANCH  14  15
HETATM   15  C   UNL     1     -10.593  13.114  64.184  1.00  0.00    -0.361 C  
BRANCH  15  16
HETATM   16  N   UNL     1     -10.633  13.535  65.567  1.00  0.00    -0.288 N  
HETATM   17  C   UNL     1     -11.820  13.939  66.144  1.00  0.00    -0.400 C  
HETATM   18  H   UNL     1      -9.777  13.535  66.122  1.00  0.00     0.000 HD 
HETATM   19  O   UNL     1     -12.879  14.028  65.532  1.00  0.00    -0.615 OA 
BRANCH  17  20
HETATM   20  C   UNL     1     -11.773  14.214  67.601  1.00  0.00    -0.421 A  
HETATM   21  C   UNL     1     -11.483  15.493  68.092  1.00  0.00    -0.332 A  
HETATM   22  C   UNL     1     -11.430  15.714  69.470  1.00  0.00    -0.349 A  
HETATM   23  C   UNL     1     -11.673  14.661  70.352  1.00  0.00    -0.295 A  
HETATM   24 CL   UNL     1     -11.602  14.940  72.048  1.00  0.00    -0.390 Cl 
HETATM   25  C   UNL     1     -11.979  13.389  69.870  1.00  0.00    -0.408 A  
HETATM   26  C   UNL     1     -12.035  13.165  68.492  1.00  0.00    -0.324 A  
ENDBRANCH  17  20
ENDBRANCH  15  16
ENDBRANCH  14  15
ENDBRANCH  11  14
ENDBRANCH   3   8
TORSDOF 5
ENDMDL
MODEL       78
REMARK 921   NORMALIZED FREE ENERGY PREDICTED BY IDOCK:   -5.14 KCAL/MOL
REMARK 922        TOTAL FREE ENERGY PREDICTED BY IDOCK:   -7.64 KCAL/MOL
REMARK 923 INTER-LIGAND FREE ENERGY PREDICTED BY IDOCK:   -7.29 KCAL/MOL
REMARK 924 INTRA-LIGAND FREE ENERGY PREDICTED BY IDOCK:   -0.35 KCAL/MOL
REMARK 927      BINDING AFFINITY PREDICTED BY RF-SCORE:    0.00 PKD
ROOT
HETATM    1  C   UNL     1      -8.516  16.466  66.081  1.00  0.00    -0.329 C  
HETATM    2  C   UNL     1     -10.016  16.530  66.385  1.00  0.00    -0.303 C  
HETATM    3  O   UNL     1     -10.283  16.018  67.715  1.00  0.00    -0.249 OA 
HETATM    4  C   UNL     1     -10.892  15.947  65.264  1.00  0.00    -0.401 C  
HETATM    5  C   UNL     1     -10.389  18.027  66.473  1.00  0.00    -0.373 C  
HETATM    6  O   UNL     1     -10.977  18.369  67.646  1.00  0.00    -0.346 OA 
HETATM    7  O   UNL     1     -10.199  18.844  65.582  1.00  0.00    -0.504 OA 
ENDROOT
BRANCH   3   8
HETATM    8  C   UNL     1     -10.598  14.706  67.910  1.00  0.00    -0.244 A  
HETATM    9  C   UNL     1     -11.885  14.205  68.034  1.00  0.00    -0.400 A  
HETATM   10  C   UNL     1     -12.091  12.860  68.332  1.00  0.00    -0.169 A  
HETATM   11  C   UNL     1     -11.017  11.972  68.448  1.00  0.00    -0.276 A  
HETATM   12  C   UNL     1      -9.518  13.825  67.977  1.00  0.00    -0.207 A  
HETATM   13  C   UNL     1      -9.722  12.469  68.254  1.00  0.00    -0.220 A  
BRANCH  11  14
HETATM   14  C   UNL     1     -11.221  10.530  68.862  1.00  0.00    -0.323 C  
BRANCH  14  15
HETATM   15  C   UNL     1     -11.856  10.350  70.246  1.00  0.00    -0.312 C  
BRANCH  15  16
HETATM   16  N   UNL     1     -11.674   9.016  70.775  1.00  0.00    -0.362 N  
HETATM   17  C   UNL     1     -10.462   8.632  71.312  1.00  0.00    -0.242 C  
HETATM   18  H   UNL     1     -12.449   8.353  70.752  1.00  0.00     0.000 HD 
HETATM   19  O   UNL     1      -9.465   9.346  71.321  1.00  0.00    -0.224 OA 
BRANCH  17  20
HETATM   20  C   UNL     1     -10.430   7.294  71.951  1.00  0.00    -0.224 A  
HETATM   21  C   UNL     1     -10.365   6.123  71.186  1.00  0.00    -0.257 A  
HETATM   22  C   UNL     1     -10.353   4.878  71.819  1.00  0.00    -0.249 A  
HETATM   23  C   UNL     1     -10.398   4.807  73.212  1.00  0.00    -0.182 A  
HETATM   24 CL   UNL     1     -10.387   3.270  73.984  1.00  0.00    -0.208 Cl 
HETATM   25  C   UNL     1     -10.445   5.969  73.979  1.00  0.00    -0.272 A  
HETATM   26  C   UNL     1     -10.456   7.217  73.349  1.00  0.00    -0.410 A  
ENDBRANCH  17  20
ENDBRANCH  15  16
ENDBRANCH  14  15
ENDBRANCH  11  14
ENDBRANCH   3   8
TORSDOF 5
ENDMDL
MODEL       79
REMARK 921   NORMALIZED FREE ENERGY PREDICTED BY IDOCK:   -5.13 KCAL/MOL
REMARK 922        TOTAL FREE ENERGY PREDICTED BY IDOCK:   -7.64 KCAL/MOL
REMARK 923 INTER-LIGAND FREE ENERGY PREDICTED BY IDOCK:   -6.73 KCAL/MOL
REMARK 924 INTRA-LIGAND FREE ENERGY PREDICTED BY IDOCK:   -0.90 KCAL/MOL
REMARK 927      BINDING AFFINITY PREDICTED BY RF-SCORE:    0.00 PKD
ROOT
HETATM    1  C   UNL     1      -8.233  16.197  66.893  1.00  0.00    -0.273 C  
HETATM    2  C   UNL     1      -9.663  15.653  66.813  1.00  0.00    -0.241 C  
HETATM    3  O   UNL     1      -9.821  14.519  67.703  1.00  0.00    -0.220 OA 
HETATM    4  C   UNL     1     -10.154  15.436  65.373  1.00  0.00    -0.394 C  
HETATM    5  C   UNL     1     -10.586  16.738  67.412  1.00  0.00    -0.291 C  
HETATM    6  O   UNL     1     -11.354  16.288  68.436  1.00  0.00    -0.367 OA 
HETATM    7  O   UNL     1     -10.652  17.892  67.014  1.00  0.00    -0.344 OA 
ENDROOT
BRANCH   3   8
HETATM    8  C   UNL     1      -9.624  13.246  67.257  1.00  0.00    -0.234 A  
HETATM    9  C   UNL     1      -8.387  12.654  67.056  1.00  0.00    -0.130 A  
HETATM   10  C   UNL     1      -8.299  11.379  66.500  1.00  0.00    -0.164 A  
HETATM   11  C   UNL     1      -9.448  10.642  66.196  1.00  0.00    -0.218 A  
HETATM   12  C   UNL     1     -10.780  12.506  67.003  1.00  0.00    -0.268 A  
HETATM   13  C   UNL     1     -10.696  11.217  66.466  1.00  0.00    -0.314 A  
BRANCH  11  14
HETATM   14  C   UNL     1      -9.367   9.295  65.509  1.00  0.00    -0.303 C  
BRANCH  14  15
HETATM   15  C   UNL     1      -9.191   8.106  66.462  1.00  0.00    -0.188 C  
BRANCH  15  16
HETATM   16  N   UNL     1     -10.180   8.088  67.518  1.00  0.00    -0.223 N  
HETATM   17  C   UNL     1      -9.792   8.132  68.843  1.00  0.00    -0.176 C  
HETATM   18  H   UNL     1     -11.171   8.041  67.283  1.00  0.00     0.000 HD 
HETATM   19  O   UNL     1      -8.623   8.125  69.211  1.00  0.00    -0.133 OA 
BRANCH  17  20
HETATM   20  C   UNL     1     -10.888   8.249  69.835  1.00  0.00    -0.213 A  
HETATM   21  C   UNL     1     -11.511   7.115  70.371  1.00  0.00    -0.317 A  
HETATM   22  C   UNL     1     -12.551   7.262  71.291  1.00  0.00    -0.402 A  
HETATM   23  C   UNL     1     -12.961   8.538  71.679  1.00  0.00    -0.343 A  
HETATM   24 CL   UNL     1     -14.246   8.711  72.810  1.00  0.00    -0.265 Cl 
HETATM   25  C   UNL     1     -12.333   9.671  71.162  1.00  0.00    -0.427 A  
HETATM   26  C   UNL     1     -11.291   9.527  70.242  1.00  0.00    -0.284 A  
ENDBRANCH  17  20
ENDBRANCH  15  16
ENDBRANCH  14  15
ENDBRANCH  11  14
ENDBRANCH   3   8
TORSDOF 5
ENDMDL
MODEL       80
REMARK 921   NORMALIZED FREE ENERGY PREDICTED BY IDOCK:   -5.10 KCAL/MOL
REMARK 922        TOTAL FREE ENERGY PREDICTED BY IDOCK:   -7.59 KCAL/MOL
REMARK 923 INTER-LIGAND FREE ENERGY PREDICTED BY IDOCK:   -6.68 KCAL/MOL
REMARK 924 INTRA-LIGAND FREE ENERGY PREDICTED BY IDOCK:   -0.91 KCAL/MOL
REMARK 927      BINDING AFFINITY PREDICTED BY RF-SCORE:    0.00 PKD
ROOT
HETATM    1  C   UNL     1     -10.712  16.933  68.215  1.00  0.00    -0.377 C  
HETATM    2  C   UNL     1     -10.324  15.697  67.396  1.00  0.00    -0.275 C  
HETATM    3  O   UNL     1     -11.472  14.829  67.219  1.00  0.00    -0.350 OA 
HETATM    4  C   UNL     1      -9.046  15.008  67.900  1.00  0.00    -0.180 C  
HETATM    5  C   UNL     1      -9.998  16.193  65.969  1.00  0.00    -0.348 C  
HETATM    6  O   UNL     1     -10.730  15.581  65.005  1.00  0.00    -0.413 OA 
HETATM    7  O   UNL     1      -9.158  17.041  65.702  1.00  0.00    -0.500 OA 
ENDROOT
BRANCH   3   8
HETATM    8  C   UNL     1     -11.721  13.811  68.091  1.00  0.00    -0.357 A  
HETATM    9  C   UNL     1     -12.000  13.967  69.440  1.00  0.00    -0.402 A  
HETATM   10  C   UNL     1     -12.140  12.852  70.263  1.00  0.00    -0.377 A  
HETATM   11  C   UNL     1     -12.070  11.556  69.742  1.00  0.00    -0.374 A  
HETATM   12  C   UNL     1     -11.695  12.526  67.547  1.00  0.00    -0.439 A  
HETATM   13  C   UNL     1     -11.858  11.403  68.366  1.00  0.00    -0.344 A  
BRANCH  11  14
HETATM   14  C   UNL     1     -12.130  10.337  70.639  1.00  0.00    -0.433 C  
BRANCH  14  15
HETATM   15  C   UNL     1     -10.764   9.848  71.136  1.00  0.00    -0.080 C  
BRANCH  15  16
HETATM   16  N   UNL     1      -9.732   9.952  70.127  1.00  0.00    -0.350 N  
HETATM   17  C   UNL     1      -9.495   8.909  69.256  1.00  0.00    -0.161 C  
HETATM   18  H   UNL     1      -9.176  10.804  70.059  1.00  0.00     0.000 HD 
HETATM   19  O   UNL     1     -10.075   7.830  69.311  1.00  0.00    -0.188 OA 
BRANCH  17  20
HETATM   20  C   UNL     1      -8.514   9.177  68.175  1.00  0.00    -0.125 A  
HETATM   21  C   UNL     1      -7.320   8.452  68.079  1.00  0.00    -0.096 A  
HETATM   22  C   UNL     1      -6.411   8.741  67.059  1.00  0.00    -0.060 A  
HETATM   23  C   UNL     1      -6.699   9.746  66.136  1.00  0.00    -0.085 A  
HETATM   24 CL   UNL     1      -5.573  10.099  64.884  1.00  0.00    -0.098 Cl 
HETATM   25  C   UNL     1      -7.894  10.459  66.215  1.00  0.00    -0.132 A  
HETATM   26  C   UNL     1      -8.807  10.172  67.234  1.00  0.00    -0.137 A  
ENDBRANCH  17  20
ENDBRANCH  15  16
ENDBRANCH  14  15
ENDBRANCH  11  14
ENDBRANCH   3   8
TORSDOF 5
ENDMDL
MODEL       81
REMARK 921   NORMALIZED FREE ENERGY PREDICTED BY IDOCK:   -5.10 KCAL/MOL
REMARK 922        TOTAL FREE ENERGY PREDICTED BY IDOCK:   -7.59 KCAL/MOL
REMARK 923 INTER-LIGAND FREE ENERGY PREDICTED BY IDOCK:   -6.95 KCAL/MOL
REMARK 924 INTRA-LIGAND FREE ENERGY PREDICTED BY IDOCK:   -0.64 KCAL/MOL
REMARK 927      BINDING AFFINITY PREDICTED BY RF-SCORE:    0.00 PKD
ROOT
HETATM    1  C   UNL     1     -10.075  17.477  68.371  1.00  0.00    -0.358 C  
HETATM    2  C   UNL     1     -10.102  16.564  67.141  1.00  0.00    -0.274 C  
HETATM    3  O   UNL     1     -11.391  15.910  67.026  1.00  0.00    -0.109 OA 
HETATM    4  C   UNL     1      -8.879  15.638  67.041  1.00  0.00    -0.250 C  
HETATM    5  C   UNL     1     -10.031  17.485  65.902  1.00  0.00    -0.139 C  
HETATM    6  O   UNL     1     -11.058  17.303  65.034  1.00  0.00    -0.614 OA 
HETATM    7  O   UNL     1      -9.142  18.298  65.689  1.00  0.00    -0.277 OA 
ENDROOT
BRANCH   3   8
HETATM    8  C   UNL     1     -11.605  14.682  67.577  1.00  0.00    -0.375 A  
HETATM    9  C   UNL     1     -11.788  14.436  68.930  1.00  0.00    -0.355 A  
HETATM   10  C   UNL     1     -11.899  13.129  69.399  1.00  0.00    -0.383 A  
HETATM   11  C   UNL     1     -11.895  12.043  68.519  1.00  0.00    -0.369 A  
HETATM   12  C   UNL     1     -11.646  13.612  66.682  1.00  0.00    -0.391 A  
HETATM   13  C   UNL     1     -11.780  12.300  67.147  1.00  0.00    -0.396 A  
BRANCH  11  14
HETATM   14  C   UNL     1     -11.923  10.615  69.022  1.00  0.00    -0.186 C  
BRANCH  14  15
HETATM   15  C   UNL     1     -10.540   9.972  69.182  1.00  0.00    -0.218 C  
BRANCH  15  16
HETATM   16  N   UNL     1     -10.451   8.672  68.552  1.00  0.00    -0.300 N  
HETATM   17  C   UNL     1     -10.184   8.563  67.202  1.00  0.00    -0.284 C  
HETATM   18  H   UNL     1     -10.588   7.829  69.110  1.00  0.00     0.000 HD 
HETATM   19  O   UNL     1     -10.069   9.525  66.451  1.00  0.00    -0.254 OA 
BRANCH  17  20
HETATM   20  C   UNL     1      -9.977   7.186  66.692  1.00  0.00    -0.234 A  
HETATM   21  C   UNL     1     -10.940   6.187  66.879  1.00  0.00    -0.384 A  
HETATM   22  C   UNL     1     -10.706   4.896  66.401  1.00  0.00    -0.170 A  
HETATM   23  C   UNL     1      -9.516   4.608  65.731  1.00  0.00    -0.173 A  
HETATM   24 CL   UNL     1      -9.233   3.015  65.148  1.00  0.00    -0.148 Cl 
HETATM   25  C   UNL     1      -8.561   5.602  65.526  1.00  0.00    -0.151 A  
HETATM   26  C   UNL     1      -8.792   6.896  66.003  1.00  0.00    -0.154 A  
ENDBRANCH  17  20
ENDBRANCH  15  16
ENDBRANCH  14  15
ENDBRANCH  11  14
ENDBRANCH   3   8
TORSDOF 5
ENDMDL
MODEL       82
REMARK 921   NORMALIZED FREE ENERGY PREDICTED BY IDOCK:   -5.10 KCAL/MOL
REMARK 922        TOTAL FREE ENERGY PREDICTED BY IDOCK:   -7.59 KCAL/MOL
REMARK 923 INTER-LIGAND FREE ENERGY PREDICTED BY IDOCK:   -7.23 KCAL/MOL
REMARK 924 INTRA-LIGAND FREE ENERGY PREDICTED BY IDOCK:   -0.36 KCAL/MOL
REMARK 927      BINDING AFFINITY PREDICTED BY RF-SCORE:    0.00 PKD
ROOT
HETATM    1  C   UNL     1     -10.544  13.714  64.638  1.00  0.00    -0.446 C  
HETATM    2  C   UNL     1     -11.273  14.671  65.586  1.00  0.00    -0.342 C  
HETATM    3  O   UNL     1     -10.693  14.605  66.914  1.00  0.00    -0.285 OA 
HETATM    4  C   UNL     1     -12.804  14.541  65.527  1.00  0.00    -0.134 C  
HETATM    5  C   UNL     1     -10.956  16.104  65.104  1.00  0.00    -0.316 C  
HETATM    6  O   UNL     1     -10.406  16.888  66.065  1.00  0.00    -0.338 OA 
HETATM    7  O   UNL     1     -11.180  16.524  63.977  1.00  0.00    -0.967 OA 
ENDROOT
BRANCH   3   8
HETATM    8  C   UNL     1     -11.194  13.757  67.856  1.00  0.00    -0.274 A  
HETATM    9  C   UNL     1     -11.614  14.131  69.123  1.00  0.00    -0.349 A  
HETATM   10  C   UNL     1     -12.016  13.167  70.045  1.00  0.00    -0.391 A  
HETATM   11  C   UNL     1     -12.071  11.814  69.698  1.00  0.00    -0.323 A  
HETATM   12  C   UNL     1     -11.288  12.416  67.479  1.00  0.00    -0.375 A  
HETATM   13  C   UNL     1     -11.713  11.448  68.394  1.00  0.00    -0.373 A  
BRANCH  11  14
HETATM   14  C   UNL     1     -12.418  10.748  70.716  1.00  0.00    -0.481 C  
BRANCH  14  15
HETATM   15  C   UNL     1     -11.215   9.949  71.233  1.00  0.00    -0.286 C  
BRANCH  15  16
HETATM   16  N   UNL     1     -10.813   8.896  70.327  1.00  0.00    -0.235 N  
HETATM   17  C   UNL     1      -9.603   8.964  69.664  1.00  0.00    -0.169 C  
HETATM   18  H   UNL     1     -11.427   8.096  70.176  1.00  0.00     0.000 HD 
HETATM   19  O   UNL     1      -8.838   9.918  69.741  1.00  0.00    -0.196 OA 
BRANCH  17  20
HETATM   20  C   UNL     1      -9.230   7.767  68.872  1.00  0.00    -0.140 A  
HETATM   21  C   UNL     1      -8.060   7.048  69.146  1.00  0.00    -0.121 A  
HETATM   22  C   UNL     1      -7.730   5.934  68.370  1.00  0.00    -0.094 A  
HETATM   23  C   UNL     1      -8.571   5.539  67.330  1.00  0.00    -0.108 A  
HETATM   24 CL   UNL     1      -8.156   4.169  66.376  1.00  0.00    -0.098 Cl 
HETATM   25  C   UNL     1      -9.746   6.240  67.063  1.00  0.00    -0.173 A  
HETATM   26  C   UNL     1     -10.080   7.353  67.839  1.00  0.00    -0.220 A  
ENDBRANCH  17  20
ENDBRANCH  15  16
ENDBRANCH  14  15
ENDBRANCH  11  14
ENDBRANCH   3   8
TORSDOF 5
ENDMDL
MODEL       83
REMARK 921   NORMALIZED FREE ENERGY PREDICTED BY IDOCK:   -5.07 KCAL/MOL
REMARK 922        TOTAL FREE ENERGY PREDICTED BY IDOCK:   -7.56 KCAL/MOL
REMARK 923 INTER-LIGAND FREE ENERGY PREDICTED BY IDOCK:   -6.90 KCAL/MOL
REMARK 924 INTRA-LIGAND FREE ENERGY PREDICTED BY IDOCK:   -0.66 KCAL/MOL
REMARK 927      BINDING AFFINITY PREDICTED BY RF-SCORE:    0.00 PKD
ROOT
HETATM    1  C   UNL     1      -9.234   4.844  65.861  1.00  0.00    -0.155 C  
HETATM    2  C   UNL     1      -9.012   4.518  67.341  1.00  0.00    -0.114 C  
HETATM    3  O   UNL     1     -10.230   4.741  68.095  1.00  0.00    -0.093 OA 
HETATM    4  C   UNL     1      -7.745   5.164  67.925  1.00  0.00    -0.087 C  
HETATM    5  C   UNL     1      -8.784   2.992  67.432  1.00  0.00    -0.120 C  
HETATM    6  O   UNL     1      -9.643   2.367  68.275  1.00  0.00    -0.206 OA 
HETATM    7  O   UNL     1      -7.913   2.382  66.827  1.00  0.00    -0.071 OA 
ENDROOT
BRANCH   3   8
HETATM    8  C   UNL     1     -10.471   5.940  68.698  1.00  0.00    -0.240 A  
HETATM    9  C   UNL     1     -10.489   7.168  68.053  1.00  0.00    -0.251 A  
HETATM   10  C   UNL     1     -10.645   8.344  68.783  1.00  0.00    -0.154 A  
HETATM   11  C   UNL     1     -10.854   8.315  70.165  1.00  0.00    -0.237 A  
HETATM   12  C   UNL     1     -10.725   5.891  70.070  1.00  0.00    -0.396 A  
HETATM   13  C   UNL     1     -10.906   7.069  70.803  1.00  0.00    -0.272 A  
BRANCH  11  14
HETATM   14  C   UNL     1     -10.934   9.587  70.982  1.00  0.00    -0.424 C  
BRANCH  14  15
HETATM   15  C   UNL     1     -12.110  10.502  70.618  1.00  0.00    -0.356 C  
BRANCH  15  16
HETATM   16  N   UNL     1     -11.686  11.829  70.229  1.00  0.00    -0.501 N  
HETATM   17  C   UNL     1     -11.678  12.202  68.900  1.00  0.00    -0.327 C  
HETATM   18  H   UNL     1     -11.390  12.495  70.942  1.00  0.00     0.000 HD 
HETATM   19  O   UNL     1     -11.957  11.444  67.978  1.00  0.00    -0.613 OA 
BRANCH  17  20
HETATM   20  C   UNL     1     -11.360  13.625  68.628  1.00  0.00    -0.321 A  
HETATM   21  C   UNL     1     -11.201  14.548  69.669  1.00  0.00    -0.292 A  
HETATM   22  C   UNL     1     -10.919  15.885  69.378  1.00  0.00    -0.309 A  
HETATM   23  C   UNL     1     -10.789  16.293  68.051  1.00  0.00    -0.339 A  
HETATM   24 CL   UNL     1     -10.445  17.942  67.699  1.00  0.00    -0.391 Cl 
HETATM   25  C   UNL     1     -10.929  15.376  67.010  1.00  0.00    -0.306 A  
HETATM   26  C   UNL     1     -11.210  14.038  67.298  1.00  0.00    -0.328 A  
ENDBRANCH  17  20
ENDBRANCH  15  16
ENDBRANCH  14  15
ENDBRANCH  11  14
ENDBRANCH   3   8
TORSDOF 5
ENDMDL
MODEL       84
REMARK 921   NORMALIZED FREE ENERGY PREDICTED BY IDOCK:   -5.07 KCAL/MOL
REMARK 922        TOTAL FREE ENERGY PREDICTED BY IDOCK:   -7.56 KCAL/MOL
REMARK 923 INTER-LIGAND FREE ENERGY PREDICTED BY IDOCK:   -6.48 KCAL/MOL
REMARK 924 INTRA-LIGAND FREE ENERGY PREDICTED BY IDOCK:   -1.07 KCAL/MOL
REMARK 927      BINDING AFFINITY PREDICTED BY RF-SCORE:    0.00 PKD
ROOT
HETATM    1  C   UNL     1      -6.312   7.157  65.671  1.00  0.00    -0.040 C  
HETATM    2  C   UNL     1      -7.763   7.123  65.183  1.00  0.00    -0.116 C  
HETATM    3  O   UNL     1      -8.613   7.892  66.072  1.00  0.00    -0.136 OA 
HETATM    4  C   UNL     1      -8.262   5.708  64.852  1.00  0.00    -0.134 C  
HETATM    5  C   UNL     1      -7.803   7.904  63.850  1.00  0.00    -0.141 C  
HETATM    6  O   UNL     1      -8.696   8.925  63.849  1.00  0.00    -0.151 OA 
HETATM    7  O   UNL     1      -7.120   7.642  62.870  1.00  0.00    -0.073 OA 
ENDROOT
BRANCH   3   8
HETATM    8  C   UNL     1      -9.258   7.295  67.114  1.00  0.00    -0.135 A  
HETATM    9  C   UNL     1     -10.545   6.782  67.067  1.00  0.00    -0.405 A  
HETATM   10  C   UNL     1     -11.147   6.283  68.220  1.00  0.00    -0.364 A  
HETATM   11  C   UNL     1     -10.451   6.224  69.431  1.00  0.00    -0.298 A  
HETATM   12  C   UNL     1      -8.533   7.201  68.304  1.00  0.00    -0.124 A  
HETATM   13  C   UNL     1      -9.126   6.679  69.458  1.00  0.00    -0.144 A  
BRANCH  11  14
HETATM   14  C   UNL     1     -11.121   5.769  70.710  1.00  0.00    -0.272 C  
BRANCH  14  15
HETATM   15  C   UNL     1     -11.949   6.853  71.412  1.00  0.00    -0.349 C  
BRANCH  15  16
HETATM   16  N   UNL     1     -12.089   8.052  70.615  1.00  0.00    -0.495 N  
HETATM   17  C   UNL     1     -11.320   9.167  70.884  1.00  0.00    -0.295 C  
HETATM   18  H   UNL     1     -12.761   8.075  69.848  1.00  0.00     0.000 HD 
HETATM   19  O   UNL     1     -10.537   9.244  71.824  1.00  0.00    -0.355 OA 
BRANCH  17  20
HETATM   20  C   UNL     1     -11.444  10.288  69.920  1.00  0.00    -0.340 A  
HETATM   21  C   UNL     1     -11.867  11.558  70.330  1.00  0.00    -0.431 A  
HETATM   22  C   UNL     1     -11.989  12.587  69.393  1.00  0.00    -0.315 A  
HETATM   23  C   UNL     1     -11.681  12.347  68.054  1.00  0.00    -0.356 A  
HETATM   24 CL   UNL     1     -11.837  13.618  66.905  1.00  0.00    -0.422 Cl 
HETATM   25  C   UNL     1     -11.243  11.089  67.642  1.00  0.00    -0.373 A  
HETATM   26  C   UNL     1     -11.119  10.058  68.577  1.00  0.00    -0.219 A  
ENDBRANCH  17  20
ENDBRANCH  15  16
ENDBRANCH  14  15
ENDBRANCH  11  14
ENDBRANCH   3   8
TORSDOF 5
ENDMDL
MODEL       85
REMARK 921   NORMALIZED FREE ENERGY PREDICTED BY IDOCK:   -5.04 KCAL/MOL
REMARK 922        TOTAL FREE ENERGY PREDICTED BY IDOCK:   -7.51 KCAL/MOL
REMARK 923 INTER-LIGAND FREE ENERGY PREDICTED BY IDOCK:   -6.64 KCAL/MOL
REMARK 924 INTRA-LIGAND FREE ENERGY PREDICTED BY IDOCK:   -0.88 KCAL/MOL
REMARK 927      BINDING AFFINITY PREDICTED BY RF-SCORE:    0.00 PKD
ROOT
HETATM    1  C   UNL     1     -13.487   6.521  72.058  1.00  0.00     0.117 C  
HETATM    2  C   UNL     1     -11.982   6.795  71.974  1.00  0.00    -0.317 C  
HETATM    3  O   UNL     1     -11.695   8.160  72.373  1.00  0.00    -0.353 OA 
HETATM    4  C   UNL     1     -11.353   6.349  70.644  1.00  0.00    -0.419 C  
HETATM    5  C   UNL     1     -11.311   5.931  73.065  1.00  0.00    -0.170 C  
HETATM    6  O   UNL     1     -10.555   6.649  73.934  1.00  0.00    -0.331 OA 
HETATM    7  O   UNL     1     -11.419   4.716  73.154  1.00  0.00    -0.286 OA 
ENDROOT
BRANCH   3   8
HETATM    8  C   UNL     1     -11.632   9.161  71.449  1.00  0.00    -0.341 A  
HETATM    9  C   UNL     1     -10.487   9.543  70.766  1.00  0.00    -0.384 A  
HETATM   10  C   UNL     1     -10.511  10.647  69.917  1.00  0.00    -0.136 A  
HETATM   11  C   UNL     1     -11.695  11.352  69.681  1.00  0.00    -0.415 A  
HETATM   12  C   UNL     1     -12.831   9.825  71.189  1.00  0.00    -0.434 A  
HETATM   13  C   UNL     1     -12.864  10.920  70.319  1.00  0.00    -0.209 A  
BRANCH  11  14
HETATM   14  C   UNL     1     -11.715  12.607  68.833  1.00  0.00    -0.370 C  
BRANCH  14  15
HETATM   15  C   UNL     1     -11.607  12.355  67.324  1.00  0.00    -0.365 C  
BRANCH  15  16
HETATM   16  N   UNL     1     -11.248  10.989  67.011  1.00  0.00    -0.252 N  
HETATM   17  C   UNL     1     -10.041  10.701  66.404  1.00  0.00    -0.225 C  
HETATM   18  H   UNL     1     -11.891  10.231  67.240  1.00  0.00     0.000 HD 
HETATM   19  O   UNL     1      -9.242  11.556  66.040  1.00  0.00    -0.214 OA 
BRANCH  17  20
HETATM   20  C   UNL     1      -9.716   9.262  66.258  1.00  0.00    -0.340 A  
HETATM   21  C   UNL     1     -10.415   8.280  66.972  1.00  0.00    -0.384 A  
HETATM   22  C   UNL     1     -10.073   6.935  66.823  1.00  0.00    -0.264 A  
HETATM   23  C   UNL     1      -9.040   6.573  65.958  1.00  0.00    -0.086 A  
HETATM   24 CL   UNL     1      -8.621   4.913  65.783  1.00  0.00    -0.124 Cl 
HETATM   25  C   UNL     1      -8.352   7.543  65.231  1.00  0.00    -0.112 A  
HETATM   26  C   UNL     1      -8.694   8.890  65.376  1.00  0.00    -0.224 A  
ENDBRANCH  17  20
ENDBRANCH  15  16
ENDBRANCH  14  15
ENDBRANCH  11  14
ENDBRANCH   3   8
TORSDOF 5
ENDMDL
MODEL       86
REMARK 921   NORMALIZED FREE ENERGY PREDICTED BY IDOCK:   -5.03 KCAL/MOL
REMARK 922        TOTAL FREE ENERGY PREDICTED BY IDOCK:   -7.51 KCAL/MOL
REMARK 923 INTER-LIGAND FREE ENERGY PREDICTED BY IDOCK:   -7.31 KCAL/MOL
REMARK 924 INTRA-LIGAND FREE ENERGY PREDICTED BY IDOCK:   -0.20 KCAL/MOL
REMARK 927      BINDING AFFINITY PREDICTED BY RF-SCORE:    0.00 PKD
ROOT
HETATM    1  C   UNL     1     -10.629  18.275  66.429  1.00  0.00    -0.318 C  
HETATM    2  C   UNL     1      -9.610  17.525  67.293  1.00  0.00    -0.273 C  
HETATM    3  O   UNL     1     -10.102  16.201  67.619  1.00  0.00    -0.239 OA 
HETATM    4  C   UNL     1      -9.094  18.351  68.483  1.00  0.00    -0.345 C  
HETATM    5  C   UNL     1      -8.376  17.262  66.400  1.00  0.00    -0.280 C  
HETATM    6  O   UNL     1      -8.036  15.951  66.321  1.00  0.00    -0.243 OA 
HETATM    7  O   UNL     1      -7.740  18.131  65.820  1.00  0.00    -0.523 OA 
ENDROOT
BRANCH   3   8
HETATM    8  C   UNL     1     -10.801  15.977  68.768  1.00  0.00    -0.302 A  
HETATM    9  C   UNL     1     -10.311  16.171  70.050  1.00  0.00    -0.147 A  
HETATM   10  C   UNL     1     -11.077  15.814  71.158  1.00  0.00    -0.300 A  
HETATM   11  C   UNL     1     -12.376  15.319  71.009  1.00  0.00    -0.426 A  
HETATM   12  C   UNL     1     -12.113  15.528  68.603  1.00  0.00    -0.107 A  
HETATM   13  C   UNL     1     -12.894  15.191  69.714  1.00  0.00     0.049 A  
BRANCH  11  14
HETATM   14  C   UNL     1     -13.185  14.843  72.198  1.00  0.00    -0.455 C  
BRANCH  14  15
HETATM   15  C   UNL     1     -13.558  13.356  72.157  1.00  0.00    -0.567 C  
BRANCH  15  16
HETATM   16  N   UNL     1     -12.729  12.598  71.246  1.00  0.00    -0.328 N  
HETATM   17  C   UNL     1     -12.606  11.230  71.382  1.00  0.00    -0.351 C  
HETATM   18  H   UNL     1     -12.232  13.078  70.495  1.00  0.00     0.000 HD 
HETATM   19  O   UNL     1     -13.118  10.587  72.292  1.00  0.00    -0.394 OA 
BRANCH  17  20
HETATM   20  C   UNL     1     -11.848  10.537  70.312  1.00  0.00    -0.418 A  
HETATM   21  C   UNL     1     -11.574   9.166  70.383  1.00  0.00    -0.181 A  
HETATM   22  C   UNL     1     -10.843   8.548  69.366  1.00  0.00    -0.103 A  
HETATM   23  C   UNL     1     -10.395   9.299  68.278  1.00  0.00    -0.217 A  
HETATM   24 CL   UNL     1      -9.492   8.532  67.031  1.00  0.00    -0.205 Cl 
HETATM   25  C   UNL     1     -10.680  10.661  68.192  1.00  0.00    -0.267 A  
HETATM   26  C   UNL     1     -11.412  11.281  69.208  1.00  0.00    -0.369 A  
ENDBRANCH  17  20
ENDBRANCH  15  16
ENDBRANCH  14  15
ENDBRANCH  11  14
ENDBRANCH   3   8
TORSDOF 5
ENDMDL
MODEL       87
REMARK 921   NORMALIZED FREE ENERGY PREDICTED BY IDOCK:   -5.02 KCAL/MOL
REMARK 922        TOTAL FREE ENERGY PREDICTED BY IDOCK:   -7.49 KCAL/MOL
REMARK 923 INTER-LIGAND FREE ENERGY PREDICTED BY IDOCK:   -6.97 KCAL/MOL
REMARK 924 INTRA-LIGAND FREE ENERGY PREDICTED BY IDOCK:   -0.52 KCAL/MOL
REMARK 927      BINDING AFFINITY PREDICTED BY RF-SCORE:    0.00 PKD
ROOT
HETATM    1  C   UNL     1     -11.822  13.108  63.488  1.00  0.00    -0.539 C  
HETATM    2  C   UNL     1     -11.565  13.923  64.759  1.00  0.00    -0.374 C  
HETATM    3  O   UNL     1     -10.197  13.742  65.205  1.00  0.00    -0.332 OA 
HETATM    4  C   UNL     1     -12.643  13.729  65.837  1.00  0.00    -0.494 C  
HETATM    5  C   UNL     1     -11.639  15.413  64.356  1.00  0.00    -0.264 C  
HETATM    6  O   UNL     1     -10.522  16.114  64.672  1.00  0.00    -0.526 OA 
HETATM    7  O   UNL     1     -12.602  15.940  63.817  1.00  0.00    -0.632 OA 
ENDROOT
BRANCH   3   8
HETATM    8  C   UNL     1      -9.878  12.776  66.112  1.00  0.00    -0.267 A  
HETATM    9  C   UNL     1      -9.728  11.428  65.822  1.00  0.00    -0.263 A  
HETATM   10  C   UNL     1      -9.500  10.509  66.844  1.00  0.00    -0.191 A  
HETATM   11  C   UNL     1      -9.351  10.925  68.171  1.00  0.00    -0.165 A  
HETATM   12  C   UNL     1      -9.686  13.213  67.424  1.00  0.00    -0.220 A  
HETATM   13  C   UNL     1      -9.434  12.296  68.450  1.00  0.00    -0.175 A  
BRANCH  11  14
HETATM   14  C   UNL     1      -9.194   9.930  69.301  1.00  0.00    -0.207 C  
BRANCH  14  15
HETATM   15  C   UNL     1     -10.340   8.918  69.419  1.00  0.00    -0.213 C  
BRANCH  15  16
HETATM   16  N   UNL     1      -9.923   7.669  70.017  1.00  0.00    -0.188 N  
HETATM   17  C   UNL     1     -10.849   6.691  70.320  1.00  0.00    -0.271 C  
HETATM   18  H   UNL     1      -8.936   7.509  70.217  1.00  0.00     0.000 HD 
HETATM   19  O   UNL     1     -12.058   6.829  70.171  1.00  0.00    -0.289 OA 
BRANCH  17  20
HETATM   20  C   UNL     1     -10.297   5.401  70.798  1.00  0.00    -0.322 A  
HETATM   21  C   UNL     1     -10.036   4.347  69.913  1.00  0.00    -0.233 A  
HETATM   22  C   UNL     1      -9.531   3.139  70.399  1.00  0.00    -0.227 A  
HETATM   23  C   UNL     1      -9.281   2.989  71.763  1.00  0.00    -0.113 A  
HETATM   24 CL   UNL     1      -8.662   1.497  72.354  1.00  0.00    -0.062 Cl 
HETATM   25  C   UNL     1      -9.521   4.040  72.647  1.00  0.00    -0.170 A  
HETATM   26  C   UNL     1     -10.026   5.250  72.164  1.00  0.00    -0.232 A  
ENDBRANCH  17  20
ENDBRANCH  15  16
ENDBRANCH  14  15
ENDBRANCH  11  14
ENDBRANCH   3   8
TORSDOF 5
ENDMDL
MODEL       88
REMARK 921   NORMALIZED FREE ENERGY PREDICTED BY IDOCK:   -5.01 KCAL/MOL
REMARK 922        TOTAL FREE ENERGY PREDICTED BY IDOCK:   -7.47 KCAL/MOL
REMARK 923 INTER-LIGAND FREE ENERGY PREDICTED BY IDOCK:   -6.60 KCAL/MOL
REMARK 924 INTRA-LIGAND FREE ENERGY PREDICTED BY IDOCK:   -0.88 KCAL/MOL
REMARK 927      BINDING AFFINITY PREDICTED BY RF-SCORE:    0.00 PKD
ROOT
HETATM    1  C   UNL     1      -8.829   8.928  65.253  1.00  0.00    -0.227 C  
HETATM    2  C   UNL     1      -8.080   9.609  66.402  1.00  0.00    -0.112 C  
HETATM    3  O   UNL     1      -7.950   8.702  67.526  1.00  0.00    -0.104 OA 
HETATM    4  C   UNL     1      -8.620  11.008  66.739  1.00  0.00    -0.152 C  
HETATM    5  C   UNL     1      -6.628   9.826  65.920  1.00  0.00    -0.083 C  
HETATM    6  O   UNL     1      -5.698   9.272  66.739  1.00  0.00    -0.049 OA 
HETATM    7  O   UNL     1      -6.314  10.444  64.912  1.00  0.00    -0.129 OA 
ENDROOT
BRANCH   3   8
HETATM    8  C   UNL     1      -8.877   8.691  68.527  1.00  0.00    -0.142 A  
HETATM    9  C   UNL     1     -10.170   8.204  68.410  1.00  0.00    -0.240 A  
HETATM   10  C   UNL     1     -11.068   8.333  69.467  1.00  0.00     0.039 A  
HETATM   11  C   UNL     1     -10.673   8.891  70.687  1.00  0.00    -0.282 A  
HETATM   12  C   UNL     1      -8.454   9.208  69.752  1.00  0.00    -0.140 A  
HETATM   13  C   UNL     1      -9.346   9.318  70.824  1.00  0.00    -0.322 A  
BRANCH  11  14
HETATM   14  C   UNL     1     -11.662   9.120  71.811  1.00  0.00    -0.456 C  
BRANCH  14  15
HETATM   15  C   UNL     1     -12.841  10.028  71.443  1.00  0.00    -0.417 C  
BRANCH  15  16
HETATM   16  N   UNL     1     -12.418  11.301  70.901  1.00  0.00    -0.391 N  
HETATM   17  C   UNL     1     -12.880  12.484  71.442  1.00  0.00    -0.260 C  
HETATM   18  H   UNL     1     -11.772  11.325  70.112  1.00  0.00     0.000 HD 
HETATM   19  O   UNL     1     -13.705  12.542  72.348  1.00  0.00    -0.472 OA 
BRANCH  17  20
HETATM   20  C   UNL     1     -12.274  13.725  70.902  1.00  0.00    -0.427 A  
HETATM   21  C   UNL     1     -12.146  14.876  71.689  1.00  0.00    -0.415 A  
HETATM   22  C   UNL     1     -11.585  16.033  71.144  1.00  0.00    -0.492 A  
HETATM   23  C   UNL     1     -11.147  16.035  69.820  1.00  0.00    -0.337 A  
HETATM   24 CL   UNL     1     -10.461  17.465  69.154  1.00  0.00    -0.313 Cl 
HETATM   25  C   UNL     1     -11.255  14.887  69.036  1.00  0.00    -0.278 A  
HETATM   26  C   UNL     1     -11.815  13.727  69.579  1.00  0.00    -0.394 A  
ENDBRANCH  17  20
ENDBRANCH  15  16
ENDBRANCH  14  15
ENDBRANCH  11  14
ENDBRANCH   3   8
TORSDOF 5
ENDMDL
MODEL       89
REMARK 921   NORMALIZED FREE ENERGY PREDICTED BY IDOCK:   -5.01 KCAL/MOL
REMARK 922        TOTAL FREE ENERGY PREDICTED BY IDOCK:   -7.47 KCAL/MOL
REMARK 923 INTER-LIGAND FREE ENERGY PREDICTED BY IDOCK:   -6.66 KCAL/MOL
REMARK 924 INTRA-LIGAND FREE ENERGY PREDICTED BY IDOCK:   -0.81 KCAL/MOL
REMARK 927      BINDING AFFINITY PREDICTED BY RF-SCORE:    0.00 PKD
ROOT
HETATM    1  C   UNL     1      -8.068  10.587  65.372  1.00  0.00    -0.141 C  
HETATM    2  C   UNL     1      -9.539  10.884  65.065  1.00  0.00    -0.251 C  
HETATM    3  O   UNL     1      -9.846  12.270  65.360  1.00  0.00    -0.247 OA 
HETATM    4  C   UNL     1     -10.508   9.851  65.662  1.00  0.00     0.026 C  
HETATM    5  C   UNL     1      -9.704  10.776  63.532  1.00  0.00    -0.341 C  
HETATM    6  O   UNL     1     -10.216  11.896  62.964  1.00  0.00    -0.365 OA 
HETATM    7  O   UNL     1      -9.424   9.786  62.870  1.00  0.00    -0.227 OA 
ENDROOT
BRANCH   3   8
HETATM    8  C   UNL     1     -10.331  12.636  66.580  1.00  0.00    -0.242 A  
HETATM    9  C   UNL     1      -9.695  12.411  67.791  1.00  0.00    -0.201 A  
HETATM   10  C   UNL     1     -10.327  12.736  68.989  1.00  0.00     0.040 A  
HETATM   11  C   UNL     1     -11.582  13.354  69.000  1.00  0.00    -0.358 A  
HETATM   12  C   UNL     1     -11.562  13.294  66.572  1.00  0.00    -0.392 A  
HETATM   13  C   UNL     1     -12.190  13.643  67.772  1.00  0.00    -0.201 A  
BRANCH  11  14
HETATM   14  C   UNL     1     -12.319  13.629  70.294  1.00  0.00    -0.392 C  
BRANCH  14  15
HETATM   15  C   UNL     1     -11.891  14.917  71.006  1.00  0.00    -0.327 C  
BRANCH  15  16
HETATM   16  N   UNL     1     -11.702  16.024  70.093  1.00  0.00    -0.348 N  
HETATM   17  C   UNL     1     -10.446  16.323  69.604  1.00  0.00    -0.294 C  
HETATM   18  H   UNL     1     -12.503  16.588  69.809  1.00  0.00     0.000 HD 
HETATM   19  O   UNL     1      -9.425  15.736  69.944  1.00  0.00    -0.204 OA 
BRANCH  17  20
HETATM   20  C   UNL     1     -10.390  17.384  68.569  1.00  0.00    -0.378 A  
HETATM   21  C   UNL     1     -10.124  18.717  68.906  1.00  0.00    -0.360 A  
HETATM   22  C   UNL     1     -10.095  19.695  67.910  1.00  0.00    -0.543 A  
HETATM   23  C   UNL     1     -10.322  19.338  66.580  1.00  0.00    -0.438 A  
HETATM   24 CL   UNL     1     -10.288  20.549  65.358  1.00  0.00     0.053 Cl 
HETATM   25  C   UNL     1     -10.570  18.010  66.235  1.00  0.00    -0.262 A  
HETATM   26  C   UNL     1     -10.599  17.030  67.231  1.00  0.00    -0.267 A  
ENDBRANCH  17  20
ENDBRANCH  15  16
ENDBRANCH  14  15
ENDBRANCH  11  14
ENDBRANCH   3   8
TORSDOF 5
ENDMDL
MODEL       90
REMARK 921   NORMALIZED FREE ENERGY PREDICTED BY IDOCK:   -4.99 KCAL/MOL
REMARK 922        TOTAL FREE ENERGY PREDICTED BY IDOCK:   -7.45 KCAL/MOL
REMARK 923 INTER-LIGAND FREE ENERGY PREDICTED BY IDOCK:   -6.41 KCAL/MOL
REMARK 924 INTRA-LIGAND FREE ENERGY PREDICTED BY IDOCK:   -1.05 KCAL/MOL
REMARK 927      BINDING AFFINITY PREDICTED BY RF-SCORE:    0.00 PKD
ROOT
HETATM    1  C   UNL     1     -12.052  13.299  67.866  1.00  0.00    -0.270 C  
HETATM    2  C   UNL     1     -10.641  13.677  67.405  1.00  0.00    -0.259 C  
HETATM    3  O   UNL     1     -10.276  12.918  66.225  1.00  0.00    -0.265 OA 
HETATM    4  C   UNL     1      -9.606  13.672  68.541  1.00  0.00    -0.165 C  
HETATM    5  C   UNL     1     -10.711  15.139  66.909  1.00  0.00    -0.308 C  
HETATM    6  O   UNL     1     -10.276  15.298  65.634  1.00  0.00    -0.315 OA 
HETATM    7  O   UNL     1     -11.101  16.084  67.582  1.00  0.00    -0.317 OA 
ENDROOT
BRANCH   3   8
HETATM    8  C   UNL     1      -9.606  11.735  66.333  1.00  0.00    -0.218 A  
HETATM    9  C   UNL     1     -10.195  10.480  66.302  1.00  0.00    -0.296 A  
HETATM   10  C   UNL     1      -9.429   9.337  66.523  1.00  0.00    -0.259 A  
HETATM   11  C   UNL     1      -8.046   9.420  66.712  1.00  0.00    -0.109 A  
HETATM   12  C   UNL     1      -8.221  11.831  66.474  1.00  0.00    -0.066 A  
HETATM   13  C   UNL     1      -7.445  10.684  66.672  1.00  0.00    -0.129 A  
BRANCH  11  14
HETATM   14  C   UNL     1      -7.217   8.197  67.043  1.00  0.00    -0.083 C  
BRANCH  14  15
HETATM   15  C   UNL     1      -6.975   7.981  68.542  1.00  0.00    -0.072 C  
BRANCH  15  16
HETATM   16  N   UNL     1      -8.197   8.019  69.316  1.00  0.00    -0.125 N  
HETATM   17  C   UNL     1      -8.422   9.036  70.223  1.00  0.00    -0.168 C  
HETATM   18  H   UNL     1      -8.898   7.289  69.191  1.00  0.00     0.000 HD 
HETATM   19  O   UNL     1      -7.606   9.914  70.478  1.00  0.00    -0.251 OA 
BRANCH  17  20
HETATM   20  C   UNL     1      -9.764   9.054  70.856  1.00  0.00    -0.329 A  
HETATM   21  C   UNL     1     -10.126   8.107  71.822  1.00  0.00    -0.267 A  
HETATM   22  C   UNL     1     -11.403   8.142  72.386  1.00  0.00    -0.456 A  
HETATM   23  C   UNL     1     -12.310   9.126  71.990  1.00  0.00    -0.377 A  
HETATM   24 CL   UNL     1     -13.883   9.161  72.687  1.00  0.00    -0.481 Cl 
HETATM   25  C   UNL     1     -11.950  10.082  71.042  1.00  0.00    -0.469 A  
HETATM   26  C   UNL     1     -10.672  10.050  70.477  1.00  0.00    -0.352 A  
ENDBRANCH  17  20
ENDBRANCH  15  16
ENDBRANCH  14  15
ENDBRANCH  11  14
ENDBRANCH   3   8
TORSDOF 5
ENDMDL
MODEL       91
REMARK 921   NORMALIZED FREE ENERGY PREDICTED BY IDOCK:   -4.97 KCAL/MOL
REMARK 922        TOTAL FREE ENERGY PREDICTED BY IDOCK:   -7.43 KCAL/MOL
REMARK 923 INTER-LIGAND FREE ENERGY PREDICTED BY IDOCK:   -6.68 KCAL/MOL
REMARK 924 INTRA-LIGAND FREE ENERGY PREDICTED BY IDOCK:   -0.74 KCAL/MOL
REMARK 927      BINDING AFFINITY PREDICTED BY RF-SCORE:    0.00 PKD
ROOT
HETATM    1  C   UNL     1     -12.186   6.859  71.464  1.00  0.00    -0.415 C  
HETATM    2  C   UNL     1     -10.665   6.993  71.588  1.00  0.00    -0.220 C  
HETATM    3  O   UNL     1     -10.244   8.327  71.205  1.00  0.00    -0.190 OA 
HETATM    4  C   UNL     1      -9.894   5.841  70.925  1.00  0.00    -0.229 C  
HETATM    5  C   UNL     1     -10.332   6.908  73.094  1.00  0.00    -0.266 C  
HETATM    6  O   UNL     1      -9.635   7.977  73.555  1.00  0.00    -0.270 OA 
HETATM    7  O   UNL     1     -10.640   5.974  73.823  1.00  0.00    -0.260 OA 
ENDROOT
BRANCH   3   8
HETATM    8  C   UNL     1      -9.869   8.602  69.924  1.00  0.00    -0.183 A  
HETATM    9  C   UNL     1      -8.560   8.744  69.489  1.00  0.00    -0.130 A  
HETATM   10  C   UNL     1      -8.292   9.126  68.176  1.00  0.00    -0.120 A  
HETATM   11  C   UNL     1      -9.325   9.310  67.251  1.00  0.00    -0.161 A  
HETATM   12  C   UNL     1     -10.909   8.736  69.002  1.00  0.00    -0.052 A  
HETATM   13  C   UNL     1     -10.643   9.097  67.677  1.00  0.00    -0.307 A  
BRANCH  11  14
HETATM   14  C   UNL     1      -9.054   9.812  65.849  1.00  0.00    -0.209 C  
BRANCH  14  15
HETATM   15  C   UNL     1     -10.166  10.691  65.264  1.00  0.00    -0.282 C  
BRANCH  15  16
HETATM   16  N   UNL     1     -10.075  12.069  65.696  1.00  0.00    -0.238 N  
HETATM   17  C   UNL     1     -11.137  12.676  66.336  1.00  0.00    -0.287 C  
HETATM   18  H   UNL     1      -9.218  12.596  65.528  1.00  0.00     0.000 HD 
HETATM   19  O   UNL     1     -12.221  12.134  66.521  1.00  0.00    -0.584 OA 
BRANCH  17  20
HETATM   20  C   UNL     1     -10.884  14.041  66.859  1.00  0.00    -0.290 A  
HETATM   21  C   UNL     1      -9.801  14.805  66.408  1.00  0.00    -0.297 A  
HETATM   22  C   UNL     1      -9.582  16.081  66.934  1.00  0.00    -0.239 A  
HETATM   23  C   UNL     1     -10.448  16.591  67.901  1.00  0.00    -0.313 A  
HETATM   24 CL   UNL     1     -10.170  18.161  68.547  1.00  0.00    -0.398 Cl 
HETATM   25  C   UNL     1     -11.538  15.842  68.342  1.00  0.00    -0.343 A  
HETATM   26  C   UNL     1     -11.761  14.566  67.817  1.00  0.00    -0.403 A  
ENDBRANCH  17  20
ENDBRANCH  15  16
ENDBRANCH  14  15
ENDBRANCH  11  14
ENDBRANCH   3   8
TORSDOF 5
ENDMDL
MODEL       92
REMARK 921   NORMALIZED FREE ENERGY PREDICTED BY IDOCK:   -4.97 KCAL/MOL
REMARK 922        TOTAL FREE ENERGY PREDICTED BY IDOCK:   -7.42 KCAL/MOL
REMARK 923 INTER-LIGAND FREE ENERGY PREDICTED BY IDOCK:   -6.94 KCAL/MOL
REMARK 924 INTRA-LIGAND FREE ENERGY PREDICTED BY IDOCK:   -0.48 KCAL/MOL
REMARK 927      BINDING AFFINITY PREDICTED BY RF-SCORE:    0.00 PKD
ROOT
HETATM    1  C   UNL     1      -8.414  17.033  66.165  1.00  0.00    -0.262 C  
HETATM    2  C   UNL     1      -9.917  17.107  66.452  1.00  0.00    -0.306 C  
HETATM    3  O   UNL     1     -10.190  16.700  67.816  1.00  0.00    -0.273 OA 
HETATM    4  C   UNL     1     -10.778  16.429  65.374  1.00  0.00    -0.310 C  
HETATM    5  C   UNL     1     -10.303  18.603  66.416  1.00  0.00    -0.432 C  
HETATM    6  O   UNL     1     -10.904  19.032  67.555  1.00  0.00    -0.463 OA 
HETATM    7  O   UNL     1     -10.113  19.349  65.465  1.00  0.00    -0.378 OA 
ENDROOT
BRANCH   3   8
HETATM    8  C   UNL     1     -10.495  15.405  68.113  1.00  0.00    -0.247 A  
HETATM    9  C   UNL     1      -9.707  14.308  67.798  1.00  0.00    -0.222 A  
HETATM   10  C   UNL     1     -10.162  13.017  68.058  1.00  0.00    -0.233 A  
HETATM   11  C   UNL     1     -11.385  12.797  68.699  1.00  0.00    -0.333 A  
HETATM   12  C   UNL     1     -11.697  15.205  68.795  1.00  0.00    -0.366 A  
HETATM   13  C   UNL     1     -12.146  13.911  69.079  1.00  0.00    -0.365 A  
BRANCH  11  14
HETATM   14  C   UNL     1     -11.932  11.400  68.906  1.00  0.00    -0.371 C  
BRANCH  14  15
HETATM   15  C   UNL     1     -11.235  10.317  68.074  1.00  0.00    -0.235 C  
BRANCH  15  16
HETATM   16  N   UNL     1     -10.816   9.185  68.871  1.00  0.00    -0.408 N  
HETATM   17  C   UNL     1     -10.591   7.956  68.282  1.00  0.00    -0.109 C  
HETATM   18  H   UNL     1     -10.684   9.295  69.877  1.00  0.00     0.000 HD 
HETATM   19  O   UNL     1     -10.785   7.725  67.094  1.00  0.00    -0.333 OA 
BRANCH  17  20
HETATM   20  C   UNL     1     -10.029   6.907  69.167  1.00  0.00    -0.166 A  
HETATM   21  C   UNL     1     -10.778   5.778  69.525  1.00  0.00    -0.408 A  
HETATM   22  C   UNL     1     -10.225   4.817  70.373  1.00  0.00    -0.261 A  
HETATM   23  C   UNL     1      -8.926   4.980  70.855  1.00  0.00    -0.134 A  
HETATM   24 CL   UNL     1      -8.253   3.793  71.903  1.00  0.00    -0.074 Cl 
HETATM   25  C   UNL     1      -8.169   6.092  70.489  1.00  0.00    -0.114 A  
HETATM   26  C   UNL     1      -8.719   7.056  69.639  1.00  0.00    -0.141 A  
ENDBRANCH  17  20
ENDBRANCH  15  16
ENDBRANCH  14  15
ENDBRANCH  11  14
ENDBRANCH   3   8
TORSDOF 5
ENDMDL
MODEL       93
REMARK 921   NORMALIZED FREE ENERGY PREDICTED BY IDOCK:   -4.95 KCAL/MOL
REMARK 922        TOTAL FREE ENERGY PREDICTED BY IDOCK:   -7.40 KCAL/MOL
REMARK 923 INTER-LIGAND FREE ENERGY PREDICTED BY IDOCK:   -6.65 KCAL/MOL
REMARK 924 INTRA-LIGAND FREE ENERGY PREDICTED BY IDOCK:   -0.75 KCAL/MOL
REMARK 927      BINDING AFFINITY PREDICTED BY RF-SCORE:    0.00 PKD
ROOT
HETATM    1  C   UNL     1     -12.274  14.661  66.002  1.00  0.00    -0.166 C  
HETATM    2  C   UNL     1     -11.812  13.338  65.383  1.00  0.00    -0.359 C  
HETATM    3  O   UNL     1     -12.380  12.217  66.107  1.00  0.00    -0.588 OA 
HETATM    4  C   UNL     1     -10.295  13.271  65.146  1.00  0.00    -0.336 C  
HETATM    5  C   UNL     1     -12.459  13.252  63.982  1.00  0.00    -0.257 C  
HETATM    6  O   UNL     1     -13.197  12.129  63.795  1.00  0.00    -0.763 OA 
HETATM    7  O   UNL     1     -12.325  14.091  63.102  1.00  0.00    -0.657 OA 
ENDROOT
BRANCH   3   8
HETATM    8  C   UNL     1     -11.704  11.633  67.136  1.00  0.00    -0.133 A  
HETATM    9  C   UNL     1     -11.725  12.068  68.453  1.00  0.00    -0.390 A  
HETATM   10  C   UNL     1     -10.916  11.458  69.409  1.00  0.00    -0.260 A  
HETATM   11  C   UNL     1     -10.117  10.357  69.083  1.00  0.00    -0.236 A  
HETATM   12  C   UNL     1     -10.948  10.507  66.806  1.00  0.00    -0.150 A  
HETATM   13  C   UNL     1     -10.151   9.878  67.768  1.00  0.00    -0.221 A  
BRANCH  11  14
HETATM   14  C   UNL     1      -9.166   9.743  70.089  1.00  0.00    -0.253 C  
BRANCH  14  15
HETATM   15  C   UNL     1      -9.759   8.583  70.897  1.00  0.00    -0.187 C  
BRANCH  15  16
HETATM   16  N   UNL     1      -9.343   7.288  70.404  1.00  0.00    -0.159 N  
HETATM   17  C   UNL     1     -10.238   6.464  69.753  1.00  0.00    -0.186 C  
HETATM   18  H   UNL     1      -8.379   6.982  70.538  1.00  0.00     0.000 HD 
HETATM   19  O   UNL     1     -11.426   6.730  69.606  1.00  0.00    -0.287 OA 
BRANCH  17  20
HETATM   20  C   UNL     1      -9.671   5.225  69.167  1.00  0.00    -0.231 A  
HETATM   21  C   UNL     1      -9.698   4.011  69.863  1.00  0.00    -0.263 A  
HETATM   22  C   UNL     1      -9.141   2.866  69.290  1.00  0.00    -0.198 A  
HETATM   23  C   UNL     1      -8.565   2.936  68.021  1.00  0.00    -0.091 A  
HETATM   24 CL   UNL     1      -7.876   1.523  67.322  1.00  0.00    -0.059 Cl 
HETATM   25  C   UNL     1      -8.550   4.138  67.314  1.00  0.00    -0.103 A  
HETATM   26  C   UNL     1      -9.109   5.284  67.886  1.00  0.00    -0.117 A  
ENDBRANCH  17  20
ENDBRANCH  15  16
ENDBRANCH  14  15
ENDBRANCH  11  14
ENDBRANCH   3   8
TORSDOF 5
ENDMDL
MODEL       94
REMARK 921   NORMALIZED FREE ENERGY PREDICTED BY IDOCK:   -4.93 KCAL/MOL
REMARK 922        TOTAL FREE ENERGY PREDICTED BY IDOCK:   -7.37 KCAL/MOL
REMARK 923 INTER-LIGAND FREE ENERGY PREDICTED BY IDOCK:   -6.90 KCAL/MOL
REMARK 924 INTRA-LIGAND FREE ENERGY PREDICTED BY IDOCK:   -0.47 KCAL/MOL
REMARK 927      BINDING AFFINITY PREDICTED BY RF-SCORE:    0.00 PKD
ROOT
HETATM    1  C   UNL     1      -9.486   4.040  70.881  1.00  0.00    -0.237 C  
HETATM    2  C   UNL     1      -9.705   4.869  72.150  1.00  0.00    -0.163 C  
HETATM    3  O   UNL     1     -11.033   5.453  72.148  1.00  0.00    -0.238 OA 
HETATM    4  C   UNL     1      -8.555   5.845  72.448  1.00  0.00    -0.120 C  
HETATM    5  C   UNL     1      -9.728   3.876  73.333  1.00  0.00    -0.111 C  
HETATM    6  O   UNL     1     -10.858   3.953  74.082  1.00  0.00    -0.217 OA 
HETATM    7  O   UNL     1      -8.827   3.095  73.603  1.00  0.00    -0.076 OA 
ENDROOT
BRANCH   3   8
HETATM    8  C   UNL     1     -11.248   6.702  71.647  1.00  0.00    -0.264 A  
HETATM    9  C   UNL     1     -10.883   7.126  70.378  1.00  0.00    -0.269 A  
HETATM   10  C   UNL     1     -11.060   8.455  70.002  1.00  0.00    -0.148 A  
HETATM   11  C   UNL     1     -11.667   9.375  70.863  1.00  0.00    -0.378 A  
HETATM   12  C   UNL     1     -11.898   7.595  72.500  1.00  0.00    -0.312 A  
HETATM   13  C   UNL     1     -12.099   8.926  72.117  1.00  0.00    -0.430 A  
BRANCH  11  14
HETATM   14  C   UNL     1     -11.783  10.842  70.503  1.00  0.00    -0.449 C  
BRANCH  14  15
HETATM   15  C   UNL     1     -11.938  11.116  69.002  1.00  0.00    -0.320 C  
BRANCH  15  16
HETATM   16  N   UNL     1     -11.084  12.188  68.539  1.00  0.00    -0.234 N  
HETATM   17  C   UNL     1     -11.274  12.749  67.292  1.00  0.00    -0.295 C  
HETATM   18  H   UNL     1     -10.335  12.533  69.139  1.00  0.00     0.000 HD 
HETATM   19  O   UNL     1     -12.109  12.351  66.487  1.00  0.00    -0.599 OA 
BRANCH  17  20
HETATM   20  C   UNL     1     -10.436  13.931  66.978  1.00  0.00    -0.278 A  
HETATM   21  C   UNL     1     -10.933  14.996  66.216  1.00  0.00    -0.338 A  
HETATM   22  C   UNL     1     -10.111  16.087  65.925  1.00  0.00    -0.378 A  
HETATM   23  C   UNL     1      -8.800  16.115  66.400  1.00  0.00    -0.320 A  
HETATM   24 CL   UNL     1      -7.792  17.460  66.034  1.00  0.00    -0.282 Cl 
HETATM   25  C   UNL     1      -8.304  15.066  67.174  1.00  0.00    -0.244 A  
HETATM   26  C   UNL     1      -9.125  13.974  67.468  1.00  0.00    -0.196 A  
ENDBRANCH  17  20
ENDBRANCH  15  16
ENDBRANCH  14  15
ENDBRANCH  11  14
ENDBRANCH   3   8
TORSDOF 5
ENDMDL
MODEL       95
REMARK 921   NORMALIZED FREE ENERGY PREDICTED BY IDOCK:   -4.91 KCAL/MOL
REMARK 922        TOTAL FREE ENERGY PREDICTED BY IDOCK:   -7.34 KCAL/MOL
REMARK 923 INTER-LIGAND FREE ENERGY PREDICTED BY IDOCK:   -6.31 KCAL/MOL
REMARK 924 INTRA-LIGAND FREE ENERGY PREDICTED BY IDOCK:   -1.03 KCAL/MOL
REMARK 927      BINDING AFFINITY PREDICTED BY RF-SCORE:    0.00 PKD
ROOT
HETATM    1  C   UNL     1      -7.190  10.074  65.014  1.00  0.00    -0.139 C  
HETATM    2  C   UNL     1      -8.688  10.107  64.693  1.00  0.00    -0.189 C  
HETATM    3  O   UNL     1      -9.219  11.440  64.903  1.00  0.00    -0.172 OA 
HETATM    4  C   UNL     1      -9.480   8.968  65.356  1.00  0.00    -0.163 C  
HETATM    5  C   UNL     1      -8.822   9.879  63.171  1.00  0.00    -0.245 C  
HETATM    6  O   UNL     1      -9.507  10.864  62.536  1.00  0.00    -0.281 OA 
HETATM    7  O   UNL     1      -8.379   8.910  62.571  1.00  0.00    -0.178 OA 
ENDROOT
BRANCH   3   8
HETATM    8  C   UNL     1      -9.766  11.796  66.099  1.00  0.00    -0.229 A  
HETATM    9  C   UNL     1      -9.094  11.805  67.312  1.00  0.00    -0.171 A  
HETATM   10  C   UNL     1      -9.777  12.089  68.493  1.00  0.00    -0.165 A  
HETATM   11  C   UNL     1     -11.131  12.436  68.479  1.00  0.00    -0.296 A  
HETATM   12  C   UNL     1     -11.106  12.185  66.063  1.00  0.00    -0.354 A  
HETATM   13  C   UNL     1     -11.789  12.494  67.244  1.00  0.00    -0.381 A  
BRANCH  11  14
HETATM   14  C   UNL     1     -11.906  12.657  69.761  1.00  0.00    -0.379 C  
BRANCH  14  15
HETATM   15  C   UNL     1     -12.553  11.392  70.338  1.00  0.00    -0.185 C  
BRANCH  15  16
HETATM   16  N   UNL     1     -11.952  10.177  69.832  1.00  0.00    -0.462 N  
HETATM   17  C   UNL     1     -11.394   9.257  70.696  1.00  0.00    -0.275 C  
HETATM   18  H   UNL     1     -11.942   9.999  68.828  1.00  0.00     0.000 HD 
HETATM   19  O   UNL     1     -11.309   9.424  71.907  1.00  0.00    -0.370 OA 
BRANCH  17  20
HETATM   20  C   UNL     1     -10.935   7.987  70.082  1.00  0.00    -0.226 A  
HETATM   21  C   UNL     1     -11.171   6.752  70.699  1.00  0.00    -0.361 A  
HETATM   22  C   UNL     1     -10.711   5.576  70.102  1.00  0.00    -0.348 A  
HETATM   23  C   UNL     1     -10.024   5.636  68.889  1.00  0.00    -0.166 A  
HETATM   24 CL   UNL     1      -9.457   4.184  68.162  1.00  0.00    -0.214 Cl 
HETATM   25  C   UNL     1      -9.801   6.860  68.261  1.00  0.00    -0.141 A  
HETATM   26  C   UNL     1     -10.261   8.039  68.855  1.00  0.00    -0.220 A  
ENDBRANCH  17  20
ENDBRANCH  15  16
ENDBRANCH  14  15
ENDBRANCH  11  14
ENDBRANCH   3   8
TORSDOF 5
ENDMDL
MODEL       96
REMARK 921   NORMALIZED FREE ENERGY PREDICTED BY IDOCK:   -4.90 KCAL/MOL
REMARK 922        TOTAL FREE ENERGY PREDICTED BY IDOCK:   -7.33 KCAL/MOL
REMARK 923 INTER-LIGAND FREE ENERGY PREDICTED BY IDOCK:   -6.48 KCAL/MOL
REMARK 924 INTRA-LIGAND FREE ENERGY PREDICTED BY IDOCK:   -0.86 KCAL/MOL
REMARK 927      BINDING AFFINITY PREDICTED BY RF-SCORE:    0.00 PKD
ROOT
HETATM    1  C   UNL     1      -6.664   9.315  70.314  1.00  0.00    -0.066 C  
HETATM    2  C   UNL     1      -7.969   8.532  70.141  1.00  0.00    -0.105 C  
HETATM    3  O   UNL     1      -8.275   8.368  68.734  1.00  0.00    -0.116 OA 
HETATM    4  C   UNL     1      -9.119   9.063  71.011  1.00  0.00    -0.322 C  
HETATM    5  C   UNL     1      -7.695   7.096  70.641  1.00  0.00    -0.094 C  
HETATM    6  O   UNL     1      -7.966   6.141  69.715  1.00  0.00    -0.106 OA 
HETATM    7  O   UNL     1      -7.288   6.814  71.759  1.00  0.00    -0.083 OA 
ENDROOT
BRANCH   3   8
HETATM    8  C   UNL     1      -9.069   9.264  68.081  1.00  0.00    -0.128 A  
HETATM    9  C   UNL     1     -10.451   9.185  67.988  1.00  0.00    -0.276 A  
HETATM   10  C   UNL     1     -11.157  10.100  67.210  1.00  0.00    -0.166 A  
HETATM   11  C   UNL     1     -10.504  11.153  66.561  1.00  0.00    -0.305 A  
HETATM   12  C   UNL     1      -8.408  10.335  67.478  1.00  0.00    -0.114 A  
HETATM   13  C   UNL     1      -9.117  11.269  66.715  1.00  0.00    -0.181 A  
BRANCH  11  14
HETATM   14  C   UNL     1     -11.246  12.098  65.640  1.00  0.00    -0.381 C  
BRANCH  14  15
HETATM   15  C   UNL     1     -11.156  13.576  66.041  1.00  0.00    -0.293 C  
BRANCH  15  16
HETATM   16  N   UNL     1     -11.647  13.822  67.379  1.00  0.00    -0.341 N  
HETATM   17  C   UNL     1     -10.808  14.324  68.355  1.00  0.00    -0.253 C  
HETATM   18  H   UNL     1     -12.622  13.625  67.605  1.00  0.00     0.000 HD 
HETATM   19  O   UNL     1      -9.612  14.528  68.184  1.00  0.00    -0.201 OA 
BRANCH  17  20
HETATM   20  C   UNL     1     -11.450  14.670  69.646  1.00  0.00    -0.329 A  
HETATM   21  C   UNL     1     -12.434  13.850  70.214  1.00  0.00    -0.380 A  
HETATM   22  C   UNL     1     -13.029  14.214  71.424  1.00  0.00    -0.422 A  
HETATM   23  C   UNL     1     -12.636  15.389  72.065  1.00  0.00    -0.371 A  
HETATM   24 CL   UNL     1     -13.378  15.833  73.553  1.00  0.00    -0.570 Cl 
HETATM   25  C   UNL     1     -11.646  16.200  71.515  1.00  0.00    -0.502 A  
HETATM   26  C   UNL     1     -11.046  15.838  70.305  1.00  0.00    -0.372 A  
ENDBRANCH  17  20
ENDBRANCH  15  16
ENDBRANCH  14  15
ENDBRANCH  11  14
ENDBRANCH   3   8
TORSDOF 5
ENDMDL
MODEL       97
REMARK 921   NORMALIZED FREE ENERGY PREDICTED BY IDOCK:   -4.89 KCAL/MOL
REMARK 922        TOTAL FREE ENERGY PREDICTED BY IDOCK:   -7.32 KCAL/MOL
REMARK 923 INTER-LIGAND FREE ENERGY PREDICTED BY IDOCK:   -7.12 KCAL/MOL
REMARK 924 INTRA-LIGAND FREE ENERGY PREDICTED BY IDOCK:   -0.20 KCAL/MOL
REMARK 927      BINDING AFFINITY PREDICTED BY RF-SCORE:    0.00 PKD
ROOT
HETATM    1  C   UNL     1     -10.641  19.010  66.496  1.00  0.00    -0.495 C  
HETATM    2  C   UNL     1      -9.405  18.405  67.171  1.00  0.00    -0.271 C  
HETATM    3  O   UNL     1      -9.460  16.957  67.117  1.00  0.00    -0.230 OA 
HETATM    4  C   UNL     1      -9.110  19.005  68.555  1.00  0.00    -0.401 C  
HETATM    5  C   UNL     1      -8.192  18.773  66.288  1.00  0.00    -0.252 C  
HETATM    6  O   UNL     1      -7.475  17.696  65.880  1.00  0.00    -0.463 OA 
HETATM    7  O   UNL     1      -7.874  19.915  65.983  1.00  0.00    -0.330 OA 
ENDROOT
BRANCH   3   8
HETATM    8  C   UNL     1     -10.006  16.239  68.138  1.00  0.00    -0.239 A  
HETATM    9  C   UNL     1      -9.397  15.999  69.360  1.00  0.00    -0.218 A  
HETATM   10  C   UNL     1     -10.003  15.165  70.298  1.00  0.00     0.125 A  
HETATM   11  C   UNL     1     -11.263  14.606  70.060  1.00  0.00    -0.252 A  
HETATM   12  C   UNL     1     -11.284  15.726  67.905  1.00  0.00    -0.313 A  
HETATM   13  C   UNL     1     -11.906  14.907  68.853  1.00  0.00    -0.334 A  
BRANCH  11  14
HETATM   14  C   UNL     1     -11.891  13.627  71.030  1.00  0.00     0.029 C  
BRANCH  14  15
HETATM   15  C   UNL     1     -12.189  12.246  70.433  1.00  0.00    -0.288 C  
BRANCH  15  16
HETATM   16  N   UNL     1     -11.664  12.092  69.093  1.00  0.00    -0.311 N  
HETATM   17  C   UNL     1     -11.248  10.856  68.640  1.00  0.00    -0.267 C  
HETATM   18  H   UNL     1     -11.600  12.903  68.478  1.00  0.00     0.000 HD 
HETATM   19  O   UNL     1     -11.232   9.846  69.335  1.00  0.00    -0.221 OA 
BRANCH  17  20
HETATM   20  C   UNL     1     -10.861  10.786  67.210  1.00  0.00    -0.344 A  
HETATM   21  C   UNL     1     -11.274  11.763  66.295  1.00  0.00    -0.370 A  
HETATM   22  C   UNL     1     -10.905  11.658  64.952  1.00  0.00    -0.359 A  
HETATM   23  C   UNL     1     -10.121  10.585  64.529  1.00  0.00    -0.332 A  
HETATM   24 CL   UNL     1      -9.674  10.461  62.872  1.00  0.00    -0.328 Cl 
HETATM   25  C   UNL     1      -9.691   9.619  65.438  1.00  0.00    -0.365 A  
HETATM   26  C   UNL     1     -10.057   9.722  66.783  1.00  0.00    -0.295 A  
ENDBRANCH  17  20
ENDBRANCH  15  16
ENDBRANCH  14  15
ENDBRANCH  11  14
ENDBRANCH   3   8
TORSDOF 5
ENDMDL
MODEL       98
REMARK 921   NORMALIZED FREE ENERGY PREDICTED BY IDOCK:   -4.88 KCAL/MOL
REMARK 922        TOTAL FREE ENERGY PREDICTED BY IDOCK:   -7.31 KCAL/MOL
REMARK 923 INTER-LIGAND FREE ENERGY PREDICTED BY IDOCK:   -6.56 KCAL/MOL
REMARK 924 INTRA-LIGAND FREE ENERGY PREDICTED BY IDOCK:   -0.75 KCAL/MOL
REMARK 927      BINDING AFFINITY PREDICTED BY RF-SCORE:    0.00 PKD
ROOT
HETATM    1  C   UNL     1     -12.017   6.383  70.538  1.00  0.00    -0.217 C  
HETATM    2  C   UNL     1     -10.849   7.350  70.753  1.00  0.00    -0.241 C  
HETATM    3  O   UNL     1     -10.701   8.225  69.606  1.00  0.00    -0.230 OA 
HETATM    4  C   UNL     1      -9.561   6.657  71.225  1.00  0.00    -0.176 C  
HETATM    5  C   UNL     1     -11.260   8.297  71.903  1.00  0.00    -0.300 C  
HETATM    6  O   UNL     1     -11.206   9.610  71.566  1.00  0.00    -0.372 OA 
HETATM    7  O   UNL     1     -11.592   7.930  73.021  1.00  0.00    -0.351 OA 
ENDROOT
BRANCH   3   8
HETATM    8  C   UNL     1      -9.862   7.901  68.581  1.00  0.00    -0.170 A  
HETATM    9  C   UNL     1      -8.618   8.472  68.359  1.00  0.00    -0.139 A  
HETATM   10  C   UNL     1      -7.885   8.140  67.222  1.00  0.00    -0.105 A  
HETATM   11  C   UNL     1      -8.349   7.179  66.318  1.00  0.00    -0.129 A  
HETATM   12  C   UNL     1     -10.318   6.908  67.713  1.00  0.00    -0.253 A  
HETATM   13  C   UNL     1      -9.574   6.554  66.583  1.00  0.00    -0.201 A  
BRANCH  11  14
HETATM   14  C   UNL     1      -7.606   6.876  65.033  1.00  0.00    -0.104 C  
BRANCH  14  15
HETATM   15  C   UNL     1      -8.024   7.741  63.839  1.00  0.00    -0.103 C  
BRANCH  15  16
HETATM   16  N   UNL     1      -8.988   8.759  64.197  1.00  0.00    -0.390 N  
HETATM   17  C   UNL     1      -8.592  10.069  64.380  1.00  0.00    -0.190 C  
HETATM   18  H   UNL     1      -9.969   8.507  64.315  1.00  0.00     0.000 HD 
HETATM   19  O   UNL     1      -7.426  10.442  64.318  1.00  0.00    -0.108 OA 
BRANCH  17  20
HETATM   20  C   UNL     1      -9.681  11.050  64.605  1.00  0.00    -0.315 A  
HETATM   21  C   UNL     1     -10.280  11.731  63.538  1.00  0.00    -0.483 A  
HETATM   22  C   UNL     1     -11.292  12.661  63.787  1.00  0.00    -0.529 A  
HETATM   23  C   UNL     1     -11.707  12.902  65.096  1.00  0.00    -0.349 A  
HETATM   24 CL   UNL     1     -12.952  14.051  65.395  1.00  0.00    -0.461 Cl 
HETATM   25  C   UNL     1     -11.128  12.214  66.161  1.00  0.00    -0.354 A  
HETATM   26  C   UNL     1     -10.116  11.282  65.916  1.00  0.00    -0.291 A  
ENDBRANCH  17  20
ENDBRANCH  15  16
ENDBRANCH  14  15
ENDBRANCH  11  14
ENDBRANCH   3   8
TORSDOF 5
ENDMDL
MODEL       99
REMARK 921   NORMALIZED FREE ENERGY PREDICTED BY IDOCK:   -4.88 KCAL/MOL
REMARK 922        TOTAL FREE ENERGY PREDICTED BY IDOCK:   -7.31 KCAL/MOL
REMARK 923 INTER-LIGAND FREE ENERGY PREDICTED BY IDOCK:   -6.53 KCAL/MOL
REMARK 924 INTRA-LIGAND FREE ENERGY PREDICTED BY IDOCK:   -0.77 KCAL/MOL
REMARK 927      BINDING AFFINITY PREDICTED BY RF-SCORE:    0.00 PKD
ROOT
HETATM    1  C   UNL     1      -9.518   3.599  67.482  1.00  0.00    -0.237 C  
HETATM    2  C   UNL     1      -9.440   4.985  66.834  1.00  0.00    -0.142 C  
HETATM    3  O   UNL     1      -8.625   5.874  67.639  1.00  0.00    -0.105 OA 
HETATM    4  C   UNL     1     -10.811   5.542  66.417  1.00  0.00    -0.195 C  
HETATM    5  C   UNL     1      -8.640   4.819  65.523  1.00  0.00    -0.131 C  
HETATM    6  O   UNL     1      -7.556   5.632  65.445  1.00  0.00    -0.079 OA 
HETATM    7  O   UNL     1      -8.937   4.050  64.619  1.00  0.00    -0.124 OA 
ENDROOT
BRANCH   3   8
HETATM    8  C   UNL     1      -9.188   6.672  68.589  1.00  0.00    -0.128 A  
HETATM    9  C   UNL     1      -9.850   6.221  69.721  1.00  0.00    -0.195 A  
HETATM   10  C   UNL     1     -10.478   7.123  70.577  1.00  0.00    -0.228 A  
HETATM   11  C   UNL     1     -10.401   8.502  70.356  1.00  0.00    -0.222 A  
HETATM   12  C   UNL     1      -9.063   8.047  68.380  1.00  0.00    -0.136 A  
HETATM   13  C   UNL     1      -9.672   8.957  69.250  1.00  0.00    -0.165 A  
BRANCH  11  14
HETATM   14  C   UNL     1     -11.154   9.487  71.225  1.00  0.00    -0.449 C  
BRANCH  14  15
HETATM   15  C   UNL     1     -12.270  10.248  70.500  1.00  0.00    -0.301 C  
BRANCH  15  16
HETATM   16  N   UNL     1     -11.882  11.592  70.130  1.00  0.00    -0.362 N  
HETATM   17  C   UNL     1     -11.796  11.957  68.802  1.00  0.00    -0.313 C  
HETATM   18  H   UNL     1     -11.670  12.275  70.857  1.00  0.00     0.000 HD 
HETATM   19  O   UNL     1     -11.972  11.181  67.869  1.00  0.00    -0.624 OA 
BRANCH  17  20
HETATM   20  C   UNL     1     -11.527  13.392  68.540  1.00  0.00    -0.345 A  
HETATM   21  C   UNL     1     -11.184  13.848  67.261  1.00  0.00    -0.329 A  
HETATM   22  C   UNL     1     -10.921  15.204  67.053  1.00  0.00    -0.322 A  
HETATM   23  C   UNL     1     -11.009  16.100  68.119  1.00  0.00    -0.341 A  
HETATM   24 CL   UNL     1     -10.680  17.768  67.855  1.00  0.00    -0.377 Cl 
HETATM   25  C   UNL     1     -11.367  15.656  69.390  1.00  0.00    -0.332 A  
HETATM   26  C   UNL     1     -11.632  14.300  69.602  1.00  0.00    -0.351 A  
ENDBRANCH  17  20
ENDBRANCH  15  16
ENDBRANCH  14  15
ENDBRANCH  11  14
ENDBRANCH   3   8
TORSDOF 5
ENDMDL
MODEL      100
REMARK 921   NORMALIZED FREE ENERGY PREDICTED BY IDOCK:   -4.87 KCAL/MOL
REMARK 922        TOTAL FREE ENERGY PREDICTED BY IDOCK:   -7.30 KCAL/MOL
REMARK 923 INTER-LIGAND FREE ENERGY PREDICTED BY IDOCK:   -6.57 KCAL/MOL
REMARK 924 INTRA-LIGAND FREE ENERGY PREDICTED BY IDOCK:   -0.73 KCAL/MOL
REMARK 927      BINDING AFFINITY PREDICTED BY RF-SCORE:    0.00 PKD
ROOT
HETATM    1  C   UNL     1      -6.019  10.754  67.760  1.00  0.00    -0.043 C  
HETATM    2  C   UNL     1      -7.200  10.283  66.906  1.00  0.00    -0.093 C  
HETATM    3  O   UNL     1      -7.849  11.415  66.274  1.00  0.00    -0.121 OA 
HETATM    4  C   UNL     1      -8.136   9.311  67.643  1.00  0.00    -0.104 C  
HETATM    5  C   UNL     1      -6.605   9.479  65.728  1.00  0.00    -0.075 C  
HETATM    6  O   UNL     1      -6.980   9.948  64.511  1.00  0.00    -0.120 OA 
HETATM    7  O   UNL     1      -5.877   8.504  65.849  1.00  0.00    -0.046 OA 
ENDROOT
BRANCH   3   8
HETATM    8  C   UNL     1      -8.906  12.038  66.869  1.00  0.00    -0.197 A  
HETATM    9  C   UNL     1     -10.240  11.788  66.587  1.00  0.00    -0.240 A  
HETATM   10  C   UNL     1     -11.241  12.554  67.180  1.00  0.00    -0.352 A  
HETATM   11  C   UNL     1     -10.933  13.543  68.120  1.00  0.00    -0.275 A  
HETATM   12  C   UNL     1      -8.584  12.989  67.838  1.00  0.00    -0.189 A  
HETATM   13  C   UNL     1      -9.587  13.745  68.454  1.00  0.00    -0.206 A  
BRANCH  11  14
HETATM   14  C   UNL     1     -12.001  14.443  68.704  1.00  0.00    -0.332 C  
BRANCH  14  15
HETATM   15  C   UNL     1     -12.395  14.106  70.147  1.00  0.00    -0.351 C  
BRANCH  15  16
HETATM   16  N   UNL     1     -12.131  12.726  70.490  1.00  0.00    -0.508 N  
HETATM   17  C   UNL     1     -12.882  12.087  71.456  1.00  0.00    -0.297 C  
HETATM   18  H   UNL     1     -11.384  12.220  70.015  1.00  0.00     0.000 HD 
HETATM   19  O   UNL     1     -13.754  12.640  72.117  1.00  0.00    -0.467 OA 
BRANCH  17  20
HETATM   20  C   UNL     1     -12.619  10.637  71.627  1.00  0.00    -0.482 A  
HETATM   21  C   UNL     1     -11.413  10.061  71.211  1.00  0.00    -0.390 A  
HETATM   22  C   UNL     1     -11.204   8.689  71.372  1.00  0.00    -0.345 A  
HETATM   23  C   UNL     1     -12.196   7.900  71.954  1.00  0.00    -0.314 A  
HETATM   24 CL   UNL     1     -11.934   6.210  72.146  1.00  0.00    -0.366 Cl 
HETATM   25  C   UNL     1     -13.392   8.470  72.387  1.00  0.00    -0.321 A  
HETATM   26  C   UNL     1     -13.604   9.842  72.228  1.00  0.00    -0.337 A  
ENDBRANCH  17  20
ENDBRANCH  15  16
ENDBRANCH  14  15
ENDBRANCH  11  14
ENDBRANCH   3   8
TORSDOF 5
ENDMDL
MODEL      101
REMARK 921   NORMALIZED FREE ENERGY PREDICTED BY IDOCK:   -4.86 KCAL/MOL
REMARK 922        TOTAL FREE ENERGY PREDICTED BY IDOCK:   -7.28 KCAL/MOL
REMARK 923 INTER-LIGAND FREE ENERGY PREDICTED BY IDOCK:   -6.19 KCAL/MOL
REMARK 924 INTRA-LIGAND FREE ENERGY PREDICTED BY IDOCK:   -1.09 KCAL/MOL
REMARK 927      BINDING AFFINITY PREDICTED BY RF-SCORE:    0.00 PKD
ROOT
HETATM    1  C   UNL     1      -5.237  10.742  68.587  1.00  0.00    -0.041 C  
HETATM    2  C   UNL     1      -6.269  11.126  67.523  1.00  0.00    -0.060 C  
HETATM    3  O   UNL     1      -7.612  10.868  68.007  1.00  0.00    -0.088 OA 
HETATM    4  C   UNL     1      -5.950  10.560  66.130  1.00  0.00    -0.101 C  
HETATM    5  C   UNL     1      -6.207  12.662  67.375  1.00  0.00    -0.148 C  
HETATM    6  O   UNL     1      -7.402  13.273  67.571  1.00  0.00    -0.148 OA 
HETATM    7  O   UNL     1      -5.197  13.294  67.096  1.00  0.00    -0.330 OA 
ENDROOT
BRANCH   3   8
HETATM    8  C   UNL     1      -8.230   9.680  67.758  1.00  0.00    -0.114 A  
HETATM    9  C   UNL     1      -9.287   9.499  66.879  1.00  0.00    -0.185 A  
HETATM   10  C   UNL     1      -9.913   8.259  66.775  1.00  0.00    -0.355 A  
HETATM   11  C   UNL     1      -9.452   7.154  67.498  1.00  0.00    -0.144 A  
HETATM   12  C   UNL     1      -7.729   8.577  68.451  1.00  0.00    -0.101 A  
HETATM   13  C   UNL     1      -8.340   7.324  68.332  1.00  0.00    -0.125 A  
BRANCH  11  14
HETATM   14  C   UNL     1     -10.178   5.825  67.464  1.00  0.00    -0.239 C  
BRANCH  14  15
HETATM   15  C   UNL     1     -11.006   5.523  68.718  1.00  0.00     0.099 C  
BRANCH  15  16
HETATM   16  N   UNL     1     -11.602   6.709  69.293  1.00  0.00    -0.646 N  
HETATM   17  C   UNL     1     -11.182   7.181  70.520  1.00  0.00    -0.290 C  
HETATM   18  H   UNL     1     -12.340   7.200  68.788  1.00  0.00     0.000 HD 
HETATM   19  O   UNL     1     -10.349   6.616  71.219  1.00  0.00    -0.203 OA 
BRANCH  17  20
HETATM   20  C   UNL     1     -11.761   8.479  70.948  1.00  0.00    -0.274 A  
HETATM   21  C   UNL     1     -12.789   8.541  71.897  1.00  0.00    -0.399 A  
HETATM   22  C   UNL     1     -13.322   9.778  72.265  1.00  0.00    -0.472 A  
HETATM   23  C   UNL     1     -12.823  10.947  71.691  1.00  0.00    -0.449 A  
HETATM   24 CL   UNL     1     -13.488  12.468  72.147  1.00  0.00    -0.611 Cl 
HETATM   25  C   UNL     1     -11.788  10.894  70.760  1.00  0.00    -0.424 A  
HETATM   26  C   UNL     1     -11.251   9.658  70.390  1.00  0.00    -0.342 A  
ENDBRANCH  17  20
ENDBRANCH  15  16
ENDBRANCH  14  15
ENDBRANCH  11  14
ENDBRANCH   3   8
TORSDOF 5
ENDMDL
MODEL      102
REMARK 921   NORMALIZED FREE ENERGY PREDICTED BY IDOCK:   -4.86 KCAL/MOL
REMARK 922        TOTAL FREE ENERGY PREDICTED BY IDOCK:   -7.28 KCAL/MOL
REMARK 923 INTER-LIGAND FREE ENERGY PREDICTED BY IDOCK:   -6.23 KCAL/MOL
REMARK 924 INTRA-LIGAND FREE ENERGY PREDICTED BY IDOCK:   -1.05 KCAL/MOL
REMARK 927      BINDING AFFINITY PREDICTED BY RF-SCORE:    0.00 PKD
ROOT
HETATM    1  C   UNL     1      -8.943   9.128  64.842  1.00  0.00    -0.201 C  
HETATM    2  C   UNL     1      -8.010   9.608  65.958  1.00  0.00    -0.108 C  
HETATM    3  O   UNL     1      -7.904   8.600  66.995  1.00  0.00    -0.095 OA 
HETATM    4  C   UNL     1      -8.327  11.030  66.449  1.00  0.00    -0.165 C  
HETATM    5  C   UNL     1      -6.591   9.681  65.352  1.00  0.00    -0.082 C  
HETATM    6  O   UNL     1      -5.675   8.947  66.032  1.00  0.00    -0.048 OA 
HETATM    7  O   UNL     1      -6.289  10.338  64.365  1.00  0.00    -0.131 OA 
ENDROOT
BRANCH   3   8
HETATM    8  C   UNL     1      -8.731   8.620  68.079  1.00  0.00    -0.141 A  
HETATM    9  C   UNL     1      -9.977   8.015  68.143  1.00  0.00    -0.217 A  
HETATM   10  C   UNL     1     -10.784   8.183  69.265  1.00  0.00    -0.141 A  
HETATM   11  C   UNL     1     -10.337   8.904  70.376  1.00  0.00    -0.240 A  
HETATM   12  C   UNL     1      -8.251   9.304  69.197  1.00  0.00    -0.111 A  
HETATM   13  C   UNL     1      -9.050   9.455  70.336  1.00  0.00    -0.302 A  
BRANCH  11  14
HETATM   14  C   UNL     1     -11.237   9.170  71.564  1.00  0.00    -0.430 C  
BRANCH  14  15
HETATM   15  C   UNL     1     -12.428  10.089  71.264  1.00  0.00    -0.392 C  
BRANCH  15  16
HETATM   16  N   UNL     1     -12.298  10.776  69.997  1.00  0.00    -0.396 N  
HETATM   17  C   UNL     1     -12.198  12.152  69.952  1.00  0.00    -0.170 C  
HETATM   18  H   UNL     1     -12.279  10.239  69.130  1.00  0.00     0.000 HD 
HETATM   19  O   UNL     1     -12.275  12.874  70.940  1.00  0.00    -0.347 OA 
BRANCH  17  20
HETATM   20  C   UNL     1     -11.927  12.738  68.616  1.00  0.00    -0.272 A  
HETATM   21  C   UNL     1     -11.722  11.928  67.493  1.00  0.00    -0.335 A  
HETATM   22  C   UNL     1     -11.453  12.512  66.253  1.00  0.00    -0.421 A  
HETATM   23  C   UNL     1     -11.397  13.902  66.138  1.00  0.00    -0.320 A  
HETATM   24 CL   UNL     1     -11.062  14.614  64.608  1.00  0.00    -0.370 Cl 
HETATM   25  C   UNL     1     -11.618  14.714  67.249  1.00  0.00    -0.404 A  
HETATM   26  C   UNL     1     -11.889  14.133  68.490  1.00  0.00    -0.390 A  
ENDBRANCH  17  20
ENDBRANCH  15  16
ENDBRANCH  14  15
ENDBRANCH  11  14
ENDBRANCH   3   8
TORSDOF 5
ENDMDL
MODEL      103
REMARK 921   NORMALIZED FREE ENERGY PREDICTED BY IDOCK:   -4.85 KCAL/MOL
REMARK 922        TOTAL FREE ENERGY PREDICTED BY IDOCK:   -7.27 KCAL/MOL
REMARK 923 INTER-LIGAND FREE ENERGY PREDICTED BY IDOCK:   -6.93 KCAL/MOL
REMARK 924 INTRA-LIGAND FREE ENERGY PREDICTED BY IDOCK:   -0.35 KCAL/MOL
REMARK 927      BINDING AFFINITY PREDICTED BY RF-SCORE:    0.00 PKD
ROOT
HETATM    1  C   UNL     1     -11.751  16.379  71.417  1.00  0.00    -0.293 C  
HETATM    2  C   UNL     1     -12.676  15.196  71.717  1.00  0.00    -0.349 C  
HETATM    3  O   UNL     1     -11.939  13.949  71.646  1.00  0.00    -0.098 OA 
HETATM    4  C   UNL     1     -13.991  15.232  70.923  1.00  0.00    -0.250 C  
HETATM    5  C   UNL     1     -13.081  15.313  73.204  1.00  0.00    -0.518 C  
HETATM    6  O   UNL     1     -12.791  14.206  73.932  1.00  0.00    -0.138 OA 
HETATM    7  O   UNL     1     -13.625  16.290  73.701  1.00  0.00    -0.618 OA 
ENDROOT
BRANCH   3   8
HETATM    8  C   UNL     1     -11.883  13.233  70.487  1.00  0.00    -0.134 A  
HETATM    9  C   UNL     1     -12.358  11.941  70.325  1.00  0.00    -0.287 A  
HETATM   10  C   UNL     1     -12.159  11.264  69.124  1.00  0.00    -0.348 A  
HETATM   11  C   UNL     1     -11.541  11.888  68.036  1.00  0.00    -0.401 A  
HETATM   12  C   UNL     1     -11.306  13.886  69.397  1.00  0.00    -0.311 A  
HETATM   13  C   UNL     1     -11.125  13.217  68.182  1.00  0.00    -0.286 A  
BRANCH  11  14
HETATM   14  C   UNL     1     -11.237  11.135  66.757  1.00  0.00    -0.215 C  
BRANCH  14  15
HETATM   15  C   UNL     1     -10.189  10.026  66.908  1.00  0.00    -0.238 C  
BRANCH  15  16
HETATM   16  N   UNL     1     -10.566   9.030  67.887  1.00  0.00    -0.374 N  
HETATM   17  C   UNL     1      -9.636   8.535  68.779  1.00  0.00    -0.149 C  
HETATM   18  H   UNL     1     -11.528   8.692  67.920  1.00  0.00     0.000 HD 
HETATM   19  O   UNL     1      -8.449   8.842  68.765  1.00  0.00    -0.126 OA 
BRANCH  17  20
HETATM   20  C   UNL     1     -10.163   7.627  69.827  1.00  0.00    -0.210 A  
HETATM   21  C   UNL     1      -9.730   6.298  69.924  1.00  0.00    -0.191 A  
HETATM   22  C   UNL     1     -10.258   5.465  70.913  1.00  0.00    -0.303 A  
HETATM   23  C   UNL     1     -11.209   5.962  71.804  1.00  0.00    -0.250 A  
HETATM   24 CL   UNL     1     -11.858   4.929  73.017  1.00  0.00    -0.255 Cl 
HETATM   25  C   UNL     1     -11.631   7.288  71.724  1.00  0.00    -0.309 A  
HETATM   26  C   UNL     1     -11.103   8.125  70.737  1.00  0.00    -0.275 A  
ENDBRANCH  17  20
ENDBRANCH  15  16
ENDBRANCH  14  15
ENDBRANCH  11  14
ENDBRANCH   3   8
TORSDOF 5
ENDMDL
MODEL      104
REMARK 921   NORMALIZED FREE ENERGY PREDICTED BY IDOCK:   -4.85 KCAL/MOL
REMARK 922        TOTAL FREE ENERGY PREDICTED BY IDOCK:   -7.27 KCAL/MOL
REMARK 923 INTER-LIGAND FREE ENERGY PREDICTED BY IDOCK:   -6.74 KCAL/MOL
REMARK 924 INTRA-LIGAND FREE ENERGY PREDICTED BY IDOCK:   -0.54 KCAL/MOL
REMARK 927      BINDING AFFINITY PREDICTED BY RF-SCORE:    0.00 PKD
ROOT
HETATM    1  C   UNL     1      -9.241   5.747  67.215  1.00  0.00    -0.110 C  
HETATM    2  C   UNL     1      -9.609   6.766  68.299  1.00  0.00    -0.127 C  
HETATM    3  O   UNL     1     -10.764   7.542  67.891  1.00  0.00    -0.202 OA 
HETATM    4  C   UNL     1      -8.407   7.582  68.801  1.00  0.00    -0.129 C  
HETATM    5  C   UNL     1     -10.105   5.958  69.519  1.00  0.00    -0.203 C  
HETATM    6  O   UNL     1     -11.350   6.311  69.930  1.00  0.00    -0.397 OA 
HETATM    7  O   UNL     1      -9.458   5.091  70.089  1.00  0.00    -0.145 OA 
ENDROOT
BRANCH   3   8
HETATM    8  C   UNL     1     -10.614   8.729  67.238  1.00  0.00    -0.233 A  
HETATM    9  C   UNL     1      -9.985   8.892  66.013  1.00  0.00    -0.199 A  
HETATM   10  C   UNL     1      -9.798  10.166  65.482  1.00  0.00    -0.365 A  
HETATM   11  C   UNL     1     -10.295  11.300  66.132  1.00  0.00    -0.300 A  
HETATM   12  C   UNL     1     -11.157   9.846  67.876  1.00  0.00    -0.216 A  
HETATM   13  C   UNL     1     -10.992  11.125  67.334  1.00  0.00    -0.347 A  
BRANCH  11  14
HETATM   14  C   UNL     1     -10.020  12.696  65.613  1.00  0.00    -0.253 C  
BRANCH  14  15
HETATM   15  C   UNL     1     -10.962  13.774  66.163  1.00  0.00    -0.292 C  
BRANCH  15  16
HETATM   16  N   UNL     1     -10.333  15.075  66.247  1.00  0.00    -0.284 N  
HETATM   17  C   UNL     1     -10.632  15.933  67.286  1.00  0.00    -0.314 C  
HETATM   18  H   UNL     1      -9.663  15.360  65.533  1.00  0.00     0.000 HD 
HETATM   19  O   UNL     1     -11.471  15.693  68.148  1.00  0.00    -0.352 OA 
BRANCH  17  20
HETATM   20  C   UNL     1      -9.827  17.177  67.351  1.00  0.00    -0.264 A  
HETATM   21  C   UNL     1      -8.885  17.488  66.363  1.00  0.00    -0.269 A  
HETATM   22  C   UNL     1      -8.132  18.660  66.463  1.00  0.00    -0.301 A  
HETATM   23  C   UNL     1      -8.327  19.520  67.544  1.00  0.00    -0.297 A  
HETATM   24 CL   UNL     1      -7.393  20.960  67.662  1.00  0.00    -0.323 Cl 
HETATM   25  C   UNL     1      -9.276  19.226  68.522  1.00  0.00    -0.434 A  
HETATM   26  C   UNL     1     -10.032  18.054  68.424  1.00  0.00    -0.382 A  
ENDBRANCH  17  20
ENDBRANCH  15  16
ENDBRANCH  14  15
ENDBRANCH  11  14
ENDBRANCH   3   8
TORSDOF 5
ENDMDL
MODEL      105
REMARK 921   NORMALIZED FREE ENERGY PREDICTED BY IDOCK:   -4.80 KCAL/MOL
REMARK 922        TOTAL FREE ENERGY PREDICTED BY IDOCK:   -7.20 KCAL/MOL
REMARK 923 INTER-LIGAND FREE ENERGY PREDICTED BY IDOCK:   -6.07 KCAL/MOL
REMARK 924 INTRA-LIGAND FREE ENERGY PREDICTED BY IDOCK:   -1.13 KCAL/MOL
REMARK 927      BINDING AFFINITY PREDICTED BY RF-SCORE:    0.00 PKD
ROOT
HETATM    1  C   UNL     1     -12.734   8.517  72.212  1.00  0.00    -0.420 C  
HETATM    2  C   UNL     1     -11.334   8.152  71.709  1.00  0.00    -0.278 C  
HETATM    3  O   UNL     1     -10.559   9.352  71.459  1.00  0.00    -0.341 OA 
HETATM    4  C   UNL     1     -11.344   7.122  70.567  1.00  0.00    -0.333 C  
HETATM    5  C   UNL     1     -10.604   7.465  72.885  1.00  0.00    -0.321 C  
HETATM    6  O   UNL     1      -9.430   8.061  73.213  1.00  0.00    -0.273 OA 
HETATM    7  O   UNL     1     -11.011   6.473  73.473  1.00  0.00    -0.229 OA 
ENDROOT
BRANCH   3   8
HETATM    8  C   UNL     1     -10.534   9.925  70.223  1.00  0.00    -0.291 A  
HETATM    9  C   UNL     1     -11.647  10.381  69.533  1.00  0.00    -0.288 A  
HETATM   10  C   UNL     1     -11.520  10.858  68.230  1.00  0.00    -0.376 A  
HETATM   11  C   UNL     1     -10.269  10.953  67.613  1.00  0.00    -0.214 A  
HETATM   12  C   UNL     1      -9.273  10.056  69.639  1.00  0.00    -0.236 A  
HETATM   13  C   UNL     1      -9.139  10.557  68.340  1.00  0.00    -0.148 A  
BRANCH  11  14
HETATM   14  C   UNL     1     -10.127  11.384  66.168  1.00  0.00    -0.271 C  
BRANCH  14  15
HETATM   15  C   UNL     1      -9.858  10.236  65.188  1.00  0.00    -0.321 C  
BRANCH  15  16
HETATM   16  N   UNL     1      -9.935   8.935  65.816  1.00  0.00    -0.428 N  
HETATM   17  C   UNL     1      -8.855   8.076  65.786  1.00  0.00    -0.132 C  
HETATM   18  H   UNL     1     -10.794   8.650  66.285  1.00  0.00     0.000 HD 
HETATM   19  O   UNL     1      -7.810   8.316  65.191  1.00  0.00    -0.105 OA 
BRANCH  17  20
HETATM   20  C   UNL     1      -8.995   6.831  66.580  1.00  0.00    -0.162 A  
HETATM   21  C   UNL     1      -8.490   6.737  67.883  1.00  0.00    -0.119 A  
HETATM   22  C   UNL     1      -8.624   5.544  68.597  1.00  0.00    -0.103 A  
HETATM   23  C   UNL     1      -9.268   4.453  68.012  1.00  0.00    -0.136 A  
HETATM   24 CL   UNL     1      -9.426   2.986  68.896  1.00  0.00    -0.223 Cl 
HETATM   25  C   UNL     1      -9.788   4.546  66.722  1.00  0.00    -0.242 A  
HETATM   26  C   UNL     1      -9.657   5.739  66.005  1.00  0.00    -0.079 A  
ENDBRANCH  17  20
ENDBRANCH  15  16
ENDBRANCH  14  15
ENDBRANCH  11  14
ENDBRANCH   3   8
TORSDOF 5
ENDMDL
MODEL      106
REMARK 921   NORMALIZED FREE ENERGY PREDICTED BY IDOCK:   -4.80 KCAL/MOL
REMARK 922        TOTAL FREE ENERGY PREDICTED BY IDOCK:   -7.20 KCAL/MOL
REMARK 923 INTER-LIGAND FREE ENERGY PREDICTED BY IDOCK:   -6.60 KCAL/MOL
REMARK 924 INTRA-LIGAND FREE ENERGY PREDICTED BY IDOCK:   -0.60 KCAL/MOL
REMARK 927      BINDING AFFINITY PREDICTED BY RF-SCORE:    0.00 PKD
ROOT
HETATM    1  C   UNL     1      -8.135   7.976  68.225  1.00  0.00    -0.126 C  
HETATM    2  C   UNL     1      -7.903   7.775  66.724  1.00  0.00    -0.106 C  
HETATM    3  O   UNL     1      -7.644   9.048  66.080  1.00  0.00    -0.093 OA 
HETATM    4  C   UNL     1      -8.973   6.900  66.053  1.00  0.00    -0.131 C  
HETATM    5  C   UNL     1      -6.575   6.999  66.580  1.00  0.00    -0.052 C  
HETATM    6  O   UNL     1      -5.664   7.629  65.796  1.00  0.00    -0.036 OA 
HETATM    7  O   UNL     1      -6.343   5.914  67.096  1.00  0.00    -0.035 OA 
ENDROOT
BRANCH   3   8
HETATM    8  C   UNL     1      -8.658   9.773  65.527  1.00  0.00    -0.145 A  
HETATM    9  C   UNL     1      -8.923   9.867  64.170  1.00  0.00    -0.274 A  
HETATM   10  C   UNL     1      -9.924  10.717  63.705  1.00  0.00    -0.405 A  
HETATM   11  C   UNL     1     -10.726  11.441  64.592  1.00  0.00    -0.378 A  
HETATM   12  C   UNL     1      -9.480  10.452  66.428  1.00  0.00    -0.209 A  
HETATM   13  C   UNL     1     -10.501  11.289  65.966  1.00  0.00    -0.310 A  
BRANCH  11  14
HETATM   14  C   UNL     1     -11.755  12.437  64.099  1.00  0.00    -0.476 C  
BRANCH  14  15
HETATM   15  C   UNL     1     -12.535  13.148  65.212  1.00  0.00    -0.495 C  
BRANCH  15  16
HETATM   16  N   UNL     1     -11.881  14.356  65.667  1.00  0.00    -0.359 N  
HETATM   17  C   UNL     1     -11.702  14.593  67.015  1.00  0.00    -0.362 C  
HETATM   18  H   UNL     1     -11.550  15.039  64.985  1.00  0.00     0.000 HD 
HETATM   19  O   UNL     1     -12.125  13.855  67.898  1.00  0.00    -0.366 OA 
BRANCH  17  20
HETATM   20  C   UNL     1     -10.898  15.790  67.361  1.00  0.00    -0.306 A  
HETATM   21  C   UNL     1     -10.100  16.433  66.407  1.00  0.00    -0.328 A  
HETATM   22  C   UNL     1      -9.343  17.549  66.771  1.00  0.00    -0.275 A  
HETATM   23  C   UNL     1      -9.390  18.022  68.082  1.00  0.00    -0.284 A  
HETATM   24 CL   UNL     1      -8.451  19.394  68.524  1.00  0.00    -0.393 Cl 
HETATM   25  C   UNL     1     -10.195  17.397  69.033  1.00  0.00    -0.317 A  
HETATM   26  C   UNL     1     -10.955  16.281  68.672  1.00  0.00    -0.340 A  
ENDBRANCH  17  20
ENDBRANCH  15  16
ENDBRANCH  14  15
ENDBRANCH  11  14
ENDBRANCH   3   8
TORSDOF 5
ENDMDL
MODEL      107
REMARK 921   NORMALIZED FREE ENERGY PREDICTED BY IDOCK:   -4.77 KCAL/MOL
REMARK 922        TOTAL FREE ENERGY PREDICTED BY IDOCK:   -7.16 KCAL/MOL
REMARK 923 INTER-LIGAND FREE ENERGY PREDICTED BY IDOCK:   -6.62 KCAL/MOL
REMARK 924 INTRA-LIGAND FREE ENERGY PREDICTED BY IDOCK:   -0.55 KCAL/MOL
REMARK 927      BINDING AFFINITY PREDICTED BY RF-SCORE:    0.00 PKD
ROOT
HETATM    1  C   UNL     1     -11.141  16.210  67.627  1.00  0.00    -0.212 C  
HETATM    2  C   UNL     1     -10.553  15.828  66.265  1.00  0.00    -0.310 C  
HETATM    3  O   UNL     1     -11.374  14.818  65.626  1.00  0.00    -0.342 OA 
HETATM    4  C   UNL     1      -9.047  15.521  66.314  1.00  0.00    -0.369 C  
HETATM    5  C   UNL     1     -10.698  17.067  65.354  1.00  0.00    -0.116 C  
HETATM    6  O   UNL     1     -11.375  16.817  64.206  1.00  0.00    -1.170 OA 
HETATM    7  O   UNL     1     -10.244  18.175  65.609  1.00  0.00    -0.578 OA 
ENDROOT
BRANCH   3   8
HETATM    8  C   UNL     1     -11.104  13.491  65.786  1.00  0.00    -0.286 A  
HETATM    9  C   UNL     1     -11.410  12.746  66.915  1.00  0.00    -0.371 A  
HETATM   10  C   UNL     1     -10.998  11.419  67.015  1.00  0.00    -0.347 A  
HETATM   11  C   UNL     1     -10.330  10.788  65.960  1.00  0.00    -0.300 A  
HETATM   12  C   UNL     1     -10.480  12.864  64.707  1.00  0.00    -0.371 A  
HETATM   13  C   UNL     1     -10.085  11.524  64.794  1.00  0.00    -0.316 A  
BRANCH  11  14
HETATM   14  C   UNL     1      -9.797   9.376  66.090  1.00  0.00    -0.356 C  
BRANCH  14  15
HETATM   15  C   UNL     1      -8.654   9.220  67.100  1.00  0.00    -0.128 C  
BRANCH  15  16
HETATM   16  N   UNL     1      -8.403   7.839  67.450  1.00  0.00    -0.122 N  
HETATM   17  C   UNL     1      -8.394   7.440  68.771  1.00  0.00    -0.129 C  
HETATM   18  H   UNL     1      -8.230   7.154  66.714  1.00  0.00     0.000 HD 
HETATM   19  O   UNL     1      -8.529   8.210  69.716  1.00  0.00    -0.122 OA 
BRANCH  17  20
HETATM   20  C   UNL     1      -8.267   5.982  69.007  1.00  0.00    -0.108 A  
HETATM   21  C   UNL     1      -7.211   5.244  68.458  1.00  0.00    -0.063 A  
HETATM   22  C   UNL     1      -7.130   3.869  68.687  1.00  0.00    -0.051 A  
HETATM   23  C   UNL     1      -8.098   3.236  69.467  1.00  0.00    -0.048 A  
HETATM   24 CL   UNL     1      -7.994   1.541  69.741  1.00  0.00    -0.048 Cl 
HETATM   25  C   UNL     1      -9.142   3.967  70.031  1.00  0.00    -0.187 A  
HETATM   26  C   UNL     1      -9.225   5.344  69.806  1.00  0.00    -0.169 A  
ENDBRANCH  17  20
ENDBRANCH  15  16
ENDBRANCH  14  15
ENDBRANCH  11  14
ENDBRANCH   3   8
TORSDOF 5
ENDMDL
MODEL      108
REMARK 921   NORMALIZED FREE ENERGY PREDICTED BY IDOCK:   -4.76 KCAL/MOL
REMARK 922        TOTAL FREE ENERGY PREDICTED BY IDOCK:   -7.16 KCAL/MOL
REMARK 923 INTER-LIGAND FREE ENERGY PREDICTED BY IDOCK:   -6.44 KCAL/MOL
REMARK 924 INTRA-LIGAND FREE ENERGY PREDICTED BY IDOCK:   -0.72 KCAL/MOL
REMARK 927      BINDING AFFINITY PREDICTED BY RF-SCORE:    0.00 PKD
ROOT
HETATM    1  C   UNL     1     -10.080  18.175  68.451  1.00  0.00    -0.401 C  
HETATM    2  C   UNL     1      -9.844  17.984  66.950  1.00  0.00    -0.330 C  
HETATM    3  O   UNL     1     -10.878  17.142  66.380  1.00  0.00    -0.126 OA 
HETATM    4  C   UNL     1      -8.401  17.584  66.604  1.00  0.00    -0.291 C  
HETATM    5  C   UNL     1     -10.068  19.361  66.286  1.00  0.00    -0.456 C  
HETATM    6  O   UNL     1     -11.002  19.341  65.302  1.00  0.00    -0.487 OA 
HETATM    7  O   UNL     1      -9.467  20.384  66.585  1.00  0.00    -0.360 OA 
ENDROOT
BRANCH   3   8
HETATM    8  C   UNL     1     -10.706  15.793  66.281  1.00  0.00    -0.282 A  
HETATM    9  C   UNL     1     -10.594  14.922  67.354  1.00  0.00    -0.263 A  
HETATM   10  C   UNL     1     -10.319  13.573  67.140  1.00  0.00    -0.250 A  
HETATM   11  C   UNL     1     -10.217  13.053  65.846  1.00  0.00    -0.298 A  
HETATM   12  C   UNL     1     -10.653  15.281  64.983  1.00  0.00    -0.444 A  
HETATM   13  C   UNL     1     -10.400  13.923  64.764  1.00  0.00    -0.419 A  
BRANCH  11  14
HETATM   14  C   UNL     1      -9.829  11.610  65.600  1.00  0.00    -0.270 C  
BRANCH  14  15
HETATM   15  C   UNL     1      -8.492  11.197  66.227  1.00  0.00    -0.168 C  
BRANCH  15  16
HETATM   16  N   UNL     1      -8.539   9.880  66.824  1.00  0.00    -0.128 N  
HETATM   17  C   UNL     1      -8.940   9.718  68.135  1.00  0.00    -0.119 C  
HETATM   18  H   UNL     1      -8.273   9.064  66.273  1.00  0.00     0.000 HD 
HETATM   19  O   UNL     1      -9.215  10.650  68.883  1.00  0.00    -0.172 OA 
BRANCH  17  20
HETATM   20  C   UNL     1      -9.085   8.317  68.600  1.00  0.00    -0.140 A  
HETATM   21  C   UNL     1      -8.539   7.893  69.818  1.00  0.00    -0.133 A  
HETATM   22  C   UNL     1      -8.679   6.563  70.218  1.00  0.00    -0.151 A  
HETATM   23  C   UNL     1      -9.371   5.663  69.407  1.00  0.00    -0.125 A  
HETATM   24 CL   UNL     1      -9.538   4.025  69.905  1.00  0.00    -0.273 Cl 
HETATM   25  C   UNL     1      -9.933   6.083  68.202  1.00  0.00    -0.168 A  
HETATM   26  C   UNL     1      -9.795   7.414  67.800  1.00  0.00    -0.187 A  
ENDBRANCH  17  20
ENDBRANCH  15  16
ENDBRANCH  14  15
ENDBRANCH  11  14
ENDBRANCH   3   8
TORSDOF 5
ENDMDL
MODEL      109
REMARK 921   NORMALIZED FREE ENERGY PREDICTED BY IDOCK:   -4.74 KCAL/MOL
REMARK 922        TOTAL FREE ENERGY PREDICTED BY IDOCK:   -7.13 KCAL/MOL
REMARK 923 INTER-LIGAND FREE ENERGY PREDICTED BY IDOCK:   -6.48 KCAL/MOL
REMARK 924 INTRA-LIGAND FREE ENERGY PREDICTED BY IDOCK:   -0.65 KCAL/MOL
REMARK 927      BINDING AFFINITY PREDICTED BY RF-SCORE:    0.00 PKD
ROOT
HETATM    1  C   UNL     1     -10.604  11.430  64.751  1.00  0.00    -0.377 C  
HETATM    2  C   UNL     1      -9.489  10.722  65.526  1.00  0.00    -0.210 C  
HETATM    3  O   UNL     1     -10.035   9.638  66.319  1.00  0.00    -0.237 OA 
HETATM    4  C   UNL     1      -8.560  11.688  66.278  1.00  0.00    -0.103 C  
HETATM    5  C   UNL     1      -8.599  10.015  64.479  1.00  0.00    -0.187 C  
HETATM    6  O   UNL     1      -8.465   8.683  64.696  1.00  0.00    -0.171 OA 
HETATM    7  O   UNL     1      -8.044  10.577  63.544  1.00  0.00    -0.146 OA 
ENDROOT
BRANCH   3   8
HETATM    8  C   UNL     1     -10.408   9.838  67.615  1.00  0.00    -0.230 A  
HETATM    9  C   UNL     1      -9.769   9.298  68.721  1.00  0.00    -0.162 A  
HETATM   10  C   UNL     1     -10.293   9.484  69.998  1.00  0.00    -0.284 A  
HETATM   11  C   UNL     1     -11.432  10.270  70.204  1.00  0.00    -0.383 A  
HETATM   12  C   UNL     1     -11.517  10.663  67.808  1.00  0.00    -0.219 A  
HETATM   13  C   UNL     1     -12.034  10.871  69.092  1.00  0.00    -0.359 A  
BRANCH  11  14
HETATM   14  C   UNL     1     -12.064  10.405  71.573  1.00  0.00    -0.364 C  
BRANCH  14  15
HETATM   15  C   UNL     1     -12.962   9.229  71.976  1.00  0.00    -0.425 C  
BRANCH  15  16
HETATM   16  N   UNL     1     -12.220   8.133  72.560  1.00  0.00    -0.550 N  
HETATM   17  C   UNL     1     -11.951   6.996  71.825  1.00  0.00    -0.326 C  
HETATM   18  H   UNL     1     -11.891   8.201  73.523  1.00  0.00     0.000 HD 
HETATM   19  O   UNL     1     -12.363   6.809  70.685  1.00  0.00    -0.359 OA 
BRANCH  17  20
HETATM   20  C   UNL     1     -11.065   5.999  72.473  1.00  0.00    -0.321 A  
HETATM   21  C   UNL     1      -9.678   6.184  72.527  1.00  0.00    -0.166 A  
HETATM   22  C   UNL     1      -8.870   5.217  73.130  1.00  0.00    -0.119 A  
HETATM   23  C   UNL     1      -9.450   4.075  73.684  1.00  0.00    -0.102 A  
HETATM   24 CL   UNL     1      -8.448   2.887  74.422  1.00  0.00    -0.068 Cl 
HETATM   25  C   UNL     1     -10.831   3.894  73.649  1.00  0.00    -0.331 A  
HETATM   26  C   UNL     1     -11.643   4.860  73.047  1.00  0.00    -0.284 A  
ENDBRANCH  17  20
ENDBRANCH  15  16
ENDBRANCH  14  15
ENDBRANCH  11  14
ENDBRANCH   3   8
TORSDOF 5
ENDMDL
MODEL      110
REMARK 921   NORMALIZED FREE ENERGY PREDICTED BY IDOCK:   -4.71 KCAL/MOL
REMARK 922        TOTAL FREE ENERGY PREDICTED BY IDOCK:   -7.08 KCAL/MOL
REMARK 923 INTER-LIGAND FREE ENERGY PREDICTED BY IDOCK:   -6.44 KCAL/MOL
REMARK 924 INTRA-LIGAND FREE ENERGY PREDICTED BY IDOCK:   -0.64 KCAL/MOL
REMARK 927      BINDING AFFINITY PREDICTED BY RF-SCORE:    0.00 PKD
ROOT
HETATM    1  C   UNL     1      -7.331  10.216  65.305  1.00  0.00    -0.141 C  
HETATM    2  C   UNL     1      -8.801  10.218  64.874  1.00  0.00    -0.192 C  
HETATM    3  O   UNL     1      -9.287  11.579  64.749  1.00  0.00    -0.163 OA 
HETATM    4  C   UNL     1      -9.683   9.275  65.708  1.00  0.00    -0.339 C  
HETATM    5  C   UNL     1      -8.843   9.665  63.432  1.00  0.00    -0.232 C  
HETATM    6  O   UNL     1      -9.441  10.504  62.549  1.00  0.00    -0.280 OA 
HETATM    7  O   UNL     1      -8.403   8.576  63.092  1.00  0.00    -0.176 OA 
ENDROOT
BRANCH   3   8
HETATM    8  C   UNL     1      -9.897  12.204  65.795  1.00  0.00    -0.245 A  
HETATM    9  C   UNL     1      -9.407  12.249  67.092  1.00  0.00    -0.196 A  
HETATM   10  C   UNL     1     -10.161  12.829  68.109  1.00  0.00    -0.241 A  
HETATM   11  C   UNL     1     -11.392  13.437  67.840  1.00  0.00    -0.322 A  
HETATM   12  C   UNL     1     -11.101  12.846  65.502  1.00  0.00    -0.306 A  
HETATM   13  C   UNL     1     -11.850  13.451  66.517  1.00  0.00    -0.443 A  
BRANCH  11  14
HETATM   14  C   UNL     1     -12.263  13.990  68.949  1.00  0.00    -0.261 C  
BRANCH  14  15
HETATM   15  C   UNL     1     -11.570  15.025  69.843  1.00  0.00    -0.293 C  
BRANCH  15  16
HETATM   16  N   UNL     1     -10.878  16.044  69.085  1.00  0.00    -0.260 N  
HETATM   17  C   UNL     1      -9.500  16.125  69.112  1.00  0.00    -0.251 C  
HETATM   18  H   UNL     1     -11.412  16.709  68.526  1.00  0.00     0.000 HD 
HETATM   19  O   UNL     1      -8.789  15.407  69.806  1.00  0.00    -0.225 OA 
BRANCH  17  20
HETATM   20  C   UNL     1      -8.891  17.115  68.190  1.00  0.00    -0.237 A  
HETATM   21  C   UNL     1      -9.677  18.038  67.489  1.00  0.00    -0.289 A  
HETATM   22  C   UNL     1      -9.073  18.946  66.617  1.00  0.00    -0.338 A  
HETATM   23  C   UNL     1      -7.687  18.934  66.452  1.00  0.00    -0.273 A  
HETATM   24 CL   UNL     1      -6.951  20.052  65.372  1.00  0.00    -0.335 Cl 
HETATM   25  C   UNL     1      -6.897  18.029  67.159  1.00  0.00    -0.207 A  
HETATM   26  C   UNL     1      -7.499  17.120  68.035  1.00  0.00    -0.197 A  
ENDBRANCH  17  20
ENDBRANCH  15  16
ENDBRANCH  14  15
ENDBRANCH  11  14
ENDBRANCH   3   8
TORSDOF 5
ENDMDL
MODEL      111
REMARK 921   NORMALIZED FREE ENERGY PREDICTED BY IDOCK:   -4.68 KCAL/MOL
REMARK 922        TOTAL FREE ENERGY PREDICTED BY IDOCK:   -7.05 KCAL/MOL
REMARK 923 INTER-LIGAND FREE ENERGY PREDICTED BY IDOCK:   -5.70 KCAL/MOL
REMARK 924 INTRA-LIGAND FREE ENERGY PREDICTED BY IDOCK:   -1.35 KCAL/MOL
REMARK 927      BINDING AFFINITY PREDICTED BY RF-SCORE:    0.00 PKD
ROOT
HETATM    1  C   UNL     1     -10.998  12.212  69.509  1.00  0.00    -0.031 C  
HETATM    2  C   UNL     1     -10.803  10.693  69.478  1.00  0.00    -0.259 C  
HETATM    3  O   UNL     1      -9.456  10.349  69.888  1.00  0.00    -0.111 OA 
HETATM    4  C   UNL     1     -11.283  10.043  68.171  1.00  0.00    -0.192 C  
HETATM    5  C   UNL     1     -11.701  10.107  70.591  1.00  0.00    -0.338 C  
HETATM    6  O   UNL     1     -11.024   9.346  71.486  1.00  0.00    -0.355 OA 
HETATM    7  O   UNL     1     -12.909  10.283  70.675  1.00  0.00    -0.336 OA 
ENDROOT
BRANCH   3   8
HETATM    8  C   UNL     1      -8.460  10.200  68.969  1.00  0.00    -0.151 A  
HETATM    9  C   UNL     1      -7.550  11.184  68.613  1.00  0.00    -0.127 A  
HETATM   10  C   UNL     1      -6.635  10.958  67.588  1.00  0.00    -0.065 A  
HETATM   11  C   UNL     1      -6.565   9.720  66.941  1.00  0.00    -0.067 A  
HETATM   12  C   UNL     1      -8.373   8.944  68.366  1.00  0.00    -0.125 A  
HETATM   13  C   UNL     1      -7.440   8.706  67.351  1.00  0.00    -0.089 A  
BRANCH  11  14
HETATM   14  C   UNL     1      -5.639   9.491  65.765  1.00  0.00    -0.048 C  
BRANCH  14  15
HETATM   15  C   UNL     1      -6.195   9.966  64.417  1.00  0.00    -0.122 C  
BRANCH  15  16
HETATM   16  N   UNL     1      -7.355  10.818  64.561  1.00  0.00    -0.335 N  
HETATM   17  C   UNL     1      -8.576  10.437  64.041  1.00  0.00    -0.175 C  
HETATM   18  H   UNL     1      -7.271  11.709  65.051  1.00  0.00     0.000 HD 
HETATM   19  O   UNL     1      -8.747   9.415  63.386  1.00  0.00    -0.212 OA 
BRANCH  17  20
HETATM   20  C   UNL     1      -9.724  11.317  64.368  1.00  0.00    -0.293 A  
HETATM   21  C   UNL     1     -10.855  11.377  63.544  1.00  0.00    -0.430 A  
HETATM   22  C   UNL     1     -11.911  12.229  63.873  1.00  0.00    -0.582 A  
HETATM   23  C   UNL     1     -11.839  13.012  65.025  1.00  0.00    -0.362 A  
HETATM   24 CL   UNL     1     -13.143  14.062  65.421  1.00  0.00    -0.377 Cl 
HETATM   25  C   UNL     1     -10.724  12.944  65.859  1.00  0.00    -0.291 A  
HETATM   26  C   UNL     1      -9.666  12.092  65.534  1.00  0.00    -0.221 A  
ENDBRANCH  17  20
ENDBRANCH  15  16
ENDBRANCH  14  15
ENDBRANCH  11  14
ENDBRANCH   3   8
TORSDOF 5
ENDMDL
MODEL      112
REMARK 921   NORMALIZED FREE ENERGY PREDICTED BY IDOCK:   -4.67 KCAL/MOL
REMARK 922        TOTAL FREE ENERGY PREDICTED BY IDOCK:   -7.03 KCAL/MOL
REMARK 923 INTER-LIGAND FREE ENERGY PREDICTED BY IDOCK:   -6.02 KCAL/MOL
REMARK 924 INTRA-LIGAND FREE ENERGY PREDICTED BY IDOCK:   -1.01 KCAL/MOL
REMARK 927      BINDING AFFINITY PREDICTED BY RF-SCORE:    0.00 PKD
ROOT
HETATM    1  C   UNL     1      -7.289  10.452  64.946  1.00  0.00    -0.059 C  
HETATM    2  C   UNL     1      -8.699   9.893  64.730  1.00  0.00    -0.189 C  
HETATM    3  O   UNL     1      -9.413   9.825  65.990  1.00  0.00    -0.178 OA 
HETATM    4  C   UNL     1      -8.725   8.610  63.885  1.00  0.00     0.078 C  
HETATM    5  C   UNL     1      -9.476  10.949  63.911  1.00  0.00    -0.261 C  
HETATM    6  O   UNL     1     -10.624  11.358  64.507  1.00  0.00    -0.294 OA 
HETATM    7  O   UNL     1      -9.123  11.382  62.822  1.00  0.00    -0.324 OA 
ENDROOT
BRANCH   3   8
HETATM    8  C   UNL     1      -9.396   8.689  66.743  1.00  0.00    -0.179 A  
HETATM    9  C   UNL     1      -8.313   8.240  67.485  1.00  0.00    -0.130 A  
HETATM   10  C   UNL     1      -8.369   7.011  68.139  1.00  0.00    -0.123 A  
HETATM   11  C   UNL     1      -9.533   6.235  68.121  1.00  0.00    -0.113 A  
HETATM   12  C   UNL     1     -10.579   7.949  66.754  1.00  0.00    -0.234 A  
HETATM   13  C   UNL     1     -10.647   6.725  67.429  1.00  0.00    -0.372 A  
BRANCH  11  14
HETATM   14  C   UNL     1      -9.577   4.858  68.751  1.00  0.00    -0.219 C  
BRANCH  14  15
HETATM   15  C   UNL     1     -10.207   4.820  70.148  1.00  0.00    -0.189 C  
BRANCH  15  16
HETATM   16  N   UNL     1     -10.924   6.034  70.471  1.00  0.00    -0.311 N  
HETATM   17  C   UNL     1     -10.317   7.034  71.205  1.00  0.00    -0.206 C  
HETATM   18  H   UNL     1     -11.886   6.154  70.154  1.00  0.00     0.000 HD 
HETATM   19  O   UNL     1      -9.188   6.943  71.676  1.00  0.00    -0.147 OA 
BRANCH  17  20
HETATM   20  C   UNL     1     -11.092   8.289  71.357  1.00  0.00    -0.302 A  
HETATM   21  C   UNL     1     -12.137   8.392  72.283  1.00  0.00    -0.456 A  
HETATM   22  C   UNL     1     -12.858   9.584  72.389  1.00  0.00    -0.361 A  
HETATM   23  C   UNL     1     -12.529  10.669  71.577  1.00  0.00    -0.366 A  
HETATM   24 CL   UNL     1     -13.424  12.132  71.710  1.00  0.00    -0.332 Cl 
HETATM   25  C   UNL     1     -11.478  10.579  70.665  1.00  0.00    -0.418 A  
HETATM   26  C   UNL     1     -10.754   9.388  70.557  1.00  0.00    -0.335 A  
ENDBRANCH  17  20
ENDBRANCH  15  16
ENDBRANCH  14  15
ENDBRANCH  11  14
ENDBRANCH   3   8
TORSDOF 5
ENDMDL
MODEL      113
REMARK 921   NORMALIZED FREE ENERGY PREDICTED BY IDOCK:   -4.66 KCAL/MOL
REMARK 922        TOTAL FREE ENERGY PREDICTED BY IDOCK:   -7.02 KCAL/MOL
REMARK 923 INTER-LIGAND FREE ENERGY PREDICTED BY IDOCK:   -6.56 KCAL/MOL
REMARK 924 INTRA-LIGAND FREE ENERGY PREDICTED BY IDOCK:   -0.46 KCAL/MOL
REMARK 927      BINDING AFFINITY PREDICTED BY RF-SCORE:    0.00 PKD
ROOT
HETATM    1  C   UNL     1      -7.202  10.435  66.273  1.00  0.00    -0.127 C  
HETATM    2  C   UNL     1      -8.719  10.360  66.071  1.00  0.00    -0.152 C  
HETATM    3  O   UNL     1      -9.230  11.638  65.615  1.00  0.00    -0.213 OA 
HETATM    4  C   UNL     1      -9.463   9.737  67.262  1.00  0.00    -0.183 C  
HETATM    5  C   UNL     1      -8.962   9.407  64.879  1.00  0.00    -0.209 C  
HETATM    6  O   UNL     1      -9.688   9.967  63.879  1.00  0.00    -0.257 OA 
HETATM    7  O   UNL     1      -8.566   8.251  64.821  1.00  0.00    -0.133 OA 
ENDROOT
BRANCH   3   8
HETATM    8  C   UNL     1      -9.690  12.565  66.503  1.00  0.00    -0.246 A  
HETATM    9  C   UNL     1      -8.948  13.114  67.538  1.00  0.00    -0.197 A  
HETATM   10  C   UNL     1      -9.546  13.980  68.451  1.00  0.00    -0.222 A  
HETATM   11  C   UNL     1     -10.882  14.369  68.309  1.00  0.00    -0.250 A  
HETATM   12  C   UNL     1     -11.010  12.980  66.320  1.00  0.00    -0.303 A  
HETATM   13  C   UNL     1     -11.608  13.867  67.221  1.00  0.00    -0.393 A  
BRANCH  11  14
HETATM   14  C   UNL     1     -11.570  15.236  69.343  1.00  0.00    -0.347 C  
BRANCH  14  15
HETATM   15  C   UNL     1     -10.823  16.532  69.681  1.00  0.00    -0.322 C  
BRANCH  15  16
HETATM   16  N   UNL     1      -9.922  16.948  68.629  1.00  0.00    -0.264 N  
HETATM   17  C   UNL     1      -9.696  18.288  68.387  1.00  0.00    -0.357 C  
HETATM   18  H   UNL     1      -9.448  16.246  68.061  1.00  0.00     0.000 HD 
HETATM   19  O   UNL     1     -10.271  19.194  68.981  1.00  0.00    -0.358 OA 
BRANCH  17  20
HETATM   20  C   UNL     1      -8.650  18.599  67.383  1.00  0.00    -0.281 A  
HETATM   21  C   UNL     1      -8.430  19.909  66.940  1.00  0.00    -0.379 A  
HETATM   22  C   UNL     1      -7.448  20.164  65.981  1.00  0.00    -0.300 A  
HETATM   23  C   UNL     1      -6.683  19.113  65.473  1.00  0.00    -0.264 A  
HETATM   24 CL   UNL     1      -5.477  19.435  64.289  1.00  0.00    -0.256 Cl 
HETATM   25  C   UNL     1      -6.885  17.809  65.923  1.00  0.00    -0.290 A  
HETATM   26  C   UNL     1      -7.866  17.551  66.883  1.00  0.00    -0.258 A  
ENDBRANCH  17  20
ENDBRANCH  15  16
ENDBRANCH  14  15
ENDBRANCH  11  14
ENDBRANCH   3   8
TORSDOF 5
ENDMDL
MODEL      114
REMARK 921   NORMALIZED FREE ENERGY PREDICTED BY IDOCK:   -4.65 KCAL/MOL
REMARK 922        TOTAL FREE ENERGY PREDICTED BY IDOCK:   -7.01 KCAL/MOL
REMARK 923 INTER-LIGAND FREE ENERGY PREDICTED BY IDOCK:   -5.97 KCAL/MOL
REMARK 924 INTRA-LIGAND FREE ENERGY PREDICTED BY IDOCK:   -1.04 KCAL/MOL
REMARK 927      BINDING AFFINITY PREDICTED BY RF-SCORE:    0.00 PKD
ROOT
HETATM    1  C   UNL     1     -10.439  12.897  64.081  1.00  0.00    -0.429 C  
HETATM    2  C   UNL     1     -11.241  13.117  65.368  1.00  0.00    -0.291 C  
HETATM    3  O   UNL     1     -11.049  14.469  65.855  1.00  0.00    -0.315 OA 
HETATM    4  C   UNL     1     -11.041  12.004  66.409  1.00  0.00    -0.365 C  
HETATM    5  C   UNL     1     -12.735  13.062  64.977  1.00  0.00    -0.410 C  
HETATM    6  O   UNL     1     -13.428  14.172  65.335  1.00  0.00    -0.648 OA 
HETATM    7  O   UNL     1     -13.272  12.119  64.413  1.00  0.00    -0.758 OA 
ENDROOT
BRANCH   3   8
HETATM    8  C   UNL     1     -10.073  14.755  66.762  1.00  0.00    -0.256 A  
HETATM    9  C   UNL     1     -10.125  14.448  68.114  1.00  0.00    -0.226 A  
HETATM   10  C   UNL     1      -9.115  14.877  68.972  1.00  0.00    -0.175 A  
HETATM   11  C   UNL     1      -7.997  15.563  68.488  1.00  0.00    -0.137 A  
HETATM   12  C   UNL     1      -8.942  15.398  66.256  1.00  0.00    -0.341 A  
HETATM   13  C   UNL     1      -7.915  15.809  67.111  1.00  0.00    -0.250 A  
BRANCH  11  14
HETATM   14  C   UNL     1      -6.938  16.113  69.420  1.00  0.00    -0.220 C  
BRANCH  14  15
HETATM   15  C   UNL     1      -5.787  15.144  69.715  1.00  0.00    -0.126 C  
BRANCH  15  16
HETATM   16  N   UNL     1      -5.971  13.852  69.090  1.00  0.00    -0.088 N  
HETATM   17  C   UNL     1      -6.056  12.707  69.856  1.00  0.00    -0.125 C  
HETATM   18  H   UNL     1      -6.039  13.787  68.074  1.00  0.00     0.000 HD 
HETATM   19  O   UNL     1      -5.922  12.691  71.074  1.00  0.00    -0.292 OA 
BRANCH  17  20
HETATM   20  C   UNL     1      -6.384  11.460  69.123  1.00  0.00    -0.074 A  
HETATM   21  C   UNL     1      -5.698  10.265  69.373  1.00  0.00    -0.037 A  
HETATM   22  C   UNL     1      -6.022   9.112  68.654  1.00  0.00    -0.044 A  
HETATM   23  C   UNL     1      -7.033   9.154  67.694  1.00  0.00    -0.078 A  
HETATM   24 CL   UNL     1      -7.423   7.732  66.808  1.00  0.00    -0.088 Cl 
HETATM   25  C   UNL     1      -7.732  10.336  67.452  1.00  0.00    -0.095 A  
HETATM   26  C   UNL     1      -7.411  11.491  68.171  1.00  0.00    -0.101 A  
ENDBRANCH  17  20
ENDBRANCH  15  16
ENDBRANCH  14  15
ENDBRANCH  11  14
ENDBRANCH   3   8
TORSDOF 5
ENDMDL
MODEL      115
REMARK 921   NORMALIZED FREE ENERGY PREDICTED BY IDOCK:   -4.65 KCAL/MOL
REMARK 922        TOTAL FREE ENERGY PREDICTED BY IDOCK:   -7.01 KCAL/MOL
REMARK 923 INTER-LIGAND FREE ENERGY PREDICTED BY IDOCK:   -6.28 KCAL/MOL
REMARK 924 INTRA-LIGAND FREE ENERGY PREDICTED BY IDOCK:   -0.73 KCAL/MOL
REMARK 927      BINDING AFFINITY PREDICTED BY RF-SCORE:    0.00 PKD
ROOT
HETATM    1  C   UNL     1      -8.001   7.806  64.201  1.00  0.00    -0.113 C  
HETATM    2  C   UNL     1      -7.166   8.689  65.134  1.00  0.00    -0.087 C  
HETATM    3  O   UNL     1      -7.979   9.172  66.233  1.00  0.00    -0.101 OA 
HETATM    4  C   UNL     1      -6.352   9.761  64.393  1.00  0.00    -0.116 C  
HETATM    5  C   UNL     1      -6.126   7.765  65.808  1.00  0.00    -0.038 C  
HETATM    6  O   UNL     1      -6.169   7.802  67.163  1.00  0.00    -0.050 OA 
HETATM    7  O   UNL     1      -5.320   7.069  65.206  1.00  0.00    -0.026 OA 
ENDROOT
BRANCH   3   8
HETATM    8  C   UNL     1      -8.622  10.371  66.154  1.00  0.00    -0.144 A  
HETATM    9  C   UNL     1      -8.215  11.537  66.784  1.00  0.00    -0.164 A  
HETATM   10  C   UNL     1      -9.003  12.684  66.719  1.00  0.00    -0.197 A  
HETATM   11  C   UNL     1     -10.181  12.710  65.966  1.00  0.00    -0.287 A  
HETATM   12  C   UNL     1      -9.771  10.393  65.361  1.00  0.00    -0.325 A  
HETATM   13  C   UNL     1     -10.552  11.550  65.273  1.00  0.00    -0.339 A  
BRANCH  11  14
HETATM   14  C   UNL     1     -11.092  13.920  65.960  1.00  0.00    -0.289 C  
BRANCH  14  15
HETATM   15  C   UNL     1     -12.069  13.984  67.140  1.00  0.00    -0.401 C  
BRANCH  15  16
HETATM   16  N   UNL     1     -11.965  12.836  68.014  1.00  0.00    -0.323 N  
HETATM   17  C   UNL     1     -11.871  13.000  69.382  1.00  0.00    -0.322 C  
HETATM   18  H   UNL     1     -11.962  11.896  67.617  1.00  0.00     0.000 HD 
HETATM   19  O   UNL     1     -11.805  14.093  69.933  1.00  0.00    -0.286 OA 
BRANCH  17  20
HETATM   20  C   UNL     1     -11.911  11.756  70.188  1.00  0.00    -0.421 A  
HETATM   21  C   UNL     1     -12.771  11.628  71.286  1.00  0.00    -0.444 A  
HETATM   22  C   UNL     1     -12.773  10.449  72.035  1.00  0.00    -0.365 A  
HETATM   23  C   UNL     1     -11.923   9.401  71.681  1.00  0.00    -0.393 A  
HETATM   24 CL   UNL     1     -11.927   7.953  72.610  1.00  0.00    -0.344 Cl 
HETATM   25  C   UNL     1     -11.077   9.515  70.579  1.00  0.00    -0.342 A  
HETATM   26  C   UNL     1     -11.074  10.693  69.827  1.00  0.00    -0.358 A  
ENDBRANCH  17  20
ENDBRANCH  15  16
ENDBRANCH  14  15
ENDBRANCH  11  14
ENDBRANCH   3   8
TORSDOF 5
ENDMDL
MODEL      116
REMARK 921   NORMALIZED FREE ENERGY PREDICTED BY IDOCK:   -4.63 KCAL/MOL
REMARK 922        TOTAL FREE ENERGY PREDICTED BY IDOCK:   -6.99 KCAL/MOL
REMARK 923 INTER-LIGAND FREE ENERGY PREDICTED BY IDOCK:   -5.94 KCAL/MOL
REMARK 924 INTRA-LIGAND FREE ENERGY PREDICTED BY IDOCK:   -1.05 KCAL/MOL
REMARK 927      BINDING AFFINITY PREDICTED BY RF-SCORE:    0.00 PKD
ROOT
HETATM    1  C   UNL     1     -11.955  15.130  69.463  1.00  0.00    -0.351 C  
HETATM    2  C   UNL     1     -10.964  15.631  68.408  1.00  0.00    -0.308 C  
HETATM    3  O   UNL     1     -11.624  15.776  67.125  1.00  0.00    -0.024 OA 
HETATM    4  C   UNL     1      -9.644  14.845  68.387  1.00  0.00    -0.209 C  
HETATM    5  C   UNL     1     -10.585  17.076  68.805  1.00  0.00    -0.346 C  
HETATM    6  O   UNL     1     -10.817  17.984  67.824  1.00  0.00    -0.383 OA 
HETATM    7  O   UNL     1     -10.107  17.398  69.884  1.00  0.00     0.194 OA 
ENDROOT
BRANCH   3   8
HETATM    8  C   UNL     1     -11.623  14.758  66.218  1.00  0.00    -0.298 A  
HETATM    9  C   UNL     1     -12.548  13.726  66.176  1.00  0.00    -0.423 A  
HETATM   10  C   UNL     1     -12.395  12.680  65.269  1.00  0.00    -0.528 A  
HETATM   11  C   UNL     1     -11.351  12.676  64.339  1.00  0.00    -0.393 A  
HETATM   12  C   UNL     1     -10.602  14.793  65.267  1.00  0.00    -0.414 A  
HETATM   13  C   UNL     1     -10.459  13.756  64.339  1.00  0.00    -0.265 A  
BRANCH  11  14
HETATM   14  C   UNL     1     -11.120  11.503  63.410  1.00  0.00    -0.370 C  
BRANCH  14  15
HETATM   15  C   UNL     1      -9.797  10.763  63.639  1.00  0.00    -0.350 C  
BRANCH  15  16
HETATM   16  N   UNL     1      -9.655  10.281  64.996  1.00  0.00    -0.260 N  
HETATM   17  C   UNL     1      -8.448  10.390  65.658  1.00  0.00    -0.165 C  
HETATM   18  H   UNL     1     -10.453   9.857  65.469  1.00  0.00     0.000 HD 
HETATM   19  O   UNL     1      -7.426  10.829  65.141  1.00  0.00    -0.021 OA 
BRANCH  17  20
HETATM   20  C   UNL     1      -8.454   9.994  67.087  1.00  0.00    -0.125 A  
HETATM   21  C   UNL     1      -9.463  10.424  67.958  1.00  0.00    -0.152 A  
HETATM   22  C   UNL     1      -9.429  10.047  69.302  1.00  0.00    -0.227 A  
HETATM   23  C   UNL     1      -8.395   9.236  69.770  1.00  0.00    -0.142 A  
HETATM   24 CL   UNL     1      -8.358   8.778  71.428  1.00  0.00    -0.218 Cl 
HETATM   25  C   UNL     1      -7.398   8.790  68.904  1.00  0.00    -0.078 A  
HETATM   26  C   UNL     1      -7.429   9.165  67.558  1.00  0.00    -0.088 A  
ENDBRANCH  17  20
ENDBRANCH  15  16
ENDBRANCH  14  15
ENDBRANCH  11  14
ENDBRANCH   3   8
TORSDOF 5
ENDMDL
MODEL      117
REMARK 921   NORMALIZED FREE ENERGY PREDICTED BY IDOCK:   -4.63 KCAL/MOL
REMARK 922        TOTAL FREE ENERGY PREDICTED BY IDOCK:   -6.98 KCAL/MOL
REMARK 923 INTER-LIGAND FREE ENERGY PREDICTED BY IDOCK:   -6.02 KCAL/MOL
REMARK 924 INTRA-LIGAND FREE ENERGY PREDICTED BY IDOCK:   -0.96 KCAL/MOL
REMARK 927      BINDING AFFINITY PREDICTED BY RF-SCORE:    0.00 PKD
ROOT
HETATM    1  C   UNL     1      -9.044   5.228  65.574  1.00  0.00    -0.145 C  
HETATM    2  C   UNL     1      -7.792   5.884  66.166  1.00  0.00    -0.104 C  
HETATM    3  O   UNL     1      -8.158   6.799  67.230  1.00  0.00    -0.115 OA 
HETATM    4  C   UNL     1      -6.840   6.453  65.103  1.00  0.00    -0.047 C  
HETATM    5  C   UNL     1      -7.001   4.766  66.882  1.00  0.00    -0.060 C  
HETATM    6  O   UNL     1      -6.751   5.033  68.189  1.00  0.00    -0.051 OA 
HETATM    7  O   UNL     1      -6.611   3.737  66.346  1.00  0.00    -0.040 OA 
ENDROOT
BRANCH   3   8
HETATM    8  C   UNL     1      -8.371   8.121  66.974  1.00  0.00    -0.116 A  
HETATM    9  C   UNL     1      -7.466   9.139  67.232  1.00  0.00    -0.088 A  
HETATM   10  C   UNL     1      -7.825  10.469  67.026  1.00  0.00    -0.114 A  
HETATM   11  C   UNL     1      -9.074  10.806  66.493  1.00  0.00    -0.181 A  
HETATM   12  C   UNL     1      -9.603   8.437  66.399  1.00  0.00    -0.307 A  
HETATM   13  C   UNL     1      -9.959   9.770  66.168  1.00  0.00    -0.338 A  
BRANCH  11  14
HETATM   14  C   UNL     1      -9.511  12.249  66.349  1.00  0.00    -0.240 C  
BRANCH  14  15
HETATM   15  C   UNL     1      -9.850  12.944  67.673  1.00  0.00    -0.211 C  
BRANCH  15  16
HETATM   16  N   UNL     1      -9.897  12.026  68.790  1.00  0.00    -0.401 N  
HETATM   17  C   UNL     1     -11.064  11.359  69.103  1.00  0.00    -0.258 C  
HETATM   18  H   UNL     1      -9.059  11.869  69.351  1.00  0.00     0.000 HD 
HETATM   19  O   UNL     1     -12.128  11.538  68.520  1.00  0.00    -0.522 OA 
BRANCH  17  20
HETATM   20  C   UNL     1     -10.961  10.340  70.176  1.00  0.00    -0.377 A  
HETATM   21  C   UNL     1      -9.798   9.580  70.349  1.00  0.00    -0.329 A  
HETATM   22  C   UNL     1      -9.740   8.617  71.359  1.00  0.00    -0.314 A  
HETATM   23  C   UNL     1     -10.839   8.421  72.196  1.00  0.00    -0.337 A  
HETATM   24 CL   UNL     1     -10.761   7.230  73.435  1.00  0.00    -0.429 Cl 
HETATM   25  C   UNL     1     -11.993   9.186  72.040  1.00  0.00    -0.421 A  
HETATM   26  C   UNL     1     -12.054  10.152  71.031  1.00  0.00    -0.476 A  
ENDBRANCH  17  20
ENDBRANCH  15  16
ENDBRANCH  14  15
ENDBRANCH  11  14
ENDBRANCH   3   8
TORSDOF 5
ENDMDL
MODEL      118
REMARK 921   NORMALIZED FREE ENERGY PREDICTED BY IDOCK:   -4.62 KCAL/MOL
REMARK 922        TOTAL FREE ENERGY PREDICTED BY IDOCK:   -6.98 KCAL/MOL
REMARK 923 INTER-LIGAND FREE ENERGY PREDICTED BY IDOCK:   -6.44 KCAL/MOL
REMARK 924 INTRA-LIGAND FREE ENERGY PREDICTED BY IDOCK:   -0.53 KCAL/MOL
REMARK 927      BINDING AFFINITY PREDICTED BY RF-SCORE:    0.00 PKD
ROOT
HETATM    1  C   UNL     1     -13.592   7.104  71.642  1.00  0.00    -0.399 C  
HETATM    2  C   UNL     1     -12.065   6.977  71.678  1.00  0.00    -0.347 C  
HETATM    3  O   UNL     1     -11.466   8.219  72.126  1.00  0.00    -0.309 OA 
HETATM    4  C   UNL     1     -11.472   6.384  70.390  1.00  0.00    -0.458 C  
HETATM    5  C   UNL     1     -11.729   5.967  72.798  1.00  0.00    -0.102 C  
HETATM    6  O   UNL     1     -10.884   6.463  73.736  1.00  0.00    -0.222 OA 
HETATM    7  O   UNL     1     -12.156   4.822  72.853  1.00  0.00    -0.049 OA 
ENDROOT
BRANCH   3   8
HETATM    8  C   UNL     1     -11.073   9.170  71.231  1.00  0.00    -0.335 A  
HETATM    9  C   UNL     1     -11.906  10.118  70.658  1.00  0.00    -0.431 A  
HETATM   10  C   UNL     1     -11.420  10.980  69.677  1.00  0.00    -0.375 A  
HETATM   11  C   UNL     1     -10.075  10.957  69.296  1.00  0.00    -0.164 A  
HETATM   12  C   UNL     1      -9.718   9.165  70.896  1.00  0.00    -0.352 A  
HETATM   13  C   UNL     1      -9.221  10.045  69.928  1.00  0.00    -0.195 A  
BRANCH  11  14
HETATM   14  C   UNL     1      -9.555  11.824  68.169  1.00  0.00    -0.193 C  
BRANCH  14  15
HETATM   15  C   UNL     1      -8.211  12.505  68.459  1.00  0.00    -0.079 C  
BRANCH  15  16
HETATM   16  N   UNL     1      -8.214  13.912  68.123  1.00  0.00    -0.148 N  
HETATM   17  C   UNL     1      -7.095  14.504  67.573  1.00  0.00    -0.175 C  
HETATM   18  H   UNL     1      -9.049  14.471  68.294  1.00  0.00     0.000 HD 
HETATM   19  O   UNL     1      -6.033  13.919  67.395  1.00  0.00    -0.351 OA 
BRANCH  17  20
HETATM   20  C   UNL     1      -7.255  15.914  67.139  1.00  0.00    -0.254 A  
HETATM   21  C   UNL     1      -6.166  16.794  67.105  1.00  0.00    -0.216 A  
HETATM   22  C   UNL     1      -6.354  18.119  66.707  1.00  0.00    -0.211 A  
HETATM   23  C   UNL     1      -7.625  18.559  66.337  1.00  0.00    -0.260 A  
HETATM   24 CL   UNL     1      -7.851  20.194  65.851  1.00  0.00    -0.276 Cl 
HETATM   25  C   UNL     1      -8.710  17.683  66.351  1.00  0.00    -0.263 A  
HETATM   26  C   UNL     1      -8.525  16.356  66.748  1.00  0.00    -0.279 A  
ENDBRANCH  17  20
ENDBRANCH  15  16
ENDBRANCH  14  15
ENDBRANCH  11  14
ENDBRANCH   3   8
TORSDOF 5
ENDMDL
MODEL      119
REMARK 921   NORMALIZED FREE ENERGY PREDICTED BY IDOCK:   -4.62 KCAL/MOL
REMARK 922        TOTAL FREE ENERGY PREDICTED BY IDOCK:   -6.97 KCAL/MOL
REMARK 923 INTER-LIGAND FREE ENERGY PREDICTED BY IDOCK:   -6.58 KCAL/MOL
REMARK 924 INTRA-LIGAND FREE ENERGY PREDICTED BY IDOCK:   -0.39 KCAL/MOL
REMARK 927      BINDING AFFINITY PREDICTED BY RF-SCORE:    0.00 PKD
ROOT
HETATM    1  C   UNL     1     -11.766  16.615  71.559  1.00  0.00     0.075 C  
HETATM    2  C   UNL     1     -12.600  15.374  71.893  1.00  0.00    -0.380 C  
HETATM    3  O   UNL     1     -11.817  14.170  71.691  1.00  0.00    -0.150 OA 
HETATM    4  C   UNL     1     -13.990  15.377  71.236  1.00  0.00    -0.491 C  
HETATM    5  C   UNL     1     -12.857  15.408  73.416  1.00  0.00    -0.538 C  
HETATM    6  O   UNL     1     -12.444  14.287  74.059  1.00  0.00    -0.134 OA 
HETATM    7  O   UNL     1     -13.392  16.334  74.011  1.00  0.00    -0.579 OA 
ENDROOT
BRANCH   3   8
HETATM    8  C   UNL     1     -11.847  13.508  70.499  1.00  0.00    -0.178 A  
HETATM    9  C   UNL     1     -12.170  12.169  70.339  1.00  0.00    -0.378 A  
HETATM   10  C   UNL     1     -12.070  11.566  69.088  1.00  0.00    -0.329 A  
HETATM   11  C   UNL     1     -11.710  12.304  67.956  1.00  0.00    -0.417 A  
HETATM   12  C   UNL     1     -11.531  14.269  69.373  1.00  0.00    -0.337 A  
HETATM   13  C   UNL     1     -11.452  13.672  68.110  1.00  0.00    -0.348 A  
BRANCH  11  14
HETATM   14  C   UNL     1     -11.510  11.643  66.608  1.00  0.00    -0.280 C  
BRANCH  14  15
HETATM   15  C   UNL     1     -10.085  11.136  66.356  1.00  0.00    -0.226 C  
BRANCH  15  16
HETATM   16  N   UNL     1      -9.974   9.699  66.480  1.00  0.00    -0.230 N  
HETATM   17  C   UNL     1      -9.167   9.138  67.449  1.00  0.00    -0.130 C  
HETATM   18  H   UNL     1     -10.495   9.094  65.845  1.00  0.00     0.000 HD 
HETATM   19  O   UNL     1      -8.460   9.791  68.208  1.00  0.00    -0.113 OA 
BRANCH  17  20
HETATM   20  C   UNL     1      -9.237   7.662  67.576  1.00  0.00    -0.145 A  
HETATM   21  C   UNL     1      -8.270   6.945  68.293  1.00  0.00    -0.123 A  
HETATM   22  C   UNL     1      -8.357   5.554  68.380  1.00  0.00    -0.098 A  
HETATM   23  C   UNL     1      -9.411   4.884  67.758  1.00  0.00    -0.138 A  
HETATM   24 CL   UNL     1      -9.509   3.170  67.866  1.00  0.00    -0.247 Cl 
HETATM   25  C   UNL     1     -10.386   5.593  67.058  1.00  0.00    -0.306 A  
HETATM   26  C   UNL     1     -10.303   6.985  66.971  1.00  0.00    -0.360 A  
ENDBRANCH  17  20
ENDBRANCH  15  16
ENDBRANCH  14  15
ENDBRANCH  11  14
ENDBRANCH   3   8
TORSDOF 5
ENDMDL
MODEL      120
REMARK 921   NORMALIZED FREE ENERGY PREDICTED BY IDOCK:   -4.61 KCAL/MOL
REMARK 922        TOTAL FREE ENERGY PREDICTED BY IDOCK:   -6.95 KCAL/MOL
REMARK 923 INTER-LIGAND FREE ENERGY PREDICTED BY IDOCK:   -5.97 KCAL/MOL
REMARK 924 INTRA-LIGAND FREE ENERGY PREDICTED BY IDOCK:   -0.98 KCAL/MOL
REMARK 927      BINDING AFFINITY PREDICTED BY RF-SCORE:    0.00 PKD
ROOT
HETATM    1  C   UNL     1     -11.139  16.210  67.627  1.00  0.00    -0.212 C  
HETATM    2  C   UNL     1     -10.544  15.832  66.267  1.00  0.00    -0.310 C  
HETATM    3  O   UNL     1     -11.356  14.815  65.627  1.00  0.00    -0.342 OA 
HETATM    4  C   UNL     1      -9.037  15.539  66.320  1.00  0.00    -0.369 C  
HETATM    5  C   UNL     1     -10.698  17.070  65.355  1.00  0.00    -0.116 C  
HETATM    6  O   UNL     1     -11.370  16.814  64.205  1.00  0.00    -1.194 OA 
HETATM    7  O   UNL     1     -10.254  18.182  65.610  1.00  0.00    -0.578 OA 
ENDROOT
BRANCH   3   8
HETATM    8  C   UNL     1     -11.075  13.491  65.788  1.00  0.00    -0.286 A  
HETATM    9  C   UNL     1     -11.376  12.744  66.917  1.00  0.00    -0.371 A  
HETATM   10  C   UNL     1     -10.953  11.421  67.018  1.00  0.00    -0.347 A  
HETATM   11  C   UNL     1     -10.278  10.795  65.965  1.00  0.00    -0.310 A  
HETATM   12  C   UNL     1     -10.443  12.868  64.710  1.00  0.00    -0.371 A  
HETATM   13  C   UNL     1     -10.037  11.533  64.799  1.00  0.00    -0.316 A  
BRANCH  11  14
HETATM   14  C   UNL     1      -9.733   9.388  66.097  1.00  0.00    -0.334 C  
BRANCH  14  15
HETATM   15  C   UNL     1      -8.589   9.243  67.107  1.00  0.00    -0.128 C  
BRANCH  15  16
HETATM   16  N   UNL     1      -8.194  10.507  67.689  1.00  0.00    -0.111 N  
HETATM   17  C   UNL     1      -6.877  10.918  67.649  1.00  0.00    -0.081 C  
HETATM   18  H   UNL     1      -8.895  11.101  68.133  1.00  0.00     0.000 HD 
HETATM   19  O   UNL     1      -5.965  10.237  67.192  1.00  0.00    -0.049 OA 
BRANCH  17  20
HETATM   20  C   UNL     1      -6.610  12.289  68.148  1.00  0.00    -0.067 A  
HETATM   21  C   UNL     1      -7.017  12.691  69.427  1.00  0.00     0.108 A  
HETATM   22  C   UNL     1      -6.764  13.994  69.859  1.00  0.00     0.001 A  
HETATM   23  C   UNL     1      -6.100  14.888  69.019  1.00  0.00    -0.096 A  
HETATM   24 CL   UNL     1      -5.795  16.494  69.558  1.00  0.00    -0.166 Cl 
HETATM   25  C   UNL     1      -5.676  14.489  67.753  1.00  0.00    -0.074 A  
HETATM   26  C   UNL     1      -5.927  13.185  67.317  1.00  0.00     0.148 A  
ENDBRANCH  17  20
ENDBRANCH  15  16
ENDBRANCH  14  15
ENDBRANCH  11  14
ENDBRANCH   3   8
TORSDOF 5
ENDMDL
MODEL      121
REMARK 921   NORMALIZED FREE ENERGY PREDICTED BY IDOCK:   -4.59 KCAL/MOL
REMARK 922        TOTAL FREE ENERGY PREDICTED BY IDOCK:   -6.93 KCAL/MOL
REMARK 923 INTER-LIGAND FREE ENERGY PREDICTED BY IDOCK:   -6.18 KCAL/MOL
REMARK 924 INTRA-LIGAND FREE ENERGY PREDICTED BY IDOCK:   -0.75 KCAL/MOL
REMARK 927      BINDING AFFINITY PREDICTED BY RF-SCORE:    0.00 PKD
ROOT
HETATM    1  C   UNL     1     -10.470  19.442  68.247  1.00  0.00    -0.424 C  
HETATM    2  C   UNL     1      -9.777  18.738  67.076  1.00  0.00    -0.311 C  
HETATM    3  O   UNL     1     -10.088  17.322  67.084  1.00  0.00    -0.280 OA 
HETATM    4  C   UNL     1      -8.285  19.087  66.950  1.00  0.00    -0.286 C  
HETATM    5  C   UNL     1     -10.441  19.266  65.784  1.00  0.00    -0.359 C  
HETATM    6  O   UNL     1     -10.948  18.284  64.998  1.00  0.00    -0.684 OA 
HETATM    7  O   UNL     1     -10.506  20.446  65.467  1.00  0.00    -0.240 OA 
ENDROOT
BRANCH   3   8
HETATM    8  C   UNL     1      -9.275  16.430  67.718  1.00  0.00    -0.201 A  
HETATM    9  C   UNL     1      -9.233  16.225  69.089  1.00  0.00    -0.235 A  
HETATM   10  C   UNL     1      -8.291  15.360  69.642  1.00  0.00    -0.127 A  
HETATM   11  C   UNL     1      -7.416  14.630  68.832  1.00  0.00    -0.134 A  
HETATM   12  C   UNL     1      -8.440  15.676  66.893  1.00  0.00    -0.286 A  
HETATM   13  C   UNL     1      -7.509  14.788  67.443  1.00  0.00    -0.221 A  
BRANCH  11  14
HETATM   14  C   UNL     1      -6.329  13.757  69.423  1.00  0.00    -0.111 C  
BRANCH  14  15
HETATM   15  C   UNL     1      -6.228  12.360  68.799  1.00  0.00    -0.073 C  
BRANCH  15  16
HETATM   16  N   UNL     1      -7.288  11.476  69.233  1.00  0.00    -0.302 N  
HETATM   17  C   UNL     1      -7.931  10.655  68.329  1.00  0.00    -0.116 C  
HETATM   18  H   UNL     1      -7.563  11.460  70.215  1.00  0.00     0.000 HD 
HETATM   19  O   UNL     1      -7.704  10.659  67.124  1.00  0.00    -0.105 OA 
BRANCH  17  20
HETATM   20  C   UNL     1      -8.901   9.692  68.905  1.00  0.00    -0.136 A  
HETATM   21  C   UNL     1      -9.082   9.579  70.289  1.00  0.00    -0.296 A  
HETATM   22  C   UNL     1      -9.992   8.651  70.799  1.00  0.00    -0.241 A  
HETATM   23  C   UNL     1     -10.723   7.844  69.927  1.00  0.00    -0.244 A  
HETATM   24 CL   UNL     1     -11.840   6.700  70.562  1.00  0.00    -0.457 Cl 
HETATM   25  C   UNL     1     -10.561   7.963  68.547  1.00  0.00    -0.146 A  
HETATM   26  C   UNL     1      -9.652   8.892  68.034  1.00  0.00    -0.167 A  
ENDBRANCH  17  20
ENDBRANCH  15  16
ENDBRANCH  14  15
ENDBRANCH  11  14
ENDBRANCH   3   8
TORSDOF 5
ENDMDL
MODEL      122
REMARK 921   NORMALIZED FREE ENERGY PREDICTED BY IDOCK:   -4.57 KCAL/MOL
REMARK 922        TOTAL FREE ENERGY PREDICTED BY IDOCK:   -6.91 KCAL/MOL
REMARK 923 INTER-LIGAND FREE ENERGY PREDICTED BY IDOCK:   -6.45 KCAL/MOL
REMARK 924 INTRA-LIGAND FREE ENERGY PREDICTED BY IDOCK:   -0.46 KCAL/MOL
REMARK 927      BINDING AFFINITY PREDICTED BY RF-SCORE:    0.00 PKD
ROOT
HETATM    1  C   UNL     1      -9.357   7.554  70.003  1.00  0.00    -0.154 C  
HETATM    2  C   UNL     1      -8.084   7.864  69.210  1.00  0.00    -0.126 C  
HETATM    3  O   UNL     1      -8.095   9.241  68.756  1.00  0.00    -0.101 OA 
HETATM    4  C   UNL     1      -7.766   6.815  68.132  1.00  0.00    -0.109 C  
HETATM    5  C   UNL     1      -6.909   7.803  70.212  1.00  0.00    -0.046 C  
HETATM    6  O   UNL     1      -6.172   8.942  70.249  1.00  0.00    -0.036 OA 
HETATM    7  O   UNL     1      -6.636   6.834  70.906  1.00  0.00    -0.050 OA 
ENDROOT
BRANCH   3   8
HETATM    8  C   UNL     1      -8.588   9.569  67.528  1.00  0.00    -0.126 A  
HETATM    9  C   UNL     1      -7.822   9.778  66.391  1.00  0.00    -0.106 A  
HETATM   10  C   UNL     1      -8.420  10.210  65.209  1.00  0.00    -0.165 A  
HETATM   11  C   UNL     1      -9.805  10.378  65.119  1.00  0.00    -0.378 A  
HETATM   12  C   UNL     1      -9.976   9.688  67.442  1.00  0.00    -0.237 A  
HETATM   13  C   UNL     1     -10.583  10.099  66.251  1.00  0.00    -0.121 A  
BRANCH  11  14
HETATM   14  C   UNL     1     -10.458  10.933  63.871  1.00  0.00    -0.359 C  
BRANCH  14  15
HETATM   15  C   UNL     1     -11.146  12.290  64.064  1.00  0.00    -0.386 C  
BRANCH  15  16
HETATM   16  N   UNL     1     -11.021  12.792  65.415  1.00  0.00    -0.279 N  
HETATM   17  C   UNL     1     -11.983  13.628  65.946  1.00  0.00    -0.405 C  
HETATM   18  H   UNL     1     -10.215  12.526  65.981  1.00  0.00     0.000 HD 
HETATM   19  O   UNL     1     -12.947  14.044  65.314  1.00  0.00    -0.743 OA 
BRANCH  17  20
HETATM   20  C   UNL     1     -11.826  13.967  67.381  1.00  0.00    -0.445 A  
HETATM   21  C   UNL     1     -11.956  12.993  68.379  1.00  0.00    -0.309 A  
HETATM   22  C   UNL     1     -11.818  13.350  69.722  1.00  0.00    -0.393 A  
HETATM   23  C   UNL     1     -11.545  14.674  70.064  1.00  0.00    -0.284 A  
HETATM   24 CL   UNL     1     -11.381  15.107  71.721  1.00  0.00    -0.448 Cl 
HETATM   25  C   UNL     1     -11.397  15.646  69.075  1.00  0.00    -0.332 A  
HETATM   26  C   UNL     1     -11.532  15.292  67.730  1.00  0.00    -0.312 A  
ENDBRANCH  17  20
ENDBRANCH  15  16
ENDBRANCH  14  15
ENDBRANCH  11  14
ENDBRANCH   3   8
TORSDOF 5
ENDMDL
MODEL      123
REMARK 921   NORMALIZED FREE ENERGY PREDICTED BY IDOCK:   -4.57 KCAL/MOL
REMARK 922        TOTAL FREE ENERGY PREDICTED BY IDOCK:   -6.90 KCAL/MOL
REMARK 923 INTER-LIGAND FREE ENERGY PREDICTED BY IDOCK:   -6.15 KCAL/MOL
REMARK 924 INTRA-LIGAND FREE ENERGY PREDICTED BY IDOCK:   -0.75 KCAL/MOL
REMARK 927      BINDING AFFINITY PREDICTED BY RF-SCORE:    0.00 PKD
ROOT
HETATM    1  C   UNL     1     -12.014  14.240  67.292  1.00  0.00    -0.439 C  
HETATM    2  C   UNL     1     -11.671  13.121  66.304  1.00  0.00    -0.375 C  
HETATM    3  O   UNL     1     -12.214  11.858  66.763  1.00  0.00    -0.489 OA 
HETATM    4  C   UNL     1     -10.188  13.096  65.901  1.00  0.00    -0.294 C  
HETATM    5  C   UNL     1     -12.452  13.420  65.004  1.00  0.00    -0.428 C  
HETATM    6  O   UNL     1     -13.252  12.398  64.607  1.00  0.00    -0.822 OA 
HETATM    7  O   UNL     1     -12.368  14.461  64.366  1.00  0.00    -0.571 OA 
ENDROOT
BRANCH   3   8
HETATM    8  C   UNL     1     -11.467  11.011  67.527  1.00  0.00    -0.185 A  
HETATM    9  C   UNL     1     -11.387  11.047  68.911  1.00  0.00    -0.346 A  
HETATM   10  C   UNL     1     -10.513  10.199  69.588  1.00  0.00    -0.282 A  
HETATM   11  C   UNL     1      -9.750   9.250  68.901  1.00  0.00    -0.164 A  
HETATM   12  C   UNL     1     -10.747  10.039  66.831  1.00  0.00    -0.211 A  
HETATM   13  C   UNL     1      -9.885   9.170  67.509  1.00  0.00    -0.227 A  
BRANCH  11  14
HETATM   14  C   UNL     1      -8.731   8.386  69.613  1.00  0.00    -0.133 C  
BRANCH  14  15
HETATM   15  C   UNL     1      -9.161   6.927  69.807  1.00  0.00    -0.147 C  
BRANCH  15  16
HETATM   16  N   UNL     1      -8.569   6.035  68.833  1.00  0.00    -0.115 N  
HETATM   17  C   UNL     1      -9.331   5.504  67.812  1.00  0.00    -0.113 C  
HETATM   18  H   UNL     1      -7.579   5.798  68.901  1.00  0.00     0.000 HD 
HETATM   19  O   UNL     1     -10.538   5.689  67.696  1.00  0.00    -0.226 OA 
BRANCH  17  20
HETATM   20  C   UNL     1      -8.593   4.719  66.793  1.00  0.00    -0.108 A  
HETATM   21  C   UNL     1      -7.482   5.251  66.127  1.00  0.00    -0.083 A  
HETATM   22  C   UNL     1      -6.820   4.491  65.161  1.00  0.00    -0.053 A  
HETATM   23  C   UNL     1      -7.263   3.201  64.869  1.00  0.00    -0.069 A  
HETATM   24 CL   UNL     1      -6.444   2.271  63.675  1.00  0.00    -0.014 Cl 
HETATM   25  C   UNL     1      -8.357   2.658  65.541  1.00  0.00    -0.096 A  
HETATM   26  C   UNL     1      -9.021   3.416  66.509  1.00  0.00    -0.158 A  
ENDBRANCH  17  20
ENDBRANCH  15  16
ENDBRANCH  14  15
ENDBRANCH  11  14
ENDBRANCH   3   8
TORSDOF 5
ENDMDL
MODEL      124
REMARK 921   NORMALIZED FREE ENERGY PREDICTED BY IDOCK:   -4.55 KCAL/MOL
REMARK 922        TOTAL FREE ENERGY PREDICTED BY IDOCK:   -6.89 KCAL/MOL
REMARK 923 INTER-LIGAND FREE ENERGY PREDICTED BY IDOCK:   -6.42 KCAL/MOL
REMARK 924 INTRA-LIGAND FREE ENERGY PREDICTED BY IDOCK:   -0.46 KCAL/MOL
REMARK 927      BINDING AFFINITY PREDICTED BY RF-SCORE:    0.00 PKD
ROOT
HETATM    1  C   UNL     1     -10.488  15.504  67.260  1.00  0.00    -0.279 C  
HETATM    2  C   UNL     1     -11.023  14.272  66.524  1.00  0.00    -0.316 C  
HETATM    3  O   UNL     1     -12.151  13.708  67.239  1.00  0.00    -0.380 OA 
HETATM    4  C   UNL     1      -9.924  13.273  66.127  1.00  0.00    -0.295 C  
HETATM    5  C   UNL     1     -11.629  14.777  65.195  1.00  0.00    -0.358 C  
HETATM    6  O   UNL     1     -12.927  14.419  65.024  1.00  0.00    -0.643 OA 
HETATM    7  O   UNL     1     -11.021  15.424  64.354  1.00  0.00    -0.260 OA 
ENDROOT
BRANCH   3   8
HETATM    8  C   UNL     1     -11.972  12.717  68.158  1.00  0.00    -0.222 A  
HETATM    9  C   UNL     1     -11.834  11.369  67.861  1.00  0.00    -0.239 A  
HETATM   10  C   UNL     1     -11.758  10.427  68.885  1.00  0.00    -0.138 A  
HETATM   11  C   UNL     1     -11.750  10.818  70.228  1.00  0.00    -0.442 A  
HETATM   12  C   UNL     1     -11.919  13.127  69.491  1.00  0.00    -0.354 A  
HETATM   13  C   UNL     1     -11.819  12.186  70.521  1.00  0.00    -0.185 A  
BRANCH  11  14
HETATM   14  C   UNL     1     -11.759   9.801  71.350  1.00  0.00    -0.475 C  
BRANCH  14  15
HETATM   15  C   UNL     1     -10.390   9.185  71.658  1.00  0.00    -0.318 C  
BRANCH  15  16
HETATM   16  N   UNL     1      -9.637   8.869  70.463  1.00  0.00    -0.187 N  
HETATM   17  C   UNL     1      -9.893   7.710  69.758  1.00  0.00    -0.181 C  
HETATM   18  H   UNL     1      -8.912   9.509  70.138  1.00  0.00     0.000 HD 
HETATM   19  O   UNL     1     -10.702   6.861  70.114  1.00  0.00    -0.218 OA 
BRANCH  17  20
HETATM   20  C   UNL     1      -9.163   7.558  68.476  1.00  0.00    -0.143 A  
HETATM   21  C   UNL     1      -7.849   7.073  68.438  1.00  0.00    -0.122 A  
HETATM   22  C   UNL     1      -7.185   6.957  67.215  1.00  0.00    -0.089 A  
HETATM   23  C   UNL     1      -7.835   7.317  66.035  1.00  0.00    -0.106 A  
HETATM   24 CL   UNL     1      -7.009   7.175  64.532  1.00  0.00    -0.050 Cl 
HETATM   25  C   UNL     1      -9.149   7.784  66.063  1.00  0.00    -0.169 A  
HETATM   26  C   UNL     1      -9.817   7.900  67.286  1.00  0.00    -0.256 A  
ENDBRANCH  17  20
ENDBRANCH  15  16
ENDBRANCH  14  15
ENDBRANCH  11  14
ENDBRANCH   3   8
TORSDOF 5
ENDMDL
MODEL      125
REMARK 921   NORMALIZED FREE ENERGY PREDICTED BY IDOCK:   -4.54 KCAL/MOL
REMARK 922        TOTAL FREE ENERGY PREDICTED BY IDOCK:   -6.87 KCAL/MOL
REMARK 923 INTER-LIGAND FREE ENERGY PREDICTED BY IDOCK:   -6.00 KCAL/MOL
REMARK 924 INTRA-LIGAND FREE ENERGY PREDICTED BY IDOCK:   -0.87 KCAL/MOL
REMARK 927      BINDING AFFINITY PREDICTED BY RF-SCORE:    0.00 PKD
ROOT
HETATM    1  C   UNL     1      -9.288  15.637  69.566  1.00  0.00    -0.263 C  
HETATM    2  C   UNL     1      -9.031  16.428  68.279  1.00  0.00    -0.206 C  
HETATM    3  O   UNL     1     -10.280  16.687  67.589  1.00  0.00    -0.269 OA 
HETATM    4  C   UNL     1      -7.907  15.837  67.413  1.00  0.00    -0.203 C  
HETATM    5  C   UNL     1      -8.537  17.828  68.708  1.00  0.00    -0.203 C  
HETATM    6  O   UNL     1      -9.283  18.842  68.203  1.00  0.00    -0.299 OA 
HETATM    7  O   UNL     1      -7.564  18.034  69.420  1.00  0.00    -0.013 OA 
ENDROOT
BRANCH   3   8
HETATM    8  C   UNL     1     -10.738  15.836  66.627  1.00  0.00    -0.287 A  
HETATM    9  C   UNL     1     -10.696  16.079  65.263  1.00  0.00    -0.417 A  
HETATM   10  C   UNL     1     -11.285  15.186  64.370  1.00  0.00    -0.181 A  
HETATM   11  C   UNL     1     -11.868  13.996  64.818  1.00  0.00    -0.415 A  
HETATM   12  C   UNL     1     -11.275  14.632  67.086  1.00  0.00    -0.349 A  
HETATM   13  C   UNL     1     -11.846  13.721  66.191  1.00  0.00    -0.424 A  
BRANCH  11  14
HETATM   14  C   UNL     1     -12.590  13.061  63.870  1.00  0.00    -0.290 C  
BRANCH  14  15
HETATM   15  C   UNL     1     -11.672  12.108  63.097  1.00  0.00    -0.204 C  
BRANCH  15  16
HETATM   16  N   UNL     1     -11.155  11.038  63.923  1.00  0.00    -0.419 N  
HETATM   17  C   UNL     1      -9.805  10.954  64.200  1.00  0.00    -0.314 C  
HETATM   18  H   UNL     1     -11.793  10.340  64.305  1.00  0.00     0.000 HD 
HETATM   19  O   UNL     1      -8.965  11.713  63.731  1.00  0.00     0.137 OA 
BRANCH  17  20
HETATM   20  C   UNL     1      -9.407   9.903  65.168  1.00  0.00    -0.317 A  
HETATM   21  C   UNL     1     -10.107   9.712  66.365  1.00  0.00    -0.317 A  
HETATM   22  C   UNL     1      -9.695   8.725  67.263  1.00  0.00    -0.238 A  
HETATM   23  C   UNL     1      -8.592   7.927  66.960  1.00  0.00    -0.128 A  
HETATM   24 CL   UNL     1      -8.087   6.716  68.072  1.00  0.00    -0.110 Cl 
HETATM   25  C   UNL     1      -7.900   8.101  65.762  1.00  0.00    -0.096 A  
HETATM   26  C   UNL     1      -8.311   9.087  64.861  1.00  0.00    -0.178 A  
ENDBRANCH  17  20
ENDBRANCH  15  16
ENDBRANCH  14  15
ENDBRANCH  11  14
ENDBRANCH   3   8
TORSDOF 5
ENDMDL
MODEL      126
REMARK 921   NORMALIZED FREE ENERGY PREDICTED BY IDOCK:   -4.53 KCAL/MOL
REMARK 922        TOTAL FREE ENERGY PREDICTED BY IDOCK:   -6.85 KCAL/MOL
REMARK 923 INTER-LIGAND FREE ENERGY PREDICTED BY IDOCK:   -6.12 KCAL/MOL
REMARK 924 INTRA-LIGAND FREE ENERGY PREDICTED BY IDOCK:   -0.73 KCAL/MOL
REMARK 927      BINDING AFFINITY PREDICTED BY RF-SCORE:    0.00 PKD
ROOT
HETATM    1  C   UNL     1     -12.663  13.995  65.650  1.00  0.00    -0.515 C  
HETATM    2  C   UNL     1     -11.478  13.649  66.558  1.00  0.00    -0.335 C  
HETATM    3  O   UNL     1     -10.257  13.560  65.780  1.00  0.00    -0.286 OA 
HETATM    4  C   UNL     1     -11.753  12.463  67.495  1.00  0.00    -0.425 C  
HETATM    5  C   UNL     1     -11.253  14.869  67.480  1.00  0.00    -0.328 C  
HETATM    6  O   UNL     1      -9.994  15.369  67.416  1.00  0.00    -0.227 OA 
HETATM    7  O   UNL     1     -12.103  15.349  68.217  1.00  0.00    -0.191 OA 
ENDROOT
BRANCH   3   8
HETATM    8  C   UNL     1      -9.837  12.368  65.271  1.00  0.00    -0.161 A  
HETATM    9  C   UNL     1     -10.302  11.793  64.098  1.00  0.00    -0.376 A  
HETATM   10  C   UNL     1      -9.878  10.521  63.721  1.00  0.00    -0.363 A  
HETATM   11  C   UNL     1      -8.928   9.823  64.473  1.00  0.00    -0.278 A  
HETATM   12  C   UNL     1      -8.853  11.705  66.007  1.00  0.00    -0.105 A  
HETATM   13  C   UNL     1      -8.407  10.437  65.619  1.00  0.00    -0.163 A  
BRANCH  11  14
HETATM   14  C   UNL     1      -8.526   8.406  64.124  1.00  0.00    -0.018 C  
BRANCH  14  15
HETATM   15  C   UNL     1      -7.932   7.609  65.292  1.00  0.00    -0.129 C  
BRANCH  15  16
HETATM   16  N   UNL     1      -8.889   7.373  66.351  1.00  0.00    -0.150 N  
HETATM   17  C   UNL     1      -8.469   7.239  67.660  1.00  0.00    -0.116 C  
HETATM   18  H   UNL     1      -9.882   7.305  66.130  1.00  0.00     0.000 HD 
HETATM   19  O   UNL     1      -7.292   7.245  68.001  1.00  0.00    -0.091 OA 
BRANCH  17  20
HETATM   20  C   UNL     1      -9.543   7.142  68.678  1.00  0.00    -0.140 A  
HETATM   21  C   UNL     1      -9.966   5.902  69.175  1.00  0.00    -0.214 A  
HETATM   22  C   UNL     1     -10.991   5.845  70.121  1.00  0.00    -0.412 A  
HETATM   23  C   UNL     1     -11.585   7.023  70.574  1.00  0.00    -0.319 A  
HETATM   24 CL   UNL     1     -12.850   6.944  71.737  1.00  0.00    -0.390 Cl 
HETATM   25  C   UNL     1     -11.157   8.261  70.097  1.00  0.00    -0.189 A  
HETATM   26  C   UNL     1     -10.130   8.322  69.150  1.00  0.00    -0.205 A  
ENDBRANCH  17  20
ENDBRANCH  15  16
ENDBRANCH  14  15
ENDBRANCH  11  14
ENDBRANCH   3   8
TORSDOF 5
ENDMDL
MODEL      127
REMARK 921   NORMALIZED FREE ENERGY PREDICTED BY IDOCK:   -4.52 KCAL/MOL
REMARK 922        TOTAL FREE ENERGY PREDICTED BY IDOCK:   -6.85 KCAL/MOL
REMARK 923 INTER-LIGAND FREE ENERGY PREDICTED BY IDOCK:   -6.32 KCAL/MOL
REMARK 924 INTRA-LIGAND FREE ENERGY PREDICTED BY IDOCK:   -0.53 KCAL/MOL
REMARK 927      BINDING AFFINITY PREDICTED BY RF-SCORE:    0.00 PKD
ROOT
HETATM    1  C   UNL     1      -9.525   3.639  67.890  1.00  0.00    -0.224 C  
HETATM    2  C   UNL     1      -9.354   4.448  66.601  1.00  0.00    -0.160 C  
HETATM    3  O   UNL     1      -8.499   5.595  66.835  1.00  0.00    -0.111 OA 
HETATM    4  C   UNL     1     -10.682   4.748  65.888  1.00  0.00    -0.225 C  
HETATM    5  C   UNL     1      -8.546   3.564  65.625  1.00  0.00    -0.115 C  
HETATM    6  O   UNL     1      -7.414   4.157  65.169  1.00  0.00    -0.071 OA 
HETATM    7  O   UNL     1      -8.875   2.441  65.267  1.00  0.00    -0.113 OA 
ENDROOT
BRANCH   3   8
HETATM    8  C   UNL     1      -9.027   6.805  67.176  1.00  0.00    -0.115 A  
HETATM    9  C   UNL     1      -9.800   7.048  68.301  1.00  0.00    -0.150 A  
HETATM   10  C   UNL     1     -10.375   8.301  68.502  1.00  0.00    -0.230 A  
HETATM   11  C   UNL     1     -10.134   9.357  67.617  1.00  0.00    -0.262 A  
HETATM   12  C   UNL     1      -8.739   7.860  66.309  1.00  0.00    -0.174 A  
HETATM   13  C   UNL     1      -9.295   9.126  66.519  1.00  0.00    -0.244 A  
BRANCH  11  14
HETATM   14  C   UNL     1     -10.825  10.696  67.774  1.00  0.00    -0.338 C  
BRANCH  14  15
HETATM   15  C   UNL     1     -10.790  11.578  66.520  1.00  0.00    -0.288 C  
BRANCH  15  16
HETATM   16  N   UNL     1     -10.483  12.960  66.818  1.00  0.00    -0.252 N  
HETATM   17  C   UNL     1     -11.384  13.961  66.511  1.00  0.00    -0.331 C  
HETATM   18  H   UNL     1      -9.595  13.198  67.258  1.00  0.00     0.000 HD 
HETATM   19  O   UNL     1     -12.444  13.767  65.926  1.00  0.00    -0.457 OA 
BRANCH  17  20
HETATM   20  C   UNL     1     -11.028  15.320  66.987  1.00  0.00    -0.324 A  
HETATM   21  C   UNL     1     -11.343  15.743  68.284  1.00  0.00    -0.354 A  
HETATM   22  C   UNL     1     -11.009  17.036  68.695  1.00  0.00    -0.217 A  
HETATM   23  C   UNL     1     -10.356  17.897  67.813  1.00  0.00    -0.387 A  
HETATM   24 CL   UNL     1      -9.951  19.489  68.325  1.00  0.00    -0.500 Cl 
HETATM   25  C   UNL     1     -10.024  17.476  66.527  1.00  0.00    -0.323 A  
HETATM   26  C   UNL     1     -10.356  16.183  66.113  1.00  0.00    -0.350 A  
ENDBRANCH  17  20
ENDBRANCH  15  16
ENDBRANCH  14  15
ENDBRANCH  11  14
ENDBRANCH   3   8
TORSDOF 5
ENDMDL
MODEL      128
REMARK 921   NORMALIZED FREE ENERGY PREDICTED BY IDOCK:   -4.51 KCAL/MOL
REMARK 922        TOTAL FREE ENERGY PREDICTED BY IDOCK:   -6.83 KCAL/MOL
REMARK 923 INTER-LIGAND FREE ENERGY PREDICTED BY IDOCK:   -6.41 KCAL/MOL
REMARK 924 INTRA-LIGAND FREE ENERGY PREDICTED BY IDOCK:   -0.41 KCAL/MOL
REMARK 927      BINDING AFFINITY PREDICTED BY RF-SCORE:    0.00 PKD
ROOT
HETATM    1  C   UNL     1      -9.710   4.352  66.569  1.00  0.00    -0.230 C  
HETATM    2  C   UNL     1      -9.164   4.807  67.926  1.00  0.00    -0.122 C  
HETATM    3  O   UNL     1     -10.211   5.439  68.705  1.00  0.00    -0.178 OA 
HETATM    4  C   UNL     1      -7.850   5.598  67.821  1.00  0.00    -0.097 C  
HETATM    5  C   UNL     1      -8.819   3.527  68.719  1.00  0.00    -0.111 C  
HETATM    6  O   UNL     1      -9.441   3.454  69.923  1.00  0.00    -0.169 OA 
HETATM    7  O   UNL     1      -8.054   2.654  68.333  1.00  0.00    -0.057 OA 
ENDROOT
BRANCH   3   8
HETATM    8  C   UNL     1     -10.402   6.788  68.659  1.00  0.00    -0.186 A  
HETATM    9  C   UNL     1     -10.560   7.532  67.499  1.00  0.00    -0.331 A  
HETATM   10  C   UNL     1     -10.647   8.921  67.561  1.00  0.00    -0.307 A  
HETATM   11  C   UNL     1     -10.647   9.591  68.788  1.00  0.00    -0.240 A  
HETATM   12  C   UNL     1     -10.447   7.437  69.893  1.00  0.00    -0.238 A  
HETATM   13  C   UNL     1     -10.558   8.830  69.961  1.00  0.00    -0.232 A  
BRANCH  11  14
HETATM   14  C   UNL     1     -10.650  11.104  68.865  1.00  0.00    -0.239 C  
BRANCH  14  15
HETATM   15  C   UNL     1     -11.162  11.802  67.600  1.00  0.00    -0.281 C  
BRANCH  15  16
HETATM   16  N   UNL     1     -10.739  13.183  67.514  1.00  0.00    -0.237 N  
HETATM   17  C   UNL     1     -11.554  14.133  66.931  1.00  0.00    -0.391 C  
HETATM   18  H   UNL     1      -9.830  13.458  67.888  1.00  0.00     0.000 HD 
HETATM   19  O   UNL     1     -12.630  13.875  66.403  1.00  0.00    -0.413 OA 
BRANCH  17  20
HETATM   20  C   UNL     1     -11.083  15.536  67.023  1.00  0.00    -0.238 A  
HETATM   21  C   UNL     1     -10.659  16.239  65.889  1.00  0.00    -0.307 A  
HETATM   22  C   UNL     1     -10.206  17.554  66.013  1.00  0.00    -0.306 A  
HETATM   23  C   UNL     1     -10.185  18.165  67.267  1.00  0.00    -0.367 A  
HETATM   24 CL   UNL     1      -9.622  19.784  67.413  1.00  0.00    -0.447 Cl 
HETATM   25  C   UNL     1     -10.622  17.477  68.398  1.00  0.00    -0.339 A  
HETATM   26  C   UNL     1     -11.077  16.161  68.276  1.00  0.00    -0.348 A  
ENDBRANCH  17  20
ENDBRANCH  15  16
ENDBRANCH  14  15
ENDBRANCH  11  14
ENDBRANCH   3   8
TORSDOF 5
ENDMDL
MODEL      129
REMARK 921   NORMALIZED FREE ENERGY PREDICTED BY IDOCK:   -4.50 KCAL/MOL
REMARK 922        TOTAL FREE ENERGY PREDICTED BY IDOCK:   -6.81 KCAL/MOL
REMARK 923 INTER-LIGAND FREE ENERGY PREDICTED BY IDOCK:   -6.00 KCAL/MOL
REMARK 924 INTRA-LIGAND FREE ENERGY PREDICTED BY IDOCK:   -0.81 KCAL/MOL
REMARK 927      BINDING AFFINITY PREDICTED BY RF-SCORE:    0.00 PKD
ROOT
HETATM    1  C   UNL     1     -12.148  14.327  68.024  1.00  0.00    -0.289 C  
HETATM    2  C   UNL     1     -11.087  13.317  67.576  1.00  0.00    -0.270 C  
HETATM    3  O   UNL     1     -11.646  11.979  67.544  1.00  0.00    -0.356 OA 
HETATM    4  C   UNL     1      -9.753  13.459  68.326  1.00  0.00    -0.226 C  
HETATM    5  C   UNL     1     -10.770  13.631  66.096  1.00  0.00    -0.286 C  
HETATM    6  O   UNL     1     -10.942  12.569  65.270  1.00  0.00    -0.280 OA 
HETATM    7  O   UNL     1     -10.386  14.717  65.683  1.00  0.00    -0.309 OA 
ENDROOT
BRANCH   3   8
HETATM    8  C   UNL     1     -11.551  11.155  68.626  1.00  0.00    -0.315 A  
HETATM    9  C   UNL     1     -12.394  11.184  69.726  1.00  0.00    -0.315 A  
HETATM   10  C   UNL     1     -12.147  10.363  70.825  1.00  0.00    -0.463 A  
HETATM   11  C   UNL     1     -11.089   9.448  70.819  1.00  0.00    -0.365 A  
HETATM   12  C   UNL     1     -10.520  10.215  68.585  1.00  0.00    -0.225 A  
HETATM   13  C   UNL     1     -10.282   9.373  69.677  1.00  0.00    -0.225 A  
BRANCH  11  14
HETATM   14  C   UNL     1     -10.754   8.616  72.039  1.00  0.00    -0.427 C  
BRANCH  14  15
HETATM   15  C   UNL     1     -11.284   7.178  71.991  1.00  0.00    -0.251 C  
BRANCH  15  16
HETATM   16  N   UNL     1     -10.270   6.222  71.602  1.00  0.00    -0.192 N  
HETATM   17  C   UNL     1     -10.305   5.629  70.356  1.00  0.00    -0.260 C  
HETATM   18  H   UNL     1      -9.522   5.984  72.254  1.00  0.00     0.000 HD 
HETATM   19  O   UNL     1     -11.201   5.812  69.540  1.00  0.00    -0.343 OA 
BRANCH  17  20
HETATM   20  C   UNL     1      -9.142   4.775  70.011  1.00  0.00    -0.155 A  
HETATM   21  C   UNL     1      -9.071   3.439  70.425  1.00  0.00    -0.193 A  
HETATM   22  C   UNL     1      -7.954   2.668  70.097  1.00  0.00    -0.052 A  
HETATM   23  C   UNL     1      -6.917   3.229  69.352  1.00  0.00    -0.041 A  
HETATM   24 CL   UNL     1      -5.542   2.273  68.955  1.00  0.00    -0.020 Cl 
HETATM   25  C   UNL     1      -6.990   4.553  68.921  1.00  0.00    -0.051 A  
HETATM   26  C   UNL     1      -8.107   5.327  69.247  1.00  0.00    -0.092 A  
ENDBRANCH  17  20
ENDBRANCH  15  16
ENDBRANCH  14  15
ENDBRANCH  11  14
ENDBRANCH   3   8
TORSDOF 5
ENDMDL
MODEL      130
REMARK 921   NORMALIZED FREE ENERGY PREDICTED BY IDOCK:   -4.48 KCAL/MOL
REMARK 922        TOTAL FREE ENERGY PREDICTED BY IDOCK:   -6.79 KCAL/MOL
REMARK 923 INTER-LIGAND FREE ENERGY PREDICTED BY IDOCK:   -6.05 KCAL/MOL
REMARK 924 INTRA-LIGAND FREE ENERGY PREDICTED BY IDOCK:   -0.74 KCAL/MOL
REMARK 927      BINDING AFFINITY PREDICTED BY RF-SCORE:    0.00 PKD
ROOT
HETATM    1  C   UNL     1      -8.452  15.959  68.378  1.00  0.00    -0.176 C  
HETATM    2  C   UNL     1      -9.945  16.028  68.044  1.00  0.00    -0.229 C  
HETATM    3  O   UNL     1     -10.557  14.723  68.198  1.00  0.00    -0.235 OA 
HETATM    4  C   UNL     1     -10.242  16.745  66.717  1.00  0.00    -0.304 C  
HETATM    5  C   UNL     1     -10.607  16.890  69.143  1.00  0.00    -0.330 C  
HETATM    6  O   UNL     1     -11.625  16.261  69.783  1.00  0.00    -0.272 OA 
HETATM    7  O   UNL     1     -10.279  18.035  69.421  1.00  0.00    -0.223 OA 
ENDROOT
BRANCH   3   8
HETATM    8  C   UNL     1     -10.661  13.869  67.140  1.00  0.00    -0.277 A  
HETATM    9  C   UNL     1      -9.624  13.103  66.630  1.00  0.00    -0.260 A  
HETATM   10  C   UNL     1      -9.812  12.338  65.481  1.00  0.00    -0.223 A  
HETATM   11  C   UNL     1     -11.061  12.270  64.855  1.00  0.00    -0.356 A  
HETATM   12  C   UNL     1     -11.924  13.776  66.555  1.00  0.00    -0.470 A  
HETATM   13  C   UNL     1     -12.124  12.991  65.414  1.00  0.00    -0.490 A  
BRANCH  11  14
HETATM   14  C   UNL     1     -11.257  11.517  63.556  1.00  0.00    -0.412 C  
BRANCH  14  15
HETATM   15  C   UNL     1      -9.955  11.120  62.851  1.00  0.00    -0.245 C  
BRANCH  15  16
HETATM   16  N   UNL     1      -9.593   9.739  63.084  1.00  0.00    -0.530 N  
HETATM   17  C   UNL     1      -8.363   9.417  63.623  1.00  0.00    -0.184 C  
HETATM   18  H   UNL     1     -10.251   8.996  62.849  1.00  0.00     0.000 HD 
HETATM   19  O   UNL     1      -7.493  10.243  63.875  1.00  0.00    -0.140 OA 
BRANCH  17  20
HETATM   20  C   UNL     1      -8.153   7.986  63.950  1.00  0.00    -0.097 A  
HETATM   21  C   UNL     1      -8.164   7.531  65.275  1.00  0.00    -0.130 A  
HETATM   22  C   UNL     1      -7.946   6.179  65.549  1.00  0.00    -0.117 A  
HETATM   23  C   UNL     1      -7.727   5.285  64.501  1.00  0.00    -0.093 A  
HETATM   24 CL   UNL     1      -7.456   3.622  64.846  1.00  0.00    -0.072 Cl 
HETATM   25  C   UNL     1      -7.732   5.728  63.179  1.00  0.00    -0.091 A  
HETATM   26  C   UNL     1      -7.951   7.080  62.901  1.00  0.00    -0.089 A  
ENDBRANCH  17  20
ENDBRANCH  15  16
ENDBRANCH  14  15
ENDBRANCH  11  14
ENDBRANCH   3   8
TORSDOF 5
ENDMDL
MODEL      131
REMARK 921   NORMALIZED FREE ENERGY PREDICTED BY IDOCK:   -4.48 KCAL/MOL
REMARK 922        TOTAL FREE ENERGY PREDICTED BY IDOCK:   -6.79 KCAL/MOL
REMARK 923 INTER-LIGAND FREE ENERGY PREDICTED BY IDOCK:   -6.31 KCAL/MOL
REMARK 924 INTRA-LIGAND FREE ENERGY PREDICTED BY IDOCK:   -0.48 KCAL/MOL
REMARK 927      BINDING AFFINITY PREDICTED BY RF-SCORE:    0.00 PKD
ROOT
HETATM    1  C   UNL     1      -7.713  13.109  67.343  1.00  0.00    -0.151 C  
HETATM    2  C   UNL     1      -7.172  11.737  67.755  1.00  0.00    -0.097 C  
HETATM    3  O   UNL     1      -8.211  10.731  67.646  1.00  0.00    -0.114 OA 
HETATM    4  C   UNL     1      -6.410  11.757  69.090  1.00  0.00    -0.086 C  
HETATM    5  C   UNL     1      -6.133  11.328  66.687  1.00  0.00    -0.143 C  
HETATM    6  O   UNL     1      -6.398  10.130  66.107  1.00  0.00    -0.075 OA 
HETATM    7  O   UNL     1      -5.151  11.991  66.382  1.00  0.00    -0.337 OA 
ENDROOT
BRANCH   3   8
HETATM    8  C   UNL     1      -8.996  10.417  68.714  1.00  0.00    -0.157 A  
HETATM    9  C   UNL     1      -8.619   9.597  69.767  1.00  0.00    -0.211 A  
HETATM   10  C   UNL     1      -9.537   9.259  70.760  1.00  0.00    -0.341 A  
HETATM   11  C   UNL     1     -10.832   9.787  70.757  1.00  0.00    -0.403 A  
HETATM   12  C   UNL     1     -10.270  10.989  68.722  1.00  0.00    -0.211 A  
HETATM   13  C   UNL     1     -11.187  10.670  69.730  1.00  0.00    -0.363 A  
BRANCH  11  14
HETATM   14  C   UNL     1     -11.865   9.357  71.777  1.00  0.00    -0.452 C  
BRANCH  14  15
HETATM   15  C   UNL     1     -12.591   8.051  71.433  1.00  0.00    -0.289 C  
BRANCH  15  16
HETATM   16  N   UNL     1     -11.928   7.303  70.387  1.00  0.00    -0.542 N  
HETATM   17  C   UNL     1     -11.082   6.257  70.699  1.00  0.00    -0.327 C  
HETATM   18  H   UNL     1     -12.087   7.549  69.410  1.00  0.00     0.000 HD 
HETATM   19  O   UNL     1     -10.788   5.938  71.846  1.00  0.00    -0.236 OA 
BRANCH  17  20
HETATM   20  C   UNL     1     -10.569   5.473  69.550  1.00  0.00    -0.366 A  
HETATM   21  C   UNL     1      -9.783   4.330  69.740  1.00  0.00    -0.290 A  
HETATM   22  C   UNL     1      -9.302   3.623  68.636  1.00  0.00    -0.228 A  
HETATM   23  C   UNL     1      -9.614   4.055  67.346  1.00  0.00    -0.177 A  
HETATM   24 CL   UNL     1      -9.015   3.182  65.990  1.00  0.00    -0.141 Cl 
HETATM   25  C   UNL     1     -10.410   5.182  67.150  1.00  0.00    -0.246 A  
HETATM   26  C   UNL     1     -10.894   5.890  68.253  1.00  0.00    -0.325 A  
ENDBRANCH  17  20
ENDBRANCH  15  16
ENDBRANCH  14  15
ENDBRANCH  11  14
ENDBRANCH   3   8
TORSDOF 5
ENDMDL
MODEL      132
REMARK 921   NORMALIZED FREE ENERGY PREDICTED BY IDOCK:   -4.43 KCAL/MOL
REMARK 922        TOTAL FREE ENERGY PREDICTED BY IDOCK:   -6.72 KCAL/MOL
REMARK 923 INTER-LIGAND FREE ENERGY PREDICTED BY IDOCK:   -5.81 KCAL/MOL
REMARK 924 INTRA-LIGAND FREE ENERGY PREDICTED BY IDOCK:   -0.91 KCAL/MOL
REMARK 927      BINDING AFFINITY PREDICTED BY RF-SCORE:    0.00 PKD
ROOT
HETATM    1  C   UNL     1     -10.237  12.353  63.481  1.00  0.00    -0.339 C  
HETATM    2  C   UNL     1     -11.045  12.104  64.759  1.00  0.00    -0.316 C  
HETATM    3  O   UNL     1     -10.688  13.072  65.777  1.00  0.00    -0.269 OA 
HETATM    4  C   UNL     1     -11.034  10.635  65.211  1.00  0.00     0.161 C  
HETATM    5  C   UNL     1     -12.518  12.429  64.424  1.00  0.00    -0.433 C  
HETATM    6  O   UNL     1     -13.066  13.359  65.246  1.00  0.00    -0.687 OA 
HETATM    7  O   UNL     1     -13.159  11.905  63.523  1.00  0.00    -0.715 OA 
ENDROOT
BRANCH   3   8
HETATM    8  C   UNL     1      -9.713  12.802  66.691  1.00  0.00    -0.252 A  
HETATM    9  C   UNL     1      -9.912  12.152  67.900  1.00  0.00    -0.200 A  
HETATM   10  C   UNL     1      -8.863  12.016  68.806  1.00  0.00     0.079 A  
HETATM   11  C   UNL     1      -7.576  12.467  68.496  1.00  0.00    -0.122 A  
HETATM   12  C   UNL     1      -8.426  13.215  66.346  1.00  0.00     0.407 A  
HETATM   13  C   UNL     1      -7.364  13.060  67.244  1.00  0.00    -0.067 A  
BRANCH  11  14
HETATM   14  C   UNL     1      -6.450  12.408  69.506  1.00  0.00    -0.090 C  
BRANCH  14  15
HETATM   15  C   UNL     1      -6.251  13.698  70.310  1.00  0.00    -0.071 C  
BRANCH  15  16
HETATM   16  N   UNL     1      -7.150  14.755  69.902  1.00  0.00    -0.318 N  
HETATM   17  C   UNL     1      -6.663  15.902  69.310  1.00  0.00    -0.176 C  
HETATM   18  H   UNL     1      -8.154  14.652  70.054  1.00  0.00     0.000 HD 
HETATM   19  O   UNL     1      -5.469  16.132  69.149  1.00  0.00    -0.110 OA 
BRANCH  17  20
HETATM   20  C   UNL     1      -7.682  16.854  68.805  1.00  0.00    -0.247 A  
HETATM   21  C   UNL     1      -8.984  16.436  68.502  1.00  0.00    -0.224 A  
HETATM   22  C   UNL     1      -9.914  17.355  68.013  1.00  0.00    -0.302 A  
HETATM   23  C   UNL     1      -9.546  18.689  67.837  1.00  0.00    -0.310 A  
HETATM   24 CL   UNL     1     -10.697  19.815  67.230  1.00  0.00    -0.564 Cl 
HETATM   25  C   UNL     1      -8.258  19.116  68.153  1.00  0.00    -0.353 A  
HETATM   26  C   UNL     1      -7.324  18.199  68.644  1.00  0.00    -0.295 A  
ENDBRANCH  17  20
ENDBRANCH  15  16
ENDBRANCH  14  15
ENDBRANCH  11  14
ENDBRANCH   3   8
TORSDOF 5
ENDMDL
MODEL      133
REMARK 921   NORMALIZED FREE ENERGY PREDICTED BY IDOCK:   -4.43 KCAL/MOL
REMARK 922        TOTAL FREE ENERGY PREDICTED BY IDOCK:   -6.72 KCAL/MOL
REMARK 923 INTER-LIGAND FREE ENERGY PREDICTED BY IDOCK:   -6.24 KCAL/MOL
REMARK 924 INTRA-LIGAND FREE ENERGY PREDICTED BY IDOCK:   -0.49 KCAL/MOL
REMARK 927      BINDING AFFINITY PREDICTED BY RF-SCORE:    0.00 PKD
ROOT
HETATM    1  C   UNL     1     -10.659  17.959  66.229  1.00  0.00    -0.241 C  
HETATM    2  C   UNL     1      -9.533  18.224  67.233  1.00  0.00    -0.264 C  
HETATM    3  O   UNL     1      -8.366  17.430  66.903  1.00  0.00    -0.214 OA 
HETATM    4  C   UNL     1      -9.992  18.146  68.698  1.00  0.00    -0.409 C  
HETATM    5  C   UNL     1      -9.075  19.683  67.015  1.00  0.00    -0.326 C  
HETATM    6  O   UNL     1      -7.749  19.800  66.753  1.00  0.00    -0.260 OA 
HETATM    7  O   UNL     1      -9.809  20.660  67.079  1.00  0.00    -0.450 OA 
ENDROOT
BRANCH   3   8
HETATM    8  C   UNL     1      -8.175  16.200  67.458  1.00  0.00    -0.150 A  
HETATM    9  C   UNL     1      -7.316  15.926  68.512  1.00  0.00    -0.127 A  
HETATM   10  C   UNL     1      -7.121  14.614  68.937  1.00  0.00    -0.117 A  
HETATM   11  C   UNL     1      -7.830  13.554  68.362  1.00  0.00    -0.143 A  
HETATM   12  C   UNL     1      -8.924  15.161  66.905  1.00  0.00    -0.277 A  
HETATM   13  C   UNL     1      -8.748  13.844  67.345  1.00  0.00    -0.208 A  
BRANCH  11  14
HETATM   14  C   UNL     1      -7.560  12.116  68.751  1.00  0.00    -0.056 C  
BRANCH  14  15
HETATM   15  C   UNL     1      -8.734  11.161  68.503  1.00  0.00    -0.161 C  
BRANCH  15  16
HETATM   16  N   UNL     1      -8.928  10.220  69.585  1.00  0.00    -0.365 N  
HETATM   17  C   UNL     1     -10.143  10.138  70.235  1.00  0.00    -0.071 C  
HETATM   18  H   UNL     1      -8.160   9.612  69.870  1.00  0.00     0.000 HD 
HETATM   19  O   UNL     1     -11.094  10.874  69.997  1.00  0.00    -0.268 OA 
BRANCH  17  20
HETATM   20  C   UNL     1     -10.273   9.046  71.230  1.00  0.00    -0.384 A  
HETATM   21  C   UNL     1     -11.520   8.492  71.545  1.00  0.00    -0.350 A  
HETATM   22  C   UNL     1     -11.609   7.476  72.499  1.00  0.00    -0.352 A  
HETATM   23  C   UNL     1     -10.454   7.012  73.129  1.00  0.00    -0.303 A  
HETATM   24 CL   UNL     1     -10.572   5.763  74.306  1.00  0.00    -0.221 Cl 
HETATM   25  C   UNL     1      -9.208   7.547  72.808  1.00  0.00    -0.208 A  
HETATM   26  C   UNL     1      -9.115   8.563  71.853  1.00  0.00    -0.314 A  
ENDBRANCH  17  20
ENDBRANCH  15  16
ENDBRANCH  14  15
ENDBRANCH  11  14
ENDBRANCH   3   8
TORSDOF 5
ENDMDL
MODEL      134
REMARK 921   NORMALIZED FREE ENERGY PREDICTED BY IDOCK:   -4.39 KCAL/MOL
REMARK 922        TOTAL FREE ENERGY PREDICTED BY IDOCK:   -6.68 KCAL/MOL
REMARK 923 INTER-LIGAND FREE ENERGY PREDICTED BY IDOCK:   -5.83 KCAL/MOL
REMARK 924 INTRA-LIGAND FREE ENERGY PREDICTED BY IDOCK:   -0.85 KCAL/MOL
REMARK 927      BINDING AFFINITY PREDICTED BY RF-SCORE:    0.00 PKD
ROOT
HETATM    1  C   UNL     1     -11.182  17.037  69.973  1.00  0.00     0.549 C  
HETATM    2  C   UNL     1     -10.342  17.298  68.718  1.00  0.00    -0.358 C  
HETATM    3  O   UNL     1     -11.056  16.862  67.534  1.00  0.00    -0.182 OA 
HETATM    4  C   UNL     1      -8.893  16.800  68.839  1.00  0.00    -0.228 C  
HETATM    5  C   UNL     1     -10.245  18.832  68.559  1.00  0.00    -0.344 C  
HETATM    6  O   UNL     1     -10.682  19.279  67.355  1.00  0.00    -0.463 OA 
HETATM    7  O   UNL     1      -9.809  19.594  69.412  1.00  0.00    -0.383 OA 
ENDROOT
BRANCH   3   8
HETATM    8  C   UNL     1     -10.880  15.606  67.033  1.00  0.00    -0.294 A  
HETATM    9  C   UNL     1     -10.033  15.277  65.985  1.00  0.00    -0.344 A  
HETATM   10  C   UNL     1     -10.004  13.977  65.485  1.00  0.00    -0.302 A  
HETATM   11  C   UNL     1     -10.772  12.962  66.066  1.00  0.00    -0.296 A  
HETATM   12  C   UNL     1     -11.616  14.596  67.654  1.00  0.00    -0.383 A  
HETATM   13  C   UNL     1     -11.573  13.284  67.169  1.00  0.00    -0.402 A  
BRANCH  11  14
HETATM   14  C   UNL     1     -10.819  11.568  65.476  1.00  0.00    -0.313 C  
BRANCH  14  15
HETATM   15  C   UNL     1      -9.518  10.771  65.629  1.00  0.00    -0.209 C  
BRANCH  15  16
HETATM   16  N   UNL     1      -9.429  10.085  66.899  1.00  0.00    -0.161 N  
HETATM   17  C   UNL     1      -8.738  10.647  67.954  1.00  0.00    -0.127 C  
HETATM   18  H   UNL     1      -9.880   9.178  67.018  1.00  0.00     0.000 HD 
HETATM   19  O   UNL     1      -8.117  11.701  67.876  1.00  0.00    -0.124 OA 
BRANCH  17  20
HETATM   20  C   UNL     1      -8.830   9.927  69.247  1.00  0.00    -0.178 A  
HETATM   21  C   UNL     1      -7.702   9.727  70.052  1.00  0.00    -0.179 A  
HETATM   22  C   UNL     1      -7.820   9.030  71.256  1.00  0.00    -0.128 A  
HETATM   23  C   UNL     1      -9.064   8.542  71.656  1.00  0.00    -0.229 A  
HETATM   24 CL   UNL     1      -9.202   7.680  73.139  1.00  0.00    -0.243 Cl 
HETATM   25  C   UNL     1     -10.195   8.752  70.869  1.00  0.00    -0.284 A  
HETATM   26  C   UNL     1     -10.080   9.451  69.663  1.00  0.00    -0.218 A  
ENDBRANCH  17  20
ENDBRANCH  15  16
ENDBRANCH  14  15
ENDBRANCH  11  14
ENDBRANCH   3   8
TORSDOF 5
ENDMDL
MODEL      135
REMARK 921   NORMALIZED FREE ENERGY PREDICTED BY IDOCK:   -4.37 KCAL/MOL
REMARK 922        TOTAL FREE ENERGY PREDICTED BY IDOCK:   -6.65 KCAL/MOL
REMARK 923 INTER-LIGAND FREE ENERGY PREDICTED BY IDOCK:   -6.04 KCAL/MOL
REMARK 924 INTRA-LIGAND FREE ENERGY PREDICTED BY IDOCK:   -0.61 KCAL/MOL
REMARK 927      BINDING AFFINITY PREDICTED BY RF-SCORE:    0.00 PKD
ROOT
HETATM    1  C   UNL     1     -10.881  16.610  68.202  1.00  0.00    -0.348 C  
HETATM    2  C   UNL     1     -10.587  15.482  67.208  1.00  0.00    -0.299 C  
HETATM    3  O   UNL     1     -11.708  14.566  67.138  1.00  0.00    -0.377 OA 
HETATM    4  C   UNL     1      -9.211  14.829  67.415  1.00  0.00    -0.200 C  
HETATM    5  C   UNL     1     -10.536  16.128  65.805  1.00  0.00    -0.334 C  
HETATM    6  O   UNL     1     -11.397  15.566  64.920  1.00  0.00    -0.379 OA 
HETATM    7  O   UNL     1      -9.793  17.048  65.489  1.00  0.00    -0.551 OA 
ENDROOT
BRANCH   3   8
HETATM    8  C   UNL     1     -11.757  13.457  67.930  1.00  0.00    -0.361 A  
HETATM    9  C   UNL     1     -11.923  13.467  69.306  1.00  0.00    -0.378 A  
HETATM   10  C   UNL     1     -11.857  12.280  70.032  1.00  0.00    -0.372 A  
HETATM   11  C   UNL     1     -11.691  11.049  69.390  1.00  0.00    -0.394 A  
HETATM   12  C   UNL     1     -11.637  12.233  67.270  1.00  0.00    -0.427 A  
HETATM   13  C   UNL     1     -11.593  11.036  67.993  1.00  0.00    -0.326 A  
BRANCH  11  14
HETATM   14  C   UNL     1     -11.526   9.763  70.172  1.00  0.00    -0.272 C  
BRANCH  14  15
HETATM   15  C   UNL     1     -10.232   9.678  70.989  1.00  0.00    -0.182 C  
BRANCH  15  16
HETATM   16  N   UNL     1      -9.677   8.342  71.020  1.00  0.00    -0.166 N  
HETATM   17  C   UNL     1      -8.515   8.048  70.334  1.00  0.00    -0.130 C  
HETATM   18  H   UNL     1     -10.148   7.611  71.553  1.00  0.00     0.000 HD 
HETATM   19  O   UNL     1      -7.924   8.851  69.621  1.00  0.00    -0.086 OA 
BRANCH  17  20
HETATM   20  C   UNL     1      -7.962   6.689  70.549  1.00  0.00    -0.111 A  
HETATM   21  C   UNL     1      -8.135   5.673  69.601  1.00  0.00    -0.102 A  
HETATM   22  C   UNL     1      -7.615   4.400  69.842  1.00  0.00    -0.050 A  
HETATM   23  C   UNL     1      -6.919   4.147  71.024  1.00  0.00    -0.036 A  
HETATM   24 CL   UNL     1      -6.284   2.574  71.316  1.00  0.00    -0.018 Cl 
HETATM   25  C   UNL     1      -6.728   5.158  71.964  1.00  0.00    -0.052 A  
HETATM   26  C   UNL     1      -7.246   6.434  71.725  1.00  0.00    -0.087 A  
ENDBRANCH  17  20
ENDBRANCH  15  16
ENDBRANCH  14  15
ENDBRANCH  11  14
ENDBRANCH   3   8
TORSDOF 5
ENDMDL
MODEL      136
REMARK 921   NORMALIZED FREE ENERGY PREDICTED BY IDOCK:   -4.37 KCAL/MOL
REMARK 922        TOTAL FREE ENERGY PREDICTED BY IDOCK:   -6.64 KCAL/MOL
REMARK 923 INTER-LIGAND FREE ENERGY PREDICTED BY IDOCK:   -6.18 KCAL/MOL
REMARK 924 INTRA-LIGAND FREE ENERGY PREDICTED BY IDOCK:   -0.46 KCAL/MOL
REMARK 927      BINDING AFFINITY PREDICTED BY RF-SCORE:    0.00 PKD
ROOT
HETATM    1  C   UNL     1      -8.591  11.872  66.962  1.00  0.00    -0.176 C  
HETATM    2  C   UNL     1     -10.121  11.817  67.001  1.00  0.00    -0.209 C  
HETATM    3  O   UNL     1     -10.607  12.221  68.306  1.00  0.00    -0.211 OA 
HETATM    4  C   UNL     1     -10.699  10.499  66.460  1.00  0.00    -0.191 C  
HETATM    5  C   UNL     1     -10.631  12.920  66.047  1.00  0.00    -0.270 C  
HETATM    6  O   UNL     1     -11.471  13.803  66.643  1.00  0.00    -0.320 OA 
HETATM    7  O   UNL     1     -10.335  13.007  64.863  1.00  0.00    -0.314 OA 
ENDROOT
BRANCH   3   8
HETATM    8  C   UNL     1     -10.841  11.300  69.283  1.00  0.00    -0.212 A  
HETATM    9  C   UNL     1      -9.938  10.333  69.701  1.00  0.00    -0.240 A  
HETATM   10  C   UNL     1     -10.317   9.375  70.638  1.00  0.00    -0.349 A  
HETATM   11  C   UNL     1     -11.585   9.402  71.228  1.00  0.00    -0.434 A  
HETATM   12  C   UNL     1     -12.093  11.369  69.896  1.00  0.00    -0.404 A  
HETATM   13  C   UNL     1     -12.469  10.422  70.855  1.00  0.00    -0.478 A  
BRANCH  11  14
HETATM   14  C   UNL     1     -12.040   8.315  72.179  1.00  0.00    -0.425 C  
BRANCH  14  15
HETATM   15  C   UNL     1     -12.333   6.967  71.508  1.00  0.00    -0.379 C  
BRANCH  15  16
HETATM   16  N   UNL     1     -11.160   6.126  71.409  1.00  0.00    -0.280 N  
HETATM   17  C   UNL     1     -10.929   5.132  72.339  1.00  0.00    -0.180 C  
HETATM   18  H   UNL     1     -10.498   6.268  70.646  1.00  0.00     0.000 HD 
HETATM   19  O   UNL     1     -11.640   4.937  73.318  1.00  0.00    -0.336 OA 
BRANCH  17  20
HETATM   20  C   UNL     1      -9.775   4.242  72.062  1.00  0.00    -0.227 A  
HETATM   21  C   UNL     1      -9.771   3.374  70.963  1.00  0.00    -0.216 A  
HETATM   22  C   UNL     1      -8.676   2.537  70.740  1.00  0.00    -0.119 A  
HETATM   23  C   UNL     1      -7.586   2.574  71.610  1.00  0.00    -0.041 A  
HETATM   24 CL   UNL     1      -6.242   1.537  71.332  1.00  0.00    -0.017 Cl 
HETATM   25  C   UNL     1      -7.576   3.447  72.697  1.00  0.00    -0.052 A  
HETATM   26  C   UNL     1      -8.670   4.287  72.921  1.00  0.00    -0.105 A  
ENDBRANCH  17  20
ENDBRANCH  15  16
ENDBRANCH  14  15
ENDBRANCH  11  14
ENDBRANCH   3   8
TORSDOF 5
ENDMDL
MODEL      137
REMARK 921   NORMALIZED FREE ENERGY PREDICTED BY IDOCK:   -4.36 KCAL/MOL
REMARK 922        TOTAL FREE ENERGY PREDICTED BY IDOCK:   -6.64 KCAL/MOL
REMARK 923 INTER-LIGAND FREE ENERGY PREDICTED BY IDOCK:   -5.53 KCAL/MOL
REMARK 924 INTRA-LIGAND FREE ENERGY PREDICTED BY IDOCK:   -1.11 KCAL/MOL
REMARK 927      BINDING AFFINITY PREDICTED BY RF-SCORE:    0.00 PKD
ROOT
HETATM    1  C   UNL     1     -10.516   8.657  69.571  1.00  0.00    -0.222 C  
HETATM    2  C   UNL     1     -10.256   7.343  68.829  1.00  0.00    -0.191 C  
HETATM    3  O   UNL     1      -8.833   7.075  68.760  1.00  0.00    -0.130 OA 
HETATM    4  C   UNL     1     -11.015   7.234  67.497  1.00  0.00    -0.221 C  
HETATM    5  C   UNL     1     -10.813   6.210  69.721  1.00  0.00    -0.353 C  
HETATM    6  O   UNL     1      -9.893   5.261  70.026  1.00  0.00    -0.180 OA 
HETATM    7  O   UNL     1     -11.968   6.141  70.118  1.00  0.00    -0.129 OA 
ENDROOT
BRANCH   3   8
HETATM    8  C   UNL     1      -8.094   7.484  67.690  1.00  0.00    -0.118 A  
HETATM    9  C   UNL     1      -7.894   6.749  66.531  1.00  0.00    -0.104 A  
HETATM   10  C   UNL     1      -7.037   7.220  65.539  1.00  0.00    -0.064 A  
HETATM   11  C   UNL     1      -6.414   8.467  65.653  1.00  0.00    -0.052 A  
HETATM   12  C   UNL     1      -7.517   8.751  67.799  1.00  0.00    -0.093 A  
HETATM   13  C   UNL     1      -6.674   9.237  66.793  1.00  0.00    -0.076 A  
BRANCH  11  14
HETATM   14  C   UNL     1      -5.411   8.949  64.626  1.00  0.00    -0.050 C  
BRANCH  14  15
HETATM   15  C   UNL     1      -6.032   9.659  63.417  1.00  0.00    -0.102 C  
BRANCH  15  16
HETATM   16  N   UNL     1      -7.163  10.488  63.777  1.00  0.00    -0.345 N  
HETATM   17  C   UNL     1      -8.450  10.084  63.485  1.00  0.00    -0.187 C  
HETATM   18  H   UNL     1      -7.007  11.378  64.250  1.00  0.00     0.000 HD 
HETATM   19  O   UNL     1      -8.719   9.062  62.864  1.00  0.00    -0.209 OA 
BRANCH  17  20
HETATM   20  C   UNL     1      -9.535  10.941  64.022  1.00  0.00    -0.298 A  
HETATM   21  C   UNL     1      -9.816  10.986  65.393  1.00  0.00    -0.301 A  
HETATM   22  C   UNL     1     -10.856  11.791  65.865  1.00  0.00    -0.339 A  
HETATM   23  C   UNL     1     -11.606  12.552  64.968  1.00  0.00    -0.349 A  
HETATM   24 CL   UNL     1     -12.888  13.538  65.555  1.00  0.00    -0.489 Cl 
HETATM   25  C   UNL     1     -11.320  12.525  63.604  1.00  0.00    -0.555 A  
HETATM   26  C   UNL     1     -10.280  11.722  63.129  1.00  0.00    -0.376 A  
ENDBRANCH  17  20
ENDBRANCH  15  16
ENDBRANCH  14  15
ENDBRANCH  11  14
ENDBRANCH   3   8
TORSDOF 5
ENDMDL
MODEL      138
REMARK 921   NORMALIZED FREE ENERGY PREDICTED BY IDOCK:   -4.35 KCAL/MOL
REMARK 922        TOTAL FREE ENERGY PREDICTED BY IDOCK:   -6.62 KCAL/MOL
REMARK 923 INTER-LIGAND FREE ENERGY PREDICTED BY IDOCK:   -5.82 KCAL/MOL
REMARK 924 INTRA-LIGAND FREE ENERGY PREDICTED BY IDOCK:   -0.79 KCAL/MOL
REMARK 927      BINDING AFFINITY PREDICTED BY RF-SCORE:    0.00 PKD
ROOT
HETATM    1  C   UNL     1     -11.311  15.408  71.750  1.00  0.00    -0.457 C  
HETATM    2  C   UNL     1     -12.510  14.604  71.234  1.00  0.00    -0.339 C  
HETATM    3  O   UNL     1     -12.109  13.247  70.918  1.00  0.00    -0.321 OA 
HETATM    4  C   UNL     1     -13.306  15.331  70.138  1.00  0.00     0.195 C  
HETATM    5  C   UNL     1     -13.484  14.445  72.423  1.00  0.00    -0.462 C  
HETATM    6  O   UNL     1     -13.790  13.153  72.701  1.00  0.00    -0.691 OA 
HETATM    7  O   UNL     1     -13.960  15.374  73.061  1.00  0.00    -0.399 OA 
ENDROOT
BRANCH   3   8
HETATM    8  C   UNL     1     -11.714  12.910  69.657  1.00  0.00    -0.299 A  
HETATM    9  C   UNL     1     -10.879  13.670  68.853  1.00  0.00    -0.264 A  
HETATM   10  C   UNL     1     -10.619  13.281  67.541  1.00  0.00    -0.251 A  
HETATM   11  C   UNL     1     -11.135  12.087  67.026  1.00  0.00    -0.351 A  
HETATM   12  C   UNL     1     -12.198  11.693  69.174  1.00  0.00    -0.201 A  
HETATM   13  C   UNL     1     -11.921  11.287  67.865  1.00  0.00    -0.080 A  
BRANCH  11  14
HETATM   14  C   UNL     1     -10.937  11.698  65.576  1.00  0.00    -0.327 C  
BRANCH  14  15
HETATM   15  C   UNL     1      -9.665  10.885  65.306  1.00  0.00    -0.246 C  
BRANCH  15  16
HETATM   16  N   UNL     1      -9.327   9.997  66.398  1.00  0.00    -0.162 N  
HETATM   17  C   UNL     1      -8.282  10.297  67.249  1.00  0.00    -0.121 C  
HETATM   18  H   UNL     1      -9.865   9.143  66.540  1.00  0.00     0.000 HD 
HETATM   19  O   UNL     1      -7.548  11.269  67.110  1.00  0.00    -0.121 OA 
BRANCH  17  20
HETATM   20  C   UNL     1      -8.115   9.393  68.413  1.00  0.00    -0.109 A  
HETATM   21  C   UNL     1      -7.389   8.200  68.311  1.00  0.00    -0.095 A  
HETATM   22  C   UNL     1      -7.265   7.364  69.422  1.00  0.00    -0.083 A  
HETATM   23  C   UNL     1      -7.858   7.724  70.633  1.00  0.00    -0.096 A  
HETATM   24 CL   UNL     1      -7.704   6.687  71.996  1.00  0.00    -0.096 Cl 
HETATM   25  C   UNL     1      -8.567   8.919  70.746  1.00  0.00    -0.236 A  
HETATM   26  C   UNL     1      -8.692   9.759  69.636  1.00  0.00    -0.211 A  
ENDBRANCH  17  20
ENDBRANCH  15  16
ENDBRANCH  14  15
ENDBRANCH  11  14
ENDBRANCH   3   8
TORSDOF 5
ENDMDL
MODEL      139
REMARK 921   NORMALIZED FREE ENERGY PREDICTED BY IDOCK:   -4.33 KCAL/MOL
REMARK 922        TOTAL FREE ENERGY PREDICTED BY IDOCK:   -6.60 KCAL/MOL
REMARK 923 INTER-LIGAND FREE ENERGY PREDICTED BY IDOCK:   -6.11 KCAL/MOL
REMARK 924 INTRA-LIGAND FREE ENERGY PREDICTED BY IDOCK:   -0.49 KCAL/MOL
REMARK 927      BINDING AFFINITY PREDICTED BY RF-SCORE:    0.00 PKD
ROOT
HETATM    1  C   UNL     1     -11.267   8.857  71.668  1.00  0.00    -0.415 C  
HETATM    2  C   UNL     1     -10.621   7.638  71.003  1.00  0.00    -0.217 C  
HETATM    3  O   UNL     1      -9.288   7.965  70.537  1.00  0.00    -0.161 OA 
HETATM    4  C   UNL     1     -11.531   6.951  69.972  1.00  0.00    -0.328 C  
HETATM    5  C   UNL     1     -10.389   6.594  72.118  1.00  0.00    -0.200 C  
HETATM    6  O   UNL     1      -9.098   6.189  72.218  1.00  0.00    -0.138 OA 
HETATM    7  O   UNL     1     -11.265   6.146  72.845  1.00  0.00    -0.256 OA 
ENDROOT
BRANCH   3   8
HETATM    8  C   UNL     1      -9.078   8.403  69.264  1.00  0.00    -0.150 A  
HETATM    9  C   UNL     1      -9.236   7.635  68.120  1.00  0.00    -0.138 A  
HETATM   10  C   UNL     1      -8.897   8.153  66.872  1.00  0.00    -0.145 A  
HETATM   11  C   UNL     1      -8.457   9.474  66.733  1.00  0.00    -0.129 A  
HETATM   12  C   UNL     1      -8.686   9.737  69.137  1.00  0.00    -0.155 A  
HETATM   13  C   UNL     1      -8.367  10.268  67.882  1.00  0.00    -0.114 A  
BRANCH  11  14
HETATM   14  C   UNL     1      -8.000  10.020  65.396  1.00  0.00    -0.141 C  
BRANCH  14  15
HETATM   15  C   UNL     1      -9.139  10.456  64.466  1.00  0.00    -0.229 C  
BRANCH  15  16
HETATM   16  N   UNL     1      -9.377  11.882  64.506  1.00  0.00    -0.425 N  
HETATM   17  C   UNL     1     -10.484  12.392  65.155  1.00  0.00    -0.292 C  
HETATM   18  H   UNL     1      -8.722  12.517  64.050  1.00  0.00     0.000 HD 
HETATM   19  O   UNL     1     -11.350  11.695  65.673  1.00  0.00    -0.274 OA 
BRANCH  17  20
HETATM   20  C   UNL     1     -10.554  13.870  65.254  1.00  0.00    -0.372 A  
HETATM   21  C   UNL     1     -11.492  14.606  64.520  1.00  0.00    -0.340 A  
HETATM   22  C   UNL     1     -11.520  15.998  64.624  1.00  0.00    -0.252 A  
HETATM   23  C   UNL     1     -10.619  16.650  65.465  1.00  0.00    -0.258 A  
HETATM   24 CL   UNL     1     -10.657  18.366  65.585  1.00  0.00    -0.304 Cl 
HETATM   25  C   UNL     1      -9.694  15.922  66.212  1.00  0.00    -0.332 A  
HETATM   26  C   UNL     1      -9.664  14.529  66.111  1.00  0.00    -0.340 A  
ENDBRANCH  17  20
ENDBRANCH  15  16
ENDBRANCH  14  15
ENDBRANCH  11  14
ENDBRANCH   3   8
TORSDOF 5
ENDMDL
MODEL      140
REMARK 921   NORMALIZED FREE ENERGY PREDICTED BY IDOCK:   -4.33 KCAL/MOL
REMARK 922        TOTAL FREE ENERGY PREDICTED BY IDOCK:   -6.59 KCAL/MOL
REMARK 923 INTER-LIGAND FREE ENERGY PREDICTED BY IDOCK:   -5.82 KCAL/MOL
REMARK 924 INTRA-LIGAND FREE ENERGY PREDICTED BY IDOCK:   -0.78 KCAL/MOL
REMARK 927      BINDING AFFINITY PREDICTED BY RF-SCORE:    0.00 PKD
ROOT
HETATM    1  C   UNL     1     -12.327  14.317  66.080  1.00  0.00    -0.416 C  
HETATM    2  C   UNL     1     -11.144  14.145  67.037  1.00  0.00    -0.307 C  
HETATM    3  O   UNL     1      -9.971  13.693  66.314  1.00  0.00    -0.285 OA 
HETATM    4  C   UNL     1     -11.492  13.342  68.301  1.00  0.00    -0.351 C  
HETATM    5  C   UNL     1     -10.763  15.559  67.532  1.00  0.00    -0.300 C  
HETATM    6  O   UNL     1      -9.465  15.880  67.302  1.00  0.00    -0.210 OA 
HETATM    7  O   UNL     1     -11.530  16.330  68.092  1.00  0.00    -0.309 OA 
ENDROOT
BRANCH   3   8
HETATM    8  C   UNL     1      -9.691  12.364  66.196  1.00  0.00    -0.246 A  
HETATM    9  C   UNL     1     -10.371  11.475  65.379  1.00  0.00    -0.322 A  
HETATM   10  C   UNL     1     -10.067  10.116  65.411  1.00  0.00    -0.342 A  
HETATM   11  C   UNL     1      -9.030   9.625  66.211  1.00  0.00    -0.184 A  
HETATM   12  C   UNL     1      -8.623  11.899  66.965  1.00  0.00    -0.176 A  
HETATM   13  C   UNL     1      -8.299  10.538  66.982  1.00  0.00    -0.128 A  
BRANCH  11  14
HETATM   14  C   UNL     1      -8.749   8.142  66.324  1.00  0.00    -0.172 C  
BRANCH  14  15
HETATM   15  C   UNL     1      -7.687   7.775  67.367  1.00  0.00    -0.113 C  
BRANCH  15  16
HETATM   16  N   UNL     1      -8.212   6.946  68.431  1.00  0.00    -0.120 N  
HETATM   17  C   UNL     1      -8.822   7.517  69.530  1.00  0.00    -0.137 C  
HETATM   18  H   UNL     1      -8.131   5.932  68.368  1.00  0.00     0.000 HD 
HETATM   19  O   UNL     1      -8.903   8.727  69.712  1.00  0.00    -0.135 OA 
BRANCH  17  20
HETATM   20  C   UNL     1      -9.447   6.573  70.488  1.00  0.00    -0.173 A  
HETATM   21  C   UNL     1     -10.516   6.964  71.304  1.00  0.00    -0.228 A  
HETATM   22  C   UNL     1     -11.071   6.054  72.207  1.00  0.00    -0.324 A  
HETATM   23  C   UNL     1     -10.563   4.757  72.286  1.00  0.00    -0.157 A  
HETATM   24 CL   UNL     1     -11.249   3.643  73.404  1.00  0.00    -0.302 Cl 
HETATM   25  C   UNL     1      -9.511   4.356  71.464  1.00  0.00    -0.215 A  
HETATM   26  C   UNL     1      -8.955   5.264  70.558  1.00  0.00    -0.162 A  
ENDBRANCH  17  20
ENDBRANCH  15  16
ENDBRANCH  14  15
ENDBRANCH  11  14
ENDBRANCH   3   8
TORSDOF 5
ENDMDL
MODEL      141
REMARK 921   NORMALIZED FREE ENERGY PREDICTED BY IDOCK:   -4.32 KCAL/MOL
REMARK 922        TOTAL FREE ENERGY PREDICTED BY IDOCK:   -6.59 KCAL/MOL
REMARK 923 INTER-LIGAND FREE ENERGY PREDICTED BY IDOCK:   -5.59 KCAL/MOL
REMARK 924 INTRA-LIGAND FREE ENERGY PREDICTED BY IDOCK:   -1.00 KCAL/MOL
REMARK 927      BINDING AFFINITY PREDICTED BY RF-SCORE:    0.00 PKD
ROOT
HETATM    1  C   UNL     1     -13.483   7.230  71.460  1.00  0.00    -0.439 C  
HETATM    2  C   UNL     1     -11.953   7.151  71.494  1.00  0.00    -0.326 C  
HETATM    3  O   UNL     1     -11.388   8.447  71.815  1.00  0.00    -0.264 OA 
HETATM    4  C   UNL     1     -11.350   6.453  70.265  1.00  0.00    -0.468 C  
HETATM    5  C   UNL     1     -11.581   6.265  72.704  1.00  0.00    -0.175 C  
HETATM    6  O   UNL     1     -10.744   6.873  73.582  1.00  0.00    -0.343 OA 
HETATM    7  O   UNL     1     -11.973   5.118  72.873  1.00  0.00    -0.218 OA 
ENDROOT
BRANCH   3   8
HETATM    8  C   UNL     1     -11.028   9.318  70.829  1.00  0.00    -0.284 A  
HETATM    9  C   UNL     1     -11.907  10.104  70.100  1.00  0.00    -0.299 A  
HETATM   10  C   UNL     1     -11.442  10.885  69.044  1.00  0.00    -0.371 A  
HETATM   11  C   UNL     1     -10.079  10.949  68.738  1.00  0.00    -0.205 A  
HETATM   12  C   UNL     1      -9.660   9.406  70.566  1.00  0.00    -0.330 A  
HETATM   13  C   UNL     1      -9.187  10.207  69.522  1.00  0.00    -0.223 A  
BRANCH  11  14
HETATM   14  C   UNL     1      -9.572  11.721  67.538  1.00  0.00    -0.179 C  
BRANCH  14  15
HETATM   15  C   UNL     1      -9.681  10.969  66.207  1.00  0.00    -0.207 C  
BRANCH  15  16
HETATM   16  N   UNL     1      -8.884   9.761  66.181  1.00  0.00    -0.138 N  
HETATM   17  C   UNL     1      -9.472   8.528  66.381  1.00  0.00    -0.232 C  
HETATM   18  H   UNL     1      -7.880   9.821  66.013  1.00  0.00     0.000 HD 
HETATM   19  O   UNL     1     -10.659   8.375  66.650  1.00  0.00    -0.262 OA 
BRANCH  17  20
HETATM   20  C   UNL     1      -8.589   7.351  66.193  1.00  0.00    -0.154 A  
HETATM   21  C   UNL     1      -8.449   6.379  67.192  1.00  0.00    -0.112 A  
HETATM   22  C   UNL     1      -7.597   5.292  66.990  1.00  0.00    -0.092 A  
HETATM   23  C   UNL     1      -6.894   5.174  65.791  1.00  0.00    -0.061 A  
HETATM   24 CL   UNL     1      -5.842   3.834  65.550  1.00  0.00    -0.022 Cl 
HETATM   25  C   UNL     1      -7.042   6.129  64.786  1.00  0.00    -0.060 A  
HETATM   26  C   UNL     1      -7.895   7.218  64.984  1.00  0.00    -0.125 A  
ENDBRANCH  17  20
ENDBRANCH  15  16
ENDBRANCH  14  15
ENDBRANCH  11  14
ENDBRANCH   3   8
TORSDOF 5
ENDMDL
MODEL      142
REMARK 921   NORMALIZED FREE ENERGY PREDICTED BY IDOCK:   -4.31 KCAL/MOL
REMARK 922        TOTAL FREE ENERGY PREDICTED BY IDOCK:   -6.57 KCAL/MOL
REMARK 923 INTER-LIGAND FREE ENERGY PREDICTED BY IDOCK:   -5.77 KCAL/MOL
REMARK 924 INTRA-LIGAND FREE ENERGY PREDICTED BY IDOCK:   -0.80 KCAL/MOL
REMARK 927      BINDING AFFINITY PREDICTED BY RF-SCORE:    0.00 PKD
ROOT
HETATM    1  C   UNL     1     -12.056   5.705  72.581  1.00  0.00    -0.041 C  
HETATM    2  C   UNL     1     -10.739   6.047  71.877  1.00  0.00    -0.234 C  
HETATM    3  O   UNL     1     -10.254   7.342  72.315  1.00  0.00    -0.189 OA 
HETATM    4  C   UNL     1     -10.788   5.840  70.355  1.00  0.00    -0.360 C  
HETATM    5  C   UNL     1      -9.682   5.049  72.402  1.00  0.00    -0.151 C  
HETATM    6  O   UNL     1      -8.592   5.650  72.941  1.00  0.00    -0.122 OA 
HETATM    7  O   UNL     1      -9.783   3.831  72.337  1.00  0.00    -0.135 OA 
ENDROOT
BRANCH   3   8
HETATM    8  C   UNL     1     -10.574   8.477  71.631  1.00  0.00    -0.283 A  
HETATM    9  C   UNL     1     -11.782   9.151  71.726  1.00  0.00    -0.456 A  
HETATM   10  C   UNL     1     -12.043  10.247  70.906  1.00  0.00    -0.468 A  
HETATM   11  C   UNL     1     -11.076  10.733  70.020  1.00  0.00    -0.327 A  
HETATM   12  C   UNL     1      -9.582   8.977  70.786  1.00  0.00    -0.308 A  
HETATM   13  C   UNL     1      -9.832  10.091  69.977  1.00  0.00    -0.247 A  
BRANCH  11  14
HETATM   14  C   UNL     1     -11.378  11.863  69.059  1.00  0.00    -0.337 C  
BRANCH  14  15
HETATM   15  C   UNL     1     -11.777  11.409  67.650  1.00  0.00    -0.168 C  
BRANCH  15  16
HETATM   16  N   UNL     1     -10.644  11.290  66.759  1.00  0.00    -0.249 N  
HETATM   17  C   UNL     1     -10.144  10.048  66.421  1.00  0.00    -0.241 C  
HETATM   18  H   UNL     1     -10.209  12.130  66.378  1.00  0.00     0.000 HD 
HETATM   19  O   UNL     1     -10.568   8.994  66.884  1.00  0.00    -0.248 OA 
BRANCH  17  20
HETATM   20  C   UNL     1      -9.074  10.037  65.394  1.00  0.00    -0.235 A  
HETATM   21  C   UNL     1      -9.371  10.169  64.031  1.00  0.00    -0.339 A  
HETATM   22  C   UNL     1      -8.340  10.139  63.089  1.00  0.00    -0.171 A  
HETATM   23  C   UNL     1      -7.019   9.985  63.509  1.00  0.00    -0.131 A  
HETATM   24 CL   UNL     1      -5.756   9.944  62.342  1.00  0.00    -0.090 Cl 
HETATM   25  C   UNL     1      -6.716   9.871  64.865  1.00  0.00    -0.123 A  
HETATM   26  C   UNL     1      -7.744   9.902  65.811  1.00  0.00    -0.112 A  
ENDBRANCH  17  20
ENDBRANCH  15  16
ENDBRANCH  14  15
ENDBRANCH  11  14
ENDBRANCH   3   8
TORSDOF 5
ENDMDL
MODEL      143
REMARK 921   NORMALIZED FREE ENERGY PREDICTED BY IDOCK:   -4.30 KCAL/MOL
REMARK 922        TOTAL FREE ENERGY PREDICTED BY IDOCK:   -6.56 KCAL/MOL
REMARK 923 INTER-LIGAND FREE ENERGY PREDICTED BY IDOCK:   -5.34 KCAL/MOL
REMARK 924 INTRA-LIGAND FREE ENERGY PREDICTED BY IDOCK:   -1.22 KCAL/MOL
REMARK 927      BINDING AFFINITY PREDICTED BY RF-SCORE:    0.00 PKD
ROOT
HETATM    1  C   UNL     1     -11.274   7.831  73.014  1.00  0.00    -0.380 C  
HETATM    2  C   UNL     1     -11.907   8.007  71.630  1.00  0.00    -0.289 C  
HETATM    3  O   UNL     1     -12.031   6.723  70.966  1.00  0.00    -0.352 OA 
HETATM    4  C   UNL     1     -11.254   9.121  70.797  1.00  0.00    -0.336 C  
HETATM    5  C   UNL     1     -13.366   8.458  71.862  1.00  0.00    -0.357 C  
HETATM    6  O   UNL     1     -14.282   7.652  71.267  1.00  0.00    -0.381 OA 
HETATM    7  O   UNL     1     -13.696   9.447  72.501  1.00  0.00    -0.448 OA 
ENDROOT
BRANCH   3   8
HETATM    8  C   UNL     1     -11.051   6.266  70.137  1.00  0.00    -0.377 A  
HETATM    9  C   UNL     1      -9.883   5.644  70.550  1.00  0.00    -0.249 A  
HETATM   10  C   UNL     1      -8.899   5.306  69.623  1.00  0.00    -0.126 A  
HETATM   11  C   UNL     1      -9.091   5.521  68.255  1.00  0.00    -0.113 A  
HETATM   12  C   UNL     1     -11.278   6.445  68.771  1.00  0.00    -0.358 A  
HETATM   13  C   UNL     1     -10.303   6.085  67.835  1.00  0.00    -0.255 A  
BRANCH  11  14
HETATM   14  C   UNL     1      -7.996   5.242  67.247  1.00  0.00    -0.101 C  
BRANCH  14  15
HETATM   15  C   UNL     1      -6.712   6.050  67.467  1.00  0.00    -0.058 C  
BRANCH  15  16
HETATM   16  N   UNL     1      -6.972   7.438  67.784  1.00  0.00    -0.073 N  
HETATM   17  C   UNL     1      -7.130   8.370  66.778  1.00  0.00    -0.074 C  
HETATM   18  H   UNL     1      -7.039   7.730  68.759  1.00  0.00     0.000 HD 
HETATM   19  O   UNL     1      -7.002   8.114  65.586  1.00  0.00    -0.064 OA 
BRANCH  17  20
HETATM   20  C   UNL     1      -7.532   9.730  67.213  1.00  0.00    -0.088 A  
HETATM   21  C   UNL     1      -8.604   9.927  68.092  1.00  0.00    -0.118 A  
HETATM   22  C   UNL     1      -8.966  11.222  68.469  1.00  0.00    -0.166 A  
HETATM   23  C   UNL     1      -8.254  12.315  67.973  1.00  0.00    -0.163 A  
HETATM   24 CL   UNL     1      -8.709  13.907  68.438  1.00  0.00    -0.181 Cl 
HETATM   25  C   UNL     1      -7.175  12.125  67.111  1.00  0.00    -0.117 A  
HETATM   26  C   UNL     1      -6.809  10.830  66.733  1.00  0.00    -0.115 A  
ENDBRANCH  17  20
ENDBRANCH  15  16
ENDBRANCH  14  15
ENDBRANCH  11  14
ENDBRANCH   3   8
TORSDOF 5
ENDMDL
MODEL      144
REMARK 921   NORMALIZED FREE ENERGY PREDICTED BY IDOCK:   -4.27 KCAL/MOL
REMARK 922        TOTAL FREE ENERGY PREDICTED BY IDOCK:   -6.52 KCAL/MOL
REMARK 923 INTER-LIGAND FREE ENERGY PREDICTED BY IDOCK:   -5.93 KCAL/MOL
REMARK 924 INTRA-LIGAND FREE ENERGY PREDICTED BY IDOCK:   -0.60 KCAL/MOL
REMARK 927      BINDING AFFINITY PREDICTED BY RF-SCORE:    0.00 PKD
ROOT
HETATM    1  C   UNL     1     -10.166   4.996  69.095  1.00  0.00    -0.227 C  
HETATM    2  C   UNL     1      -8.956   5.859  68.726  1.00  0.00    -0.117 C  
HETATM    3  O   UNL     1      -8.747   6.888  69.726  1.00  0.00    -0.140 OA 
HETATM    4  C   UNL     1      -8.975   6.348  67.269  1.00  0.00    -0.107 C  
HETATM    5  C   UNL     1      -7.710   4.953  68.847  1.00  0.00    -0.073 C  
HETATM    6  O   UNL     1      -6.763   5.445  69.686  1.00  0.00    -0.050 OA 
HETATM    7  O   UNL     1      -7.556   3.898  68.247  1.00  0.00    -0.065 OA 
ENDROOT
BRANCH   3   8
HETATM    8  C   UNL     1      -9.302   8.125  69.585  1.00  0.00    -0.159 A  
HETATM    9  C   UNL     1     -10.644   8.422  69.766  1.00  0.00    -0.221 A  
HETATM   10  C   UNL     1     -11.124   9.702  69.497  1.00  0.00    -0.198 A  
HETATM   11  C   UNL     1     -10.261  10.730  69.105  1.00  0.00    -0.229 A  
HETATM   12  C   UNL     1      -8.420   9.151  69.240  1.00  0.00    -0.132 A  
HETATM   13  C   UNL     1      -8.895  10.443  68.991  1.00  0.00    -0.176 A  
BRANCH  11  14
HETATM   14  C   UNL     1     -10.781  12.100  68.722  1.00  0.00    -0.252 C  
BRANCH  14  15
HETATM   15  C   UNL     1     -10.319  12.592  67.346  1.00  0.00    -0.216 C  
BRANCH  15  16
HETATM   16  N   UNL     1     -10.052  14.014  67.322  1.00  0.00    -0.247 N  
HETATM   17  C   UNL     1     -11.070  14.916  67.089  1.00  0.00    -0.332 C  
HETATM   18  H   UNL     1      -9.103  14.353  67.478  1.00  0.00     0.000 HD 
HETATM   19  O   UNL     1     -12.223  14.589  66.830  1.00  0.00    -0.376 OA 
BRANCH  17  20
HETATM   20  C   UNL     1     -10.711  16.348  67.226  1.00  0.00    -0.257 A  
HETATM   21  C   UNL     1     -10.583  16.950  68.484  1.00  0.00    -0.367 A  
HETATM   22  C   UNL     1     -10.260  18.306  68.578  1.00  0.00    -0.402 A  
HETATM   23  C   UNL     1     -10.059  19.053  67.417  1.00  0.00    -0.370 A  
HETATM   24 CL   UNL     1      -9.665  20.723  67.540  1.00  0.00    -0.539 Cl 
HETATM   25  C   UNL     1     -10.168  18.456  66.162  1.00  0.00    -0.408 A  
HETATM   26  C   UNL     1     -10.490  17.099  66.065  1.00  0.00    -0.271 A  
ENDBRANCH  17  20
ENDBRANCH  15  16
ENDBRANCH  14  15
ENDBRANCH  11  14
ENDBRANCH   3   8
TORSDOF 5
ENDMDL
MODEL      145
REMARK 921   NORMALIZED FREE ENERGY PREDICTED BY IDOCK:   -4.25 KCAL/MOL
REMARK 922        TOTAL FREE ENERGY PREDICTED BY IDOCK:   -6.49 KCAL/MOL
REMARK 923 INTER-LIGAND FREE ENERGY PREDICTED BY IDOCK:   -5.34 KCAL/MOL
REMARK 924 INTRA-LIGAND FREE ENERGY PREDICTED BY IDOCK:   -1.16 KCAL/MOL
REMARK 927      BINDING AFFINITY PREDICTED BY RF-SCORE:    0.00 PKD
ROOT
HETATM    1  C   UNL     1     -11.518  14.246  66.811  1.00  0.00    -0.380 C  
HETATM    2  C   UNL     1     -11.175  13.752  65.402  1.00  0.00    -0.302 C  
HETATM    3  O   UNL     1     -11.704  12.419  65.192  1.00  0.00    -0.355 OA 
HETATM    4  C   UNL     1      -9.695  13.942  65.032  1.00  0.00     0.099 C  
HETATM    5  C   UNL     1     -11.969  14.636  64.415  1.00  0.00    -0.437 C  
HETATM    6  O   UNL     1     -12.764  13.927  63.574  1.00  0.00    -0.797 OA 
HETATM    7  O   UNL     1     -11.899  15.856  64.362  1.00  0.00    -0.332 OA 
ENDROOT
BRANCH   3   8
HETATM    8  C   UNL     1     -10.944  11.315  65.445  1.00  0.00    -0.132 A  
HETATM    9  C   UNL     1     -11.041  10.524  66.579  1.00  0.00     0.050 A  
HETATM   10  C   UNL     1     -10.146   9.477  66.786  1.00  0.00    -0.312 A  
HETATM   11  C   UNL     1      -9.176   9.156  65.831  1.00  0.00    -0.286 A  
HETATM   12  C   UNL     1     -10.013  10.980  64.461  1.00  0.00    -0.366 A  
HETATM   13  C   UNL     1      -9.127   9.914  64.654  1.00  0.00    -0.288 A  
BRANCH  11  14
HETATM   14  C   UNL     1      -8.140   8.081  66.083  1.00  0.00    -0.111 C  
BRANCH  14  15
HETATM   15  C   UNL     1      -7.040   8.480  67.074  1.00  0.00    -0.075 C  
BRANCH  15  16
HETATM   16  N   UNL     1      -7.222   9.814  67.603  1.00  0.00    -0.088 N  
HETATM   17  C   UNL     1      -6.623  10.898  66.995  1.00  0.00    -0.090 C  
HETATM   18  H   UNL     1      -7.798   9.955  68.433  1.00  0.00     0.000 HD 
HETATM   19  O   UNL     1      -5.866  10.808  66.034  1.00  0.00    -0.111 OA 
BRANCH  17  20
HETATM   20  C   UNL     1      -6.990  12.230  67.535  1.00  0.00    -0.142 A  
HETATM   21  C   UNL     1      -8.268  12.480  68.051  1.00  0.00    -0.166 A  
HETATM   22  C   UNL     1      -8.586  13.749  68.537  1.00  0.00    -0.122 A  
HETATM   23  C   UNL     1      -7.627  14.762  68.514  1.00  0.00    -0.120 A  
HETATM   24 CL   UNL     1      -8.028  16.325  69.111  1.00  0.00    -0.238 Cl 
HETATM   25  C   UNL     1      -6.348  14.516  68.018  1.00  0.00    -0.162 A  
HETATM   26  C   UNL     1      -6.026  13.246  67.532  1.00  0.00    -0.073 A  
ENDBRANCH  17  20
ENDBRANCH  15  16
ENDBRANCH  14  15
ENDBRANCH  11  14
ENDBRANCH   3   8
TORSDOF 5
ENDMDL
MODEL      146
REMARK 921   NORMALIZED FREE ENERGY PREDICTED BY IDOCK:   -4.24 KCAL/MOL
REMARK 922        TOTAL FREE ENERGY PREDICTED BY IDOCK:   -6.48 KCAL/MOL
REMARK 923 INTER-LIGAND FREE ENERGY PREDICTED BY IDOCK:   -5.28 KCAL/MOL
REMARK 924 INTRA-LIGAND FREE ENERGY PREDICTED BY IDOCK:   -1.21 KCAL/MOL
REMARK 927      BINDING AFFINITY PREDICTED BY RF-SCORE:    0.00 PKD
ROOT
HETATM    1  C   UNL     1      -8.736   9.464  63.146  1.00  0.00    -0.222 C  
HETATM    2  C   UNL     1      -7.619   9.067  64.116  1.00  0.00    -0.118 C  
HETATM    3  O   UNL     1      -7.975   7.852  64.824  1.00  0.00    -0.128 OA 
HETATM    4  C   UNL     1      -7.135  10.229  64.998  1.00  0.00    -0.111 C  
HETATM    5  C   UNL     1      -6.403   8.661  63.253  1.00  0.00    -0.086 C  
HETATM    6  O   UNL     1      -5.947   7.411  63.516  1.00  0.00    -0.047 OA 
HETATM    7  O   UNL     1      -5.872   9.380  62.418  1.00  0.00    -0.089 OA 
ENDROOT
BRANCH   3   8
HETATM    8  C   UNL     1      -8.604   7.905  66.032  1.00  0.00    -0.150 A  
HETATM    9  C   UNL     1      -9.973   8.037  66.213  1.00  0.00    -0.116 A  
HETATM   10  C   UNL     1     -10.503   8.182  67.493  1.00  0.00    -0.326 A  
HETATM   11  C   UNL     1      -9.683   8.131  68.625  1.00  0.00    -0.158 A  
HETATM   12  C   UNL     1      -7.778   7.805  67.153  1.00  0.00    -0.105 A  
HETATM   13  C   UNL     1      -8.310   7.928  68.441  1.00  0.00    -0.124 A  
BRANCH  11  14
HETATM   14  C   UNL     1     -10.233   8.379  70.014  1.00  0.00    -0.202 C  
BRANCH  14  15
HETATM   15  C   UNL     1     -10.166   9.840  70.472  1.00  0.00    -0.255 C  
BRANCH  15  16
HETATM   16  N   UNL     1     -10.679  10.761  69.481  1.00  0.00    -0.286 N  
HETATM   17  C   UNL     1      -9.817  11.504  68.699  1.00  0.00    -0.177 C  
HETATM   18  H   UNL     1     -11.687  10.861  69.357  1.00  0.00     0.000 HD 
HETATM   19  O   UNL     1      -8.598  11.489  68.827  1.00  0.00    -0.139 OA 
BRANCH  17  20
HETATM   20  C   UNL     1     -10.447  12.307  67.623  1.00  0.00    -0.230 A  
HETATM   21  C   UNL     1     -11.581  13.092  67.867  1.00  0.00    -0.385 A  
HETATM   22  C   UNL     1     -12.158  13.823  66.827  1.00  0.00    -0.460 A  
HETATM   23  C   UNL     1     -11.599  13.775  65.550  1.00  0.00    -0.326 A  
HETATM   24 CL   UNL     1     -12.319  14.675  64.273  1.00  0.00    -0.476 Cl 
HETATM   25  C   UNL     1     -10.460  13.009  65.304  1.00  0.00    -0.318 A  
HETATM   26  C   UNL     1      -9.879  12.277  66.343  1.00  0.00    -0.242 A  
ENDBRANCH  17  20
ENDBRANCH  15  16
ENDBRANCH  14  15
ENDBRANCH  11  14
ENDBRANCH   3   8
TORSDOF 5
ENDMDL
MODEL      147
REMARK 921   NORMALIZED FREE ENERGY PREDICTED BY IDOCK:   -4.23 KCAL/MOL
REMARK 922        TOTAL FREE ENERGY PREDICTED BY IDOCK:   -6.47 KCAL/MOL
REMARK 923 INTER-LIGAND FREE ENERGY PREDICTED BY IDOCK:   -5.91 KCAL/MOL
REMARK 924 INTRA-LIGAND FREE ENERGY PREDICTED BY IDOCK:   -0.55 KCAL/MOL
REMARK 927      BINDING AFFINITY PREDICTED BY RF-SCORE:    0.00 PKD
ROOT
HETATM    1  C   UNL     1      -9.819   4.276  67.516  1.00  0.00    -0.162 C  
HETATM    2  C   UNL     1      -9.536   5.245  68.668  1.00  0.00    -0.136 C  
HETATM    3  O   UNL     1     -10.575   6.253  68.746  1.00  0.00    -0.205 OA 
HETATM    4  C   UNL     1      -8.095   5.779  68.678  1.00  0.00    -0.101 C  
HETATM    5  C   UNL     1      -9.692   4.437  69.977  1.00  0.00    -0.216 C  
HETATM    6  O   UNL     1     -10.591   4.975  70.839  1.00  0.00    -0.188 OA 
HETATM    7  O   UNL     1      -9.070   3.418  70.244  1.00  0.00    -0.102 OA 
ENDROOT
BRANCH   3   8
HETATM    8  C   UNL     1     -10.443   7.446  68.099  1.00  0.00    -0.193 A  
HETATM    9  C   UNL     1     -10.329   7.600  66.726  1.00  0.00    -0.343 A  
HETATM   10  C   UNL     1     -10.097   8.859  66.176  1.00  0.00    -0.209 A  
HETATM   11  C   UNL     1     -10.040  10.000  66.982  1.00  0.00    -0.274 A  
HETATM   12  C   UNL     1     -10.436   8.580  68.912  1.00  0.00    -0.207 A  
HETATM   13  C   UNL     1     -10.225   9.849  68.362  1.00  0.00    -0.203 A  
BRANCH  11  14
HETATM   14  C   UNL     1      -9.698  11.359  66.408  1.00  0.00    -0.231 C  
BRANCH  14  15
HETATM   15  C   UNL     1     -10.649  12.485  66.833  1.00  0.00    -0.236 C  
BRANCH  15  16
HETATM   16  N   UNL     1      -9.966  13.742  67.048  1.00  0.00    -0.246 N  
HETATM   17  C   UNL     1      -9.852  14.663  66.027  1.00  0.00    -0.322 C  
HETATM   18  H   UNL     1      -9.565  13.949  67.963  1.00  0.00     0.000 HD 
HETATM   19  O   UNL     1     -10.249  14.466  64.884  1.00  0.00    -0.417 OA 
BRANCH  17  20
HETATM   20  C   UNL     1      -9.258  15.971  66.397  1.00  0.00    -0.339 A  
HETATM   21  C   UNL     1      -8.023  16.052  67.052  1.00  0.00    -0.262 A  
HETATM   22  C   UNL     1      -7.500  17.299  67.401  1.00  0.00    -0.191 A  
HETATM   23  C   UNL     1      -8.208  18.460  67.089  1.00  0.00    -0.245 A  
HETATM   24 CL   UNL     1      -7.560  19.993  67.526  1.00  0.00    -0.316 Cl 
HETATM   25  C   UNL     1      -9.430  18.388  66.422  1.00  0.00    -0.297 A  
HETATM   26  C   UNL     1      -9.955  17.141  66.070  1.00  0.00    -0.270 A  
ENDBRANCH  17  20
ENDBRANCH  15  16
ENDBRANCH  14  15
ENDBRANCH  11  14
ENDBRANCH   3   8
TORSDOF 5
ENDMDL
MODEL      148
REMARK 921   NORMALIZED FREE ENERGY PREDICTED BY IDOCK:   -4.22 KCAL/MOL
REMARK 922        TOTAL FREE ENERGY PREDICTED BY IDOCK:   -6.46 KCAL/MOL
REMARK 923 INTER-LIGAND FREE ENERGY PREDICTED BY IDOCK:   -6.23 KCAL/MOL
REMARK 924 INTRA-LIGAND FREE ENERGY PREDICTED BY IDOCK:   -0.23 KCAL/MOL
REMARK 927      BINDING AFFINITY PREDICTED BY RF-SCORE:    0.00 PKD
ROOT
HETATM    1  C   UNL     1      -8.163  18.036  66.561  1.00  0.00    -0.298 C  
HETATM    2  C   UNL     1      -9.597  18.049  67.100  1.00  0.00    -0.281 C  
HETATM    3  O   UNL     1      -9.654  17.403  68.397  1.00  0.00    -0.270 OA 
HETATM    4  C   UNL     1     -10.638  17.569  66.076  1.00  0.00    -0.217 C  
HETATM    5  C   UNL     1      -9.949  19.524  67.394  1.00  0.00    -0.383 C  
HETATM    6  O   UNL     1     -10.346  19.740  68.674  1.00  0.00    -0.435 OA 
HETATM    7  O   UNL     1      -9.899  20.429  66.572  1.00  0.00    -0.415 OA 
ENDROOT
BRANCH   3   8
HETATM    8  C   UNL     1      -9.937  16.074  68.506  1.00  0.00    -0.222 A  
HETATM    9  C   UNL     1      -9.103  15.045  68.094  1.00  0.00    -0.178 A  
HETATM   10  C   UNL     1      -9.534  13.722  68.159  1.00  0.00    -0.212 A  
HETATM   11  C   UNL     1     -10.781  13.393  68.699  1.00  0.00    -0.275 A  
HETATM   12  C   UNL     1     -11.165  15.760  69.090  1.00  0.00    -0.322 A  
HETATM   13  C   UNL     1     -11.591  14.430  69.179  1.00  0.00    -0.344 A  
BRANCH  11  14
HETATM   14  C   UNL     1     -11.298  11.970  68.692  1.00  0.00    -0.329 C  
BRANCH  14  15
HETATM   15  C   UNL     1     -10.325  10.944  68.098  1.00  0.00    -0.178 C  
BRANCH  15  16
HETATM   16  N   UNL     1      -9.697  10.121  69.108  1.00  0.00    -0.204 N  
HETATM   17  C   UNL     1     -10.462   9.393  69.997  1.00  0.00    -0.234 C  
HETATM   18  H   UNL     1      -8.679  10.077  69.164  1.00  0.00     0.000 HD 
HETATM   19  O   UNL     1     -11.686   9.439  70.038  1.00  0.00    -0.104 OA 
BRANCH  17  20
HETATM   20  C   UNL     1      -9.717   8.478  70.896  1.00  0.00    -0.231 A  
HETATM   21  C   UNL     1      -9.822   8.578  72.288  1.00  0.00    -0.383 A  
HETATM   22  C   UNL     1      -9.094   7.710  73.106  1.00  0.00    -0.254 A  
HETATM   23  C   UNL     1      -8.271   6.742  72.531  1.00  0.00    -0.104 A  
HETATM   24 CL   UNL     1      -7.375   5.679  73.544  1.00  0.00    -0.087 Cl 
HETATM   25  C   UNL     1      -8.176   6.625  71.145  1.00  0.00    -0.120 A  
HETATM   26  C   UNL     1      -8.904   7.491  70.324  1.00  0.00    -0.146 A  
ENDBRANCH  17  20
ENDBRANCH  15  16
ENDBRANCH  14  15
ENDBRANCH  11  14
ENDBRANCH   3   8
TORSDOF 5
ENDMDL
MODEL      149
REMARK 921   NORMALIZED FREE ENERGY PREDICTED BY IDOCK:   -4.20 KCAL/MOL
REMARK 922        TOTAL FREE ENERGY PREDICTED BY IDOCK:   -6.42 KCAL/MOL
REMARK 923 INTER-LIGAND FREE ENERGY PREDICTED BY IDOCK:   -5.10 KCAL/MOL
REMARK 924 INTRA-LIGAND FREE ENERGY PREDICTED BY IDOCK:   -1.32 KCAL/MOL
REMARK 927      BINDING AFFINITY PREDICTED BY RF-SCORE:    0.00 PKD
ROOT
HETATM    1  C   UNL     1     -11.756  13.422  69.555  1.00  0.00    -0.385 C  
HETATM    2  C   UNL     1     -11.104  13.458  68.169  1.00  0.00    -0.258 C  
HETATM    3  O   UNL     1     -11.728  12.484  67.294  1.00  0.00    -0.349 OA 
HETATM    4  C   UNL     1      -9.569  13.418  68.215  1.00  0.00    -0.220 C  
HETATM    5  C   UNL     1     -11.469  14.822  67.541  1.00  0.00    -0.354 C  
HETATM    6  O   UNL     1     -12.087  14.714  66.338  1.00  0.00    -0.333 OA 
HETATM    7  O   UNL     1     -11.224  15.908  68.047  1.00  0.00    -0.343 OA 
ENDROOT
BRANCH   3   8
HETATM    8  C   UNL     1     -11.223  11.224  67.176  1.00  0.00    -0.275 A  
HETATM    9  C   UNL     1     -11.351  10.221  68.125  1.00  0.00    -0.233 A  
HETATM   10  C   UNL     1     -10.708   8.998  67.948  1.00  0.00    -0.200 A  
HETATM   11  C   UNL     1      -9.978   8.726  66.786  1.00  0.00    -0.338 A  
HETATM   12  C   UNL     1     -10.537  10.952  65.990  1.00  0.00    -0.254 A  
HETATM   13  C   UNL     1      -9.910   9.717  65.798  1.00  0.00    -0.373 A  
BRANCH  11  14
HETATM   14  C   UNL     1      -9.200   7.437  66.622  1.00  0.00    -0.196 C  
BRANCH  14  15
HETATM   15  C   UNL     1      -7.998   7.297  67.562  1.00  0.00    -0.113 C  
BRANCH  15  16
HETATM   16  N   UNL     1      -7.594   8.559  68.144  1.00  0.00    -0.096 N  
HETATM   17  C   UNL     1      -6.621   9.331  67.540  1.00  0.00    -0.064 C  
HETATM   18  H   UNL     1      -8.031   8.882  69.007  1.00  0.00     0.000 HD 
HETATM   19  O   UNL     1      -6.004   8.987  66.538  1.00  0.00    -0.054 OA 
BRANCH  17  20
HETATM   20  C   UNL     1      -6.387  10.666  68.142  1.00  0.00    -0.058 A  
HETATM   21  C   UNL     1      -6.148  11.793  67.346  1.00  0.00    -0.108 A  
HETATM   22  C   UNL     1      -5.915  13.032  67.946  1.00  0.00    -0.130 A  
HETATM   23  C   UNL     1      -5.928  13.144  69.336  1.00  0.00    -0.102 A  
HETATM   24 CL   UNL     1      -5.635  14.673  70.068  1.00  0.00    -0.106 Cl 
HETATM   25  C   UNL     1      -6.182  12.030  70.134  1.00  0.00    -0.075 A  
HETATM   26  C   UNL     1      -6.417  10.788  69.537  1.00  0.00    -0.089 A  
ENDBRANCH  17  20
ENDBRANCH  15  16
ENDBRANCH  14  15
ENDBRANCH  11  14
ENDBRANCH   3   8
TORSDOF 5
ENDMDL
MODEL      150
REMARK 921   NORMALIZED FREE ENERGY PREDICTED BY IDOCK:   -4.15 KCAL/MOL
REMARK 922        TOTAL FREE ENERGY PREDICTED BY IDOCK:   -6.36 KCAL/MOL
REMARK 923 INTER-LIGAND FREE ENERGY PREDICTED BY IDOCK:   -5.79 KCAL/MOL
REMARK 924 INTRA-LIGAND FREE ENERGY PREDICTED BY IDOCK:   -0.57 KCAL/MOL
REMARK 927      BINDING AFFINITY PREDICTED BY RF-SCORE:    0.00 PKD
ROOT
HETATM    1  C   UNL     1     -11.499  15.985  71.060  1.00  0.00    -0.460 C  
HETATM    2  C   UNL     1     -11.241  15.054  69.871  1.00  0.00    -0.276 C  
HETATM    3  O   UNL     1     -12.385  14.193  69.647  1.00  0.00    -0.326 OA 
HETATM    4  C   UNL     1      -9.880  14.342  69.937  1.00  0.00     0.627 C  
HETATM    5  C   UNL     1     -11.185  15.947  68.611  1.00  0.00    -0.360 C  
HETATM    6  O   UNL     1     -12.067  15.578  67.648  1.00  0.00     0.082 OA 
HETATM    7  O   UNL     1     -10.422  16.892  68.461  1.00  0.00    -0.316 OA 
ENDROOT
BRANCH   3   8
HETATM    8  C   UNL     1     -12.456  12.958  70.221  1.00  0.00    -0.127 A  
HETATM    9  C   UNL     1     -13.012  12.686  71.462  1.00  0.00    -0.380 A  
HETATM   10  C   UNL     1     -12.941  11.403  71.999  1.00  0.00    -0.378 A  
HETATM   11  C   UNL     1     -12.371  10.349  71.279  1.00  0.00    -0.507 A  
HETATM   12  C   UNL     1     -11.925  11.908  69.470  1.00  0.00    -0.355 A  
HETATM   13  C   UNL     1     -11.873  10.613  69.997  1.00  0.00    -0.403 A  
BRANCH  11  14
HETATM   14  C   UNL     1     -12.205   8.972  71.887  1.00  0.00    -0.451 C  
BRANCH  14  15
HETATM   15  C   UNL     1     -12.758   7.828  71.027  1.00  0.00    -0.088 C  
BRANCH  15  16
HETATM   16  N   UNL     1     -11.987   6.611  71.155  1.00  0.00    -0.362 N  
HETATM   17  C   UNL     1     -10.980   6.319  70.257  1.00  0.00    -0.337 C  
HETATM   18  H   UNL     1     -12.188   5.962  71.916  1.00  0.00     0.000 HD 
HETATM   19  O   UNL     1     -10.716   7.013  69.281  1.00  0.00    -0.220 OA 
BRANCH  17  20
HETATM   20  C   UNL     1     -10.164   5.119  70.564  1.00  0.00    -0.330 A  
HETATM   21  C   UNL     1     -10.228   4.496  71.816  1.00  0.00    -0.226 A  
HETATM   22  C   UNL     1      -9.434   3.377  72.079  1.00  0.00    -0.200 A  
HETATM   23  C   UNL     1      -8.586   2.881  71.089  1.00  0.00    -0.064 A  
HETATM   24 CL   UNL     1      -7.607   1.505  71.420  1.00  0.00    -0.036 Cl 
HETATM   25  C   UNL     1      -8.530   3.486  69.834  1.00  0.00    -0.089 A  
HETATM   26  C   UNL     1      -9.325   4.605  69.568  1.00  0.00    -0.208 A  
ENDBRANCH  17  20
ENDBRANCH  15  16
ENDBRANCH  14  15
ENDBRANCH  11  14
ENDBRANCH   3   8
TORSDOF 5
ENDMDL
MODEL      151
REMARK 921   NORMALIZED FREE ENERGY PREDICTED BY IDOCK:   -4.14 KCAL/MOL
REMARK 922        TOTAL FREE ENERGY PREDICTED BY IDOCK:   -6.36 KCAL/MOL
REMARK 923 INTER-LIGAND FREE ENERGY PREDICTED BY IDOCK:   -5.95 KCAL/MOL
REMARK 924 INTRA-LIGAND FREE ENERGY PREDICTED BY IDOCK:   -0.41 KCAL/MOL
REMARK 927      BINDING AFFINITY PREDICTED BY RF-SCORE:    0.00 PKD
ROOT
HETATM    1  C   UNL     1     -11.225  16.218  64.972  1.00  0.00    -0.181 C  
HETATM    2  C   UNL     1     -10.195  16.074  66.097  1.00  0.00    -0.324 C  
HETATM    3  O   UNL     1      -9.334  14.935  65.849  1.00  0.00    -0.286 OA 
HETATM    4  C   UNL     1     -10.813  16.143  67.502  1.00  0.00    -0.284 C  
HETATM    5  C   UNL     1      -9.251  17.293  65.994  1.00  0.00    -0.087 C  
HETATM    6  O   UNL     1      -7.943  16.955  65.874  1.00  0.00    -0.427 OA 
HETATM    7  O   UNL     1      -9.616  18.461  66.029  1.00  0.00    -0.493 OA 
ENDROOT
BRANCH   3   8
HETATM    8  C   UNL     1      -9.631  13.707  66.362  1.00  0.00    -0.268 A  
HETATM    9  C   UNL     1      -8.932  13.079  67.381  1.00  0.00    -0.204 A  
HETATM   10  C   UNL     1      -9.259  11.779  67.762  1.00  0.00    -0.181 A  
HETATM   11  C   UNL     1     -10.336  11.105  67.178  1.00  0.00    -0.249 A  
HETATM   12  C   UNL     1     -10.738  13.066  65.803  1.00  0.00    -0.291 A  
HETATM   13  C   UNL     1     -11.084  11.770  66.199  1.00  0.00    -0.358 A  
BRANCH  11  14
HETATM   14  C   UNL     1     -10.646   9.662  67.518  1.00  0.00    -0.339 C  
BRANCH  14  15
HETATM   15  C   UNL     1      -9.511   8.679  67.206  1.00  0.00    -0.156 C  
BRANCH  15  16
HETATM   16  N   UNL     1      -9.618   7.446  67.955  1.00  0.00    -0.139 N  
HETATM   17  C   UNL     1      -9.120   7.359  69.240  1.00  0.00    -0.135 C  
HETATM   18  H   UNL     1     -10.065   6.633  67.531  1.00  0.00     0.000 HD 
HETATM   19  O   UNL     1      -8.514   8.268  69.798  1.00  0.00    -0.124 OA 
BRANCH  17  20
HETATM   20  C   UNL     1      -9.409   6.097  69.963  1.00  0.00    -0.166 A  
HETATM   21  C   UNL     1      -9.891   6.105  71.278  1.00  0.00    -0.204 A  
HETATM   22  C   UNL     1     -10.137   4.898  71.936  1.00  0.00    -0.262 A  
HETATM   23  C   UNL     1      -9.909   3.689  71.278  1.00  0.00    -0.141 A  
HETATM   24 CL   UNL     1     -10.211   2.206  72.096  1.00  0.00    -0.227 Cl 
HETATM   25  C   UNL     1      -9.446   3.675  69.963  1.00  0.00    -0.260 A  
HETATM   26  C   UNL     1      -9.200   4.881  69.301  1.00  0.00    -0.160 A  
ENDBRANCH  17  20
ENDBRANCH  15  16
ENDBRANCH  14  15
ENDBRANCH  11  14
ENDBRANCH   3   8
TORSDOF 5
ENDMDL
MODEL      152
REMARK 921   NORMALIZED FREE ENERGY PREDICTED BY IDOCK:   -4.11 KCAL/MOL
REMARK 922        TOTAL FREE ENERGY PREDICTED BY IDOCK:   -6.32 KCAL/MOL
REMARK 923 INTER-LIGAND FREE ENERGY PREDICTED BY IDOCK:   -5.52 KCAL/MOL
REMARK 924 INTRA-LIGAND FREE ENERGY PREDICTED BY IDOCK:   -0.80 KCAL/MOL
REMARK 927      BINDING AFFINITY PREDICTED BY RF-SCORE:    0.00 PKD
ROOT
HETATM    1  C   UNL     1      -5.737  10.920  65.864  1.00  0.00    -0.142 C  
HETATM    2  C   UNL     1      -6.696   9.993  65.112  1.00  0.00    -0.126 C  
HETATM    3  O   UNL     1      -8.032  10.090  65.668  1.00  0.00    -0.128 OA 
HETATM    4  C   UNL     1      -6.155   8.565  64.939  1.00  0.00    -0.060 C  
HETATM    5  C   UNL     1      -6.837  10.563  63.683  1.00  0.00     0.088 C  
HETATM    6  O   UNL     1      -8.122  10.820  63.328  1.00  0.00    -0.074 OA 
HETATM    7  O   UNL     1      -5.904  10.762  62.918  1.00  0.00    -0.142 OA 
ENDROOT
BRANCH   3   8
HETATM    8  C   UNL     1      -8.445   9.239  66.649  1.00  0.00    -0.126 A  
HETATM    9  C   UNL     1      -8.008   9.266  67.965  1.00  0.00    -0.100 A  
HETATM   10  C   UNL     1      -8.420   8.285  68.864  1.00  0.00    -0.128 A  
HETATM   11  C   UNL     1      -9.330   7.293  68.485  1.00  0.00    -0.141 A  
HETATM   12  C   UNL     1      -9.390   8.284  66.268  1.00  0.00    -0.267 A  
HETATM   13  C   UNL     1      -9.824   7.311  67.174  1.00  0.00    -0.242 A  
BRANCH  11  14
HETATM   14  C   UNL     1      -9.715   6.169  69.423  1.00  0.00    -0.172 C  
BRANCH  14  15
HETATM   15  C   UNL     1     -11.032   6.394  70.176  1.00  0.00    -0.334 C  
BRANCH  15  16
HETATM   16  N   UNL     1     -11.414   7.789  70.229  1.00  0.00    -0.456 N  
HETATM   17  C   UNL     1     -12.194   8.265  71.264  1.00  0.00    -0.270 C  
HETATM   18  H   UNL     1     -11.104   8.426  69.496  1.00  0.00     0.000 HD 
HETATM   19  O   UNL     1     -12.658   7.554  72.149  1.00  0.00    -0.258 OA 
BRANCH  17  20
HETATM   20  C   UNL     1     -12.406   9.732  71.294  1.00  0.00    -0.465 A  
HETATM   21  C   UNL     1     -13.187  10.335  72.288  1.00  0.00    -0.324 A  
HETATM   22  C   UNL     1     -13.380  11.718  72.278  1.00  0.00    -0.166 A  
HETATM   23  C   UNL     1     -12.787  12.495  71.282  1.00  0.00    -0.241 A  
HETATM   24 CL   UNL     1     -13.033  14.198  71.273  1.00  0.00    -0.411 Cl 
HETATM   25  C   UNL     1     -11.994  11.903  70.300  1.00  0.00    -0.416 A  
HETATM   26  C   UNL     1     -11.798  10.519  70.308  1.00  0.00    -0.418 A  
ENDBRANCH  17  20
ENDBRANCH  15  16
ENDBRANCH  14  15
ENDBRANCH  11  14
ENDBRANCH   3   8
TORSDOF 5
ENDMDL
MODEL      153
REMARK 921   NORMALIZED FREE ENERGY PREDICTED BY IDOCK:   -4.06 KCAL/MOL
REMARK 922        TOTAL FREE ENERGY PREDICTED BY IDOCK:   -6.24 KCAL/MOL
REMARK 923 INTER-LIGAND FREE ENERGY PREDICTED BY IDOCK:   -5.73 KCAL/MOL
REMARK 924 INTRA-LIGAND FREE ENERGY PREDICTED BY IDOCK:   -0.51 KCAL/MOL
REMARK 927      BINDING AFFINITY PREDICTED BY RF-SCORE:    0.00 PKD
ROOT
HETATM    1  C   UNL     1      -7.103  19.484  68.001  1.00  0.00    -0.298 C  
HETATM    2  C   UNL     1      -8.451  18.807  67.731  1.00  0.00    -0.275 C  
HETATM    3  O   UNL     1      -8.766  17.870  68.792  1.00  0.00    -0.279 OA 
HETATM    4  C   UNL     1      -8.582  18.257  66.302  1.00  0.00    -0.208 C  
HETATM    5  C   UNL     1      -9.533  19.903  67.859  1.00  0.00    -0.359 C  
HETATM    6  O   UNL     1     -10.500  19.605  68.763  1.00  0.00    -0.315 OA 
HETATM    7  O   UNL     1      -9.551  20.942  67.213  1.00  0.00    -0.435 OA 
ENDROOT
BRANCH   3   8
HETATM    8  C   UNL     1      -8.418  16.555  68.691  1.00  0.00    -0.243 A  
HETATM    9  C   UNL     1      -9.272  15.532  68.309  1.00  0.00    -0.188 A  
HETATM   10  C   UNL     1      -8.840  14.208  68.337  1.00  0.00    -0.187 A  
HETATM   11  C   UNL     1      -7.524  13.884  68.682  1.00  0.00    -0.122 A  
HETATM   12  C   UNL     1      -7.089  16.253  68.993  1.00  0.00    -0.196 A  
HETATM   13  C   UNL     1      -6.645  14.927  68.999  1.00  0.00    -0.109 A  
BRANCH  11  14
HETATM   14  C   UNL     1      -7.068  12.445  68.804  1.00  0.00    -0.098 C  
BRANCH  14  15
HETATM   15  C   UNL     1      -7.712  11.487  67.794  1.00  0.00    -0.124 C  
BRANCH  15  16
HETATM   16  N   UNL     1      -8.690  10.611  68.401  1.00  0.00    -0.134 N  
HETATM   17  C   UNL     1      -8.303   9.415  68.973  1.00  0.00    -0.124 C  
HETATM   18  H   UNL     1      -9.674  10.879  68.408  1.00  0.00     0.000 HD 
HETATM   19  O   UNL     1      -7.153   8.992  68.952  1.00  0.00    -0.067 OA 
BRANCH  17  20
HETATM   20  C   UNL     1      -9.364   8.665  69.688  1.00  0.00    -0.161 A  
HETATM   21  C   UNL     1     -10.053   7.612  69.073  1.00  0.00    -0.199 A  
HETATM   22  C   UNL     1     -11.058   6.938  69.770  1.00  0.00    -0.316 A  
HETATM   23  C   UNL     1     -11.367   7.311  71.078  1.00  0.00    -0.274 A  
HETATM   24 CL   UNL     1     -12.609   6.477  71.928  1.00  0.00    -0.338 Cl 
HETATM   25  C   UNL     1     -10.673   8.346  71.702  1.00  0.00    -0.333 A  
HETATM   26  C   UNL     1      -9.666   9.023  71.008  1.00  0.00    -0.348 A  
ENDBRANCH  17  20
ENDBRANCH  15  16
ENDBRANCH  14  15
ENDBRANCH  11  14
ENDBRANCH   3   8
TORSDOF 5
ENDMDL
MODEL      154
REMARK 921   NORMALIZED FREE ENERGY PREDICTED BY IDOCK:   -4.05 KCAL/MOL
REMARK 922        TOTAL FREE ENERGY PREDICTED BY IDOCK:   -6.23 KCAL/MOL
REMARK 923 INTER-LIGAND FREE ENERGY PREDICTED BY IDOCK:   -5.56 KCAL/MOL
REMARK 924 INTRA-LIGAND FREE ENERGY PREDICTED BY IDOCK:   -0.67 KCAL/MOL
REMARK 927      BINDING AFFINITY PREDICTED BY RF-SCORE:    0.00 PKD
ROOT
HETATM    1  C   UNL     1      -8.466   6.096  67.205  1.00  0.00    -0.104 C  
HETATM    2  C   UNL     1      -7.640   6.248  65.924  1.00  0.00    -0.084 C  
HETATM    3  O   UNL     1      -7.235   7.629  65.747  1.00  0.00    -0.063 OA 
HETATM    4  C   UNL     1      -8.289   5.587  64.698  1.00  0.00    -0.131 C  
HETATM    5  C   UNL     1      -6.314   5.489  66.156  1.00  0.00    -0.035 C  
HETATM    6  O   UNL     1      -5.212   6.259  65.974  1.00  0.00    -0.012 OA 
HETATM    7  O   UNL     1      -6.233   4.307  66.461  1.00  0.00    -0.030 OA 
ENDROOT
BRANCH   3   8
HETATM    8  C   UNL     1      -7.992   8.492  65.012  1.00  0.00    -0.131 A  
HETATM    9  C   UNL     1      -7.785   8.794  63.675  1.00  0.00    -0.133 A  
HETATM   10  C   UNL     1      -8.556   9.769  63.046  1.00  0.00    -0.196 A  
HETATM   11  C   UNL     1      -9.596  10.415  63.722  1.00  0.00    -0.366 A  
HETATM   12  C   UNL     1      -9.055   9.094  65.687  1.00  0.00    -0.273 A  
HETATM   13  C   UNL     1      -9.847  10.056  65.052  1.00  0.00    -0.374 A  
BRANCH  11  14
HETATM   14  C   UNL     1     -10.382  11.539  63.080  1.00  0.00    -0.293 C  
BRANCH  14  15
HETATM   15  C   UNL     1     -11.121  12.445  64.072  1.00  0.00    -0.396 C  
BRANCH  15  16
HETATM   16  N   UNL     1     -10.283  13.504  64.591  1.00  0.00    -0.592 N  
HETATM   17  C   UNL     1     -10.215  13.744  65.949  1.00  0.00    -0.313 C  
HETATM   18  H   UNL     1      -9.739  14.079  63.948  1.00  0.00     0.000 HD 
HETATM   19  O   UNL     1     -10.884  13.142  66.781  1.00  0.00    -0.272 OA 
BRANCH  17  20
HETATM   20  C   UNL     1      -9.221  14.758  66.379  1.00  0.00    -0.301 A  
HETATM   21  C   UNL     1      -9.322  16.095  65.974  1.00  0.00    -0.368 A  
HETATM   22  C   UNL     1      -8.360  17.021  66.384  1.00  0.00    -0.319 A  
HETATM   23  C   UNL     1      -7.306  16.611  67.201  1.00  0.00    -0.185 A  
HETATM   24 CL   UNL     1      -6.122  17.756  67.698  1.00  0.00    -0.158 Cl 
HETATM   25  C   UNL     1      -7.209  15.286  67.621  1.00  0.00    -0.204 A  
HETATM   26  C   UNL     1      -8.171  14.357  67.214  1.00  0.00    -0.223 A  
ENDBRANCH  17  20
ENDBRANCH  15  16
ENDBRANCH  14  15
ENDBRANCH  11  14
ENDBRANCH   3   8
TORSDOF 5
ENDMDL
MODEL      155
REMARK 921   NORMALIZED FREE ENERGY PREDICTED BY IDOCK:   -4.03 KCAL/MOL
REMARK 922        TOTAL FREE ENERGY PREDICTED BY IDOCK:   -6.21 KCAL/MOL
REMARK 923 INTER-LIGAND FREE ENERGY PREDICTED BY IDOCK:   -5.39 KCAL/MOL
REMARK 924 INTRA-LIGAND FREE ENERGY PREDICTED BY IDOCK:   -0.82 KCAL/MOL
REMARK 927      BINDING AFFINITY PREDICTED BY RF-SCORE:    0.00 PKD
ROOT
HETATM    1  C   UNL     1     -12.136   6.592  71.087  1.00  0.00    -0.391 C  
HETATM    2  C   UNL     1     -10.625   6.789  71.245  1.00  0.00    -0.219 C  
HETATM    3  O   UNL     1     -10.160   7.845  70.367  1.00  0.00    -0.192 OA 
HETATM    4  C   UNL     1      -9.828   5.477  71.181  1.00  0.00    -0.235 C  
HETATM    5  C   UNL     1     -10.396   7.349  72.667  1.00  0.00    -0.244 C  
HETATM    6  O   UNL     1      -9.716   8.523  72.682  1.00  0.00    -0.277 OA 
HETATM    7  O   UNL     1     -10.765   6.803  73.698  1.00  0.00    -0.316 OA 
ENDROOT
BRANCH   3   8
HETATM    8  C   UNL     1      -9.696   7.563  69.117  1.00  0.00    -0.166 A  
HETATM    9  C   UNL     1      -8.370   7.318  68.795  1.00  0.00    -0.129 A  
HETATM   10  C   UNL     1      -7.990   7.140  67.467  1.00  0.00    -0.113 A  
HETATM   11  C   UNL     1      -8.937   7.134  66.438  1.00  0.00    -0.178 A  
HETATM   12  C   UNL     1     -10.660   7.514  68.108  1.00  0.00    -0.201 A  
HETATM   13  C   UNL     1     -10.285   7.312  66.775  1.00  0.00    -0.305 A  
BRANCH  11  14
HETATM   14  C   UNL     1      -8.528   7.032  64.983  1.00  0.00     0.018 C  
BRANCH  14  15
HETATM   15  C   UNL     1      -8.120   8.365  64.344  1.00  0.00    -0.158 C  
BRANCH  15  16
HETATM   16  N   UNL     1      -8.356   9.497  65.214  1.00  0.00    -0.132 N  
HETATM   17  C   UNL     1      -9.151  10.547  64.800  1.00  0.00    -0.211 C  
HETATM   18  H   UNL     1      -7.932   9.520  66.141  1.00  0.00     0.000 HD 
HETATM   19  O   UNL     1      -9.645  10.627  63.680  1.00  0.00    -0.260 OA 
BRANCH  17  20
HETATM   20  C   UNL     1      -9.439  11.584  65.820  1.00  0.00    -0.255 A  
HETATM   21  C   UNL     1      -8.986  11.454  67.139  1.00  0.00    -0.162 A  
HETATM   22  C   UNL     1      -9.289  12.441  68.080  1.00  0.00    -0.204 A  
HETATM   23  C   UNL     1     -10.035  13.557  67.700  1.00  0.00    -0.229 A  
HETATM   24 CL   UNL     1     -10.407  14.767  68.865  1.00  0.00    -0.238 Cl 
HETATM   25  C   UNL     1     -10.474  13.701  66.384  1.00  0.00    -0.288 A  
HETATM   26  C   UNL     1     -10.171  12.716  65.440  1.00  0.00    -0.301 A  
ENDBRANCH  17  20
ENDBRANCH  15  16
ENDBRANCH  14  15
ENDBRANCH  11  14
ENDBRANCH   3   8
TORSDOF 5
ENDMDL
MODEL      156
REMARK 921   NORMALIZED FREE ENERGY PREDICTED BY IDOCK:   -4.01 KCAL/MOL
REMARK 922        TOTAL FREE ENERGY PREDICTED BY IDOCK:   -6.18 KCAL/MOL
REMARK 923 INTER-LIGAND FREE ENERGY PREDICTED BY IDOCK:   -5.89 KCAL/MOL
REMARK 924 INTRA-LIGAND FREE ENERGY PREDICTED BY IDOCK:   -0.29 KCAL/MOL
REMARK 927      BINDING AFFINITY PREDICTED BY RF-SCORE:    0.00 PKD
ROOT
HETATM    1  C   UNL     1      -7.800   2.663  71.469  1.00  0.00    -0.047 C  
HETATM    2  C   UNL     1      -8.778   3.326  72.445  1.00  0.00    -0.084 C  
HETATM    3  O   UNL     1      -9.961   3.783  71.742  1.00  0.00    -0.183 OA 
HETATM    4  C   UNL     1      -8.113   4.364  73.364  1.00  0.00    -0.095 C  
HETATM    5  C   UNL     1      -9.297   2.211  73.380  1.00  0.00    -0.075 C  
HETATM    6  O   UNL     1     -10.650   2.103  73.392  1.00  0.00    -0.115 OA 
HETATM    7  O   UNL     1      -8.586   1.490  74.066  1.00  0.00    -0.052 OA 
ENDROOT
BRANCH   3   8
HETATM    8  C   UNL     1     -10.041   5.054  71.257  1.00  0.00    -0.206 A  
HETATM    9  C   UNL     1     -10.878   6.044  71.749  1.00  0.00    -0.312 A  
HETATM   10  C   UNL     1     -10.954   7.281  71.114  1.00  0.00    -0.267 A  
HETATM   11  C   UNL     1     -10.144   7.580  70.014  1.00  0.00    -0.199 A  
HETATM   12  C   UNL     1      -9.193   5.352  70.189  1.00  0.00    -0.177 A  
HETATM   13  C   UNL     1      -9.249   6.602  69.563  1.00  0.00    -0.143 A  
BRANCH  11  14
HETATM   14  C   UNL     1     -10.281   8.886  69.260  1.00  0.00    -0.214 C  
BRANCH  14  15
HETATM   15  C   UNL     1     -10.643  10.091  70.138  1.00  0.00    -0.296 C  
BRANCH  15  16
HETATM   16  N   UNL     1     -10.436  11.354  69.464  1.00  0.00    -0.441 N  
HETATM   17  C   UNL     1     -11.359  11.822  68.551  1.00  0.00    -0.273 C  
HETATM   18  H   UNL     1      -9.601  11.904  69.666  1.00  0.00     0.000 HD 
HETATM   19  O   UNL     1     -12.354  11.195  68.206  1.00  0.00    -0.532 OA 
BRANCH  17  20
HETATM   20  C   UNL     1     -11.117  13.189  68.028  1.00  0.00    -0.290 A  
HETATM   21  C   UNL     1     -11.626  14.319  68.680  1.00  0.00    -0.352 A  
HETATM   22  C   UNL     1     -11.394  15.591  68.152  1.00  0.00    -0.348 A  
HETATM   23  C   UNL     1     -10.650  15.731  66.981  1.00  0.00    -0.316 A  
HETATM   24 CL   UNL     1     -10.371  17.301  66.334  1.00  0.00    -0.333 Cl 
HETATM   25  C   UNL     1     -10.126  14.612  66.336  1.00  0.00    -0.288 A  
HETATM   26  C   UNL     1     -10.355  13.338  66.863  1.00  0.00    -0.255 A  
ENDBRANCH  17  20
ENDBRANCH  15  16
ENDBRANCH  14  15
ENDBRANCH  11  14
ENDBRANCH   3   8
TORSDOF 5
ENDMDL
MODEL      157
REMARK 921   NORMALIZED FREE ENERGY PREDICTED BY IDOCK:   -4.00 KCAL/MOL
REMARK 922        TOTAL FREE ENERGY PREDICTED BY IDOCK:   -6.17 KCAL/MOL
REMARK 923 INTER-LIGAND FREE ENERGY PREDICTED BY IDOCK:   -5.48 KCAL/MOL
REMARK 924 INTRA-LIGAND FREE ENERGY PREDICTED BY IDOCK:   -0.69 KCAL/MOL
REMARK 927      BINDING AFFINITY PREDICTED BY RF-SCORE:    0.00 PKD
ROOT
HETATM    1  C   UNL     1      -5.926  15.976  69.592  1.00  0.00    -0.162 C  
HETATM    2  C   UNL     1      -6.646  16.819  68.535  1.00  0.00    -0.161 C  
HETATM    3  O   UNL     1      -8.079  16.615  68.617  1.00  0.00    -0.214 OA 
HETATM    4  C   UNL     1      -6.039  16.685  67.129  1.00  0.00    -0.202 C  
HETATM    5  C   UNL     1      -6.450  18.298  68.936  1.00  0.00    -0.229 C  
HETATM    6  O   UNL     1      -7.615  18.979  69.079  1.00  0.00    -0.330 OA 
HETATM    7  O   UNL     1      -5.363  18.836  69.101  1.00  0.00    -0.195 OA 
ENDROOT
BRANCH   3   8
HETATM    8  C   UNL     1      -8.696  15.666  67.856  1.00  0.00    -0.166 A  
HETATM    9  C   UNL     1      -8.661  14.302  68.101  1.00  0.00    -0.172 A  
HETATM   10  C   UNL     1      -9.242  13.410  67.202  1.00  0.00    -0.240 A  
HETATM   11  C   UNL     1      -9.930  13.868  66.073  1.00  0.00    -0.325 A  
HETATM   12  C   UNL     1      -9.418  16.141  66.761  1.00  0.00    -0.256 A  
HETATM   13  C   UNL     1     -10.024  15.250  65.868  1.00  0.00    -0.368 A  
BRANCH  11  14
HETATM   14  C   UNL     1     -10.488  12.910  65.042  1.00  0.00    -0.337 C  
BRANCH  14  15
HETATM   15  C   UNL     1      -9.585  11.707  64.740  1.00  0.00    -0.134 C  
BRANCH  15  16
HETATM   16  N   UNL     1      -9.862  10.572  65.593  1.00  0.00    -0.236 N  
HETATM   17  C   UNL     1      -8.837   9.918  66.247  1.00  0.00    -0.143 C  
HETATM   18  H   UNL     1     -10.823  10.253  65.713  1.00  0.00     0.000 HD 
HETATM   19  O   UNL     1      -7.652  10.199  66.107  1.00  0.00    -0.104 OA 
BRANCH  17  20
HETATM   20  C   UNL     1      -9.248   8.861  67.203  1.00  0.00    -0.169 A  
HETATM   21  C   UNL     1     -10.025   7.771  66.793  1.00  0.00    -0.331 A  
HETATM   22  C   UNL     1     -10.409   6.802  67.723  1.00  0.00    -0.245 A  
HETATM   23  C   UNL     1     -10.009   6.920  69.054  1.00  0.00    -0.158 A  
HETATM   24 CL   UNL     1     -10.489   5.724  70.194  1.00  0.00    -0.320 Cl 
HETATM   25  C   UNL     1      -9.221   7.993  69.465  1.00  0.00    -0.152 A  
HETATM   26  C   UNL     1      -8.834   8.964  68.536  1.00  0.00    -0.134 A  
ENDBRANCH  17  20
ENDBRANCH  15  16
ENDBRANCH  14  15
ENDBRANCH  11  14
ENDBRANCH   3   8
TORSDOF 5
ENDMDL
MODEL      158
REMARK 921   NORMALIZED FREE ENERGY PREDICTED BY IDOCK:   -3.91 KCAL/MOL
REMARK 922        TOTAL FREE ENERGY PREDICTED BY IDOCK:   -6.06 KCAL/MOL
REMARK 923 INTER-LIGAND FREE ENERGY PREDICTED BY IDOCK:   -5.47 KCAL/MOL
REMARK 924 INTRA-LIGAND FREE ENERGY PREDICTED BY IDOCK:   -0.59 KCAL/MOL
REMARK 927      BINDING AFFINITY PREDICTED BY RF-SCORE:    0.00 PKD
ROOT
HETATM    1  C   UNL     1      -7.219   6.970  68.289  1.00  0.00    -0.091 C  
HETATM    2  C   UNL     1      -7.858   7.221  66.920  1.00  0.00    -0.111 C  
HETATM    3  O   UNL     1      -7.804   8.631  66.588  1.00  0.00    -0.095 OA 
HETATM    4  C   UNL     1      -9.235   6.557  66.758  1.00  0.00    -0.163 C  
HETATM    5  C   UNL     1      -6.944   6.548  65.871  1.00  0.00    -0.061 C  
HETATM    6  O   UNL     1      -6.514   7.398  64.905  1.00  0.00    -0.037 OA 
HETATM    7  O   UNL     1      -6.632   5.366  65.877  1.00  0.00    -0.042 OA 
ENDROOT
BRANCH   3   8
HETATM    8  C   UNL     1      -8.838   9.464  66.897  1.00  0.00    -0.127 A  
HETATM    9  C   UNL     1      -9.829   9.866  66.014  1.00  0.00    -0.330 A  
HETATM   10  C   UNL     1     -10.784  10.801  66.406  1.00  0.00    -0.228 A  
HETATM   11  C   UNL     1     -10.810  11.304  67.711  1.00  0.00    -0.284 A  
HETATM   12  C   UNL     1      -8.878   9.921  68.215  1.00  0.00    -0.119 A  
HETATM   13  C   UNL     1      -9.850  10.842  68.620  1.00  0.00    -0.194 A  
BRANCH  11  14
HETATM   14  C   UNL     1     -11.785  12.387  68.124  1.00  0.00    -0.408 C  
BRANCH  14  15
HETATM   15  C   UNL     1     -11.175  13.488  69.000  1.00  0.00    -0.269 C  
BRANCH  15  16
HETATM   16  N   UNL     1     -10.396  14.440  68.238  1.00  0.00    -0.234 N  
HETATM   17  C   UNL     1     -10.760  15.771  68.194  1.00  0.00    -0.285 C  
HETATM   18  H   UNL     1      -9.570  14.126  67.729  1.00  0.00     0.000 HD 
HETATM   19  O   UNL     1     -11.771  16.218  68.724  1.00  0.00    -0.317 OA 
BRANCH  17  20
HETATM   20  C   UNL     1      -9.814  16.680  67.502  1.00  0.00    -0.253 A  
HETATM   21  C   UNL     1      -8.616  16.204  66.954  1.00  0.00    -0.253 A  
HETATM   22  C   UNL     1      -7.740  17.089  66.323  1.00  0.00    -0.346 A  
HETATM   23  C   UNL     1      -8.064  18.443  66.236  1.00  0.00    -0.221 A  
HETATM   24 CL   UNL     1      -6.977  19.529  65.461  1.00  0.00    -0.312 Cl 
HETATM   25  C   UNL     1      -9.262  18.920  66.764  1.00  0.00    -0.335 A  
HETATM   26  C   UNL     1     -10.143  18.037  67.395  1.00  0.00    -0.354 A  
ENDBRANCH  17  20
ENDBRANCH  15  16
ENDBRANCH  14  15
ENDBRANCH  11  14
ENDBRANCH   3   8
TORSDOF 5
ENDMDL
MODEL      159
REMARK 921   NORMALIZED FREE ENERGY PREDICTED BY IDOCK:   -3.89 KCAL/MOL
REMARK 922        TOTAL FREE ENERGY PREDICTED BY IDOCK:   -6.03 KCAL/MOL
REMARK 923 INTER-LIGAND FREE ENERGY PREDICTED BY IDOCK:   -5.43 KCAL/MOL
REMARK 924 INTRA-LIGAND FREE ENERGY PREDICTED BY IDOCK:   -0.61 KCAL/MOL
REMARK 927      BINDING AFFINITY PREDICTED BY RF-SCORE:    0.00 PKD
ROOT
HETATM    1  C   UNL     1      -9.341   2.808  65.067  1.00  0.00    -0.126 C  
HETATM    2  C   UNL     1      -8.132   3.639  65.509  1.00  0.00    -0.093 C  
HETATM    3  O   UNL     1      -8.436   4.361  66.729  1.00  0.00    -0.105 OA 
HETATM    4  C   UNL     1      -7.523   4.481  64.377  1.00  0.00    -0.071 C  
HETATM    5  C   UNL     1      -7.032   2.637  65.925  1.00  0.00    -0.052 C  
HETATM    6  O   UNL     1      -6.581   2.825  67.191  1.00  0.00    -0.035 OA 
HETATM    7  O   UNL     1      -6.581   1.759  65.202  1.00  0.00    -0.025 OA 
ENDROOT
BRANCH   3   8
HETATM    8  C   UNL     1      -8.924   5.633  66.687  1.00  0.00    -0.120 A  
HETATM    9  C   UNL     1      -8.194   6.756  66.329  1.00  0.00    -0.120 A  
HETATM   10  C   UNL     1      -8.763   8.024  66.417  1.00  0.00    -0.169 A  
HETATM   11  C   UNL     1     -10.098   8.192  66.801  1.00  0.00    -0.365 A  
HETATM   12  C   UNL     1     -10.270   5.780  67.028  1.00  0.00    -0.258 A  
HETATM   13  C   UNL     1     -10.853   7.050  67.095  1.00  0.00    -0.427 A  
BRANCH  11  14
HETATM   14  C   UNL     1     -10.702   9.568  66.989  1.00  0.00    -0.220 C  
BRANCH  14  15
HETATM   15  C   UNL     1     -10.436  10.195  68.363  1.00  0.00    -0.208 C  
BRANCH  15  16
HETATM   16  N   UNL     1     -10.309   9.208  69.412  1.00  0.00    -0.210 N  
HETATM   17  C   UNL     1     -11.225   9.156  70.444  1.00  0.00    -0.240 C  
HETATM   18  H   UNL     1      -9.535   8.543  69.390  1.00  0.00     0.000 HD 
HETATM   19  O   UNL     1     -12.145   9.955  70.578  1.00  0.00    -0.261 OA 
BRANCH  17  20
HETATM   20  C   UNL     1     -11.079   8.019  71.385  1.00  0.00    -0.278 A  
HETATM   21  C   UNL     1     -10.612   8.209  72.691  1.00  0.00    -0.414 A  
HETATM   22  C   UNL     1     -10.471   7.114  73.546  1.00  0.00    -0.422 A  
HETATM   23  C   UNL     1     -10.802   5.835  73.098  1.00  0.00    -0.276 A  
HETATM   24 CL   UNL     1     -10.622   4.491  74.155  1.00  0.00    -0.321 Cl 
HETATM   25  C   UNL     1     -11.284   5.641  71.804  1.00  0.00    -0.226 A  
HETATM   26  C   UNL     1     -11.428   6.735  70.946  1.00  0.00    -0.384 A  
ENDBRANCH  17  20
ENDBRANCH  15  16
ENDBRANCH  14  15
ENDBRANCH  11  14
ENDBRANCH   3   8
TORSDOF 5
ENDMDL
MODEL      160
REMARK 921   NORMALIZED FREE ENERGY PREDICTED BY IDOCK:   -3.89 KCAL/MOL
REMARK 922        TOTAL FREE ENERGY PREDICTED BY IDOCK:   -6.03 KCAL/MOL
REMARK 923 INTER-LIGAND FREE ENERGY PREDICTED BY IDOCK:   -5.49 KCAL/MOL
REMARK 924 INTRA-LIGAND FREE ENERGY PREDICTED BY IDOCK:   -0.54 KCAL/MOL
REMARK 927      BINDING AFFINITY PREDICTED BY RF-SCORE:    0.00 PKD
ROOT
HETATM    1  C   UNL     1      -8.771   5.129  64.848  1.00  0.00    -0.140 C  
HETATM    2  C   UNL     1      -7.762   6.261  64.625  1.00  0.00    -0.105 C  
HETATM    3  O   UNL     1      -7.626   7.058  65.829  1.00  0.00    -0.087 OA 
HETATM    4  C   UNL     1      -8.010   7.054  63.332  1.00  0.00    -0.062 C  
HETATM    5  C   UNL     1      -6.379   5.596  64.450  1.00  0.00    -0.032 C  
HETATM    6  O   UNL     1      -5.446   6.052  65.325  1.00  0.00    -0.016 OA 
HETATM    7  O   UNL     1      -6.115   4.750  63.607  1.00  0.00    -0.021 OA 
ENDROOT
BRANCH   3   8
HETATM    8  C   UNL     1      -8.388   8.171  66.022  1.00  0.00    -0.131 A  
HETATM    9  C   UNL     1      -7.975   9.473  65.782  1.00  0.00    -0.111 A  
HETATM   10  C   UNL     1      -8.801  10.546  66.110  1.00  0.00    -0.172 A  
HETATM   11  C   UNL     1     -10.085  10.339  66.623  1.00  0.00    -0.281 A  
HETATM   12  C   UNL     1      -9.684   7.946  66.490  1.00  0.00    -0.279 A  
HETATM   13  C   UNL     1     -10.525   9.020  66.799  1.00  0.00    -0.270 A  
BRANCH  11  14
HETATM   14  C   UNL     1     -10.957  11.494  67.068  1.00  0.00    -0.347 C  
BRANCH  14  15
HETATM   15  C   UNL     1     -11.386  12.437  65.938  1.00  0.00    -0.356 C  
BRANCH  15  16
HETATM   16  N   UNL     1     -10.663  13.690  65.952  1.00  0.00    -0.278 N  
HETATM   17  C   UNL     1     -11.081  14.733  66.754  1.00  0.00    -0.338 C  
HETATM   18  H   UNL     1      -9.837  13.805  65.365  1.00  0.00     0.000 HD 
HETATM   19  O   UNL     1     -12.097  14.700  67.440  1.00  0.00    -0.352 OA 
BRANCH  17  20
HETATM   20  C   UNL     1     -10.188  15.917  66.796  1.00  0.00    -0.283 A  
HETATM   21  C   UNL     1     -10.594  17.114  67.399  1.00  0.00    -0.297 A  
HETATM   22  C   UNL     1      -9.734  18.215  67.406  1.00  0.00    -0.296 A  
HETATM   23  C   UNL     1      -8.472  18.115  66.821  1.00  0.00    -0.259 A  
HETATM   24 CL   UNL     1      -7.421  19.477  66.831  1.00  0.00    -0.243 Cl 
HETATM   25  C   UNL     1      -8.056  16.921  66.235  1.00  0.00    -0.351 A  
HETATM   26  C   UNL     1      -8.913  15.817  66.226  1.00  0.00    -0.381 A  
ENDBRANCH  17  20
ENDBRANCH  15  16
ENDBRANCH  14  15
ENDBRANCH  11  14
ENDBRANCH   3   8
TORSDOF 5
ENDMDL
MODEL      161
REMARK 921   NORMALIZED FREE ENERGY PREDICTED BY IDOCK:   -3.87 KCAL/MOL
REMARK 922        TOTAL FREE ENERGY PREDICTED BY IDOCK:   -6.00 KCAL/MOL
REMARK 923 INTER-LIGAND FREE ENERGY PREDICTED BY IDOCK:   -5.70 KCAL/MOL
REMARK 924 INTRA-LIGAND FREE ENERGY PREDICTED BY IDOCK:   -0.30 KCAL/MOL
REMARK 927      BINDING AFFINITY PREDICTED BY RF-SCORE:    0.00 PKD
ROOT
HETATM    1  C   UNL     1      -7.241   8.695  67.430  1.00  0.00    -0.080 C  
HETATM    2  C   UNL     1      -8.696   9.103  67.679  1.00  0.00    -0.120 C  
HETATM    3  O   UNL     1      -9.244   9.758  66.508  1.00  0.00    -0.148 OA 
HETATM    4  C   UNL     1      -8.903   9.846  69.009  1.00  0.00    -0.156 C  
HETATM    5  C   UNL     1      -9.511   7.796  67.800  1.00  0.00    -0.143 C  
HETATM    6  O   UNL     1     -10.548   7.723  66.927  1.00  0.00    -0.343 OA 
HETATM    7  O   UNL     1      -9.279   6.902  68.602  1.00  0.00    -0.132 OA 
ENDROOT
BRANCH   3   8
HETATM    8  C   UNL     1      -9.194  11.114  66.375  1.00  0.00    -0.183 A  
HETATM    9  C   UNL     1      -8.406  11.961  67.140  1.00  0.00    -0.174 A  
HETATM   10  C   UNL     1      -8.507  13.342  66.990  1.00  0.00    -0.137 A  
HETATM   11  C   UNL     1      -9.349  13.905  66.025  1.00  0.00    -0.060 A  
HETATM   12  C   UNL     1     -10.003  11.658  65.377  1.00  0.00    -0.287 A  
HETATM   13  C   UNL     1     -10.090  13.044  65.207  1.00  0.00    -0.247 A  
BRANCH  11  14
HETATM   14  C   UNL     1      -9.536  15.404  65.913  1.00  0.00    -0.369 C  
BRANCH  14  15
HETATM   15  C   UNL     1     -10.602  15.982  66.852  1.00  0.00    -0.300 C  
BRANCH  15  16
HETATM   16  N   UNL     1     -10.974  15.064  67.907  1.00  0.00    -0.281 N  
HETATM   17  C   UNL     1     -12.008  14.168  67.726  1.00  0.00    -0.354 C  
HETATM   18  H   UNL     1     -10.467  15.079  68.792  1.00  0.00     0.000 HD 
HETATM   19  O   UNL     1     -12.706  14.128  66.719  1.00  0.00    -0.178 OA 
BRANCH  17  20
HETATM   20  C   UNL     1     -12.211  13.183  68.816  1.00  0.00    -0.090 A  
HETATM   21  C   UNL     1     -12.503  13.592  70.123  1.00  0.00    -0.305 A  
HETATM   22  C   UNL     1     -12.671  12.639  71.130  1.00  0.00    -0.347 A  
HETATM   23  C   UNL     1     -12.555  11.282  70.827  1.00  0.00    -0.332 A  
HETATM   24 CL   UNL     1     -12.760  10.114  72.073  1.00  0.00    -0.469 Cl 
HETATM   25  C   UNL     1     -12.282  10.867  69.525  1.00  0.00    -0.331 A  
HETATM   26  C   UNL     1     -12.114  11.819  68.515  1.00  0.00    -0.134 A  
ENDBRANCH  17  20
ENDBRANCH  15  16
ENDBRANCH  14  15
ENDBRANCH  11  14
ENDBRANCH   3   8
TORSDOF 5
ENDMDL
MODEL      162
REMARK 921   NORMALIZED FREE ENERGY PREDICTED BY IDOCK:   -3.87 KCAL/MOL
REMARK 922        TOTAL FREE ENERGY PREDICTED BY IDOCK:   -6.00 KCAL/MOL
REMARK 923 INTER-LIGAND FREE ENERGY PREDICTED BY IDOCK:   -5.58 KCAL/MOL
REMARK 924 INTRA-LIGAND FREE ENERGY PREDICTED BY IDOCK:   -0.43 KCAL/MOL
REMARK 927      BINDING AFFINITY PREDICTED BY RF-SCORE:    0.00 PKD
ROOT
HETATM    1  C   UNL     1     -11.791  16.398  71.279  1.00  0.00    -0.178 C  
HETATM    2  C   UNL     1     -12.716  15.272  71.752  1.00  0.00    -0.371 C  
HETATM    3  O   UNL     1     -11.979  14.029  71.870  1.00  0.00    -0.058 OA 
HETATM    4  C   UNL     1     -14.030  15.188  70.958  1.00  0.00    -0.383 C  
HETATM    5  C   UNL     1     -13.125  15.611  73.203  1.00  0.00    -0.558 C  
HETATM    6  O   UNL     1     -12.836  14.626  74.089  1.00  0.00    -0.350 OA 
HETATM    7  O   UNL     1     -13.670  16.651  73.547  1.00  0.00    -0.278 OA 
ENDROOT
BRANCH   3   8
HETATM    8  C   UNL     1     -11.920  13.148  70.832  1.00  0.00     0.045 A  
HETATM    9  C   UNL     1     -12.300  11.816  70.895  1.00  0.00    -0.420 A  
HETATM   10  C   UNL     1     -12.104  10.976  69.801  1.00  0.00    -0.424 A  
HETATM   11  C   UNL     1     -11.586  11.465  68.597  1.00  0.00    -0.384 A  
HETATM   12  C   UNL     1     -11.446  13.662  69.624  1.00  0.00    -0.286 A  
HETATM   13  C   UNL     1     -11.269  12.827  68.516  1.00  0.00    -0.314 A  
BRANCH  11  14
HETATM   14  C   UNL     1     -11.283  10.546  67.432  1.00  0.00    -0.249 C  
BRANCH  14  15
HETATM   15  C   UNL     1      -9.796  10.216  67.254  1.00  0.00    -0.183 C  
BRANCH  15  16
HETATM   16  N   UNL     1      -9.189   9.706  68.464  1.00  0.00    -0.137 N  
HETATM   17  C   UNL     1      -9.258   8.362  68.772  1.00  0.00    -0.143 C  
HETATM   18  H   UNL     1      -8.705  10.345  69.096  1.00  0.00     0.000 HD 
HETATM   19  O   UNL     1      -9.872   7.540  68.101  1.00  0.00    -0.151 OA 
BRANCH  17  20
HETATM   20  C   UNL     1      -8.482   7.929  69.960  1.00  0.00    -0.134 A  
HETATM   21  C   UNL     1      -7.911   8.859  70.836  1.00  0.00    -0.154 A  
HETATM   22  C   UNL     1      -7.173   8.417  71.936  1.00  0.00    -0.111 A  
HETATM   23  C   UNL     1      -7.015   7.050  72.162  1.00  0.00    -0.064 A  
HETATM   24 CL   UNL     1      -6.101   6.513  73.517  1.00  0.00    -0.062 Cl 
HETATM   25  C   UNL     1      -7.596   6.118  71.304  1.00  0.00    -0.094 A  
HETATM   26  C   UNL     1      -8.336   6.557  70.202  1.00  0.00    -0.134 A  
ENDBRANCH  17  20
ENDBRANCH  15  16
ENDBRANCH  14  15
ENDBRANCH  11  14
ENDBRANCH   3   8
TORSDOF 5
ENDMDL
MODEL      163
REMARK 921   NORMALIZED FREE ENERGY PREDICTED BY IDOCK:   -3.86 KCAL/MOL
REMARK 922        TOTAL FREE ENERGY PREDICTED BY IDOCK:   -5.99 KCAL/MOL
REMARK 923 INTER-LIGAND FREE ENERGY PREDICTED BY IDOCK:   -5.83 KCAL/MOL
REMARK 924 INTRA-LIGAND FREE ENERGY PREDICTED BY IDOCK:   -0.16 KCAL/MOL
REMARK 927      BINDING AFFINITY PREDICTED BY RF-SCORE:    0.00 PKD
ROOT
HETATM    1  C   UNL     1     -12.540  11.742  71.589  1.00  0.00    -0.249 C  
HETATM    2  C   UNL     1     -11.800  11.126  70.398  1.00  0.00    -0.369 C  
HETATM    3  O   UNL     1     -10.685  11.967  70.007  1.00  0.00     0.397 OA 
HETATM    4  C   UNL     1     -12.734  10.695  69.256  1.00  0.00     0.598 C  
HETATM    5  C   UNL     1     -11.137   9.828  70.909  1.00  0.00    -0.357 C  
HETATM    6  O   UNL     1      -9.796   9.789  70.703  1.00  0.00    -0.244 OA 
HETATM    7  O   UNL     1     -11.736   8.901  71.437  1.00  0.00    -0.277 OA 
ENDROOT
BRANCH   3   8
HETATM    8  C   UNL     1     -10.832  12.923  69.047  1.00  0.00    -0.145 A  
HETATM    9  C   UNL     1     -11.933  13.753  68.910  1.00  0.00    -0.394 A  
HETATM   10  C   UNL     1     -12.025  14.628  67.830  1.00  0.00    -0.302 A  
HETATM   11  C   UNL     1     -10.987  14.740  66.900  1.00  0.00    -0.328 A  
HETATM   12  C   UNL     1      -9.766  13.056  68.154  1.00  0.00    -0.228 A  
HETATM   13  C   UNL     1      -9.845  13.950  67.081  1.00  0.00    -0.241 A  
BRANCH  11  14
HETATM   14  C   UNL     1     -11.112  15.620  65.673  1.00  0.00    -0.195 C  
BRANCH  14  15
HETATM   15  C   UNL     1     -11.209  14.851  64.350  1.00  0.00    -0.160 C  
BRANCH  15  16
HETATM   16  N   UNL     1     -10.454  13.617  64.363  1.00  0.00    -0.592 N  
HETATM   17  C   UNL     1     -10.970  12.472  63.790  1.00  0.00    -0.447 C  
HETATM   18  H   UNL     1      -9.533  13.592  64.800  1.00  0.00     0.000 HD 
HETATM   19  O   UNL     1     -12.093  12.401  63.302  1.00  0.00    -0.493 OA 
BRANCH  17  20
HETATM   20  C   UNL     1     -10.056  11.305  63.737  1.00  0.00    -0.412 A  
HETATM   21  C   UNL     1      -9.917  10.438  64.827  1.00  0.00    -0.409 A  
HETATM   22  C   UNL     1      -9.035   9.358  64.750  1.00  0.00    -0.241 A  
HETATM   23  C   UNL     1      -8.301   9.143  63.583  1.00  0.00    -0.187 A  
HETATM   24 CL   UNL     1      -7.214   7.813  63.496  1.00  0.00    -0.081 Cl 
HETATM   25  C   UNL     1      -8.448   9.993  62.487  1.00  0.00    -0.179 A  
HETATM   26  C   UNL     1      -9.331  11.074  62.561  1.00  0.00    -0.295 A  
ENDBRANCH  17  20
ENDBRANCH  15  16
ENDBRANCH  14  15
ENDBRANCH  11  14
ENDBRANCH   3   8
TORSDOF 5
ENDMDL
MODEL      164
REMARK 921   NORMALIZED FREE ENERGY PREDICTED BY IDOCK:   -3.85 KCAL/MOL
REMARK 922        TOTAL FREE ENERGY PREDICTED BY IDOCK:   -5.98 KCAL/MOL
REMARK 923 INTER-LIGAND FREE ENERGY PREDICTED BY IDOCK:   -5.82 KCAL/MOL
REMARK 924 INTRA-LIGAND FREE ENERGY PREDICTED BY IDOCK:   -0.16 KCAL/MOL
REMARK 927      BINDING AFFINITY PREDICTED BY RF-SCORE:    0.00 PKD
ROOT
HETATM    1  C   UNL     1     -11.262  16.332  67.364  1.00  0.00    -0.000 C  
HETATM    2  C   UNL     1     -10.782  15.756  66.028  1.00  0.00    -0.306 C  
HETATM    3  O   UNL     1     -11.526  14.555  65.700  1.00  0.00    -0.334 OA 
HETATM    4  C   UNL     1      -9.253  15.634  65.930  1.00  0.00    -0.330 C  
HETATM    5  C   UNL     1     -11.192  16.768  64.934  1.00  0.00     0.022 C  
HETATM    6  O   UNL     1     -11.953  16.222  63.952  1.00  0.00    -1.003 OA 
HETATM    7  O   UNL     1     -10.866  17.947  64.920  1.00  0.00    -0.768 OA 
ENDROOT
BRANCH   3   8
HETATM    8  C   UNL     1     -11.064  13.325  66.062  1.00  0.00    -0.283 A  
HETATM    9  C   UNL     1     -10.319  13.055  67.200  1.00  0.00    -0.243 A  
HETATM   10  C   UNL     1      -9.810  11.778  67.422  1.00  0.00    -0.189 A  
HETATM   11  C   UNL     1     -10.092  10.725  66.545  1.00  0.00    -0.277 A  
HETATM   12  C   UNL     1     -11.393  12.276  65.202  1.00  0.00    -0.376 A  
HETATM   13  C   UNL     1     -10.904  10.986  65.434  1.00  0.00    -0.168 A  
BRANCH  11  14
HETATM   14  C   UNL     1      -9.472   9.355  66.726  1.00  0.00    -0.217 C  
BRANCH  14  15
HETATM   15  C   UNL     1     -10.368   8.345  67.453  1.00  0.00    -0.285 C  
BRANCH  15  16
HETATM   16  N   UNL     1      -9.791   7.880  68.696  1.00  0.00    -0.166 N  
HETATM   17  C   UNL     1      -8.951   6.785  68.714  1.00  0.00    -0.130 C  
HETATM   18  H   UNL     1     -10.006   8.366  69.566  1.00  0.00     0.000 HD 
HETATM   19  O   UNL     1      -8.692   6.109  67.724  1.00  0.00    -0.114 OA 
BRANCH  17  20
HETATM   20  C   UNL     1      -8.307   6.483  70.015  1.00  0.00    -0.134 A  
HETATM   21  C   UNL     1      -8.870   5.567  70.912  1.00  0.00    -0.148 A  
HETATM   22  C   UNL     1      -8.247   5.318  72.137  1.00  0.00    -0.114 A  
HETATM   23  C   UNL     1      -7.060   5.978  72.458  1.00  0.00    -0.084 A  
HETATM   24 CL   UNL     1      -6.300   5.670  73.970  1.00  0.00    -0.067 Cl 
HETATM   25  C   UNL     1      -6.485   6.878  71.563  1.00  0.00    -0.042 A  
HETATM   26  C   UNL     1      -7.106   7.128  70.336  1.00  0.00    -0.066 A  
ENDBRANCH  17  20
ENDBRANCH  15  16
ENDBRANCH  14  15
ENDBRANCH  11  14
ENDBRANCH   3   8
TORSDOF 5
ENDMDL
MODEL      165
REMARK 921   NORMALIZED FREE ENERGY PREDICTED BY IDOCK:   -3.85 KCAL/MOL
REMARK 922        TOTAL FREE ENERGY PREDICTED BY IDOCK:   -5.97 KCAL/MOL
REMARK 923 INTER-LIGAND FREE ENERGY PREDICTED BY IDOCK:   -4.90 KCAL/MOL
REMARK 924 INTRA-LIGAND FREE ENERGY PREDICTED BY IDOCK:   -1.07 KCAL/MOL
REMARK 927      BINDING AFFINITY PREDICTED BY RF-SCORE:    0.00 PKD
ROOT
HETATM    1  C   UNL     1      -5.629  11.759  68.914  1.00  0.00    -0.050 C  
HETATM    2  C   UNL     1      -6.521  11.891  67.676  1.00  0.00    -0.089 C  
HETATM    3  O   UNL     1      -7.829  11.322  67.934  1.00  0.00    -0.108 OA 
HETATM    4  C   UNL     1      -5.841  11.421  66.380  1.00  0.00    -0.107 C  
HETATM    5  C   UNL     1      -6.794  13.399  67.482  1.00  0.00    -0.144 C  
HETATM    6  O   UNL     1      -8.115  13.709  67.449  1.00  0.00    -0.170 OA 
HETATM    7  O   UNL     1      -5.927  14.252  67.354  1.00  0.00    -0.346 OA 
ENDROOT
BRANCH   3   8
HETATM    8  C   UNL     1      -8.100  10.021  67.630  1.00  0.00    -0.110 A  
HETATM    9  C   UNL     1      -7.476   8.922  68.199  1.00  0.00    -0.092 A  
HETATM   10  C   UNL     1      -7.757   7.637  67.741  1.00  0.00    -0.122 A  
HETATM   11  C   UNL     1      -8.719   7.417  66.750  1.00  0.00    -0.136 A  
HETATM   12  C   UNL     1      -9.096   9.816  66.673  1.00  0.00    -0.174 A  
HETATM   13  C   UNL     1      -9.398   8.525  66.227  1.00  0.00    -0.287 A  
BRANCH  11  14
HETATM   14  C   UNL     1      -8.969   6.037  66.180  1.00  0.00    -0.160 C  
BRANCH  14  15
HETATM   15  C   UNL     1     -10.081   5.251  66.886  1.00  0.00    -0.219 C  
BRANCH  15  16
HETATM   16  N   UNL     1     -10.838   6.064  67.812  1.00  0.00    -0.298 N  
HETATM   17  C   UNL     1     -10.567   6.025  69.165  1.00  0.00    -0.295 C  
HETATM   18  H   UNL     1     -11.579   6.672  67.462  1.00  0.00     0.000 HD 
HETATM   19  O   UNL     1      -9.739   5.277  69.672  1.00  0.00    -0.151 OA 
BRANCH  17  20
HETATM   20  C   UNL     1     -11.306   7.001  70.002  1.00  0.00    -0.293 A  
HETATM   21  C   UNL     1     -11.026   8.372  69.943  1.00  0.00    -0.166 A  
HETATM   22  C   UNL     1     -11.730   9.262  70.757  1.00  0.00    -0.328 A  
HETATM   23  C   UNL     1     -12.714   8.783  71.621  1.00  0.00    -0.348 A  
HETATM   24 CL   UNL     1     -13.574   9.885  72.624  1.00  0.00    -0.159 Cl 
HETATM   25  C   UNL     1     -13.010   7.422  71.673  1.00  0.00    -0.409 A  
HETATM   26  C   UNL     1     -12.309   6.528  70.858  1.00  0.00    -0.142 A  
ENDBRANCH  17  20
ENDBRANCH  15  16
ENDBRANCH  14  15
ENDBRANCH  11  14
ENDBRANCH   3   8
TORSDOF 5
ENDMDL
MODEL      166
REMARK 921   NORMALIZED FREE ENERGY PREDICTED BY IDOCK:   -3.83 KCAL/MOL
REMARK 922        TOTAL FREE ENERGY PREDICTED BY IDOCK:   -5.95 KCAL/MOL
REMARK 923 INTER-LIGAND FREE ENERGY PREDICTED BY IDOCK:   -5.18 KCAL/MOL
REMARK 924 INTRA-LIGAND FREE ENERGY PREDICTED BY IDOCK:   -0.78 KCAL/MOL
REMARK 927      BINDING AFFINITY PREDICTED BY RF-SCORE:    0.00 PKD
ROOT
HETATM    1  C   UNL     1     -10.392   8.486  69.991  1.00  0.00    -0.213 C  
HETATM    2  C   UNL     1      -9.960   8.366  68.526  1.00  0.00    -0.187 C  
HETATM    3  O   UNL     1      -8.548   8.666  68.390  1.00  0.00    -0.133 OA 
HETATM    4  C   UNL     1     -10.890   9.109  67.553  1.00  0.00    -0.151 C  
HETATM    5  C   UNL     1     -10.070   6.872  68.150  1.00  0.00    -0.166 C  
HETATM    6  O   UNL     1      -8.912   6.349  67.673  1.00  0.00    -0.115 OA 
HETATM    7  O   UNL     1     -11.089   6.202  68.247  1.00  0.00    -0.333 OA 
ENDROOT
BRANCH   3   8
HETATM    8  C   UNL     1      -8.124   9.930  68.107  1.00  0.00    -0.104 A  
HETATM    9  C   UNL     1      -7.827  10.406  66.839  1.00  0.00    -0.114 A  
HETATM   10  C   UNL     1      -7.304  11.686  66.672  1.00  0.00    -0.028 A  
HETATM   11  C   UNL     1      -7.130  12.544  67.763  1.00  0.00    -0.126 A  
HETATM   12  C   UNL     1      -8.001  10.789  69.200  1.00  0.00    -0.135 A  
HETATM   13  C   UNL     1      -7.498  12.084  69.034  1.00  0.00     0.017 A  
BRANCH  11  14
HETATM   14  C   UNL     1      -6.479  13.902  67.608  1.00  0.00    -0.161 C  
BRANCH  14  15
HETATM   15  C   UNL     1      -7.464  15.056  67.390  1.00  0.00    -0.205 C  
BRANCH  15  16
HETATM   16  N   UNL     1      -8.511  15.093  68.388  1.00  0.00    -0.151 N  
HETATM   17  C   UNL     1      -9.835  14.952  68.023  1.00  0.00    -0.216 C  
HETATM   18  H   UNL     1      -8.269  15.224  69.370  1.00  0.00     0.000 HD 
HETATM   19  O   UNL     1     -10.214  14.854  66.861  1.00  0.00    -0.249 OA 
BRANCH  17  20
HETATM   20  C   UNL     1     -10.809  14.864  69.138  1.00  0.00    -0.253 A  
HETATM   21  C   UNL     1     -11.965  14.080  69.036  1.00  0.00    -0.392 A  
HETATM   22  C   UNL     1     -12.870  14.032  70.098  1.00  0.00    -0.079 A  
HETATM   23  C   UNL     1     -12.614  14.759  71.261  1.00  0.00    -0.334 A  
HETATM   24 CL   UNL     1     -13.736  14.698  72.564  1.00  0.00    -0.546 Cl 
HETATM   25  C   UNL     1     -11.457  15.527  71.377  1.00  0.00    -0.478 A  
HETATM   26  C   UNL     1     -10.549  15.577  70.315  1.00  0.00    -0.324 A  
ENDBRANCH  17  20
ENDBRANCH  15  16
ENDBRANCH  14  15
ENDBRANCH  11  14
ENDBRANCH   3   8
TORSDOF 5
ENDMDL
MODEL      167
REMARK 921   NORMALIZED FREE ENERGY PREDICTED BY IDOCK:   -3.74 KCAL/MOL
REMARK 922        TOTAL FREE ENERGY PREDICTED BY IDOCK:   -5.83 KCAL/MOL
REMARK 923 INTER-LIGAND FREE ENERGY PREDICTED BY IDOCK:   -5.23 KCAL/MOL
REMARK 924 INTRA-LIGAND FREE ENERGY PREDICTED BY IDOCK:   -0.60 KCAL/MOL
REMARK 927      BINDING AFFINITY PREDICTED BY RF-SCORE:    0.00 PKD
ROOT
HETATM    1  C   UNL     1      -5.999   9.259  65.184  1.00  0.00    -0.060 C  
HETATM    2  C   UNL     1      -7.450   9.157  64.703  1.00  0.00    -0.104 C  
HETATM    3  O   UNL     1      -8.314   9.978  65.530  1.00  0.00    -0.137 OA 
HETATM    4  C   UNL     1      -7.922   7.710  64.486  1.00  0.00    -0.130 C  
HETATM    5  C   UNL     1      -7.506   9.828  63.312  1.00  0.00    -0.122 C  
HETATM    6  O   UNL     1      -8.418  10.829  63.232  1.00  0.00    -0.147 OA 
HETATM    7  O   UNL     1      -6.818   9.502  62.355  1.00  0.00    -0.099 OA 
ENDROOT
BRANCH   3   8
HETATM    8  C   UNL     1      -8.947   9.453  66.617  1.00  0.00    -0.146 A  
HETATM    9  C   UNL     1     -10.249   8.976  66.629  1.00  0.00    -0.333 A  
HETATM   10  C   UNL     1     -10.833   8.554  67.822  1.00  0.00    -0.065 A  
HETATM   11  C   UNL     1     -10.106   8.537  69.016  1.00  0.00    -0.207 A  
HETATM   12  C   UNL     1      -8.193   9.398  67.791  1.00  0.00    -0.114 A  
HETATM   13  C   UNL     1      -8.769   8.953  68.986  1.00  0.00    -0.136 A  
BRANCH  11  14
HETATM   14  C   UNL     1     -10.754   8.167  70.334  1.00  0.00    -0.234 C  
BRANCH  14  15
HETATM   15  C   UNL     1     -11.178   9.366  71.190  1.00  0.00    -0.357 C  
BRANCH  15  16
HETATM   16  N   UNL     1     -11.019  10.629  70.502  1.00  0.00    -0.425 N  
HETATM   17  C   UNL     1     -12.041  11.141  69.729  1.00  0.00    -0.344 C  
HETATM   18  H   UNL     1     -10.143  11.145  70.588  1.00  0.00     0.000 HD 
HETATM   19  O   UNL     1     -13.098  10.555  69.523  1.00  0.00     0.043 OA 
BRANCH  17  20
HETATM   20  C   UNL     1     -11.823  12.503  69.185  1.00  0.00    -0.348 A  
HETATM   21  C   UNL     1     -11.764  13.622  70.025  1.00  0.00    -0.319 A  
HETATM   22  C   UNL     1     -11.574  14.894  69.478  1.00  0.00    -0.333 A  
HETATM   23  C   UNL     1     -11.435  15.042  68.098  1.00  0.00    -0.339 A  
HETATM   24 CL   UNL     1     -11.204  16.612  67.432  1.00  0.00     0.009 Cl 
HETATM   25  C   UNL     1     -11.475  13.931  67.258  1.00  0.00    -0.369 A  
HETATM   26  C   UNL     1     -11.664  12.657  67.802  1.00  0.00    -0.412 A  
ENDBRANCH  17  20
ENDBRANCH  15  16
ENDBRANCH  14  15
ENDBRANCH  11  14
ENDBRANCH   3   8
TORSDOF 5
ENDMDL
MODEL      168
REMARK 921   NORMALIZED FREE ENERGY PREDICTED BY IDOCK:   -3.68 KCAL/MOL
REMARK 922        TOTAL FREE ENERGY PREDICTED BY IDOCK:   -5.76 KCAL/MOL
REMARK 923 INTER-LIGAND FREE ENERGY PREDICTED BY IDOCK:   -5.06 KCAL/MOL
REMARK 924 INTRA-LIGAND FREE ENERGY PREDICTED BY IDOCK:   -0.70 KCAL/MOL
REMARK 927      BINDING AFFINITY PREDICTED BY RF-SCORE:    0.00 PKD
ROOT
HETATM    1  C   UNL     1     -12.535  14.069  65.991  1.00  0.00    -0.489 C  
HETATM    2  C   UNL     1     -11.464  13.687  67.017  1.00  0.00    -0.343 C  
HETATM    3  O   UNL     1     -10.186  13.486  66.362  1.00  0.00    -0.278 OA 
HETATM    4  C   UNL     1     -11.904  12.561  67.967  1.00  0.00    -0.382 C  
HETATM    5  C   UNL     1     -11.243  14.926  67.912  1.00  0.00    -0.315 C  
HETATM    6  O   UNL     1      -9.951  15.342  67.949  1.00  0.00    -0.225 OA 
HETATM    7  O   UNL     1     -12.121  15.491  68.549  1.00  0.00    -0.246 OA 
ENDROOT
BRANCH   3   8
HETATM    8  C   UNL     1      -9.803  12.249  65.938  1.00  0.00    -0.251 A  
HETATM    9  C   UNL     1     -10.232  11.639  64.768  1.00  0.00    -0.321 A  
HETATM   10  C   UNL     1      -9.857  10.329  64.479  1.00  0.00    -0.384 A  
HETATM   11  C   UNL     1      -8.990   9.623  65.320  1.00  0.00    -0.246 A  
HETATM   12  C   UNL     1      -8.901  11.576  66.763  1.00  0.00    -0.183 A  
HETATM   13  C   UNL     1      -8.503  10.268  66.464  1.00  0.00    -0.126 A  
BRANCH  11  14
HETATM   14  C   UNL     1      -8.647   8.170  65.066  1.00  0.00    -0.076 C  
BRANCH  14  15
HETATM   15  C   UNL     1      -7.442   7.655  65.861  1.00  0.00    -0.082 C  
BRANCH  15  16
HETATM   16  N   UNL     1      -7.755   6.486  66.654  1.00  0.00    -0.098 N  
HETATM   17  C   UNL     1      -7.494   6.466  68.009  1.00  0.00    -0.094 C  
HETATM   18  H   UNL     1      -8.172   5.669  66.208  1.00  0.00     0.000 HD 
HETATM   19  O   UNL     1      -6.939   7.380  68.609  1.00  0.00    -0.073 OA 
BRANCH  17  20
HETATM   20  C   UNL     1      -7.983   5.275  68.746  1.00  0.00    -0.086 A  
HETATM   21  C   UNL     1      -7.837   5.167  70.135  1.00  0.00    -0.078 A  
HETATM   22  C   UNL     1      -8.294   4.025  70.796  1.00  0.00    -0.088 A  
HETATM   23  C   UNL     1      -8.901   2.999  70.071  1.00  0.00    -0.089 A  
HETATM   24 CL   UNL     1      -9.458   1.593  70.892  1.00  0.00    -0.185 Cl 
HETATM   25  C   UNL     1      -9.065   3.108  68.691  1.00  0.00    -0.209 A  
HETATM   26  C   UNL     1      -8.610   4.251  68.027  1.00  0.00    -0.106 A  
ENDBRANCH  17  20
ENDBRANCH  15  16
ENDBRANCH  14  15
ENDBRANCH  11  14
ENDBRANCH   3   8
TORSDOF 5
ENDMDL
MODEL      169
REMARK 921   NORMALIZED FREE ENERGY PREDICTED BY IDOCK:   -3.63 KCAL/MOL
REMARK 922        TOTAL FREE ENERGY PREDICTED BY IDOCK:   -5.70 KCAL/MOL
REMARK 923 INTER-LIGAND FREE ENERGY PREDICTED BY IDOCK:   -5.21 KCAL/MOL
REMARK 924 INTRA-LIGAND FREE ENERGY PREDICTED BY IDOCK:   -0.49 KCAL/MOL
REMARK 927      BINDING AFFINITY PREDICTED BY RF-SCORE:    0.00 PKD
ROOT
HETATM    1  C   UNL     1      -6.608   4.780  71.209  1.00  0.00    -0.030 C  
HETATM    2  C   UNL     1      -7.871   5.374  71.839  1.00  0.00    -0.112 C  
HETATM    3  O   UNL     1      -8.816   5.757  70.809  1.00  0.00    -0.134 OA 
HETATM    4  C   UNL     1      -7.578   6.447  72.900  1.00  0.00    -0.095 C  
HETATM    5  C   UNL     1      -8.576   4.224  72.593  1.00  0.00    -0.105 C  
HETATM    6  O   UNL     1      -9.861   4.029  72.202  1.00  0.00    -0.152 OA 
HETATM    7  O   UNL     1      -8.058   3.546  73.470  1.00  0.00    -0.073 OA 
ENDROOT
BRANCH   3   8
HETATM    8  C   UNL     1      -8.827   7.024  70.304  1.00  0.00    -0.148 A  
HETATM    9  C   UNL     1      -9.696   8.031  70.696  1.00  0.00    -0.180 A  
HETATM   10  C   UNL     1      -9.687   9.261  70.043  1.00  0.00    -0.234 A  
HETATM   11  C   UNL     1      -8.765   9.535  69.028  1.00  0.00    -0.142 A  
HETATM   12  C   UNL     1      -7.869   7.296  69.326  1.00  0.00    -0.116 A  
HETATM   13  C   UNL     1      -7.842   8.538  68.684  1.00  0.00    -0.108 A  
BRANCH  11  14
HETATM   14  C   UNL     1      -8.804  10.833  68.249  1.00  0.00    -0.139 C  
BRANCH  14  15
HETATM   15  C   UNL     1     -10.198  11.461  68.133  1.00  0.00    -0.187 C  
BRANCH  15  16
HETATM   16  N   UNL     1     -10.158  12.906  68.101  1.00  0.00    -0.235 N  
HETATM   17  C   UNL     1     -10.213  13.585  66.900  1.00  0.00    -0.256 C  
HETATM   18  H   UNL     1     -10.090  13.430  68.974  1.00  0.00     0.000 HD 
HETATM   19  O   UNL     1     -10.233  13.031  65.806  1.00  0.00    -0.282 OA 
BRANCH  17  20
HETATM   20  C   UNL     1     -10.307  15.062  66.994  1.00  0.00    -0.269 A  
HETATM   21  C   UNL     1     -10.014  15.882  65.897  1.00  0.00    -0.377 A  
HETATM   22  C   UNL     1     -10.097  17.270  66.023  1.00  0.00    -0.275 A  
HETATM   23  C   UNL     1     -10.480  17.834  67.240  1.00  0.00    -0.353 A  
HETATM   24 CL   UNL     1     -10.577  19.546  67.390  1.00  0.00    -0.588 Cl 
HETATM   25  C   UNL     1     -10.791  17.024  68.331  1.00  0.00    -0.333 A  
HETATM   26  C   UNL     1     -10.710  15.634  68.207  1.00  0.00    -0.283 A  
ENDBRANCH  17  20
ENDBRANCH  15  16
ENDBRANCH  14  15
ENDBRANCH  11  14
ENDBRANCH   3   8
TORSDOF 5
ENDMDL
MODEL      170
REMARK 921   NORMALIZED FREE ENERGY PREDICTED BY IDOCK:   -3.55 KCAL/MOL
REMARK 922        TOTAL FREE ENERGY PREDICTED BY IDOCK:   -5.59 KCAL/MOL
REMARK 923 INTER-LIGAND FREE ENERGY PREDICTED BY IDOCK:   -4.95 KCAL/MOL
REMARK 924 INTRA-LIGAND FREE ENERGY PREDICTED BY IDOCK:   -0.64 KCAL/MOL
REMARK 927      BINDING AFFINITY PREDICTED BY RF-SCORE:    0.00 PKD
ROOT
HETATM    1  C   UNL     1      -5.593  11.507  68.910  1.00  0.00    -0.046 C  
HETATM    2  C   UNL     1      -6.349  11.700  67.592  1.00  0.00    -0.072 C  
HETATM    3  O   UNL     1      -7.664  11.095  67.673  1.00  0.00    -0.107 OA 
HETATM    4  C   UNL     1      -5.523  11.322  66.352  1.00  0.00    -0.139 C  
HETATM    5  C   UNL     1      -6.634  13.213  67.459  1.00  0.00    -0.152 C  
HETATM    6  O   UNL     1      -7.950  13.502  67.300  1.00  0.00    -0.164 OA 
HETATM    7  O   UNL     1      -5.778  14.086  67.477  1.00  0.00    -0.341 OA 
ENDROOT
BRANCH   3   8
HETATM    8  C   UNL     1      -7.871   9.811  67.264  1.00  0.00    -0.098 A  
HETATM    9  C   UNL     1      -7.230   8.696  67.783  1.00  0.00    -0.088 A  
HETATM   10  C   UNL     1      -7.441   7.438  67.222  1.00  0.00    -0.103 A  
HETATM   11  C   UNL     1      -8.349   7.257  66.174  1.00  0.00    -0.133 A  
HETATM   12  C   UNL     1      -8.815   9.640  66.250  1.00  0.00    -0.172 A  
HETATM   13  C   UNL     1      -9.047   8.375  65.699  1.00  0.00    -0.155 A  
BRANCH  11  14
HETATM   14  C   UNL     1      -8.521   5.914  65.496  1.00  0.00    -0.154 C  
BRANCH  14  15
HETATM   15  C   UNL     1      -9.667   5.063  66.055  1.00  0.00    -0.180 C  
BRANCH  15  16
HETATM   16  N   UNL     1      -9.741   5.105  67.500  1.00  0.00    -0.143 N  
HETATM   17  C   UNL     1     -10.652   5.927  68.133  1.00  0.00    -0.244 C  
HETATM   18  H   UNL     1      -9.115   4.523  68.055  1.00  0.00     0.000 HD 
HETATM   19  O   UNL     1     -11.395   6.703  67.542  1.00  0.00    -0.271 OA 
BRANCH  17  20
HETATM   20  C   UNL     1     -10.737   5.786  69.607  1.00  0.00    -0.416 A  
HETATM   21  C   UNL     1     -11.733   6.437  70.345  1.00  0.00    -0.389 A  
HETATM   22  C   UNL     1     -11.775   6.296  71.734  1.00  0.00    -0.355 A  
HETATM   23  C   UNL     1     -10.828   5.500  72.379  1.00  0.00    -0.248 A  
HETATM   24 CL   UNL     1     -10.884   5.334  74.091  1.00  0.00    -0.231 Cl 
HETATM   25  C   UNL     1      -9.845   4.835  71.649  1.00  0.00    -0.248 A  
HETATM   26  C   UNL     1      -9.801   4.973  70.259  1.00  0.00    -0.304 A  
ENDBRANCH  17  20
ENDBRANCH  15  16
ENDBRANCH  14  15
ENDBRANCH  11  14
ENDBRANCH   3   8
TORSDOF 5
ENDMDL
MODEL      171
REMARK 921   NORMALIZED FREE ENERGY PREDICTED BY IDOCK:   -3.54 KCAL/MOL
REMARK 922        TOTAL FREE ENERGY PREDICTED BY IDOCK:   -5.58 KCAL/MOL
REMARK 923 INTER-LIGAND FREE ENERGY PREDICTED BY IDOCK:   -4.78 KCAL/MOL
REMARK 924 INTRA-LIGAND FREE ENERGY PREDICTED BY IDOCK:   -0.80 KCAL/MOL
REMARK 927      BINDING AFFINITY PREDICTED BY RF-SCORE:    0.00 PKD
ROOT
HETATM    1  C   UNL     1      -5.836   7.812  66.719  1.00  0.00    -0.043 C  
HETATM    2  C   UNL     1      -7.358   7.976  66.654  1.00  0.00    -0.088 C  
HETATM    3  O   UNL     1      -7.912   8.067  67.991  1.00  0.00    -0.123 OA 
HETATM    4  C   UNL     1      -8.042   6.963  65.722  1.00  0.00    -0.123 C  
HETATM    5  C   UNL     1      -7.630   9.365  66.034  1.00  0.00    -0.099 C  
HETATM    6  O   UNL     1      -8.406  10.161  66.812  1.00  0.00    -0.121 OA 
HETATM    7  O   UNL     1      -7.213   9.734  64.945  1.00  0.00    -0.116 OA 
ENDROOT
BRANCH   3   8
HETATM    8  C   UNL     1      -8.354   6.955  68.643  1.00  0.00    -0.121 A  
HETATM    9  C   UNL     1      -9.540   6.290  68.372  1.00  0.00    -0.121 A  
HETATM   10  C   UNL     1      -9.945   5.221  69.168  1.00  0.00    -0.275 A  
HETATM   11  C   UNL     1      -9.141   4.751  70.211  1.00  0.00    -0.166 A  
HETATM   12  C   UNL     1      -7.518   6.469  69.650  1.00  0.00    -0.093 A  
HETATM   13  C   UNL     1      -7.911   5.381  70.437  1.00  0.00    -0.088 A  
BRANCH  11  14
HETATM   14  C   UNL     1      -9.610   3.650  71.140  1.00  0.00    -0.247 C  
BRANCH  14  15
HETATM   15  C   UNL     1     -10.613   4.105  72.207  1.00  0.00    -0.002 C  
BRANCH  15  16
HETATM   16  N   UNL     1     -11.127   5.435  71.959  1.00  0.00    -0.185 N  
HETATM   17  C   UNL     1     -10.561   6.533  72.575  1.00  0.00    -0.213 C  
HETATM   18  H   UNL     1     -11.915   5.562  71.324  1.00  0.00     0.000 HD 
HETATM   19  O   UNL     1      -9.655   6.460  73.398  1.00  0.00    -0.145 OA 
BRANCH  17  20
HETATM   20  C   UNL     1     -11.074   7.855  72.142  1.00  0.00    -0.351 A  
HETATM   21  C   UNL     1     -10.330   8.682  71.290  1.00  0.00    -0.308 A  
HETATM   22  C   UNL     1     -10.835   9.928  70.915  1.00  0.00    -0.357 A  
HETATM   23  C   UNL     1     -12.082  10.342  71.383  1.00  0.00    -0.362 A  
HETATM   24 CL   UNL     1     -12.697  11.881  70.919  1.00  0.00    -0.351 Cl 
HETATM   25  C   UNL     1     -12.836   9.517  72.217  1.00  0.00    -0.426 A  
HETATM   26  C   UNL     1     -12.333   8.268  72.594  1.00  0.00    -0.256 A  
ENDBRANCH  17  20
ENDBRANCH  15  16
ENDBRANCH  14  15
ENDBRANCH  11  14
ENDBRANCH   3   8
TORSDOF 5
ENDMDL
MODEL      172
REMARK 921   NORMALIZED FREE ENERGY PREDICTED BY IDOCK:   -3.53 KCAL/MOL
REMARK 922        TOTAL FREE ENERGY PREDICTED BY IDOCK:   -5.57 KCAL/MOL
REMARK 923 INTER-LIGAND FREE ENERGY PREDICTED BY IDOCK:   -5.68 KCAL/MOL
REMARK 924 INTRA-LIGAND FREE ENERGY PREDICTED BY IDOCK:    0.11 KCAL/MOL
REMARK 927      BINDING AFFINITY PREDICTED BY RF-SCORE:    0.00 PKD
ROOT
HETATM    1  C   UNL     1     -10.398  17.006  68.933  1.00  0.00    -0.337 C  
HETATM    2  C   UNL     1      -9.365  16.333  68.024  1.00  0.00    -0.214 C  
HETATM    3  O   UNL     1     -10.021  15.429  67.098  1.00  0.00    -0.231 OA 
HETATM    4  C   UNL     1      -8.170  15.743  68.789  1.00  0.00    -0.192 C  
HETATM    5  C   UNL     1      -8.778  17.441  67.121  1.00  0.00    -0.227 C  
HETATM    6  O   UNL     1      -8.896  17.177  65.796  1.00  0.00    -0.526 OA 
HETATM    7  O   UNL     1      -8.240  18.460  67.532  1.00  0.00    -0.245 OA 
ENDROOT
BRANCH   3   8
HETATM    8  C   UNL     1     -10.179  14.110  67.402  1.00  0.00    -0.244 A  
HETATM    9  C   UNL     1     -11.398  13.455  67.496  1.00  0.00    -0.327 A  
HETATM   10  C   UNL     1     -11.452  12.126  67.912  1.00  0.00    -0.392 A  
HETATM   11  C   UNL     1     -10.285  11.404  68.179  1.00  0.00    -0.200 A  
HETATM   12  C   UNL     1      -9.003  13.391  67.619  1.00  0.00    -0.202 A  
HETATM   13  C   UNL     1      -9.052  12.050  68.015  1.00  0.00    -0.188 A  
BRANCH  11  14
HETATM   14  C   UNL     1     -10.333   9.990  68.719  1.00  0.00    -0.216 C  
BRANCH  14  15
HETATM   15  C   UNL     1     -10.883   9.874  70.145  1.00  0.00    -0.304 C  
BRANCH  15  16
HETATM   16  N   UNL     1     -10.108   8.974  70.971  1.00  0.00    -0.256 N  
HETATM   17  C   UNL     1     -10.575   7.706  71.257  1.00  0.00    -0.219 C  
HETATM   18  H   UNL     1      -9.209   9.277  71.345  1.00  0.00     0.000 HD 
HETATM   19  O   UNL     1     -11.670   7.288  70.900  1.00  0.00    -0.298 OA 
BRANCH  17  20
HETATM   20  C   UNL     1      -9.638   6.821  71.992  1.00  0.00    -0.151 A  
HETATM   21  C   UNL     1      -8.394   6.470  71.455  1.00  0.00    -0.125 A  
HETATM   22  C   UNL     1      -7.543   5.621  72.166  1.00  0.00    -0.101 A  
HETATM   23  C   UNL     1      -7.933   5.133  73.413  1.00  0.00    -0.111 A  
HETATM   24 CL   UNL     1      -6.881   4.085  74.282  1.00  0.00    -0.057 Cl 
HETATM   25  C   UNL     1      -9.163   5.493  73.962  1.00  0.00    -0.126 A  
HETATM   26  C   UNL     1     -10.016   6.344  73.254  1.00  0.00    -0.195 A  
ENDBRANCH  17  20
ENDBRANCH  15  16
ENDBRANCH  14  15
ENDBRANCH  11  14
ENDBRANCH   3   8
TORSDOF 5
ENDMDL
MODEL      173
REMARK 921   NORMALIZED FREE ENERGY PREDICTED BY IDOCK:   -3.53 KCAL/MOL
REMARK 922        TOTAL FREE ENERGY PREDICTED BY IDOCK:   -5.56 KCAL/MOL
REMARK 923 INTER-LIGAND FREE ENERGY PREDICTED BY IDOCK:   -4.88 KCAL/MOL
REMARK 924 INTRA-LIGAND FREE ENERGY PREDICTED BY IDOCK:   -0.68 KCAL/MOL
REMARK 927      BINDING AFFINITY PREDICTED BY RF-SCORE:    0.00 PKD
ROOT
HETATM    1  C   UNL     1      -7.079  10.213  64.886  1.00  0.00    -0.131 C  
HETATM    2  C   UNL     1      -8.569   9.861  64.831  1.00  0.00    -0.169 C  
HETATM    3  O   UNL     1      -9.339  10.800  65.622  1.00  0.00    -0.189 OA 
HETATM    4  C   UNL     1      -8.855   8.375  65.104  1.00  0.00    -0.075 C  
HETATM    5  C   UNL     1      -9.032  10.116  63.379  1.00  0.00    -0.246 C  
HETATM    6  O   UNL     1     -10.079  10.975  63.290  1.00  0.00    -0.333 OA 
HETATM    7  O   UNL     1      -8.535   9.599  62.388  1.00  0.00    -0.141 OA 
ENDROOT
BRANCH   3   8
HETATM    8  C   UNL     1      -9.628  10.543  66.929  1.00  0.00    -0.175 A  
HETATM    9  C   UNL     1      -8.690  10.275  67.915  1.00  0.00    -0.122 A  
HETATM   10  C   UNL     1      -9.100   9.926  69.200  1.00  0.00    -0.175 A  
HETATM   11  C   UNL     1     -10.455   9.902  69.545  1.00  0.00    -0.261 A  
HETATM   12  C   UNL     1     -10.981  10.570  67.269  1.00  0.00    -0.325 A  
HETATM   13  C   UNL     1     -11.396  10.242  68.565  1.00  0.00    -0.231 A  
BRANCH  11  14
HETATM   14  C   UNL     1     -10.918   9.437  70.910  1.00  0.00    -0.391 C  
BRANCH  14  15
HETATM   15  C   UNL     1     -11.545   8.038  70.923  1.00  0.00    -0.269 C  
BRANCH  15  16
HETATM   16  N   UNL     1     -10.658   7.022  70.399  1.00  0.00    -0.217 N  
HETATM   17  C   UNL     1     -10.675   5.741  70.913  1.00  0.00    -0.264 C  
HETATM   18  H   UNL     1     -10.014   7.254  69.643  1.00  0.00     0.000 HD 
HETATM   19  O   UNL     1     -11.373   5.397  71.861  1.00  0.00    -0.137 OA 
BRANCH  17  20
HETATM   20  C   UNL     1      -9.828   4.748  70.209  1.00  0.00    -0.313 A  
HETATM   21  C   UNL     1      -9.883   4.599  68.818  1.00  0.00    -0.201 A  
HETATM   22  C   UNL     1      -9.083   3.644  68.188  1.00  0.00    -0.197 A  
HETATM   23  C   UNL     1      -8.226   2.846  68.947  1.00  0.00    -0.059 A  
HETATM   24 CL   UNL     1      -7.246   1.668  68.164  1.00  0.00    -0.042 Cl 
HETATM   25  C   UNL     1      -8.153   3.002  70.330  1.00  0.00    -0.056 A  
HETATM   26  C   UNL     1      -8.951   3.958  70.963  1.00  0.00    -0.159 A  
ENDBRANCH  17  20
ENDBRANCH  15  16
ENDBRANCH  14  15
ENDBRANCH  11  14
ENDBRANCH   3   8
TORSDOF 5
ENDMDL
MODEL      174
REMARK 921   NORMALIZED FREE ENERGY PREDICTED BY IDOCK:   -3.46 KCAL/MOL
REMARK 922        TOTAL FREE ENERGY PREDICTED BY IDOCK:   -5.47 KCAL/MOL
REMARK 923 INTER-LIGAND FREE ENERGY PREDICTED BY IDOCK:   -5.46 KCAL/MOL
REMARK 924 INTRA-LIGAND FREE ENERGY PREDICTED BY IDOCK:   -0.01 KCAL/MOL
REMARK 927      BINDING AFFINITY PREDICTED BY RF-SCORE:    0.00 PKD
ROOT
HETATM    1  C   UNL     1      -5.662  13.562  67.445  1.00  0.00     0.163 C  
HETATM    2  C   UNL     1      -6.781  12.549  67.705  1.00  0.00    -0.123 C  
HETATM    3  O   UNL     1      -8.024  13.008  67.117  1.00  0.00    -0.163 OA 
HETATM    4  C   UNL     1      -6.869  12.100  69.173  1.00  0.00    -0.078 C  
HETATM    5  C   UNL     1      -6.426  11.278  66.900  1.00  0.00    -0.128 C  
HETATM    6  O   UNL     1      -7.403  10.892  66.042  1.00  0.00    -0.142 OA 
HETATM    7  O   UNL     1      -5.382  10.652  67.014  1.00  0.00    -0.040 OA 
ENDROOT
BRANCH   3   8
HETATM    8  C   UNL     1      -8.916  13.737  67.846  1.00  0.00    -0.193 A  
HETATM    9  C   UNL     1     -10.279  13.808  67.599  1.00  0.00    -0.242 A  
HETATM   10  C   UNL     1     -11.086  14.664  68.344  1.00  0.00    -0.270 A  
HETATM   11  C   UNL     1     -10.560  15.419  69.397  1.00  0.00    -0.251 A  
HETATM   12  C   UNL     1      -8.384  14.448  68.923  1.00  0.00    -0.080 A  
HETATM   13  C   UNL     1      -9.196  15.292  69.689  1.00  0.00    -0.139 A  
BRANCH  11  14
HETATM   14  C   UNL     1     -11.406  16.421  70.155  1.00  0.00    -0.202 C  
BRANCH  14  15
HETATM   15  C   UNL     1     -11.986  15.892  71.472  1.00  0.00    -0.471 C  
BRANCH  15  16
HETATM   16  N   UNL     1     -11.915  14.451  71.576  1.00  0.00    -0.407 N  
HETATM   17  C   UNL     1     -12.898  13.658  71.019  1.00  0.00    -0.287 C  
HETATM   18  H   UNL     1     -11.132  14.017  72.064  1.00  0.00     0.000 HD 
HETATM   19  O   UNL     1     -13.902  14.101  70.471  1.00  0.00     0.293 OA 
BRANCH  17  20
HETATM   20  C   UNL     1     -12.653  12.196  71.061  1.00  0.00    -0.359 A  
HETATM   21  C   UNL     1     -11.738  11.585  70.194  1.00  0.00    -0.395 A  
HETATM   22  C   UNL     1     -11.543  10.203  70.250  1.00  0.00    -0.379 A  
HETATM   23  C   UNL     1     -12.254   9.438  71.174  1.00  0.00    -0.323 A  
HETATM   24 CL   UNL     1     -12.011   7.736  71.234  1.00  0.00    -0.314 Cl 
HETATM   25  C   UNL     1     -13.153  10.042  72.052  1.00  0.00    -0.541 A  
HETATM   26  C   UNL     1     -13.350  11.425  72.000  1.00  0.00    -0.388 A  
ENDBRANCH  17  20
ENDBRANCH  15  16
ENDBRANCH  14  15
ENDBRANCH  11  14
ENDBRANCH   3   8
TORSDOF 5
ENDMDL
MODEL      175
REMARK 921   NORMALIZED FREE ENERGY PREDICTED BY IDOCK:   -3.42 KCAL/MOL
REMARK 922        TOTAL FREE ENERGY PREDICTED BY IDOCK:   -5.42 KCAL/MOL
REMARK 923 INTER-LIGAND FREE ENERGY PREDICTED BY IDOCK:   -4.91 KCAL/MOL
REMARK 924 INTRA-LIGAND FREE ENERGY PREDICTED BY IDOCK:   -0.51 KCAL/MOL
REMARK 927      BINDING AFFINITY PREDICTED BY RF-SCORE:    0.00 PKD
ROOT
HETATM    1  C   UNL     1      -7.737  19.369  68.792  1.00  0.00    -0.397 C  
HETATM    2  C   UNL     1      -8.677  18.770  67.742  1.00  0.00    -0.287 C  
HETATM    3  O   UNL     1      -9.430  17.668  68.310  1.00  0.00    -0.275 OA 
HETATM    4  C   UNL     1      -7.987  18.478  66.400  1.00  0.00    -0.291 C  
HETATM    5  C   UNL     1      -9.747  19.843  67.438  1.00  0.00    -0.389 C  
HETATM    6  O   UNL     1     -11.018  19.407  67.625  1.00  0.00    -0.429 OA 
HETATM    7  O   UNL     1      -9.503  20.978  67.052  1.00  0.00    -0.266 OA 
ENDROOT
BRANCH   3   8
HETATM    8  C   UNL     1      -8.977  16.386  68.209  1.00  0.00    -0.206 A  
HETATM    9  C   UNL     1      -9.342  15.487  67.219  1.00  0.00    -0.220 A  
HETATM   10  C   UNL     1      -8.898  14.167  67.268  1.00  0.00    -0.227 A  
HETATM   11  C   UNL     1      -8.024  13.735  68.272  1.00  0.00    -0.146 A  
HETATM   12  C   UNL     1      -8.069  15.984  69.191  1.00  0.00    -0.238 A  
HETATM   13  C   UNL     1      -7.602  14.665  69.230  1.00  0.00    -0.113 A  
BRANCH  11  14
HETATM   14  C   UNL     1      -7.607  12.284  68.389  1.00  0.00    -0.128 C  
BRANCH  14  15
HETATM   15  C   UNL     1      -7.334  11.592  67.048  1.00  0.00    -0.143 C  
BRANCH  15  16
HETATM   16  N   UNL     1      -7.858  10.245  66.998  1.00  0.00    -0.106 N  
HETATM   17  C   UNL     1      -7.051   9.166  67.297  1.00  0.00    -0.079 C  
HETATM   18  H   UNL     1      -8.833  10.090  66.740  1.00  0.00     0.000 HD 
HETATM   19  O   UNL     1      -5.856   9.260  67.555  1.00  0.00    -0.045 OA 
BRANCH  17  20
HETATM   20  C   UNL     1      -7.726   7.846  67.352  1.00  0.00    -0.109 A  
HETATM   21  C   UNL     1      -7.135   6.751  67.995  1.00  0.00    -0.085 A  
HETATM   22  C   UNL     1      -7.791   5.518  68.013  1.00  0.00    -0.096 A  
HETATM   23  C   UNL     1      -9.036   5.385  67.398  1.00  0.00    -0.111 A  
HETATM   24 CL   UNL     1      -9.836   3.862  67.422  1.00  0.00    -0.164 Cl 
HETATM   25  C   UNL     1      -9.638   6.475  66.772  1.00  0.00    -0.198 A  
HETATM   26  C   UNL     1      -8.985   7.711  66.753  1.00  0.00    -0.166 A  
ENDBRANCH  17  20
ENDBRANCH  15  16
ENDBRANCH  14  15
ENDBRANCH  11  14
ENDBRANCH   3   8
TORSDOF 5
ENDMDL
MODEL      176
REMARK 921   NORMALIZED FREE ENERGY PREDICTED BY IDOCK:   -3.42 KCAL/MOL
REMARK 922        TOTAL FREE ENERGY PREDICTED BY IDOCK:   -5.42 KCAL/MOL
REMARK 923 INTER-LIGAND FREE ENERGY PREDICTED BY IDOCK:   -5.79 KCAL/MOL
REMARK 924 INTRA-LIGAND FREE ENERGY PREDICTED BY IDOCK:    0.38 KCAL/MOL
REMARK 927      BINDING AFFINITY PREDICTED BY RF-SCORE:    0.00 PKD
ROOT
HETATM    1  C   UNL     1      -9.244   4.046  71.131  1.00  0.00    -0.196 C  
HETATM    2  C   UNL     1      -9.632   4.784  72.416  1.00  0.00    -0.144 C  
HETATM    3  O   UNL     1     -11.011   5.227  72.347  1.00  0.00    -0.232 OA 
HETATM    4  C   UNL     1      -8.614   5.857  72.835  1.00  0.00    -0.121 C  
HETATM    5  C   UNL     1      -9.626   3.736  73.551  1.00  0.00    -0.106 C  
HETATM    6  O   UNL     1     -10.803   3.659  74.222  1.00  0.00    -0.192 OA 
HETATM    7  O   UNL     1      -8.665   3.039  73.849  1.00  0.00    -0.076 OA 
ENDROOT
BRANCH   3   8
HETATM    8  C   UNL     1     -11.326   6.470  71.886  1.00  0.00    -0.285 A  
HETATM    9  C   UNL     1     -11.180   6.895  70.574  1.00  0.00    -0.353 A  
HETATM   10  C   UNL     1     -11.437   8.220  70.230  1.00  0.00    -0.065 A  
HETATM   11  C   UNL     1     -11.909   9.134  71.177  1.00  0.00    -0.374 A  
HETATM   12  C   UNL     1     -11.840   7.357  72.833  1.00  0.00    -0.009 A  
HETATM   13  C   UNL     1     -12.121   8.683  72.486  1.00  0.00    -0.368 A  
BRANCH  11  14
HETATM   14  C   UNL     1     -12.105  10.597  70.839  1.00  0.00    -0.489 C  
BRANCH  14  15
HETATM   15  C   UNL     1     -12.115  10.905  69.337  1.00  0.00    -0.290 C  
BRANCH  15  16
HETATM   16  N   UNL     1     -11.339   9.957  68.567  1.00  0.00    -0.514 N  
HETATM   17  C   UNL     1     -10.861  10.292  67.316  1.00  0.00    -0.250 C  
HETATM   18  H   UNL     1     -11.143   9.033  68.952  1.00  0.00     0.000 HD 
HETATM   19  O   UNL     1     -11.105  11.355  66.756  1.00  0.00    -0.287 OA 
BRANCH  17  20
HETATM   20  C   UNL     1      -9.962   9.299  66.678  1.00  0.00    -0.333 A  
HETATM   21  C   UNL     1      -9.825   8.004  67.192  1.00  0.00    -0.274 A  
HETATM   22  C   UNL     1      -8.957   7.099  66.577  1.00  0.00    -0.172 A  
HETATM   23  C   UNL     1      -8.235   7.487  65.449  1.00  0.00    -0.135 A  
HETATM   24 CL   UNL     1      -7.165   6.369  64.699  1.00  0.00    -0.060 Cl 
HETATM   25  C   UNL     1      -8.380   8.770  64.922  1.00  0.00    -0.179 A  
HETATM   26  C   UNL     1      -9.249   9.677  65.534  1.00  0.00    -0.291 A  
ENDBRANCH  17  20
ENDBRANCH  15  16
ENDBRANCH  14  15
ENDBRANCH  11  14
ENDBRANCH   3   8
TORSDOF 5
ENDMDL
MODEL      177
REMARK 921   NORMALIZED FREE ENERGY PREDICTED BY IDOCK:   -3.41 KCAL/MOL
REMARK 922        TOTAL FREE ENERGY PREDICTED BY IDOCK:   -5.41 KCAL/MOL
REMARK 923 INTER-LIGAND FREE ENERGY PREDICTED BY IDOCK:   -4.60 KCAL/MOL
REMARK 924 INTRA-LIGAND FREE ENERGY PREDICTED BY IDOCK:   -0.80 KCAL/MOL
REMARK 927      BINDING AFFINITY PREDICTED BY RF-SCORE:    0.00 PKD
ROOT
HETATM    1  C   UNL     1      -6.950  10.006  65.534  1.00  0.00    -0.124 C  
HETATM    2  C   UNL     1      -8.332   9.363  65.383  1.00  0.00    -0.137 C  
HETATM    3  O   UNL     1      -8.671   8.611  66.575  1.00  0.00    -0.117 OA 
HETATM    4  C   UNL     1      -8.515   8.614  64.054  1.00  0.00    -0.080 C  
HETATM    5  C   UNL     1      -9.359  10.517  65.358  1.00  0.00    -0.211 C  
HETATM    6  O   UNL     1     -10.323  10.404  66.307  1.00  0.00    -0.236 OA 
HETATM    7  O   UNL     1      -9.341  11.447  64.563  1.00  0.00    -0.183 OA 
ENDROOT
BRANCH   3   8
HETATM    8  C   UNL     1      -8.386   7.281  66.669  1.00  0.00    -0.121 A  
HETATM    9  C   UNL     1      -9.130   6.264  66.088  1.00  0.00    -0.153 A  
HETATM   10  C   UNL     1      -8.808   4.931  66.331  1.00  0.00    -0.113 A  
HETATM   11  C   UNL     1      -7.695   4.585  67.105  1.00  0.00    -0.090 A  
HETATM   12  C   UNL     1      -7.246   6.953  67.404  1.00  0.00    -0.090 A  
HETATM   13  C   UNL     1      -6.906   5.615  67.631  1.00  0.00    -0.060 A  
BRANCH  11  14
HETATM   14  C   UNL     1      -7.387   3.143  67.451  1.00  0.00    -0.058 C  
BRANCH  14  15
HETATM   15  C   UNL     1      -8.407   2.484  68.387  1.00  0.00    -0.065 C  
BRANCH  15  16
HETATM   16  N   UNL     1      -9.340   3.433  68.953  1.00  0.00    -0.165 N  
HETATM   17  C   UNL     1      -9.316   3.722  70.303  1.00  0.00    -0.168 C  
HETATM   18  H   UNL     1     -10.022   3.893  68.351  1.00  0.00     0.000 HD 
HETATM   19  O   UNL     1      -8.572   3.168  71.105  1.00  0.00    -0.065 OA 
BRANCH  17  20
HETATM   20  C   UNL     1     -10.220   4.811  70.749  1.00  0.00    -0.246 A  
HETATM   21  C   UNL     1     -10.554   4.972  72.100  1.00  0.00    -0.259 A  
HETATM   22  C   UNL     1     -11.421   5.998  72.484  1.00  0.00    -0.336 A  
HETATM   23  C   UNL     1     -11.945   6.861  71.521  1.00  0.00    -0.344 A  
HETATM   24 CL   UNL     1     -13.015   8.120  72.002  1.00  0.00    -0.334 Cl 
HETATM   25  C   UNL     1     -11.602   6.717  70.178  1.00  0.00    -0.446 A  
HETATM   26  C   UNL     1     -10.733   5.693  69.791  1.00  0.00    -0.401 A  
ENDBRANCH  17  20
ENDBRANCH  15  16
ENDBRANCH  14  15
ENDBRANCH  11  14
ENDBRANCH   3   8
TORSDOF 5
ENDMDL
MODEL      178
REMARK 921   NORMALIZED FREE ENERGY PREDICTED BY IDOCK:   -3.40 KCAL/MOL
REMARK 922        TOTAL FREE ENERGY PREDICTED BY IDOCK:   -5.40 KCAL/MOL
REMARK 923 INTER-LIGAND FREE ENERGY PREDICTED BY IDOCK:   -4.25 KCAL/MOL
REMARK 924 INTRA-LIGAND FREE ENERGY PREDICTED BY IDOCK:   -1.15 KCAL/MOL
REMARK 927      BINDING AFFINITY PREDICTED BY RF-SCORE:    0.00 PKD
ROOT
HETATM    1  C   UNL     1      -6.167  10.469  67.354  1.00  0.00    -0.057 C  
HETATM    2  C   UNL     1      -7.650  10.413  66.976  1.00  0.00    -0.101 C  
HETATM    3  O   UNL     1      -8.318   9.356  67.711  1.00  0.00    -0.114 OA 
HETATM    4  C   UNL     1      -7.894  10.418  65.458  1.00  0.00    -0.152 C  
HETATM    5  C   UNL     1      -8.295  11.712  67.507  1.00  0.00    -0.151 C  
HETATM    6  O   UNL     1      -9.347  11.494  68.335  1.00  0.00    -0.186 OA 
HETATM    7  O   UNL     1      -7.924  12.842  67.218  1.00  0.00    -0.173 OA 
ENDROOT
BRANCH   3   8
HETATM    8  C   UNL     1      -8.438   8.105  67.185  1.00  0.00    -0.124 A  
HETATM    9  C   UNL     1      -7.384   7.238  66.939  1.00  0.00    -0.092 A  
HETATM   10  C   UNL     1      -7.608   6.019  66.304  1.00  0.00    -0.090 A  
HETATM   11  C   UNL     1      -8.900   5.609  65.961  1.00  0.00    -0.147 A  
HETATM   12  C   UNL     1      -9.738   7.691  66.891  1.00  0.00    -0.277 A  
HETATM   13  C   UNL     1      -9.970   6.457  66.275  1.00  0.00    -0.010 A  
BRANCH  11  14
HETATM   14  C   UNL     1      -9.148   4.330  65.190  1.00  0.00    -0.145 C  
BRANCH  14  15
HETATM   15  C   UNL     1      -9.227   3.070  66.061  1.00  0.00    -0.117 C  
BRANCH  15  16
HETATM   16  N   UNL     1      -9.694   3.346  67.402  1.00  0.00    -0.306 N  
HETATM   17  C   UNL     1      -8.837   3.243  68.479  1.00  0.00    -0.117 C  
HETATM   18  H   UNL     1     -10.665   3.619  67.553  1.00  0.00     0.000 HD 
HETATM   19  O   UNL     1      -7.676   2.861  68.392  1.00  0.00    -0.055 OA 
BRANCH  17  20
HETATM   20  C   UNL     1      -9.383   3.684  69.786  1.00  0.00    -0.243 A  
HETATM   21  C   UNL     1      -9.293   2.873  70.925  1.00  0.00    -0.220 A  
HETATM   22  C   UNL     1      -9.832   3.312  72.136  1.00  0.00    -0.237 A  
HETATM   23  C   UNL     1     -10.452   4.560  72.209  1.00  0.00    -0.145 A  
HETATM   24 CL   UNL     1     -11.117   5.092  73.703  1.00  0.00    -0.377 Cl 
HETATM   25  C   UNL     1     -10.530   5.379  71.084  1.00  0.00    -0.295 A  
HETATM   26  C   UNL     1      -9.990   4.943  69.870  1.00  0.00    -0.317 A  
ENDBRANCH  17  20
ENDBRANCH  15  16
ENDBRANCH  14  15
ENDBRANCH  11  14
ENDBRANCH   3   8
TORSDOF 5
ENDMDL
MODEL      179
REMARK 921   NORMALIZED FREE ENERGY PREDICTED BY IDOCK:   -3.36 KCAL/MOL
REMARK 922        TOTAL FREE ENERGY PREDICTED BY IDOCK:   -5.35 KCAL/MOL
REMARK 923 INTER-LIGAND FREE ENERGY PREDICTED BY IDOCK:   -4.37 KCAL/MOL
REMARK 924 INTRA-LIGAND FREE ENERGY PREDICTED BY IDOCK:   -0.98 KCAL/MOL
REMARK 927      BINDING AFFINITY PREDICTED BY RF-SCORE:    0.00 PKD
ROOT
HETATM    1  C   UNL     1     -10.037  11.881  69.438  1.00  0.00     0.443 C  
HETATM    2  C   UNL     1     -10.780  10.542  69.463  1.00  0.00    -0.255 C  
HETATM    3  O   UNL     1      -9.848   9.452  69.677  1.00  0.00    -0.174 OA 
HETATM    4  C   UNL     1     -11.750  10.360  68.284  1.00  0.00     0.047 C  
HETATM    5  C   UNL     1     -11.660  10.544  70.733  1.00  0.00    -0.338 C  
HETATM    6  O   UNL     1     -11.427   9.488  71.553  1.00  0.00    -0.368 OA 
HETATM    7  O   UNL     1     -12.502  11.392  70.994  1.00  0.00    -0.386 OA 
ENDROOT
BRANCH   3   8
HETATM    8  C   UNL     1      -9.291   8.790  68.623  1.00  0.00    -0.141 A  
HETATM    9  C   UNL     1      -8.049   9.068  68.073  1.00  0.00    -0.105 A  
HETATM   10  C   UNL     1      -7.618   8.395  66.932  1.00  0.00    -0.091 A  
HETATM   11  C   UNL     1      -8.391   7.382  66.355  1.00  0.00    -0.127 A  
HETATM   12  C   UNL     1     -10.053   7.750  68.088  1.00  0.00    -0.220 A  
HETATM   13  C   UNL     1      -9.614   7.056  66.955  1.00  0.00    -0.199 A  
BRANCH  11  14
HETATM   14  C   UNL     1      -7.977   6.707  65.064  1.00  0.00    -0.124 C  
BRANCH  14  15
HETATM   15  C   UNL     1      -8.280   7.519  63.798  1.00  0.00     0.059 C  
BRANCH  15  16
HETATM   16  N   UNL     1      -9.062   8.706  64.070  1.00  0.00    -0.167 N  
HETATM   17  C   UNL     1      -8.506   9.961  63.924  1.00  0.00    -0.181 C  
HETATM   18  H   UNL     1     -10.032   8.615  64.371  1.00  0.00     0.000 HD 
HETATM   19  O   UNL     1      -7.333  10.156  63.627  1.00  0.00    -0.141 OA 
BRANCH  17  20
HETATM   20  C   UNL     1      -9.435  11.105  64.091  1.00  0.00    -0.237 A  
HETATM   21  C   UNL     1      -9.605  11.730  65.333  1.00  0.00    -0.210 A  
HETATM   22  C   UNL     1     -10.501  12.794  65.460  1.00  0.00    -0.306 A  
HETATM   23  C   UNL     1     -11.217  13.235  64.347  1.00  0.00    -0.381 A  
HETATM   24 CL   UNL     1     -12.322  14.544  64.511  1.00  0.00    -0.476 Cl 
HETATM   25  C   UNL     1     -11.040  12.628  63.104  1.00  0.00     0.041 A  
HETATM   26  C   UNL     1     -10.144  11.564  62.974  1.00  0.00    -0.330 A  
ENDBRANCH  17  20
ENDBRANCH  15  16
ENDBRANCH  14  15
ENDBRANCH  11  14
ENDBRANCH   3   8
TORSDOF 5
ENDMDL
MODEL      180
REMARK 921   NORMALIZED FREE ENERGY PREDICTED BY IDOCK:   -3.36 KCAL/MOL
REMARK 922        TOTAL FREE ENERGY PREDICTED BY IDOCK:   -5.34 KCAL/MOL
REMARK 923 INTER-LIGAND FREE ENERGY PREDICTED BY IDOCK:   -5.18 KCAL/MOL
REMARK 924 INTRA-LIGAND FREE ENERGY PREDICTED BY IDOCK:   -0.16 KCAL/MOL
REMARK 927      BINDING AFFINITY PREDICTED BY RF-SCORE:    0.00 PKD
ROOT
HETATM    1  C   UNL     1      -8.502  13.099  67.283  1.00  0.00    -0.199 C  
HETATM    2  C   UNL     1     -10.016  13.327  67.227  1.00  0.00    -0.231 C  
HETATM    3  O   UNL     1     -10.556  13.462  68.566  1.00  0.00    -0.244 OA 
HETATM    4  C   UNL     1     -10.750  12.329  66.316  1.00  0.00    -0.293 C  
HETATM    5  C   UNL     1     -10.234  14.716  66.587  1.00  0.00    -0.274 C  
HETATM    6  O   UNL     1     -10.969  15.556  67.358  1.00  0.00    -0.310 OA 
HETATM    7  O   UNL     1      -9.810  15.051  65.490  1.00  0.00    -0.340 OA 
ENDROOT
BRANCH   3   8
HETATM    8  C   UNL     1     -11.039  12.379  69.239  1.00  0.00    -0.147 A  
HETATM    9  C   UNL     1     -12.298  12.295  69.813  1.00  0.00    -0.081 A  
HETATM   10  C   UNL     1     -12.655  11.178  70.566  1.00  0.00    -0.360 A  
HETATM   11  C   UNL     1     -11.784  10.092  70.706  1.00  0.00    -0.446 A  
HETATM   12  C   UNL     1     -10.177  11.285  69.329  1.00  0.00    -0.058 A  
HETATM   13  C   UNL     1     -10.540  10.152  70.065  1.00  0.00    -0.338 A  
BRANCH  11  14
HETATM   14  C   UNL     1     -12.123   8.914  71.595  1.00  0.00    -0.415 C  
BRANCH  14  15
HETATM   15  C   UNL     1     -10.970   8.444  72.490  1.00  0.00    -0.318 C  
BRANCH  15  16
HETATM   16  N   UNL     1     -10.252   7.319  71.932  1.00  0.00    -0.187 N  
HETATM   17  C   UNL     1      -9.136   6.813  72.567  1.00  0.00    -0.133 C  
HETATM   18  H   UNL     1     -10.573   6.896  71.061  1.00  0.00     0.000 HD 
HETATM   19  O   UNL     1      -8.649   7.301  73.581  1.00  0.00    -0.133 OA 
BRANCH  17  20
HETATM   20  C   UNL     1      -8.564   5.575  71.984  1.00  0.00    -0.131 A  
HETATM   21  C   UNL     1      -7.311   5.092  72.383  1.00  0.00    -0.093 A  
HETATM   22  C   UNL     1      -6.794   3.933  71.802  1.00  0.00    -0.026 A  
HETATM   23  C   UNL     1      -7.532   3.255  70.831  1.00  0.00    -0.037 A  
HETATM   24 CL   UNL     1      -6.887   1.829  70.117  1.00  0.00    -0.032 Cl 
HETATM   25  C   UNL     1      -8.787   3.719  70.442  1.00  0.00    -0.144 A  
HETATM   26  C   UNL     1      -9.307   4.879  71.023  1.00  0.00    -0.209 A  
ENDBRANCH  17  20
ENDBRANCH  15  16
ENDBRANCH  14  15
ENDBRANCH  11  14
ENDBRANCH   3   8
TORSDOF 5
ENDMDL
MODEL      181
REMARK 921   NORMALIZED FREE ENERGY PREDICTED BY IDOCK:   -3.30 KCAL/MOL
REMARK 922        TOTAL FREE ENERGY PREDICTED BY IDOCK:   -5.26 KCAL/MOL
REMARK 923 INTER-LIGAND FREE ENERGY PREDICTED BY IDOCK:   -5.02 KCAL/MOL
REMARK 924 INTRA-LIGAND FREE ENERGY PREDICTED BY IDOCK:   -0.24 KCAL/MOL
REMARK 927      BINDING AFFINITY PREDICTED BY RF-SCORE:    0.00 PKD
ROOT
HETATM    1  C   UNL     1      -7.665   9.408  67.561  1.00  0.00    -0.091 C  
HETATM    2  C   UNL     1      -9.103   9.866  67.823  1.00  0.00    -0.131 C  
HETATM    3  O   UNL     1      -9.747  10.241  66.579  1.00  0.00    -0.177 OA 
HETATM    4  C   UNL     1      -9.220  10.890  68.963  1.00  0.00    -0.128 C  
HETATM    5  C   UNL     1      -9.887   8.621  68.296  1.00  0.00    -0.165 C  
HETATM    6  O   UNL     1     -10.985   8.356  67.545  1.00  0.00    -0.099 OA 
HETATM    7  O   UNL     1      -9.581   7.931  69.259  1.00  0.00    -0.156 OA 
ENDROOT
BRANCH   3   8
HETATM    8  C   UNL     1      -9.728  11.532  66.142  1.00  0.00    -0.223 A  
HETATM    9  C   UNL     1      -8.945  12.544  66.678  1.00  0.00    -0.174 A  
HETATM   10  C   UNL     1      -9.077  13.853  66.221  1.00  0.00    -0.025 A  
HETATM   11  C   UNL     1      -9.946  14.168  65.172  1.00  0.00    -0.263 A  
HETATM   12  C   UNL     1     -10.565  11.821  65.063  1.00  0.00    -0.338 A  
HETATM   13  C   UNL     1     -10.683  13.131  64.586  1.00  0.00    -0.398 A  
BRANCH  11  14
HETATM   14  C   UNL     1     -10.166  15.599  64.727  1.00  0.00     0.175 C  
BRANCH  14  15
HETATM   15  C   UNL     1     -11.133  16.396  65.611  1.00  0.00     0.055 C  
BRANCH  15  16
HETATM   16  N   UNL     1     -11.434  15.724  66.856  1.00  0.00     0.050 N  
HETATM   17  C   UNL     1     -11.113  16.309  68.065  1.00  0.00    -0.299 C  
HETATM   18  H   UNL     1     -11.888  14.811  66.841  1.00  0.00     0.000 HD 
HETATM   19  O   UNL     1     -10.511  17.372  68.168  1.00  0.00    -0.355 OA 
BRANCH  17  20
HETATM   20  C   UNL     1     -11.593  15.599  69.276  1.00  0.00    -0.375 A  
HETATM   21  C   UNL     1     -12.016  14.266  69.219  1.00  0.00    -0.375 A  
HETATM   22  C   UNL     1     -12.478  13.632  70.375  1.00  0.00    -0.364 A  
HETATM   23  C   UNL     1     -12.509  14.329  71.583  1.00  0.00    -0.339 A  
HETATM   24 CL   UNL     1     -13.083  13.543  73.002  1.00  0.00    -0.105 Cl 
HETATM   25  C   UNL     1     -12.072  15.651  71.650  1.00  0.00    -0.496 A  
HETATM   26  C   UNL     1     -11.608  16.287  70.495  1.00  0.00    -0.223 A  
ENDBRANCH  17  20
ENDBRANCH  15  16
ENDBRANCH  14  15
ENDBRANCH  11  14
ENDBRANCH   3   8
TORSDOF 5
ENDMDL
MODEL      182
REMARK 921   NORMALIZED FREE ENERGY PREDICTED BY IDOCK:   -3.29 KCAL/MOL
REMARK 922        TOTAL FREE ENERGY PREDICTED BY IDOCK:   -5.25 KCAL/MOL
REMARK 923 INTER-LIGAND FREE ENERGY PREDICTED BY IDOCK:   -4.66 KCAL/MOL
REMARK 924 INTRA-LIGAND FREE ENERGY PREDICTED BY IDOCK:   -0.59 KCAL/MOL
REMARK 927      BINDING AFFINITY PREDICTED BY RF-SCORE:    0.00 PKD
ROOT
HETATM    1  C   UNL     1     -12.062   9.272  71.223  1.00  0.00    -0.412 C  
HETATM    2  C   UNL     1     -10.781   8.436  71.138  1.00  0.00    -0.230 C  
HETATM    3  O   UNL     1      -9.703   9.223  70.571  1.00  0.00    -0.221 OA 
HETATM    4  C   UNL     1     -10.995   7.054  70.502  1.00  0.00    -0.297 C  
HETATM    5  C   UNL     1     -10.330   8.164  72.590  1.00  0.00    -0.328 C  
HETATM    6  O   UNL     1      -9.062   8.573  72.848  1.00  0.00    -0.270 OA 
HETATM    7  O   UNL     1     -11.020   7.622  73.443  1.00  0.00    -0.371 OA 
ENDROOT
BRANCH   3   8
HETATM    8  C   UNL     1      -9.453   9.207  69.231  1.00  0.00    -0.158 A  
HETATM    9  C   UNL     1     -10.383   9.491  68.243  1.00  0.00    -0.244 A  
HETATM   10  C   UNL     1     -10.049   9.346  66.899  1.00  0.00    -0.314 A  
HETATM   11  C   UNL     1      -8.756   8.979  66.511  1.00  0.00    -0.144 A  
HETATM   12  C   UNL     1      -8.146   8.885  68.861  1.00  0.00    -0.112 A  
HETATM   13  C   UNL     1      -7.800   8.761  67.511  1.00  0.00    -0.102 A  
BRANCH  11  14
HETATM   14  C   UNL     1      -8.404   8.729  65.059  1.00  0.00    -0.180 C  
BRANCH  14  15
HETATM   15  C   UNL     1      -7.905   7.310  64.762  1.00  0.00    -0.126 C  
BRANCH  15  16
HETATM   16  N   UNL     1      -8.240   6.370  65.809  1.00  0.00    -0.127 N  
HETATM   17  C   UNL     1      -8.079   5.013  65.613  1.00  0.00    -0.113 C  
HETATM   18  H   UNL     1      -8.599   6.712  66.701  1.00  0.00     0.000 HD 
HETATM   19  O   UNL     1      -7.714   4.517  64.552  1.00  0.00    -0.078 OA 
BRANCH  17  20
HETATM   20  C   UNL     1      -8.318   4.153  66.797  1.00  0.00    -0.101 A  
HETATM   21  C   UNL     1      -9.169   3.042  66.731  1.00  0.00    -0.164 A  
HETATM   22  C   UNL     1      -9.385   2.263  67.870  1.00  0.00    -0.232 A  
HETATM   23  C   UNL     1      -8.748   2.590  69.067  1.00  0.00    -0.084 A  
HETATM   24 CL   UNL     1      -9.022   1.628  70.466  1.00  0.00    -0.122 Cl 
HETATM   25  C   UNL     1      -7.886   3.684  69.135  1.00  0.00    -0.052 A  
HETATM   26  C   UNL     1      -7.666   4.465  67.997  1.00  0.00    -0.080 A  
ENDBRANCH  17  20
ENDBRANCH  15  16
ENDBRANCH  14  15
ENDBRANCH  11  14
ENDBRANCH   3   8
TORSDOF 5
ENDMDL
MODEL      183
REMARK 921   NORMALIZED FREE ENERGY PREDICTED BY IDOCK:   -3.23 KCAL/MOL
REMARK 922        TOTAL FREE ENERGY PREDICTED BY IDOCK:   -5.18 KCAL/MOL
REMARK 923 INTER-LIGAND FREE ENERGY PREDICTED BY IDOCK:   -4.90 KCAL/MOL
REMARK 924 INTRA-LIGAND FREE ENERGY PREDICTED BY IDOCK:   -0.28 KCAL/MOL
REMARK 927      BINDING AFFINITY PREDICTED BY RF-SCORE:    0.00 PKD
ROOT
HETATM    1  C   UNL     1      -6.954   3.806  70.594  1.00  0.00    -0.033 C  
HETATM    2  C   UNL     1      -8.484   3.791  70.519  1.00  0.00    -0.068 C  
HETATM    3  O   UNL     1      -8.927   4.140  69.183  1.00  0.00    -0.093 OA 
HETATM    4  C   UNL     1      -9.158   4.566  71.663  1.00  0.00    -0.171 C  
HETATM    5  C   UNL     1      -8.923   2.320  70.693  1.00  0.00    -0.087 C  
HETATM    6  O   UNL     1      -9.693   1.862  69.674  1.00  0.00    -0.022 OA 
HETATM    7  O   UNL     1      -8.634   1.616  71.651  1.00  0.00    -0.053 OA 
ENDROOT
BRANCH   3   8
HETATM    8  C   UNL     1      -9.216   5.431  68.856  1.00  0.00    -0.120 A  
HETATM    9  C   UNL     1     -10.490   5.977  68.814  1.00  0.00    -0.307 A  
HETATM   10  C   UNL     1     -10.682   7.283  68.368  1.00  0.00    -0.165 A  
HETATM   11  C   UNL     1      -9.598   8.094  68.018  1.00  0.00    -0.174 A  
HETATM   12  C   UNL     1      -8.120   6.242  68.555  1.00  0.00    -0.109 A  
HETATM   13  C   UNL     1      -8.308   7.561  68.129  1.00  0.00    -0.125 A  
BRANCH  11  14
HETATM   14  C   UNL     1      -9.799   9.481  67.446  1.00  0.00    -0.218 C  
BRANCH  14  15
HETATM   15  C   UNL     1     -11.015  10.228  68.006  1.00  0.00    -0.289 C  
BRANCH  15  16
HETATM   16  N   UNL     1     -10.814  11.660  68.063  1.00  0.00    -0.203 N  
HETATM   17  C   UNL     1     -10.762  12.409  66.905  1.00  0.00    -0.240 C  
HETATM   18  H   UNL     1     -10.710  12.120  68.968  1.00  0.00     0.000 HD 
HETATM   19  O   UNL     1     -10.815  11.927  65.779  1.00  0.00    -0.277 OA 
BRANCH  17  20
HETATM   20  C   UNL     1     -10.693  13.880  67.087  1.00  0.00    -0.282 A  
HETATM   21  C   UNL     1     -10.628  14.454  68.362  1.00  0.00    -0.248 A  
HETATM   22  C   UNL     1     -10.581  15.843  68.498  1.00  0.00    -0.263 A  
HETATM   23  C   UNL     1     -10.592  16.653  67.362  1.00  0.00    -0.295 A  
HETATM   24 CL   UNL     1     -10.537  18.363  67.538  1.00  0.00    -0.447 Cl 
HETATM   25  C   UNL     1     -10.639  16.087  66.089  1.00  0.00    -0.302 A  
HETATM   26  C   UNL     1     -10.684  14.697  65.950  1.00  0.00    -0.312 A  
ENDBRANCH  17  20
ENDBRANCH  15  16
ENDBRANCH  14  15
ENDBRANCH  11  14
ENDBRANCH   3   8
TORSDOF 5
ENDMDL
MODEL      184
REMARK 921   NORMALIZED FREE ENERGY PREDICTED BY IDOCK:   -3.21 KCAL/MOL
REMARK 922        TOTAL FREE ENERGY PREDICTED BY IDOCK:   -5.15 KCAL/MOL
REMARK 923 INTER-LIGAND FREE ENERGY PREDICTED BY IDOCK:   -4.49 KCAL/MOL
REMARK 924 INTRA-LIGAND FREE ENERGY PREDICTED BY IDOCK:   -0.66 KCAL/MOL
REMARK 927      BINDING AFFINITY PREDICTED BY RF-SCORE:    0.00 PKD
ROOT
HETATM    1  C   UNL     1      -6.380   9.226  65.067  1.00  0.00    -0.067 C  
HETATM    2  C   UNL     1      -7.680   8.444  65.278  1.00  0.00    -0.098 C  
HETATM    3  O   UNL     1      -8.150   8.605  66.640  1.00  0.00    -0.098 OA 
HETATM    4  C   UNL     1      -7.610   6.995  64.770  1.00  0.00    -0.105 C  
HETATM    5  C   UNL     1      -8.760   9.138  64.418  1.00  0.00    -0.153 C  
HETATM    6  O   UNL     1      -9.849   9.526  65.129  1.00  0.00    -0.248 OA 
HETATM    7  O   UNL     1      -8.678   9.320  63.211  1.00  0.00    -0.213 OA 
ENDROOT
BRANCH   3   8
HETATM    8  C   UNL     1      -7.802   7.715  67.611  1.00  0.00    -0.123 A  
HETATM    9  C   UNL     1      -6.699   7.834  68.444  1.00  0.00    -0.062 A  
HETATM   10  C   UNL     1      -6.378   6.814  69.336  1.00  0.00    -0.042 A  
HETATM   11  C   UNL     1      -7.189   5.682  69.463  1.00  0.00    -0.066 A  
HETATM   12  C   UNL     1      -8.647   6.614  67.758  1.00  0.00    -0.121 A  
HETATM   13  C   UNL     1      -8.340   5.598  68.670  1.00  0.00    -0.106 A  
BRANCH  11  14
HETATM   14  C   UNL     1      -6.803   4.526  70.362  1.00  0.00    -0.037 C  
BRANCH  14  15
HETATM   15  C   UNL     1      -7.467   4.547  71.744  1.00  0.00    -0.074 C  
BRANCH  15  16
HETATM   16  N   UNL     1      -8.769   5.179  71.728  1.00  0.00    -0.129 N  
HETATM   17  C   UNL     1      -8.937   6.452  72.234  1.00  0.00    -0.139 C  
HETATM   18  H   UNL     1      -9.569   4.679  71.340  1.00  0.00     0.000 HD 
HETATM   19  O   UNL     1      -8.043   7.094  72.773  1.00  0.00    -0.104 OA 
BRANCH  17  20
HETATM   20  C   UNL     1     -10.279   7.055  72.039  1.00  0.00    -0.209 A  
HETATM   21  C   UNL     1     -10.475   8.438  72.127  1.00  0.00    -0.396 A  
HETATM   22  C   UNL     1     -11.755   8.972  71.954  1.00  0.00    -0.445 A  
HETATM   23  C   UNL     1     -12.830   8.124  71.687  1.00  0.00    -0.326 A  
HETATM   24 CL   UNL     1     -14.404   8.788  71.479  1.00  0.00    -0.402 Cl 
HETATM   25  C   UNL     1     -12.638   6.748  71.580  1.00  0.00    -0.380 A  
HETATM   26  C   UNL     1     -11.359   6.211  71.751  1.00  0.00    -0.346 A  
ENDBRANCH  17  20
ENDBRANCH  15  16
ENDBRANCH  14  15
ENDBRANCH  11  14
ENDBRANCH   3   8
TORSDOF 5
ENDMDL
MODEL      185
REMARK 921   NORMALIZED FREE ENERGY PREDICTED BY IDOCK:   -3.18 KCAL/MOL
REMARK 922        TOTAL FREE ENERGY PREDICTED BY IDOCK:   -5.12 KCAL/MOL
REMARK 923 INTER-LIGAND FREE ENERGY PREDICTED BY IDOCK:   -4.71 KCAL/MOL
REMARK 924 INTRA-LIGAND FREE ENERGY PREDICTED BY IDOCK:   -0.40 KCAL/MOL
REMARK 927      BINDING AFFINITY PREDICTED BY RF-SCORE:    0.00 PKD
ROOT
HETATM    1  C   UNL     1     -10.855  16.916  69.812  1.00  0.00    -0.041 C  
HETATM    2  C   UNL     1      -9.927  16.976  68.595  1.00  0.00    -0.294 C  
HETATM    3  O   UNL     1     -10.563  16.364  67.445  1.00  0.00    -0.314 OA 
HETATM    4  C   UNL     1      -8.497  16.495  68.894  1.00  0.00    -0.235 C  
HETATM    5  C   UNL     1      -9.795  18.466  68.208  1.00  0.00    -0.359 C  
HETATM    6  O   UNL     1     -10.139  18.722  66.921  1.00  0.00    -0.318 OA 
HETATM    7  O   UNL     1      -9.407  19.348  68.962  1.00  0.00    -0.373 OA 
ENDROOT
BRANCH   3   8
HETATM    8  C   UNL     1     -10.372  15.045  67.158  1.00  0.00    -0.257 A  
HETATM    9  C   UNL     1      -9.756  14.559  66.015  1.00  0.00    -0.331 A  
HETATM   10  C   UNL     1      -9.703  13.188  65.773  1.00  0.00    -0.151 A  
HETATM   11  C   UNL     1     -10.205  12.270  66.701  1.00  0.00    -0.235 A  
HETATM   12  C   UNL     1     -10.836  14.141  68.115  1.00  0.00    -0.258 A  
HETATM   13  C   UNL     1     -10.764  12.763  67.887  1.00  0.00    -0.235 A  
BRANCH  11  14
HETATM   14  C   UNL     1     -10.236  10.784  66.410  1.00  0.00    -0.294 C  
BRANCH  14  15
HETATM   15  C   UNL     1      -8.903  10.206  65.921  1.00  0.00    -0.149 C  
BRANCH  15  16
HETATM   16  N   UNL     1      -8.649   8.876  66.433  1.00  0.00    -0.122 N  
HETATM   17  C   UNL     1      -7.862   8.693  67.552  1.00  0.00    -0.102 C  
HETATM   18  H   UNL     1      -9.055   8.067  65.963  1.00  0.00     0.000 HD 
HETATM   19  O   UNL     1      -7.287   9.605  68.137  1.00  0.00    -0.080 OA 
BRANCH  17  20
HETATM   20  C   UNL     1      -7.785   7.306  68.070  1.00  0.00    -0.117 A  
HETATM   21  C   UNL     1      -6.576   6.762  68.522  1.00  0.00    -0.058 A  
HETATM   22  C   UNL     1      -6.535   5.447  68.988  1.00  0.00    -0.042 A  
HETATM   23  C   UNL     1      -7.701   4.681  69.010  1.00  0.00    -0.071 A  
HETATM   24 CL   UNL     1      -7.642   3.060  69.582  1.00  0.00    -0.044 Cl 
HETATM   25  C   UNL     1      -8.912   5.221  68.578  1.00  0.00    -0.118 A  
HETATM   26  C   UNL     1      -8.956   6.538  68.112  1.00  0.00    -0.116 A  
ENDBRANCH  17  20
ENDBRANCH  15  16
ENDBRANCH  14  15
ENDBRANCH  11  14
ENDBRANCH   3   8
TORSDOF 5
ENDMDL
MODEL      186
REMARK 921   NORMALIZED FREE ENERGY PREDICTED BY IDOCK:   -3.11 KCAL/MOL
REMARK 922        TOTAL FREE ENERGY PREDICTED BY IDOCK:   -5.02 KCAL/MOL
REMARK 923 INTER-LIGAND FREE ENERGY PREDICTED BY IDOCK:   -4.90 KCAL/MOL
REMARK 924 INTRA-LIGAND FREE ENERGY PREDICTED BY IDOCK:   -0.12 KCAL/MOL
REMARK 927      BINDING AFFINITY PREDICTED BY RF-SCORE:    0.00 PKD
ROOT
HETATM    1  C   UNL     1      -9.498   5.098  67.999  1.00  0.00    -0.156 C  
HETATM    2  C   UNL     1      -9.356   4.687  66.530  1.00  0.00    -0.149 C  
HETATM    3  O   UNL     1      -8.207   5.339  65.932  1.00  0.00    -0.112 OA 
HETATM    4  C   UNL     1     -10.667   4.798  65.735  1.00  0.00    -0.220 C  
HETATM    5  C   UNL     1      -8.988   3.186  66.522  1.00  0.00    -0.154 C  
HETATM    6  O   UNL     1      -7.841   2.915  65.850  1.00  0.00    -0.080 OA 
HETATM    7  O   UNL     1      -9.653   2.304  67.048  1.00  0.00     0.043 OA 
ENDROOT
BRANCH   3   8
HETATM    8  C   UNL     1      -8.338   6.529  65.281  1.00  0.00    -0.121 A  
HETATM    9  C   UNL     1      -8.210   6.707  63.912  1.00  0.00     0.071 A  
HETATM   10  C   UNL     1      -8.263   7.985  63.360  1.00  0.00    -0.039 A  
HETATM   11  C   UNL     1      -8.511   9.107  64.157  1.00  0.00    -0.198 A  
HETATM   12  C   UNL     1      -8.633   7.632  66.084  1.00  0.00    -0.160 A  
HETATM   13  C   UNL     1      -8.710   8.914  65.531  1.00  0.00    -0.215 A  
BRANCH  11  14
HETATM   14  C   UNL     1      -8.481  10.509  63.586  1.00  0.00    -0.133 C  
BRANCH  14  15
HETATM   15  C   UNL     1      -9.745  11.333  63.859  1.00  0.00    -0.277 C  
BRANCH  15  16
HETATM   16  N   UNL     1     -10.241  11.163  65.207  1.00  0.00    -0.266 N  
HETATM   17  C   UNL     1     -10.252  12.224  66.091  1.00  0.00    -0.239 C  
HETATM   18  H   UNL     1     -10.587  10.252  65.508  1.00  0.00     0.000 HD 
HETATM   19  O   UNL     1      -9.797  13.332  65.829  1.00  0.00    -0.265 OA 
BRANCH  17  20
HETATM   20  C   UNL     1     -10.911  11.974  67.396  1.00  0.00    -0.285 A  
HETATM   21  C   UNL     1     -11.575  12.997  68.084  1.00  0.00    -0.379 A  
HETATM   22  C   UNL     1     -12.171  12.732  69.319  1.00  0.00    -0.104 A  
HETATM   23  C   UNL     1     -12.109  11.446  69.858  1.00  0.00    -0.330 A  
HETATM   24 CL   UNL     1     -12.842  11.128  71.382  1.00  0.00    -0.541 Cl 
HETATM   25  C   UNL     1     -11.464  10.420  69.170  1.00  0.00    -0.261 A  
HETATM   26  C   UNL     1     -10.868  10.682  67.933  1.00  0.00    -0.328 A  
ENDBRANCH  17  20
ENDBRANCH  15  16
ENDBRANCH  14  15
ENDBRANCH  11  14
ENDBRANCH   3   8
TORSDOF 5
ENDMDL
MODEL      187
REMARK 921   NORMALIZED FREE ENERGY PREDICTED BY IDOCK:   -3.09 KCAL/MOL
REMARK 922        TOTAL FREE ENERGY PREDICTED BY IDOCK:   -5.00 KCAL/MOL
REMARK 923 INTER-LIGAND FREE ENERGY PREDICTED BY IDOCK:   -4.55 KCAL/MOL
REMARK 924 INTRA-LIGAND FREE ENERGY PREDICTED BY IDOCK:   -0.45 KCAL/MOL
REMARK 927      BINDING AFFINITY PREDICTED BY RF-SCORE:    0.00 PKD
ROOT
HETATM    1  C   UNL     1     -11.554   7.057  70.337  1.00  0.00    -0.341 C  
HETATM    2  C   UNL     1     -10.981   8.448  70.628  1.00  0.00    -0.243 C  
HETATM    3  O   UNL     1     -11.427   9.396  69.625  1.00  0.00    -0.074 OA 
HETATM    4  C   UNL     1      -9.470   8.441  70.905  1.00  0.00    -0.205 C  
HETATM    5  C   UNL     1     -11.644   8.938  71.934  1.00  0.00    -0.371 C  
HETATM    6  O   UNL     1     -12.276  10.132  71.805  1.00  0.00    -0.374 OA 
HETATM    7  O   UNL     1     -11.608   8.339  73.000  1.00  0.00    -0.252 OA 
ENDROOT
BRANCH   3   8
HETATM    8  C   UNL     1     -10.679   9.642  68.512  1.00  0.00    -0.200 A  
HETATM    9  C   UNL     1      -9.879  10.759  68.320  1.00  0.00    -0.177 A  
HETATM   10  C   UNL     1      -9.235  10.961  67.102  1.00  0.00    -0.159 A  
HETATM   11  C   UNL     1      -9.320  10.018  66.073  1.00  0.00    -0.224 A  
HETATM   12  C   UNL     1     -10.737   8.669  67.513  1.00  0.00    -0.209 A  
HETATM   13  C   UNL     1     -10.072   8.858  66.297  1.00  0.00    -0.284 A  
BRANCH  11  14
HETATM   14  C   UNL     1      -8.700  10.268  64.714  1.00  0.00    -0.201 C  
BRANCH  14  15
HETATM   15  C   UNL     1      -7.601   9.273  64.326  1.00  0.00    -0.112 C  
BRANCH  15  16
HETATM   16  N   UNL     1      -8.112   7.939  64.092  1.00  0.00    -0.276 N  
HETATM   17  C   UNL     1      -7.396   6.832  64.499  1.00  0.00    -0.090 C  
HETATM   18  H   UNL     1      -9.009   7.817  63.622  1.00  0.00     0.000 HD 
HETATM   19  O   UNL     1      -6.284   6.890  65.013  1.00  0.00    -0.035 OA 
BRANCH  17  20
HETATM   20  C   UNL     1      -8.077   5.524  64.337  1.00  0.00    -0.124 A  
HETATM   21  C   UNL     1      -8.094   4.578  65.369  1.00  0.00    -0.102 A  
HETATM   22  C   UNL     1      -8.730   3.349  65.177  1.00  0.00    -0.119 A  
HETATM   23  C   UNL     1      -9.353   3.073  63.959  1.00  0.00    -0.120 A  
HETATM   24 CL   UNL     1     -10.132   1.557  63.729  1.00  0.00    -0.129 Cl 
HETATM   25  C   UNL     1      -9.356   4.018  62.934  1.00  0.00    -0.123 A  
HETATM   26  C   UNL     1      -8.721   5.248  63.124  1.00  0.00    -0.002 A  
ENDBRANCH  17  20
ENDBRANCH  15  16
ENDBRANCH  14  15
ENDBRANCH  11  14
ENDBRANCH   3   8
TORSDOF 5
ENDMDL
MODEL      188
REMARK 921   NORMALIZED FREE ENERGY PREDICTED BY IDOCK:   -2.95 KCAL/MOL
REMARK 922        TOTAL FREE ENERGY PREDICTED BY IDOCK:   -4.81 KCAL/MOL
REMARK 923 INTER-LIGAND FREE ENERGY PREDICTED BY IDOCK:   -4.10 KCAL/MOL
REMARK 924 INTRA-LIGAND FREE ENERGY PREDICTED BY IDOCK:   -0.71 KCAL/MOL
REMARK 927      BINDING AFFINITY PREDICTED BY RF-SCORE:    0.00 PKD
ROOT
HETATM    1  C   UNL     1     -10.272   8.690  70.223  1.00  0.00    -0.213 C  
HETATM    2  C   UNL     1     -10.843   7.521  71.033  1.00  0.00    -0.235 C  
HETATM    3  O   UNL     1      -9.771   6.674  71.518  1.00  0.00    -0.165 OA 
HETATM    4  C   UNL     1     -11.993   6.790  70.322  1.00  0.00    -0.294 C  
HETATM    5  C   UNL     1     -11.459   8.126  72.314  1.00  0.00    -0.371 C  
HETATM    6  O   UNL     1     -10.958   7.594  73.457  1.00  0.00    -0.326 OA 
HETATM    7  O   UNL     1     -12.326   8.989  72.328  1.00  0.00    -0.364 OA 
ENDROOT
BRANCH   3   8
HETATM    8  C   UNL     1      -9.355   5.591  70.802  1.00  0.00    -0.163 A  
HETATM    9  C   UNL     1      -9.958   4.343  70.819  1.00  0.00    -0.247 A  
HETATM   10  C   UNL     1      -9.390   3.277  70.126  1.00  0.00    -0.242 A  
HETATM   11  C   UNL     1      -8.243   3.451  69.345  1.00  0.00    -0.070 A  
HETATM   12  C   UNL     1      -8.237   5.793  69.991  1.00  0.00    -0.115 A  
HETATM   13  C   UNL     1      -7.676   4.730  69.274  1.00  0.00    -0.063 A  
BRANCH  11  14
HETATM   14  C   UNL     1      -7.565   2.283  68.661  1.00  0.00    -0.046 C  
BRANCH  14  15
HETATM   15  C   UNL     1      -8.074   1.996  67.243  1.00  0.00    -0.067 C  
BRANCH  15  16
HETATM   16  N   UNL     1      -7.784   3.069  66.318  1.00  0.00    -0.077 N  
HETATM   17  C   UNL     1      -8.755   3.993  65.987  1.00  0.00    -0.116 C  
HETATM   18  H   UNL     1      -6.854   3.144  65.905  1.00  0.00     0.000 HD 
HETATM   19  O   UNL     1      -9.913   3.937  66.389  1.00  0.00    -0.166 OA 
BRANCH  17  20
HETATM   20  C   UNL     1      -8.310   5.128  65.142  1.00  0.00    -0.141 A  
HETATM   21  C   UNL     1      -8.370   6.448  65.605  1.00  0.00    -0.147 A  
HETATM   22  C   UNL     1      -7.958   7.495  64.778  1.00  0.00    -0.132 A  
HETATM   23  C   UNL     1      -7.481   7.220  63.496  1.00  0.00    -0.100 A  
HETATM   24 CL   UNL     1      -6.979   8.515  62.481  1.00  0.00    -0.094 Cl 
HETATM   25  C   UNL     1      -7.403   5.907  63.035  1.00  0.00    -0.057 A  
HETATM   26  C   UNL     1      -7.813   4.857  63.861  1.00  0.00    -0.085 A  
ENDBRANCH  17  20
ENDBRANCH  15  16
ENDBRANCH  14  15
ENDBRANCH  11  14
ENDBRANCH   3   8
TORSDOF 5
ENDMDL
MODEL      189
REMARK 921   NORMALIZED FREE ENERGY PREDICTED BY IDOCK:   -2.92 KCAL/MOL
REMARK 922        TOTAL FREE ENERGY PREDICTED BY IDOCK:   -4.77 KCAL/MOL
REMARK 923 INTER-LIGAND FREE ENERGY PREDICTED BY IDOCK:   -4.00 KCAL/MOL
REMARK 924 INTRA-LIGAND FREE ENERGY PREDICTED BY IDOCK:   -0.78 KCAL/MOL
REMARK 927      BINDING AFFINITY PREDICTED BY RF-SCORE:    0.00 PKD
ROOT
HETATM    1  C   UNL     1      -9.375   5.628  68.953  1.00  0.00    -0.144 C  
HETATM    2  C   UNL     1      -8.886   4.785  67.771  1.00  0.00    -0.105 C  
HETATM    3  O   UNL     1      -7.479   5.031  67.524  1.00  0.00    -0.080 OA 
HETATM    4  C   UNL     1      -9.800   4.875  66.538  1.00  0.00    -0.225 C  
HETATM    5  C   UNL     1      -8.940   3.309  68.225  1.00  0.00    -0.140 C  
HETATM    6  O   UNL     1      -7.751   2.664  68.109  1.00  0.00    -0.055 OA 
HETATM    7  O   UNL     1      -9.943   2.744  68.639  1.00  0.00     0.215 OA 
ENDROOT
BRANCH   3   8
HETATM    8  C   UNL     1      -7.080   5.981  66.632  1.00  0.00    -0.072 A  
HETATM    9  C   UNL     1      -6.569   5.725  65.369  1.00  0.00    -0.043 A  
HETATM   10  C   UNL     1      -6.097   6.768  64.575  1.00  0.00    -0.035 A  
HETATM   11  C   UNL     1      -6.187   8.098  65.001  1.00  0.00    -0.048 A  
HETATM   12  C   UNL     1      -7.220   7.305  67.052  1.00  0.00    -0.092 A  
HETATM   13  C   UNL     1      -6.769   8.358  66.248  1.00  0.00    -0.065 A  
BRANCH  11  14
HETATM   14  C   UNL     1      -5.597   9.232  64.189  1.00  0.00    -0.069 C  
BRANCH  14  15
HETATM   15  C   UNL     1      -6.595   9.936  63.263  1.00  0.00    -0.125 C  
BRANCH  15  16
HETATM   16  N   UNL     1      -7.503  10.806  63.979  1.00  0.00    -0.321 N  
HETATM   17  C   UNL     1      -8.869  10.659  63.844  1.00  0.00    -0.163 C  
HETATM   18  H   UNL     1      -7.131  11.534  64.589  1.00  0.00     0.000 HD 
HETATM   19  O   UNL     1      -9.396   9.852  63.086  1.00  0.00    -0.275 OA 
BRANCH  17  20
HETATM   20  C   UNL     1      -9.703  11.508  64.730  1.00  0.00    -0.250 A  
HETATM   21  C   UNL     1     -10.615  12.432  64.205  1.00  0.00    -0.391 A  
HETATM   22  C   UNL     1     -11.374  13.227  65.067  1.00  0.00    -0.326 A  
HETATM   23  C   UNL     1     -11.225  13.093  66.447  1.00  0.00    -0.300 A  
HETATM   24 CL   UNL     1     -12.159  14.079  67.503  1.00  0.00    -0.411 Cl 
HETATM   25  C   UNL     1     -10.331  12.163  66.976  1.00  0.00    -0.232 A  
HETATM   26  C   UNL     1      -9.572  11.364  66.117  1.00  0.00    -0.242 A  
ENDBRANCH  17  20
ENDBRANCH  15  16
ENDBRANCH  14  15
ENDBRANCH  11  14
ENDBRANCH   3   8
TORSDOF 5
ENDMDL
MODEL      190
REMARK 921   NORMALIZED FREE ENERGY PREDICTED BY IDOCK:   -2.87 KCAL/MOL
REMARK 922        TOTAL FREE ENERGY PREDICTED BY IDOCK:   -4.71 KCAL/MOL
REMARK 923 INTER-LIGAND FREE ENERGY PREDICTED BY IDOCK:   -3.95 KCAL/MOL
REMARK 924 INTRA-LIGAND FREE ENERGY PREDICTED BY IDOCK:   -0.77 KCAL/MOL
REMARK 927      BINDING AFFINITY PREDICTED BY RF-SCORE:    0.00 PKD
ROOT
HETATM    1  C   UNL     1     -11.319  10.681  67.823  1.00  0.00    -0.320 C  
HETATM    2  C   UNL     1     -10.112   9.769  68.063  1.00  0.00    -0.171 C  
HETATM    3  O   UNL     1      -8.910  10.367  67.514  1.00  0.00    -0.134 OA 
HETATM    4  C   UNL     1     -10.364   8.306  67.666  1.00  0.00    -0.313 C  
HETATM    5  C   UNL     1      -9.864   9.752  69.588  1.00  0.00    -0.221 C  
HETATM    6  O   UNL     1      -8.606  10.125  69.935  1.00  0.00    -0.177 OA 
HETATM    7  O   UNL     1     -10.695   9.425  70.425  1.00  0.00    -0.224 OA 
ENDROOT
BRANCH   3   8
HETATM    8  C   UNL     1      -8.503  10.080  66.245  1.00  0.00    -0.130 A  
HETATM    9  C   UNL     1      -9.334  10.014  65.136  1.00  0.00    -0.302 A  
HETATM   10  C   UNL     1      -8.829   9.612  63.902  1.00  0.00    -0.255 A  
HETATM   11  C   UNL     1      -7.470   9.333  63.733  1.00  0.00    -0.106 A  
HETATM   12  C   UNL     1      -7.136   9.850  66.083  1.00  0.00    -0.103 A  
HETATM   13  C   UNL     1      -6.621   9.469  64.839  1.00  0.00    -0.086 A  
BRANCH  11  14
HETATM   14  C   UNL     1      -6.925   8.809  62.420  1.00  0.00    -0.093 C  
BRANCH  14  15
HETATM   15  C   UNL     1      -6.304   7.409  62.505  1.00  0.00    -0.062 C  
BRANCH  15  16
HETATM   16  N   UNL     1      -6.837   6.627  63.600  1.00  0.00    -0.051 N  
HETATM   17  C   UNL     1      -7.977   5.868  63.430  1.00  0.00    -0.110 C  
HETATM   18  H   UNL     1      -6.366   6.637  64.505  1.00  0.00     0.000 HD 
HETATM   19  O   UNL     1      -8.636   5.850  62.397  1.00  0.00    -0.086 OA 
BRANCH  17  20
HETATM   20  C   UNL     1      -8.353   4.999  64.572  1.00  0.00    -0.135 A  
HETATM   21  C   UNL     1      -8.999   3.773  64.373  1.00  0.00    -0.124 A  
HETATM   22  C   UNL     1      -9.354   2.986  65.472  1.00  0.00    -0.102 A  
HETATM   23  C   UNL     1      -9.055   3.422  66.763  1.00  0.00    -0.167 A  
HETATM   24 CL   UNL     1      -9.499   2.450  68.111  1.00  0.00    -0.259 Cl 
HETATM   25  C   UNL     1      -8.396   4.633  66.967  1.00  0.00    -0.105 A  
HETATM   26  C   UNL     1      -8.039   5.422  65.870  1.00  0.00    -0.108 A  
ENDBRANCH  17  20
ENDBRANCH  15  16
ENDBRANCH  14  15
ENDBRANCH  11  14
ENDBRANCH   3   8
TORSDOF 5
ENDMDL
MODEL      191
REMARK 921   NORMALIZED FREE ENERGY PREDICTED BY IDOCK:   -2.74 KCAL/MOL
REMARK 922        TOTAL FREE ENERGY PREDICTED BY IDOCK:   -4.55 KCAL/MOL
REMARK 923 INTER-LIGAND FREE ENERGY PREDICTED BY IDOCK:   -3.90 KCAL/MOL
REMARK 924 INTRA-LIGAND FREE ENERGY PREDICTED BY IDOCK:   -0.65 KCAL/MOL
REMARK 927      BINDING AFFINITY PREDICTED BY RF-SCORE:    0.00 PKD
ROOT
HETATM    1  C   UNL     1      -7.518   6.972  70.145  1.00  0.00    -0.086 C  
HETATM    2  C   UNL     1      -7.443   7.085  68.619  1.00  0.00    -0.102 C  
HETATM    3  O   UNL     1      -6.340   7.942  68.230  1.00  0.00    -0.047 OA 
HETATM    4  C   UNL     1      -8.795   7.409  67.963  1.00  0.00    -0.126 C  
HETATM    5  C   UNL     1      -7.045   5.689  68.089  1.00  0.00    -0.071 C  
HETATM    6  O   UNL     1      -5.928   5.703  67.318  1.00  0.00    -0.017 OA 
HETATM    7  O   UNL     1      -7.663   4.658  68.312  1.00  0.00    -0.079 OA 
ENDROOT
BRANCH   3   8
HETATM    8  C   UNL     1      -6.529   9.277  68.026  1.00  0.00    -0.059 A  
HETATM    9  C   UNL     1      -6.733   9.873  66.791  1.00  0.00    -0.079 A  
HETATM   10  C   UNL     1      -6.814  11.260  66.684  1.00  0.00    -0.130 A  
HETATM   11  C   UNL     1      -6.759  12.077  67.818  1.00  0.00    -0.096 A  
HETATM   12  C   UNL     1      -6.519  10.074  69.172  1.00  0.00    -0.048 A  
HETATM   13  C   UNL     1      -6.623  11.466  69.071  1.00  0.00    -0.086 A  
BRANCH  11  14
HETATM   14  C   UNL     1      -6.754  13.587  67.707  1.00  0.00    -0.173 C  
BRANCH  14  15
HETATM   15  C   UNL     1      -8.117  14.203  67.366  1.00  0.00    -0.189 C  
BRANCH  15  16
HETATM   16  N   UNL     1      -9.115  13.945  68.381  1.00  0.00    -0.201 N  
HETATM   17  C   UNL     1      -9.630  14.979  69.138  1.00  0.00    -0.202 C  
HETATM   18  H   UNL     1      -9.442  12.992  68.540  1.00  0.00     0.000 HD 
HETATM   19  O   UNL     1      -9.247  16.141  69.054  1.00  0.00    -0.230 OA 
BRANCH  17  20
HETATM   20  C   UNL     1     -10.746  14.623  70.048  1.00  0.00    -0.031 A  
HETATM   21  C   UNL     1     -11.032  15.389  71.185  1.00  0.00    -0.277 A  
HETATM   22  C   UNL     1     -12.080  15.017  72.030  1.00  0.00    -0.454 A  
HETATM   23  C   UNL     1     -12.842  13.887  71.733  1.00  0.00    -0.335 A  
HETATM   24 CL   UNL     1     -14.129  13.432  72.781  1.00  0.00    -0.246 Cl 
HETATM   25  C   UNL     1     -12.574  13.130  70.594  1.00  0.00    -0.286 A  
HETATM   26  C   UNL     1     -11.527  13.501  69.746  1.00  0.00    -0.246 A  
ENDBRANCH  17  20
ENDBRANCH  15  16
ENDBRANCH  14  15
ENDBRANCH  11  14
ENDBRANCH   3   8
TORSDOF 5
ENDMDL
MODEL      192
REMARK 921   NORMALIZED FREE ENERGY PREDICTED BY IDOCK:   -2.70 KCAL/MOL
REMARK 922        TOTAL FREE ENERGY PREDICTED BY IDOCK:   -4.49 KCAL/MOL
REMARK 923 INTER-LIGAND FREE ENERGY PREDICTED BY IDOCK:   -3.67 KCAL/MOL
REMARK 924 INTRA-LIGAND FREE ENERGY PREDICTED BY IDOCK:   -0.82 KCAL/MOL
REMARK 927      BINDING AFFINITY PREDICTED BY RF-SCORE:    0.00 PKD
ROOT
HETATM    1  C   UNL     1     -11.904  10.757  67.970  1.00  0.00     0.047 C  
HETATM    2  C   UNL     1     -11.101  11.447  69.077  1.00  0.00    -0.243 C  
HETATM    3  O   UNL     1     -11.444  12.854  69.146  1.00  0.00    -0.274 OA 
HETATM    4  C   UNL     1      -9.597  11.135  69.026  1.00  0.00    -0.099 C  
HETATM    5  C   UNL     1     -11.603  10.867  70.418  1.00  0.00    -0.323 C  
HETATM    6  O   UNL     1     -12.042  11.814  71.286  1.00  0.00    -0.117 OA 
HETATM    7  O   UNL     1     -11.604   9.678  70.705  1.00  0.00    -0.280 OA 
ENDROOT
BRANCH   3   8
HETATM    8  C   UNL     1     -10.729  13.784  68.452  1.00  0.00    -0.254 A  
HETATM    9  C   UNL     1     -10.634  13.850  67.071  1.00  0.00    -0.279 A  
HETATM   10  C   UNL     1      -9.793  14.781  66.466  1.00  0.00    -0.287 A  
HETATM   11  C   UNL     1      -9.079  15.711  67.227  1.00  0.00    -0.217 A  
HETATM   12  C   UNL     1     -10.059  14.736  69.224  1.00  0.00    -0.165 A  
HETATM   13  C   UNL     1      -9.231  15.687  68.619  1.00  0.00    -0.205 A  
BRANCH  11  14
HETATM   14  C   UNL     1      -8.093  16.668  66.589  1.00  0.00    -0.309 C  
BRANCH  14  15
HETATM   15  C   UNL     1      -6.621  16.285  66.784  1.00  0.00     0.025 C  
BRANCH  15  16
HETATM   16  N   UNL     1      -6.453  14.914  67.216  1.00  0.00     0.060 N  
HETATM   17  C   UNL     1      -6.012  14.628  68.492  1.00  0.00    -0.093 C  
HETATM   18  H   UNL     1      -6.663  14.151  66.572  1.00  0.00     0.000 HD 
HETATM   19  O   UNL     1      -5.679  15.484  69.305  1.00  0.00    -0.101 OA 
BRANCH  17  20
HETATM   20  C   UNL     1      -6.011  13.195  68.873  1.00  0.00    -0.079 A  
HETATM   21  C   UNL     1      -6.501  12.211  68.005  1.00  0.00    -0.069 A  
HETATM   22  C   UNL     1      -6.501  10.871  68.401  1.00  0.00    -0.057 A  
HETATM   23  C   UNL     1      -6.006  10.518  69.656  1.00  0.00    -0.051 A  
HETATM   24 CL   UNL     1      -6.013   8.867  70.139  1.00  0.00    -0.033 Cl 
HETATM   25  C   UNL     1      -5.501  11.491  70.518  1.00  0.00    -0.139 A  
HETATM   26  C   UNL     1      -5.498  12.832  70.124  1.00  0.00    -0.127 A  
ENDBRANCH  17  20
ENDBRANCH  15  16
ENDBRANCH  14  15
ENDBRANCH  11  14
ENDBRANCH   3   8
TORSDOF 5
ENDMDL
MODEL      193
REMARK 921   NORMALIZED FREE ENERGY PREDICTED BY IDOCK:   -2.69 KCAL/MOL
REMARK 922        TOTAL FREE ENERGY PREDICTED BY IDOCK:   -4.48 KCAL/MOL
REMARK 923 INTER-LIGAND FREE ENERGY PREDICTED BY IDOCK:   -5.25 KCAL/MOL
REMARK 924 INTRA-LIGAND FREE ENERGY PREDICTED BY IDOCK:    0.77 KCAL/MOL
REMARK 927      BINDING AFFINITY PREDICTED BY RF-SCORE:    0.00 PKD
ROOT
HETATM    1  C   UNL     1      -9.044  12.447  66.227  1.00  0.00    -0.099 C  
HETATM    2  C   UNL     1      -8.748  12.746  67.700  1.00  0.00    -0.180 C  
HETATM    3  O   UNL     1      -8.589  11.511  68.444  1.00  0.00    -0.151 OA 
HETATM    4  C   UNL     1      -9.711  13.772  68.320  1.00  0.00    -0.231 C  
HETATM    5  C   UNL     1      -7.350  13.402  67.749  1.00  0.00    -0.157 C  
HETATM    6  O   UNL     1      -6.477  12.754  68.562  1.00  0.00    -0.071 OA 
HETATM    7  O   UNL     1      -7.034  14.414  67.139  1.00  0.00    -0.173 OA 
ENDROOT
BRANCH   3   8
HETATM    8  C   UNL     1      -9.648  10.934  69.078  1.00  0.00    -0.156 A  
HETATM    9  C   UNL     1     -10.964  11.362  68.983  1.00  0.00    -0.288 A  
HETATM   10  C   UNL     1     -11.957  10.762  69.754  1.00  0.00    -0.397 A  
HETATM   11  C   UNL     1     -11.668   9.675  70.586  1.00  0.00    -0.353 A  
HETATM   12  C   UNL     1      -9.352   9.822  69.867  1.00  0.00    -0.262 A  
HETATM   13  C   UNL     1     -10.350   9.201  70.625  1.00  0.00    -0.306 A  
BRANCH  11  14
HETATM   14  C   UNL     1     -12.717   9.072  71.496  1.00  0.00    -0.399 C  
BRANCH  14  15
HETATM   15  C   UNL     1     -12.163   8.108  72.552  1.00  0.00    -0.278 C  
BRANCH  15  16
HETATM   16  N   UNL     1     -11.338   7.066  71.978  1.00  0.00    -0.256 N  
HETATM   17  C   UNL     1     -10.637   6.198  72.791  1.00  0.00    -0.228 C  
HETATM   18  H   UNL     1     -11.273   6.973  70.964  1.00  0.00     0.000 HD 
HETATM   19  O   UNL     1     -10.611   6.281  74.014  1.00  0.00    -0.280 OA 
BRANCH  17  20
HETATM   20  C   UNL     1      -9.939   5.085  72.101  1.00  0.00    -0.236 A  
HETATM   21  C   UNL     1      -8.893   5.327  71.202  1.00  0.00    -0.147 A  
HETATM   22  C   UNL     1      -8.268   4.258  70.557  1.00  0.00    -0.073 A  
HETATM   23  C   UNL     1      -8.684   2.952  70.817  1.00  0.00    -0.075 A  
HETATM   24 CL   UNL     1      -7.911   1.640  70.016  1.00  0.00    -0.048 Cl 
HETATM   25  C   UNL     1      -9.712   2.703  71.724  1.00  0.00    -0.224 A  
HETATM   26  C   UNL     1     -10.339   3.771  72.372  1.00  0.00    -0.185 A  
ENDBRANCH  17  20
ENDBRANCH  15  16
ENDBRANCH  14  15
ENDBRANCH  11  14
ENDBRANCH   3   8
TORSDOF 5
ENDMDL
MODEL      194
REMARK 921   NORMALIZED FREE ENERGY PREDICTED BY IDOCK:   -2.61 KCAL/MOL
REMARK 922        TOTAL FREE ENERGY PREDICTED BY IDOCK:   -4.38 KCAL/MOL
REMARK 923 INTER-LIGAND FREE ENERGY PREDICTED BY IDOCK:   -3.80 KCAL/MOL
REMARK 924 INTRA-LIGAND FREE ENERGY PREDICTED BY IDOCK:   -0.58 KCAL/MOL
REMARK 927      BINDING AFFINITY PREDICTED BY RF-SCORE:    0.00 PKD
ROOT
HETATM    1  C   UNL     1     -11.319  14.391  65.717  1.00  0.00    -0.330 C  
HETATM    2  C   UNL     1     -10.482  14.305  66.997  1.00  0.00    -0.271 C  
HETATM    3  O   UNL     1      -9.232  13.618  66.737  1.00  0.00    -0.246 OA 
HETATM    4  C   UNL     1     -11.275  13.798  68.212  1.00  0.00    -0.301 C  
HETATM    5  C   UNL     1     -10.056  15.749  67.348  1.00  0.00    -0.246 C  
HETATM    6  O   UNL     1      -8.713  15.902  67.466  1.00  0.00    -0.173 OA 
HETATM    7  O   UNL     1     -10.830  16.679  67.524  1.00  0.00    -0.305 OA 
ENDROOT
BRANCH   3   8
HETATM    8  C   UNL     1      -9.121  12.272  66.924  1.00  0.00    -0.208 A  
HETATM    9  C   UNL     1      -9.603  11.304  66.056  1.00  0.00    -0.245 A  
HETATM   10  C   UNL     1      -9.526   9.955  66.394  1.00  0.00    -0.234 A  
HETATM   11  C   UNL     1      -8.903   9.540  67.575  1.00  0.00    -0.130 A  
HETATM   12  C   UNL     1      -8.456  11.873  68.084  1.00  0.00    -0.163 A  
HETATM   13  C   UNL     1      -8.355  10.517  68.415  1.00  0.00    -0.126 A  
BRANCH  11  14
HETATM   14  C   UNL     1      -8.892   8.086  67.997  1.00  0.00    -0.128 C  
BRANCH  14  15
HETATM   15  C   UNL     1      -7.520   7.564  68.439  1.00  0.00    -0.108 C  
BRANCH  15  16
HETATM   16  N   UNL     1      -7.603   6.653  69.560  1.00  0.00    -0.093 N  
HETATM   17  C   UNL     1      -7.440   5.294  69.374  1.00  0.00    -0.065 C  
HETATM   18  H   UNL     1      -7.783   7.017  70.495  1.00  0.00     0.000 HD 
HETATM   19  O   UNL     1      -7.283   4.771  68.277  1.00  0.00    -0.063 OA 
BRANCH  17  20
HETATM   20  C   UNL     1      -7.405   4.471  70.608  1.00  0.00    -0.049 A  
HETATM   21  C   UNL     1      -6.195   4.004  71.137  1.00  0.00    -0.015 A  
HETATM   22  C   UNL     1      -6.199   3.217  72.291  1.00  0.00    -0.014 A  
HETATM   23  C   UNL     1      -7.407   2.907  72.916  1.00  0.00    -0.045 A  
HETATM   24 CL   UNL     1      -7.403   1.934  74.336  1.00  0.00    -0.028 Cl 
HETATM   25  C   UNL     1      -8.612   3.384  72.405  1.00  0.00    -0.093 A  
HETATM   26  C   UNL     1      -8.612   4.173  71.251  1.00  0.00    -0.122 A  
ENDBRANCH  17  20
ENDBRANCH  15  16
ENDBRANCH  14  15
ENDBRANCH  11  14
ENDBRANCH   3   8
TORSDOF 5
ENDMDL
MODEL      195
REMARK 921   NORMALIZED FREE ENERGY PREDICTED BY IDOCK:   -2.57 KCAL/MOL
REMARK 922        TOTAL FREE ENERGY PREDICTED BY IDOCK:   -4.33 KCAL/MOL
REMARK 923 INTER-LIGAND FREE ENERGY PREDICTED BY IDOCK:   -3.68 KCAL/MOL
REMARK 924 INTRA-LIGAND FREE ENERGY PREDICTED BY IDOCK:   -0.65 KCAL/MOL
REMARK 927      BINDING AFFINITY PREDICTED BY RF-SCORE:    0.00 PKD
ROOT
HETATM    1  C   UNL     1      -6.779  15.276  68.897  1.00  0.00    -0.115 C  
HETATM    2  C   UNL     1      -8.022  15.891  68.247  1.00  0.00    -0.139 C  
HETATM    3  O   UNL     1      -9.210  15.154  68.632  1.00  0.00    -0.180 OA 
HETATM    4  C   UNL     1      -7.860  16.143  66.739  1.00  0.00    -0.296 C  
HETATM    5  C   UNL     1      -8.215  17.285  68.886  1.00  0.00    -0.181 C  
HETATM    6  O   UNL     1      -9.439  17.456  69.447  1.00  0.00     0.004 OA 
HETATM    7  O   UNL     1      -7.373  18.172  68.889  1.00  0.00    -0.275 OA 
ENDROOT
BRANCH   3   8
HETATM    8  C   UNL     1      -9.676  14.128  67.865  1.00  0.00    -0.224 A  
HETATM    9  C   UNL     1      -9.249  12.812  67.949  1.00  0.00    -0.205 A  
HETATM   10  C   UNL     1      -9.720  11.860  67.047  1.00  0.00    -0.204 A  
HETATM   11  C   UNL     1     -10.680  12.189  66.085  1.00  0.00    -0.307 A  
HETATM   12  C   UNL     1     -10.668  14.462  66.941  1.00  0.00    -0.292 A  
HETATM   13  C   UNL     1     -11.161  13.504  66.049  1.00  0.00    -0.300 A  
BRANCH  11  14
HETATM   14  C   UNL     1     -11.133  11.189  65.042  1.00  0.00    -0.100 C  
BRANCH  14  15
HETATM   15  C   UNL     1     -10.033  10.237  64.556  1.00  0.00    -0.289 C  
BRANCH  15  16
HETATM   16  N   UNL     1     -10.124   8.924  65.158  1.00  0.00     0.313 N  
HETATM   17  C   UNL     1      -8.994   8.287  65.628  1.00  0.00    -0.109 C  
HETATM   18  H   UNL     1     -11.032   8.466  65.237  1.00  0.00     0.000 HD 
HETATM   19  O   UNL     1      -7.860   8.740  65.516  1.00  0.00    -0.092 OA 
BRANCH  17  20
HETATM   20  C   UNL     1      -9.221   7.012  66.351  1.00  0.00    -0.186 A  
HETATM   21  C   UNL     1      -8.958   5.775  65.749  1.00  0.00    -0.144 A  
HETATM   22  C   UNL     1      -9.199   4.593  66.451  1.00  0.00    -0.133 A  
HETATM   23  C   UNL     1      -9.694   4.648  67.754  1.00  0.00    -0.155 A  
HETATM   24 CL   UNL     1      -9.993   3.188  68.613  1.00  0.00     0.276 Cl 
HETATM   25  C   UNL     1      -9.943   5.876  68.366  1.00  0.00    -0.184 A  
HETATM   26  C   UNL     1      -9.701   7.061  67.666  1.00  0.00    -0.163 A  
ENDBRANCH  17  20
ENDBRANCH  15  16
ENDBRANCH  14  15
ENDBRANCH  11  14
ENDBRANCH   3   8
TORSDOF 5
ENDMDL
MODEL      196
REMARK 921   NORMALIZED FREE ENERGY PREDICTED BY IDOCK:   -2.57 KCAL/MOL
REMARK 922        TOTAL FREE ENERGY PREDICTED BY IDOCK:   -4.32 KCAL/MOL
REMARK 923 INTER-LIGAND FREE ENERGY PREDICTED BY IDOCK:   -4.10 KCAL/MOL
REMARK 924 INTRA-LIGAND FREE ENERGY PREDICTED BY IDOCK:   -0.22 KCAL/MOL
REMARK 927      BINDING AFFINITY PREDICTED BY RF-SCORE:    0.00 PKD
ROOT
HETATM    1  C   UNL     1      -8.973  11.893  66.346  1.00  0.00    -0.180 C  
HETATM    2  C   UNL     1     -10.140  12.166  67.300  1.00  0.00    -0.202 C  
HETATM    3  O   UNL     1      -9.789  11.772  68.651  1.00  0.00    -0.198 OA 
HETATM    4  C   UNL     1     -11.487  11.634  66.785  1.00  0.00    -0.299 C  
HETATM    5  C   UNL     1     -10.299  13.700  67.381  1.00  0.00    -0.244 C  
HETATM    6  O   UNL     1     -10.232  14.184  68.647  1.00  0.00    -0.234 OA 
HETATM    7  O   UNL     1     -10.484  14.432  66.419  1.00  0.00    -0.285 OA 
ENDROOT
BRANCH   3   8
HETATM    8  C   UNL     1     -10.084  10.525  69.116  1.00  0.00    -0.224 A  
HETATM    9  C   UNL     1     -11.239  10.182  69.802  1.00  0.00    -0.325 A  
HETATM   10  C   UNL     1     -11.394   8.899  70.322  1.00  0.00    -0.179 A  
HETATM   11  C   UNL     1     -10.428   7.911  70.109  1.00  0.00    -0.231 A  
HETATM   12  C   UNL     1      -9.132   9.538  68.855  1.00  0.00    -0.141 A  
HETATM   13  C   UNL     1      -9.295   8.242  69.355  1.00  0.00    -0.155 A  
BRANCH  11  14
HETATM   14  C   UNL     1     -10.541   6.541  70.744  1.00  0.00    -0.278 C  
BRANCH  14  15
HETATM   15  C   UNL     1      -9.198   5.902  71.119  1.00  0.00    -0.150 C  
BRANCH  15  16
HETATM   16  N   UNL     1      -8.417   5.523  69.962  1.00  0.00    -0.118 N  
HETATM   17  C   UNL     1      -8.698   4.358  69.277  1.00  0.00    -0.087 C  
HETATM   18  H   UNL     1      -7.653   6.122  69.648  1.00  0.00     0.000 HD 
HETATM   19  O   UNL     1      -9.555   3.553  69.624  1.00  0.00    -0.174 OA 
BRANCH  17  20
HETATM   20  C   UNL     1      -7.929   4.139  68.027  1.00  0.00    -0.085 A  
HETATM   21  C   UNL     1      -7.033   3.071  67.900  1.00  0.00    -0.049 A  
HETATM   22  C   UNL     1      -6.313   2.903  66.715  1.00  0.00    -0.035 A  
HETATM   23  C   UNL     1      -6.495   3.797  65.660  1.00  0.00    -0.033 A  
HETATM   24 CL   UNL     1      -5.601   3.587  64.205  1.00  0.00    -0.009 Cl 
HETATM   25  C   UNL     1      -7.398   4.853  65.773  1.00  0.00    -0.077 A  
HETATM   26  C   UNL     1      -8.122   5.022  66.957  1.00  0.00    -0.107 A  
ENDBRANCH  17  20
ENDBRANCH  15  16
ENDBRANCH  14  15
ENDBRANCH  11  14
ENDBRANCH   3   8
TORSDOF 5
ENDMDL
MODEL      197
REMARK 921   NORMALIZED FREE ENERGY PREDICTED BY IDOCK:   -2.43 KCAL/MOL
REMARK 922        TOTAL FREE ENERGY PREDICTED BY IDOCK:   -4.14 KCAL/MOL
REMARK 923 INTER-LIGAND FREE ENERGY PREDICTED BY IDOCK:   -3.42 KCAL/MOL
REMARK 924 INTRA-LIGAND FREE ENERGY PREDICTED BY IDOCK:   -0.72 KCAL/MOL
REMARK 927      BINDING AFFINITY PREDICTED BY RF-SCORE:    0.00 PKD
ROOT
HETATM    1  C   UNL     1     -11.350   5.826  71.251  1.00  0.00    -0.154 C  
HETATM    2  C   UNL     1      -9.959   6.163  71.799  1.00  0.00    -0.172 C  
HETATM    3  O   UNL     1      -9.503   7.433  71.267  1.00  0.00    -0.154 OA 
HETATM    4  C   UNL     1      -8.960   5.001  71.685  1.00  0.00    -0.152 C  
HETATM    5  C   UNL     1     -10.128   6.424  73.312  1.00  0.00    -0.200 C  
HETATM    6  O   UNL     1      -9.671   7.639  73.706  1.00  0.00    -0.285 OA 
HETATM    7  O   UNL     1     -10.610   5.627  74.106  1.00  0.00    -0.272 OA 
ENDROOT
BRANCH   3   8
HETATM    8  C   UNL     1      -8.747   7.486  70.134  1.00  0.00    -0.142 A  
HETATM    9  C   UNL     1      -9.247   7.467  68.841  1.00  0.00    -0.142 A  
HETATM   10  C   UNL     1      -8.380   7.424  67.751  1.00  0.00    -0.118 A  
HETATM   11  C   UNL     1      -6.993   7.467  67.929  1.00  0.00    -0.076 A  
HETATM   12  C   UNL     1      -7.368   7.577  70.327  1.00  0.00    -0.076 A  
HETATM   13  C   UNL     1      -6.494   7.558  69.235  1.00  0.00    -0.039 A  
BRANCH  11  14
HETATM   14  C   UNL     1      -6.039   7.330  66.761  1.00  0.00    -0.042 C  
BRANCH  14  15
HETATM   15  C   UNL     1      -5.132   8.546  66.536  1.00  0.00    -0.027 C  
BRANCH  15  16
HETATM   16  N   UNL     1      -5.648   9.749  67.153  1.00  0.00    -0.046 N  
HETATM   17  C   UNL     1      -6.268  10.719  66.391  1.00  0.00    -0.119 C  
HETATM   18  H   UNL     1      -5.553   9.882  68.160  1.00  0.00     0.000 HD 
HETATM   19  O   UNL     1      -6.366  10.665  65.170  1.00  0.00    -0.096 OA 
BRANCH  17  20
HETATM   20  C   UNL     1      -6.882  11.840  67.143  1.00  0.00    -0.148 A  
HETATM   21  C   UNL     1      -8.225  11.805  67.535  1.00  0.00    -0.152 A  
HETATM   22  C   UNL     1      -8.777  12.885  68.228  1.00  0.00    -0.168 A  
HETATM   23  C   UNL     1      -7.984  13.992  68.533  1.00  0.00    -0.141 A  
HETATM   24 CL   UNL     1      -8.671  15.320  69.383  1.00  0.00    -0.235 Cl 
HETATM   25  C   UNL     1      -6.641  14.025  68.161  1.00  0.00    -0.124 A  
HETATM   26  C   UNL     1      -6.086  12.945  67.469  1.00  0.00    -0.143 A  
ENDBRANCH  17  20
ENDBRANCH  15  16
ENDBRANCH  14  15
ENDBRANCH  11  14
ENDBRANCH   3   8
TORSDOF 5
ENDMDL
MODEL      198
REMARK 921   NORMALIZED FREE ENERGY PREDICTED BY IDOCK:   -2.41 KCAL/MOL
REMARK 922        TOTAL FREE ENERGY PREDICTED BY IDOCK:   -4.11 KCAL/MOL
REMARK 923 INTER-LIGAND FREE ENERGY PREDICTED BY IDOCK:   -4.25 KCAL/MOL
REMARK 924 INTRA-LIGAND FREE ENERGY PREDICTED BY IDOCK:    0.14 KCAL/MOL
REMARK 927      BINDING AFFINITY PREDICTED BY RF-SCORE:    0.00 PKD
ROOT
HETATM    1  C   UNL     1     -12.616  11.460  71.689  1.00  0.00    -0.338 C  
HETATM    2  C   UNL     1     -11.821  10.581  70.719  1.00  0.00    -0.365 C  
HETATM    3  O   UNL     1     -10.648  11.289  70.244  1.00  0.00     0.409 OA 
HETATM    4  C   UNL     1     -12.690   9.934  69.629  1.00  0.00     0.832 C  
HETATM    5  C   UNL     1     -11.248   9.410  71.548  1.00  0.00    -0.386 C  
HETATM    6  O   UNL     1      -9.899   9.294  71.459  1.00  0.00    -0.288 OA 
HETATM    7  O   UNL     1     -11.920   8.636  72.216  1.00  0.00    -0.364 OA 
ENDROOT
BRANCH   3   8
HETATM    8  C   UNL     1     -10.688  12.015  69.091  1.00  0.00    -0.075 A  
HETATM    9  C   UNL     1     -11.748  12.812  68.687  1.00  0.00    -0.360 A  
HETATM   10  C   UNL     1     -11.727  13.433  67.440  1.00  0.00    -0.415 A  
HETATM   11  C   UNL     1     -10.616  13.326  66.598  1.00  0.00    -0.283 A  
HETATM   12  C   UNL     1      -9.553  11.936  68.283  1.00  0.00    -0.201 A  
HETATM   13  C   UNL     1      -9.518  12.577  67.040  1.00  0.00    -0.217 A  
BRANCH  11  14
HETATM   14  C   UNL     1     -10.616  13.919  65.205  1.00  0.00    -0.391 C  
BRANCH  14  15
HETATM   15  C   UNL     1     -10.316  12.913  64.087  1.00  0.00    -0.361 C  
BRANCH  15  16
HETATM   16  N   UNL     1      -9.480  11.819  64.530  1.00  0.00    -0.428 N  
HETATM   17  C   UNL     1      -9.357  10.675  63.766  1.00  0.00    -0.271 C  
HETATM   18  H   UNL     1      -8.977  11.892  65.414  1.00  0.00     0.000 HD 
HETATM   19  O   UNL     1      -9.975  10.482  62.725  1.00  0.00    -0.243 OA 
BRANCH  17  20
HETATM   20  C   UNL     1      -8.368   9.680  64.245  1.00  0.00    -0.169 A  
HETATM   21  C   UNL     1      -8.485   8.322  63.923  1.00  0.00     0.051 A  
HETATM   22  C   UNL     1      -7.545   7.408  64.404  1.00  0.00    -0.115 A  
HETATM   23  C   UNL     1      -6.488   7.853  65.197  1.00  0.00    -0.044 A  
HETATM   24 CL   UNL     1      -5.336   6.720  65.790  1.00  0.00    -0.022 Cl 
HETATM   25  C   UNL     1      -6.355   9.205  65.508  1.00  0.00    -0.067 A  
HETATM   26  C   UNL     1      -7.293  10.122  65.027  1.00  0.00    -0.139 A  
ENDBRANCH  17  20
ENDBRANCH  15  16
ENDBRANCH  14  15
ENDBRANCH  11  14
ENDBRANCH   3   8
TORSDOF 5
ENDMDL
MODEL      199
REMARK 921   NORMALIZED FREE ENERGY PREDICTED BY IDOCK:   -2.26 KCAL/MOL
REMARK 922        TOTAL FREE ENERGY PREDICTED BY IDOCK:   -3.93 KCAL/MOL
REMARK 923 INTER-LIGAND FREE ENERGY PREDICTED BY IDOCK:   -3.32 KCAL/MOL
REMARK 924 INTRA-LIGAND FREE ENERGY PREDICTED BY IDOCK:   -0.60 KCAL/MOL
REMARK 927      BINDING AFFINITY PREDICTED BY RF-SCORE:    0.00 PKD
ROOT
HETATM    1  C   UNL     1     -10.477   9.294  70.779  1.00  0.00    -0.343 C  
HETATM    2  C   UNL     1      -9.335   8.751  69.914  1.00  0.00    -0.162 C  
HETATM    3  O   UNL     1      -8.587   9.843  69.323  1.00  0.00    -0.141 OA 
HETATM    4  C   UNL     1      -9.779   7.649  68.939  1.00  0.00    -0.156 C  
HETATM    5  C   UNL     1      -8.330   8.078  70.876  1.00  0.00    -0.119 C  
HETATM    6  O   UNL     1      -7.070   8.571  70.771  1.00  0.00    -0.046 OA 
HETATM    7  O   UNL     1      -8.608   7.178  71.656  1.00  0.00    -0.115 OA 
ENDROOT
BRANCH   3   8
HETATM    8  C   UNL     1      -8.904  10.320  68.086  1.00  0.00    -0.123 A  
HETATM    9  C   UNL     1     -10.076  10.040  67.400  1.00  0.00    -0.256 A  
HETATM   10  C   UNL     1     -10.255  10.499  66.097  1.00  0.00    -0.299 A  
HETATM   11  C   UNL     1      -9.295  11.305  65.476  1.00  0.00    -0.243 A  
HETATM   12  C   UNL     1      -7.958  11.161  67.498  1.00  0.00    -0.118 A  
HETATM   13  C   UNL     1      -8.144  11.644  66.198  1.00  0.00     0.128 A  
BRANCH  11  14
HETATM   14  C   UNL     1      -9.436  11.734  64.030  1.00  0.00    -0.027 C  
BRANCH  14  15
HETATM   15  C   UNL     1      -9.167  10.622  63.009  1.00  0.00    -0.301 C  
BRANCH  15  16
HETATM   16  N   UNL     1      -8.844   9.357  63.633  1.00  0.00    -0.353 N  
HETATM   17  C   UNL     1      -7.620   8.758  63.413  1.00  0.00    -0.114 C  
HETATM   18  H   UNL     1      -9.526   8.904  64.241  1.00  0.00     0.000 HD 
HETATM   19  O   UNL     1      -6.771   9.205  62.648  1.00  0.00    -0.095 OA 
BRANCH  17  20
HETATM   20  C   UNL     1      -7.341   7.540  64.211  1.00  0.00    -0.090 A  
HETATM   21  C   UNL     1      -6.935   6.346  63.601  1.00  0.00    -0.047 A  
HETATM   22  C   UNL     1      -6.697   5.212  64.380  1.00  0.00    -0.047 A  
HETATM   23  C   UNL     1      -6.857   5.275  65.765  1.00  0.00    -0.064 A  
HETATM   24 CL   UNL     1      -6.566   3.873  66.718  1.00  0.00    -0.045 Cl 
HETATM   25  C   UNL     1      -7.244   6.465  66.380  1.00  0.00    -0.073 A  
HETATM   26  C   UNL     1      -7.482   7.602  65.603  1.00  0.00    -0.079 A  
ENDBRANCH  17  20
ENDBRANCH  15  16
ENDBRANCH  14  15
ENDBRANCH  11  14
ENDBRANCH   3   8
TORSDOF 5
ENDMDL
MODEL      200
REMARK 921   NORMALIZED FREE ENERGY PREDICTED BY IDOCK:   -2.24 KCAL/MOL
REMARK 922        TOTAL FREE ENERGY PREDICTED BY IDOCK:   -3.90 KCAL/MOL
REMARK 923 INTER-LIGAND FREE ENERGY PREDICTED BY IDOCK:   -3.51 KCAL/MOL
REMARK 924 INTRA-LIGAND FREE ENERGY PREDICTED BY IDOCK:   -0.38 KCAL/MOL
REMARK 927      BINDING AFFINITY PREDICTED BY RF-SCORE:    0.00 PKD
ROOT
HETATM    1  C   UNL     1     -10.560   9.282  69.725  1.00  0.00    -0.244 C  
HETATM    2  C   UNL     1     -10.873   7.948  70.409  1.00  0.00    -0.244 C  
HETATM    3  O   UNL     1      -9.717   7.475  71.144  1.00  0.00    -0.164 OA 
HETATM    4  C   UNL     1     -11.528   6.920  69.473  1.00  0.00    -0.165 C  
HETATM    5  C   UNL     1     -11.923   8.245  71.504  1.00  0.00    -0.296 C  
HETATM    6  O   UNL     1     -11.540   7.846  72.743  1.00  0.00    -0.383 OA 
HETATM    7  O   UNL     1     -13.008   8.774  71.302  1.00  0.00    -0.290 OA 
ENDROOT
BRANCH   3   8
HETATM    8  C   UNL     1      -8.817   6.630  70.565  1.00  0.00    -0.152 A  
HETATM    9  C   UNL     1      -9.090   5.335  70.152  1.00  0.00    -0.168 A  
HETATM   10  C   UNL     1      -8.069   4.522  69.664  1.00  0.00    -0.060 A  
HETATM   11  C   UNL     1      -6.767   5.008  69.515  1.00  0.00    -0.051 A  
HETATM   12  C   UNL     1      -7.533   7.145  70.379  1.00  0.00    -0.084 A  
HETATM   13  C   UNL     1      -6.510   6.339  69.867  1.00  0.00    -0.043 A  
BRANCH  11  14
HETATM   14  C   UNL     1      -5.631   4.109  69.072  1.00  0.00    -0.017 C  
BRANCH  14  15
HETATM   15  C   UNL     1      -5.415   4.061  67.555  1.00  0.00    -0.017 C  
BRANCH  15  16
HETATM   16  N   UNL     1      -6.580   3.588  66.840  1.00  0.00    -0.041 N  
HETATM   17  C   UNL     1      -7.052   4.270  65.736  1.00  0.00    -0.067 C  
HETATM   18  H   UNL     1      -7.057   2.742  67.153  1.00  0.00     0.000 HD 
HETATM   19  O   UNL     1      -6.576   5.326  65.334  1.00  0.00    -0.039 OA 
BRANCH  17  20
HETATM   20  C   UNL     1      -8.163   3.621  64.999  1.00  0.00    -0.097 A  
HETATM   21  C   UNL     1      -8.883   4.307  64.013  1.00  0.00    -0.138 A  
HETATM   22  C   UNL     1      -9.934   3.671  63.349  1.00  0.00    -0.172 A  
HETATM   23  C   UNL     1     -10.257   2.351  63.664  1.00  0.00    -0.149 A  
HETATM   24 CL   UNL     1     -11.555   1.575  62.844  1.00  0.00    -0.247 Cl 
HETATM   25  C   UNL     1      -9.533   1.656  64.632  1.00  0.00    -0.086 A  
HETATM   26  C   UNL     1      -8.479   2.290  65.297  1.00  0.00    -0.101 A  
ENDBRANCH  17  20
ENDBRANCH  15  16
ENDBRANCH  14  15
ENDBRANCH  11  14
ENDBRANCH   3   8
TORSDOF 5
ENDMDL
MODEL      201
REMARK 921   NORMALIZED FREE ENERGY PREDICTED BY IDOCK:   -2.04 KCAL/MOL
REMARK 922        TOTAL FREE ENERGY PREDICTED BY IDOCK:   -3.64 KCAL/MOL
REMARK 923 INTER-LIGAND FREE ENERGY PREDICTED BY IDOCK:   -3.19 KCAL/MOL
REMARK 924 INTRA-LIGAND FREE ENERGY PREDICTED BY IDOCK:   -0.45 KCAL/MOL
REMARK 927      BINDING AFFINITY PREDICTED BY RF-SCORE:    0.00 PKD
ROOT
HETATM    1  C   UNL     1     -10.758   9.306  69.989  1.00  0.00    -0.259 C  
HETATM    2  C   UNL     1     -11.047   8.048  70.814  1.00  0.00    -0.259 C  
HETATM    3  O   UNL     1      -9.889   7.691  71.611  1.00  0.00    -0.161 OA 
HETATM    4  C   UNL     1     -11.660   6.905  69.990  1.00  0.00    -0.299 C  
HETATM    5  C   UNL     1     -12.120   8.436  71.856  1.00  0.00    -0.342 C  
HETATM    6  O   UNL     1     -11.745   8.187  73.136  1.00  0.00    -0.245 OA 
HETATM    7  O   UNL     1     -13.215   8.908  71.584  1.00  0.00    -0.335 OA 
ENDROOT
BRANCH   3   8
HETATM    8  C   UNL     1      -8.959   6.813  71.141  1.00  0.00    -0.147 A  
HETATM    9  C   UNL     1      -9.158   5.451  70.978  1.00  0.00    -0.167 A  
HETATM   10  C   UNL     1      -8.106   4.627  70.585  1.00  0.00    -0.083 A  
HETATM   11  C   UNL     1      -6.848   5.157  70.280  1.00  0.00    -0.044 A  
HETATM   12  C   UNL     1      -7.723   7.364  70.796  1.00  0.00    -0.088 A  
HETATM   13  C   UNL     1      -6.670   6.543  70.378  1.00  0.00    -0.053 A  
BRANCH  11  14
HETATM   14  C   UNL     1      -5.673   4.265  69.940  1.00  0.00    -0.017 C  
BRANCH  14  15
HETATM   15  C   UNL     1      -5.539   3.933  68.449  1.00  0.00    -0.017 C  
BRANCH  15  16
HETATM   16  N   UNL     1      -5.717   5.092  67.601  1.00  0.00    -0.017 N  
HETATM   17  C   UNL     1      -6.276   4.963  66.345  1.00  0.00    -0.035 C  
HETATM   18  H   UNL     1      -5.428   6.012  67.934  1.00  0.00     0.000 HD 
HETATM   19  O   UNL     1      -6.591   3.888  65.847  1.00  0.00    -0.042 OA 
BRANCH  17  20
HETATM   20  C   UNL     1      -6.541   6.230  65.621  1.00  0.00    -0.047 A  
HETATM   21  C   UNL     1      -7.823   6.551  65.159  1.00  0.00    -0.111 A  
HETATM   22  C   UNL     1      -8.035   7.745  64.466  1.00  0.00    -0.135 A  
HETATM   23  C   UNL     1      -6.969   8.617  64.243  1.00  0.00    -0.081 A  
HETATM   24 CL   UNL     1      -7.237  10.084  63.386  1.00  0.00    -0.133 Cl 
HETATM   25  C   UNL     1      -5.694   8.312  64.716  1.00  0.00    -0.044 A  
HETATM   26  C   UNL     1      -5.479   7.119  65.411  1.00  0.00    -0.028 A  
ENDBRANCH  17  20
ENDBRANCH  15  16
ENDBRANCH  14  15
ENDBRANCH  11  14
ENDBRANCH   3   8
TORSDOF 5
ENDMDL
MODEL      202
REMARK 921   NORMALIZED FREE ENERGY PREDICTED BY IDOCK:   -1.40 KCAL/MOL
REMARK 922        TOTAL FREE ENERGY PREDICTED BY IDOCK:   -2.81 KCAL/MOL
REMARK 923 INTER-LIGAND FREE ENERGY PREDICTED BY IDOCK:   -3.48 KCAL/MOL
REMARK 924 INTRA-LIGAND FREE ENERGY PREDICTED BY IDOCK:    0.68 KCAL/MOL
REMARK 927      BINDING AFFINITY PREDICTED BY RF-SCORE:    0.00 PKD
ROOT
HETATM    1  C   UNL     1      -5.128  13.038  67.612  1.00  0.00    -0.059 C  
HETATM    2  C   UNL     1      -6.547  12.548  67.921  1.00  0.00    -0.104 C  
HETATM    3  O   UNL     1      -7.492  13.116  66.979  1.00  0.00    -0.029 OA 
HETATM    4  C   UNL     1      -6.929  12.682  69.403  1.00  0.00     0.108 C  
HETATM    5  C   UNL     1      -6.571  11.033  67.617  1.00  0.00    -0.065 C  
HETATM    6  O   UNL     1      -7.531  10.676  66.727  1.00  0.00    -0.108 OA 
HETATM    7  O   UNL     1      -5.822  10.210  68.125  1.00  0.00    -0.042 OA 
ENDROOT
BRANCH   3   8
HETATM    8  C   UNL     1      -8.148  14.278  67.259  1.00  0.00    -0.178 A  
HETATM    9  C   UNL     1      -9.181  14.812  66.504  1.00  0.00    -0.304 A  
HETATM   10  C   UNL     1      -9.714  16.059  66.823  1.00  0.00    -0.253 A  
HETATM   11  C   UNL     1      -9.271  16.769  67.944  1.00  0.00    -0.225 A  
HETATM   12  C   UNL     1      -7.727  14.952  68.406  1.00  0.00    -0.115 A  
HETATM   13  C   UNL     1      -8.276  16.193  68.744  1.00  0.00    -0.216 A  
BRANCH  11  14
HETATM   14  C   UNL     1      -9.777  18.163  68.250  1.00  0.00    -0.344 C  
BRANCH  14  15
HETATM   15  C   UNL     1     -10.596  18.271  69.542  1.00  0.00     0.803 C  
BRANCH  15  16
HETATM   16  N   UNL     1     -10.962  16.980  70.081  1.00  0.00    -0.250 N  
HETATM   17  C   UNL     1     -11.909  16.198  69.450  1.00  0.00    -0.151 C  
HETATM   18  H   UNL     1     -10.516  16.643  70.934  1.00  0.00     0.000 HD 
HETATM   19  O   UNL     1     -12.535  16.555  68.459  1.00  0.00     0.755 OA 
BRANCH  17  20
HETATM   20  C   UNL     1     -12.103  14.838  70.009  1.00  0.00    -0.380 A  
HETATM   21  C   UNL     1     -12.765  14.638  71.226  1.00  0.00    -0.402 A  
HETATM   22  C   UNL     1     -12.917  13.345  71.732  1.00  0.00    -0.435 A  
HETATM   23  C   UNL     1     -12.414  12.257  71.018  1.00  0.00    -0.263 A  
HETATM   24 CL   UNL     1     -12.601  10.667  71.650  1.00  0.00    -0.504 Cl 
HETATM   25  C   UNL     1     -11.769  12.447  69.797  1.00  0.00    -0.361 A  
HETATM   26  C   UNL     1     -11.617  13.740  69.288  1.00  0.00    -0.362 A  
ENDBRANCH  17  20
ENDBRANCH  15  16
ENDBRANCH  14  15
ENDBRANCH  11  14
ENDBRANCH   3   8
TORSDOF 5
ENDMDL
MODEL      203
REMARK 921   NORMALIZED FREE ENERGY PREDICTED BY IDOCK:   -0.71 KCAL/MOL
REMARK 922        TOTAL FREE ENERGY PREDICTED BY IDOCK:   -1.91 KCAL/MOL
REMARK 923 INTER-LIGAND FREE ENERGY PREDICTED BY IDOCK:   -2.36 KCAL/MOL
REMARK 924 INTRA-LIGAND FREE ENERGY PREDICTED BY IDOCK:    0.44 KCAL/MOL
REMARK 927      BINDING AFFINITY PREDICTED BY RF-SCORE:    0.00 PKD
ROOT
HETATM    1  C   UNL     1      -8.316   9.096  68.346  1.00  0.00    -0.120 C  
HETATM    2  C   UNL     1      -8.011   9.644  66.949  1.00  0.00    -0.105 C  
HETATM    3  O   UNL     1      -7.893  11.089  66.989  1.00  0.00    -0.124 OA 
HETATM    4  C   UNL     1      -8.939   9.087  65.858  1.00  0.00    -0.233 C  
HETATM    5  C   UNL     1      -6.592   9.157  66.580  1.00  0.00    -0.067 C  
HETATM    6  O   UNL     1      -5.741  10.164  66.259  1.00  0.00    -0.055 OA 
HETATM    7  O   UNL     1      -6.243   7.984  66.556  1.00  0.00    -0.047 OA 
ENDROOT
BRANCH   3   8
HETATM    8  C   UNL     1      -8.971  11.887  66.746  1.00  0.00    -0.196 A  
HETATM    9  C   UNL     1      -8.955  13.033  65.966  1.00  0.00     0.293 A  
HETATM   10  C   UNL     1     -10.092  13.832  65.865  1.00  0.00    -0.325 A  
HETATM   11  C   UNL     1     -11.289  13.467  66.489  1.00  0.00    -0.340 A  
HETATM   12  C   UNL     1     -10.170  11.485  67.337  1.00  0.00    -0.228 A  
HETATM   13  C   UNL     1     -11.320  12.272  67.219  1.00  0.00    -0.392 A  
BRANCH  11  14
HETATM   14  C   UNL     1     -12.504  14.371  66.464  1.00  0.00    -0.151 C  
BRANCH  14  15
HETATM   15  C   UNL     1     -12.329  15.690  67.225  1.00  0.00     1.271 C  
BRANCH  15  16
HETATM   16  N   UNL     1     -10.978  16.203  67.151  1.00  0.00    -0.213 N  
HETATM   17  C   UNL     1     -10.580  16.978  66.080  1.00  0.00    -0.194 C  
HETATM   18  H   UNL     1     -10.314  15.991  67.895  1.00  0.00     0.000 HD 
HETATM   19  O   UNL     1     -11.295  17.227  65.116  1.00  0.00    -0.155 OA 
BRANCH  17  20
HETATM   20  C   UNL     1      -9.221  17.566  66.175  1.00  0.00    -0.162 A  
HETATM   21  C   UNL     1      -8.129  16.810  66.619  1.00  0.00    -0.300 A  
HETATM   22  C   UNL     1      -6.866  17.398  66.713  1.00  0.00    -0.247 A  
HETATM   23  C   UNL     1      -6.696  18.736  66.356  1.00  0.00    -0.207 A  
HETATM   24 CL   UNL     1      -5.138  19.456  66.478  1.00  0.00    -0.162 Cl 
HETATM   25  C   UNL     1      -7.775  19.490  65.897  1.00  0.00    -0.288 A  
HETATM   26  C   UNL     1      -9.040  18.903  65.801  1.00  0.00     0.393 A  
ENDBRANCH  17  20
ENDBRANCH  15  16
ENDBRANCH  14  15
ENDBRANCH  11  14
ENDBRANCH   3   8
TORSDOF 5
ENDMDL
MODEL      204
REMARK 921   NORMALIZED FREE ENERGY PREDICTED BY IDOCK:    0.77 KCAL/MOL
REMARK 922        TOTAL FREE ENERGY PREDICTED BY IDOCK:   -0.00 KCAL/MOL
REMARK 923 INTER-LIGAND FREE ENERGY PREDICTED BY IDOCK:    0.39 KCAL/MOL
REMARK 924 INTRA-LIGAND FREE ENERGY PREDICTED BY IDOCK:   -0.39 KCAL/MOL
REMARK 927      BINDING AFFINITY PREDICTED BY RF-SCORE:    0.00 PKD
ROOT
HETATM    1  C   UNL     1     -11.292  17.143  72.060  1.00  0.00     1.043 C  
HETATM    2  C   UNL     1     -11.879  15.841  71.506  1.00  0.00    -0.446 C  
HETATM    3  O   UNL     1     -10.845  14.831  71.391  1.00  0.00     0.096 OA 
HETATM    4  C   UNL     1     -12.746  16.046  70.253  1.00  0.00     0.327 C  
HETATM    5  C   UNL     1     -12.833  15.287  72.589  1.00  0.00    -0.389 C  
HETATM    6  O   UNL     1     -12.535  14.021  72.974  1.00  0.00    -0.113 OA 
HETATM    7  O   UNL     1     -13.780  15.900  73.061  1.00  0.00    -0.591 OA 
ENDROOT
BRANCH   3   8
HETATM    8  C   UNL     1     -10.152  14.668  70.229  1.00  0.00     0.593 A  
HETATM    9  C   UNL     1     -10.720  14.416  68.990  1.00  0.00    -0.261 A  
HETATM   10  C   UNL     1      -9.912  14.166  67.883  1.00  0.00    -0.231 A  
HETATM   11  C   UNL     1      -8.518  14.228  67.976  1.00  0.00    -0.164 A  
HETATM   12  C   UNL     1      -8.764  14.780  70.329  1.00  0.00     1.104 A  
HETATM   13  C   UNL     1      -7.950  14.551  69.215  1.00  0.00     0.007 A  
BRANCH  11  14
HETATM   14  C   UNL     1      -7.628  13.869  66.805  1.00  0.00     0.726 C  
BRANCH  14  15
HETATM   15  C   UNL     1      -6.608  12.762  67.099  1.00  0.00     0.056 C  
BRANCH  15  16
HETATM   16  N   UNL     1      -7.186  11.438  67.033  1.00  0.00    -0.133 N  
HETATM   17  C   UNL     1      -7.367  10.692  68.180  1.00  0.00    -0.088 C  
HETATM   18  H   UNL     1      -7.463  11.051  66.130  1.00  0.00     0.000 HD 
HETATM   19  O   UNL     1      -7.004  11.056  69.293  1.00  0.00    -0.093 OA 
BRANCH  17  20
HETATM   20  C   UNL     1      -8.095   9.410  68.013  1.00  0.00    -0.106 A  
HETATM   21  C   UNL     1      -9.468   9.314  68.268  1.00  0.00    -0.148 A  
HETATM   22  C   UNL     1     -10.120   8.088  68.116  1.00  0.00    -0.234 A  
HETATM   23  C   UNL     1      -9.401   6.966  67.703  1.00  0.00    -0.121 A  
HETATM   24 CL   UNL     1     -10.210   5.459  67.522  1.00  0.00    -0.230 Cl 
HETATM   25  C   UNL     1      -8.037   7.059  67.430  1.00  0.00    -0.116 A  
HETATM   26  C   UNL     1      -7.382   8.285  67.580  1.00  0.00    -0.093 A  
ENDBRANCH  17  20
ENDBRANCH  15  16
ENDBRANCH  14  15
ENDBRANCH  11  14
ENDBRANCH   3   8
TORSDOF 5
ENDMDL
MODEL      205
REMARK 921   NORMALIZED FREE ENERGY PREDICTED BY IDOCK:    0.86 KCAL/MOL
REMARK 922        TOTAL FREE ENERGY PREDICTED BY IDOCK:    0.11 KCAL/MOL
REMARK 923 INTER-LIGAND FREE ENERGY PREDICTED BY IDOCK:   -1.77 KCAL/MOL
REMARK 924 INTRA-LIGAND FREE ENERGY PREDICTED BY IDOCK:    1.89 KCAL/MOL
REMARK 927      BINDING AFFINITY PREDICTED BY RF-SCORE:    0.00 PKD
ROOT
HETATM    1  C   UNL     1      -5.151  13.143  67.538  1.00  0.00     0.030 C  
HETATM    2  C   UNL     1      -6.645  13.165  67.871  1.00  0.00    -0.137 C  
HETATM    3  O   UNL     1      -7.407  13.664  66.742  1.00  0.00     0.329 OA 
HETATM    4  C   UNL     1      -6.960  13.825  69.223  1.00  0.00    -0.042 C  
HETATM    5  C   UNL     1      -7.092  11.693  68.010  1.00  0.00    -0.080 C  
HETATM    6  O   UNL     1      -8.123  11.361  67.193  1.00  0.00    -0.140 OA 
HETATM    7  O   UNL     1      -6.595  10.885  68.783  1.00  0.00    -0.054 OA 
ENDROOT
BRANCH   3   8
HETATM    8  C   UNL     1      -7.711  14.988  66.632  1.00  0.00     0.419 A  
HETATM    9  C   UNL     1      -8.824  15.499  65.982  1.00  0.00    -0.160 A  
HETATM   10  C   UNL     1      -8.987  16.875  65.842  1.00  0.00    -0.075 A  
HETATM   11  C   UNL     1      -8.075  17.772  66.406  1.00  0.00    -0.296 A  
HETATM   12  C   UNL     1      -6.817  15.870  67.241  1.00  0.00    -0.232 A  
HETATM   13  C   UNL     1      -6.989  17.253  67.122  1.00  0.00    -0.207 A  
BRANCH  11  14
HETATM   14  C   UNL     1      -8.190  19.266  66.184  1.00  0.00    -0.291 C  
BRANCH  14  15
HETATM   15  C   UNL     1      -9.076  19.992  67.203  1.00  0.00    -0.363 C  
BRANCH  15  16
HETATM   16  N   UNL     1      -9.687  19.090  68.155  1.00  0.00    -0.333 N  
HETATM   17  C   UNL     1     -10.682  18.219  67.758  1.00  0.00    -0.333 C  
HETATM   18  H   UNL     1      -9.381  19.098  69.128  1.00  0.00     0.000 HD 
HETATM   19  O   UNL     1     -11.150  18.190  66.626  1.00  0.00     0.062 OA 
BRANCH  17  20
HETATM   20  C   UNL     1     -11.136  17.245  68.781  1.00  0.00     0.103 A  
HETATM   21  C   UNL     1     -11.662  15.999  68.418  1.00  0.00    -0.196 A  
HETATM   22  C   UNL     1     -12.096  15.112  69.406  1.00  0.00    -0.293 A  
HETATM   23  C   UNL     1     -11.997  15.469  70.751  1.00  0.00    -0.378 A  
HETATM   24 CL   UNL     1     -12.537  14.373  71.962  1.00  0.00    -0.397 Cl 
HETATM   25  C   UNL     1     -11.458  16.700  71.120  1.00  0.00     0.109 A  
HETATM   26  C   UNL     1     -11.022  17.589  70.134  1.00  0.00     1.182 A  
ENDBRANCH  17  20
ENDBRANCH  15  16
ENDBRANCH  14  15
ENDBRANCH  11  14
ENDBRANCH   3   8
TORSDOF 5
ENDMDL
MODEL      206
REMARK 921   NORMALIZED FREE ENERGY PREDICTED BY IDOCK:    1.98 KCAL/MOL
REMARK 922        TOTAL FREE ENERGY PREDICTED BY IDOCK:    1.56 KCAL/MOL
REMARK 923 INTER-LIGAND FREE ENERGY PREDICTED BY IDOCK:    1.15 KCAL/MOL
REMARK 924 INTRA-LIGAND FREE ENERGY PREDICTED BY IDOCK:    0.40 KCAL/MOL
REMARK 927      BINDING AFFINITY PREDICTED BY RF-SCORE:    0.00 PKD
ROOT
HETATM    1  C   UNL     1      -7.570  10.543  68.796  1.00  0.00    -0.101 C  
HETATM    2  C   UNL     1      -7.354  10.964  67.339  1.00  0.00    -0.099 C  
HETATM    3  O   UNL     1      -7.340  12.409  67.229  1.00  0.00    -0.143 OA 
HETATM    4  C   UNL     1      -8.277  10.235  66.349  1.00  0.00    -0.129 C  
HETATM    5  C   UNL     1      -5.917  10.539  66.962  1.00  0.00    -0.053 C  
HETATM    6  O   UNL     1      -5.154  11.564  66.505  1.00  0.00    -0.113 OA 
HETATM    7  O   UNL     1      -5.486   9.397  67.041  1.00  0.00    -0.039 OA 
ENDROOT
BRANCH   3   8
HETATM    8  C   UNL     1      -8.480  13.102  66.952  1.00  0.00    -0.070 A  
HETATM    9  C   UNL     1      -8.551  14.240  66.163  1.00  0.00     0.630 A  
HETATM   10  C   UNL     1      -9.754  14.930  66.028  1.00  0.00    -0.358 A  
HETATM   11  C   UNL     1     -10.928  14.459  66.625  1.00  0.00    -0.318 A  
HETATM   12  C   UNL     1      -9.652  12.594  67.516  1.00  0.00    -0.184 A  
HETATM   13  C   UNL     1     -10.867  13.271  67.364  1.00  0.00    -0.279 A  
BRANCH  11  14
HETATM   14  C   UNL     1     -12.220  15.246  66.561  1.00  0.00     0.608 C  
BRANCH  14  15
HETATM   15  C   UNL     1     -12.234  16.513  67.425  1.00  0.00     1.847 C  
BRANCH  15  16
HETATM   16  N   UNL     1     -10.939  17.154  67.496  1.00  0.00    -0.189 N  
HETATM   17  C   UNL     1     -10.797  18.382  68.112  1.00  0.00    -0.051 C  
HETATM   18  H   UNL     1     -10.124  16.696  67.089  1.00  0.00     0.000 HD 
HETATM   19  O   UNL     1     -11.734  19.027  68.570  1.00  0.00     1.914 OA 
BRANCH  17  20
HETATM   20  C   UNL     1      -9.407  18.880  68.252  1.00  0.00    -0.384 A  
HETATM   21  C   UNL     1      -8.947  19.976  67.511  1.00  0.00    -0.437 A  
HETATM   22  C   UNL     1      -7.627  20.409  67.655  1.00  0.00    -0.323 A  
HETATM   23  C   UNL     1      -6.773  19.751  68.541  1.00  0.00    -0.295 A  
HETATM   24 CL   UNL     1      -5.147  20.288  68.710  1.00  0.00    -0.220 Cl 
HETATM   25  C   UNL     1      -7.229  18.671  69.294  1.00  0.00    -0.153 A  
HETATM   26  C   UNL     1      -8.550  18.236  69.154  1.00  0.00     0.094 A  
ENDBRANCH  17  20
ENDBRANCH  15  16
ENDBRANCH  14  15
ENDBRANCH  11  14
ENDBRANCH   3   8
TORSDOF 5
ENDMDL
MODEL      207
REMARK 921   NORMALIZED FREE ENERGY PREDICTED BY IDOCK:    2.02 KCAL/MOL
REMARK 922        TOTAL FREE ENERGY PREDICTED BY IDOCK:    1.61 KCAL/MOL
REMARK 923 INTER-LIGAND FREE ENERGY PREDICTED BY IDOCK:    1.88 KCAL/MOL
REMARK 924 INTRA-LIGAND FREE ENERGY PREDICTED BY IDOCK:   -0.27 KCAL/MOL
REMARK 927      BINDING AFFINITY PREDICTED BY RF-SCORE:    0.00 PKD
ROOT
HETATM    1  C   UNL     1     -10.356  18.543  71.075  1.00  0.00     2.723 C  
HETATM    2  C   UNL     1      -9.821  18.482  69.641  1.00  0.00     0.427 C  
HETATM    3  O   UNL     1     -10.544  17.485  68.876  1.00  0.00    -0.316 OA 
HETATM    4  C   UNL     1      -8.289  18.392  69.564  1.00  0.00     0.590 C  
HETATM    5  C   UNL     1     -10.196  19.822  68.969  1.00  0.00    -0.266 C  
HETATM    6  O   UNL     1     -10.915  19.671  67.828  1.00  0.00    -0.332 OA 
HETATM    7  O   UNL     1      -9.878  20.925  69.391  1.00  0.00     0.849 OA 
ENDROOT
BRANCH   3   8
HETATM    8  C   UNL     1     -10.088  16.203  68.789  1.00  0.00    -0.237 A  
HETATM    9  C   UNL     1      -8.958  15.804  68.090  1.00  0.00    -0.180 A  
HETATM   10  C   UNL     1      -8.638  14.453  67.982  1.00  0.00    -0.166 A  
HETATM   11  C   UNL     1      -9.403  13.475  68.626  1.00  0.00    -0.036 A  
HETATM   12  C   UNL     1     -10.834  15.244  69.476  1.00  0.00    -0.275 A  
HETATM   13  C   UNL     1     -10.503  13.888  69.389  1.00  0.00     0.092 A  
BRANCH  11  14
HETATM   14  C   UNL     1      -9.120  11.999  68.442  1.00  0.00    -0.158 C  
BRANCH  14  15
HETATM   15  C   UNL     1      -8.154  11.405  69.475  1.00  0.00     0.503 C  
BRANCH  15  16
HETATM   16  N   UNL     1      -8.042   9.966  69.372  1.00  0.00    -0.125 N  
HETATM   17  C   UNL     1      -8.745   9.144  70.230  1.00  0.00    -0.200 C  
HETATM   18  H   UNL     1      -7.439   9.555  68.660  1.00  0.00     0.000 HD 
HETATM   19  O   UNL     1      -9.441   9.557  71.151  1.00  0.00    -0.200 OA 
BRANCH  17  20
HETATM   20  C   UNL     1      -8.666   7.691  69.945  1.00  0.00    -0.139 A  
HETATM   21  C   UNL     1      -8.536   7.211  68.636  1.00  0.00    -0.124 A  
HETATM   22  C   UNL     1      -8.481   5.835  68.401  1.00  0.00    -0.110 A  
HETATM   23  C   UNL     1      -8.549   4.945  69.472  1.00  0.00    -0.086 A  
HETATM   24 CL   UNL     1      -8.484   3.251  69.175  1.00  0.00    -0.086 Cl 
HETATM   25  C   UNL     1      -8.661   5.416  70.779  1.00  0.00    -0.131 A  
HETATM   26  C   UNL     1      -8.714   6.792  71.018  1.00  0.00    -0.137 A  
ENDBRANCH  17  20
ENDBRANCH  15  16
ENDBRANCH  14  15
ENDBRANCH  11  14
ENDBRANCH   3   8
TORSDOF 5
ENDMDL
MODEL      208
REMARK 921   NORMALIZED FREE ENERGY PREDICTED BY IDOCK:    6.87 KCAL/MOL
REMARK 922        TOTAL FREE ENERGY PREDICTED BY IDOCK:    7.88 KCAL/MOL
REMARK 923 INTER-LIGAND FREE ENERGY PREDICTED BY IDOCK:    7.39 KCAL/MOL
REMARK 924 INTRA-LIGAND FREE ENERGY PREDICTED BY IDOCK:    0.49 KCAL/MOL
REMARK 927      BINDING AFFINITY PREDICTED BY RF-SCORE:    0.00 PKD
ROOT
HETATM    1  C   UNL     1      -8.970  19.696  70.782  1.00  0.00     2.121 C  
HETATM    2  C   UNL     1      -8.141  18.635  70.052  1.00  0.00     1.510 C  
HETATM    3  O   UNL     1      -8.177  18.864  68.621  1.00  0.00    -0.338 OA 
HETATM    4  C   UNL     1      -8.458  17.199  70.500  1.00  0.00     4.059 C  
HETATM    5  C   UNL     1      -6.665  18.878  70.439  1.00  0.00     0.574 C  
HETATM    6  O   UNL     1      -5.850  19.061  69.370  1.00  0.00    -0.223 OA 
HETATM    7  O   UNL     1      -6.241  18.895  71.586  1.00  0.00     0.607 OA 
ENDROOT
BRANCH   3   8
HETATM    8  C   UNL     1      -9.110  18.253  67.837  1.00  0.00    -0.279 A  
HETATM    9  C   UNL     1     -10.260  18.855  67.350  1.00  0.00    -0.456 A  
HETATM   10  C   UNL     1     -11.199  18.110  66.641  1.00  0.00     0.685 A  
HETATM   11  C   UNL     1     -10.977  16.761  66.344  1.00  0.00     0.150 A  
HETATM   12  C   UNL     1      -8.851  16.921  67.509  1.00  0.00    -0.213 A  
HETATM   13  C   UNL     1      -9.781  16.175  66.777  1.00  0.00    -0.255 A  
BRANCH  11  14
HETATM   14  C   UNL     1     -12.028  15.917  65.654  1.00  0.00     0.945 C  
BRANCH  14  15
HETATM   15  C   UNL     1     -12.188  14.506  66.232  1.00  0.00    -0.250 C  
BRANCH  15  16
HETATM   16  N   UNL     1     -10.951  13.975  66.761  1.00  0.00    -0.294 N  
HETATM   17  C   UNL     1     -10.692  12.620  66.717  1.00  0.00    -0.239 C  
HETATM   18  H   UNL     1     -10.263  14.607  67.170  1.00  0.00     0.000 HD 
HETATM   19  O   UNL     1     -11.491  11.788  66.301  1.00  0.00    -0.361 OA 
BRANCH  17  20
HETATM   20  C   UNL     1      -9.339  12.203  67.157  1.00  0.00    -0.193 A  
HETATM   21  C   UNL     1      -8.345  11.860  66.232  1.00  0.00     0.080 A  
HETATM   22  C   UNL     1      -7.086  11.456  66.681  1.00  0.00    -0.103 A  
HETATM   23  C   UNL     1      -6.820  11.404  68.049  1.00  0.00    -0.067 A  
HETATM   24 CL   UNL     1      -5.267  10.902  68.595  1.00  0.00    -0.041 Cl 
HETATM   25  C   UNL     1      -7.799  11.762  68.975  1.00  0.00     0.064 A  
HETATM   26  C   UNL     1      -9.060  12.168  68.529  1.00  0.00    -0.091 A  
ENDBRANCH  17  20
ENDBRANCH  15  16
ENDBRANCH  14  15
ENDBRANCH  11  14
ENDBRANCH   3   8
TORSDOF 5
ENDMDL
MODEL      209
REMARK 921   NORMALIZED FREE ENERGY PREDICTED BY IDOCK:    9.87 KCAL/MOL
REMARK 922        TOTAL FREE ENERGY PREDICTED BY IDOCK:   11.75 KCAL/MOL
REMARK 923 INTER-LIGAND FREE ENERGY PREDICTED BY IDOCK:   10.98 KCAL/MOL
REMARK 924 INTRA-LIGAND FREE ENERGY PREDICTED BY IDOCK:    0.77 KCAL/MOL
REMARK 927      BINDING AFFINITY PREDICTED BY RF-SCORE:    0.00 PKD
ROOT
HETATM    1  C   UNL     1      -6.912  14.347  65.606  1.00  0.00     8.222 C  
HETATM    2  C   UNL     1      -6.896  14.541  67.125  1.00  0.00     0.393 C  
HETATM    3  O   UNL     1      -6.013  13.574  67.748  1.00  0.00    -0.137 OA 
HETATM    4  C   UNL     1      -8.300  14.646  67.742  1.00  0.00    -0.168 C  
HETATM    5  C   UNL     1      -6.218  15.903  67.394  1.00  0.00    -0.137 C  
HETATM    6  O   UNL     1      -5.148  15.819  68.223  1.00  0.00    -0.090 OA 
HETATM    7  O   UNL     1      -6.594  16.971  66.930  1.00  0.00    -0.174 OA 
ENDROOT
BRANCH   3   8
HETATM    8  C   UNL     1      -6.490  12.379  68.200  1.00  0.00    -0.072 A  
HETATM    9  C   UNL     1      -7.711  11.824  67.849  1.00  0.00    -0.125 A  
HETATM   10  C   UNL     1      -8.146  10.644  68.449  1.00  0.00    -0.123 A  
HETATM   11  C   UNL     1      -7.339   9.958  69.362  1.00  0.00    -0.091 A  
HETATM   12  C   UNL     1      -5.653  11.683  69.074  1.00  0.00    -0.050 A  
HETATM   13  C   UNL     1      -6.077  10.485  69.661  1.00  0.00    -0.056 A  
BRANCH  11  14
HETATM   14  C   UNL     1      -7.836   8.725  70.088  1.00  0.00    -0.094 C  
BRANCH  14  15
HETATM   15  C   UNL     1      -9.344   8.715  70.363  1.00  0.00    -0.171 C  
BRANCH  15  16
HETATM   16  N   UNL     1     -10.082   9.573  69.460  1.00  0.00    -0.194 N  
HETATM   17  C   UNL     1     -11.028  10.454  69.945  1.00  0.00    -0.305 C  
HETATM   18  H   UNL     1      -9.901   9.527  68.458  1.00  0.00     0.000 HD 
HETATM   19  O   UNL     1     -11.348  10.527  71.126  1.00  0.00    -0.196 OA 
BRANCH  17  20
HETATM   20  C   UNL     1     -11.619  11.381  68.950  1.00  0.00    -0.388 A  
HETATM   21  C   UNL     1     -12.230  10.905  67.783  1.00  0.00     1.103 A  
HETATM   22  C   UNL     1     -12.763  11.806  66.859  1.00  0.00     3.034 A  
HETATM   23  C   UNL     1     -12.692  13.178  67.106  1.00  0.00     0.942 A  
HETATM   24 CL   UNL     1     -13.347  14.282  65.961  1.00  0.00     0.534 Cl 
HETATM   25  C   UNL     1     -12.101  13.657  68.274  1.00  0.00    -0.306 A  
HETATM   26  C   UNL     1     -11.568  12.758  69.202  1.00  0.00    -0.373 A  
ENDBRANCH  17  20
ENDBRANCH  15  16
ENDBRANCH  14  15
ENDBRANCH  11  14
ENDBRANCH   3   8
TORSDOF 5
ENDMDL
MODEL      210
REMARK 921   NORMALIZED FREE ENERGY PREDICTED BY IDOCK:   10.18 KCAL/MOL
REMARK 922        TOTAL FREE ENERGY PREDICTED BY IDOCK:   12.15 KCAL/MOL
REMARK 923 INTER-LIGAND FREE ENERGY PREDICTED BY IDOCK:   11.04 KCAL/MOL
REMARK 924 INTRA-LIGAND FREE ENERGY PREDICTED BY IDOCK:    1.12 KCAL/MOL
REMARK 927      BINDING AFFINITY PREDICTED BY RF-SCORE:    0.00 PKD
ROOT
HETATM    1  C   UNL     1      -8.145  13.525  71.797  1.00  0.00     9.931 C  
HETATM    2  C   UNL     1      -6.694  13.258  71.384  1.00  0.00     2.641 C  
HETATM    3  O   UNL     1      -6.634  12.166  70.432  1.00  0.00     0.012 OA 
HETATM    4  C   UNL     1      -5.730  13.149  72.577  1.00  0.00     0.745 C  
HETATM    5  C   UNL     1      -6.227  14.491  70.579  1.00  0.00    -0.165 C  
HETATM    6  O   UNL     1      -5.767  14.184  69.340  1.00  0.00    -0.083 OA 
HETATM    7  O   UNL     1      -6.244  15.641  70.995  1.00  0.00     0.332 OA 
ENDROOT
BRANCH   3   8
HETATM    8  C   UNL     1      -6.443  10.883  70.849  1.00  0.00     0.537 A  
HETATM    9  C   UNL     1      -7.215   9.797  70.467  1.00  0.00    -0.130 A  
HETATM   10  C   UNL     1      -6.996   8.543  71.033  1.00  0.00    -0.062 A  
HETATM   11  C   UNL     1      -5.955   8.333  71.944  1.00  0.00    -0.044 A  
HETATM   12  C   UNL     1      -5.371  10.680  71.721  1.00  0.00     0.117 A  
HETATM   13  C   UNL     1      -5.133   9.417  72.274  1.00  0.00    -0.075 A  
BRANCH  11  14
HETATM   14  C   UNL     1      -5.762   6.999  72.634  1.00  0.00    -0.038 C  
BRANCH  14  15
HETATM   15  C   UNL     1      -7.020   6.123  72.684  1.00  0.00    -0.075 C  
BRANCH  15  16
HETATM   16  N   UNL     1      -8.219   6.847  72.321  1.00  0.00    -0.104 N  
HETATM   17  C   UNL     1      -9.425   6.187  72.188  1.00  0.00    -0.151 C  
HETATM   18  H   UNL     1      -8.174   7.853  72.161  1.00  0.00     0.000 HD 
HETATM   19  O   UNL     1      -9.552   4.972  72.301  1.00  0.00    -0.143 OA 
BRANCH  17  20
HETATM   20  C   UNL     1     -10.611   7.045  71.952  1.00  0.00    -0.239 A  
HETATM   21  C   UNL     1     -10.508   8.442  71.936  1.00  0.00    -0.366 A  
HETATM   22  C   UNL     1     -11.648   9.221  71.727  1.00  0.00    -0.458 A  
HETATM   23  C   UNL     1     -12.884   8.604  71.528  1.00  0.00    -0.319 A  
HETATM   24 CL   UNL     1     -14.284   9.571  71.275  1.00  0.00    -0.022 Cl 
HETATM   25  C   UNL     1     -12.990   7.214  71.525  1.00  0.00    -0.431 A  
HETATM   26  C   UNL     1     -11.851   6.432  71.732  1.00  0.00    -0.374 A  
ENDBRANCH  17  20
ENDBRANCH  15  16
ENDBRANCH  14  15
ENDBRANCH  11  14
ENDBRANCH   3   8
TORSDOF 5
ENDMDL
MODEL      211
REMARK 921   NORMALIZED FREE ENERGY PREDICTED BY IDOCK:   10.67 KCAL/MOL
REMARK 922        TOTAL FREE ENERGY PREDICTED BY IDOCK:   12.79 KCAL/MOL
REMARK 923 INTER-LIGAND FREE ENERGY PREDICTED BY IDOCK:   12.29 KCAL/MOL
REMARK 924 INTRA-LIGAND FREE ENERGY PREDICTED BY IDOCK:    0.50 KCAL/MOL
REMARK 927      BINDING AFFINITY PREDICTED BY RF-SCORE:    0.00 PKD
ROOT
HETATM    1  C   UNL     1      -8.126  13.533  71.788  1.00  0.00     9.931 C  
HETATM    2  C   UNL     1      -6.678  13.277  71.359  1.00  0.00     2.641 C  
HETATM    3  O   UNL     1      -6.618  12.175  70.419  1.00  0.00     0.012 OA 
HETATM    4  C   UNL     1      -5.698  13.192  72.540  1.00  0.00     0.745 C  
HETATM    5  C   UNL     1      -6.234  14.505  70.534  1.00  0.00    -0.165 C  
HETATM    6  O   UNL     1      -5.786  14.189  69.293  1.00  0.00    -0.085 OA 
HETATM    7  O   UNL     1      -6.258  15.660  70.937  1.00  0.00     0.227 OA 
ENDROOT
BRANCH   3   8
HETATM    8  C   UNL     1      -6.408  10.898  70.848  1.00  0.00     0.359 A  
HETATM    9  C   UNL     1      -7.111   9.785  70.415  1.00  0.00    -0.146 A  
HETATM   10  C   UNL     1      -6.884   8.539  70.994  1.00  0.00    -0.059 A  
HETATM   11  C   UNL     1      -5.901   8.366  71.974  1.00  0.00    -0.048 A  
HETATM   12  C   UNL     1      -5.392  10.734  71.791  1.00  0.00     0.149 A  
HETATM   13  C   UNL     1      -5.144   9.480  72.359  1.00  0.00    -0.078 A  
BRANCH  11  14
HETATM   14  C   UNL     1      -5.706   7.038  72.676  1.00  0.00    -0.038 C  
BRANCH  14  15
HETATM   15  C   UNL     1      -6.939   6.127  72.663  1.00  0.00    -0.075 C  
BRANCH  15  16
HETATM   16  N   UNL     1      -7.006   5.295  71.481  1.00  0.00    -0.063 N  
HETATM   17  C   UNL     1      -8.155   4.589  71.184  1.00  0.00    -0.086 C  
HETATM   18  H   UNL     1      -6.198   5.229  70.862  1.00  0.00     0.000 HD 
HETATM   19  O   UNL     1      -9.145   4.564  71.906  1.00  0.00    -0.125 OA 
BRANCH  17  20
HETATM   20  C   UNL     1      -8.162   3.883  69.879  1.00  0.00    -0.068 A  
HETATM   21  C   UNL     1      -9.358   3.464  69.283  1.00  0.00    -0.240 A  
HETATM   22  C   UNL     1      -9.328   2.787  68.062  1.00  0.00    -0.257 A  
HETATM   23  C   UNL     1      -8.106   2.537  67.437  1.00  0.00    -0.070 A  
HETATM   24 CL   UNL     1      -8.077   1.699  65.935  1.00  0.00    -0.077 Cl 
HETATM   25  C   UNL     1      -6.913   2.966  68.016  1.00  0.00    -0.049 A  
HETATM   26  C   UNL     1      -6.940   3.645  69.237  1.00  0.00    -0.045 A  
ENDBRANCH  17  20
ENDBRANCH  15  16
ENDBRANCH  14  15
ENDBRANCH  11  14
ENDBRANCH   3   8
TORSDOF 5
ENDMDL
MODEL      212
REMARK 921   NORMALIZED FREE ENERGY PREDICTED BY IDOCK:   10.95 KCAL/MOL
REMARK 922        TOTAL FREE ENERGY PREDICTED BY IDOCK:   13.15 KCAL/MOL
REMARK 923 INTER-LIGAND FREE ENERGY PREDICTED BY IDOCK:   12.40 KCAL/MOL
REMARK 924 INTRA-LIGAND FREE ENERGY PREDICTED BY IDOCK:    0.75 KCAL/MOL
REMARK 927      BINDING AFFINITY PREDICTED BY RF-SCORE:    0.00 PKD
ROOT
HETATM    1  C   UNL     1      -7.697  11.203  67.767  1.00  0.00    -0.112 C  
HETATM    2  C   UNL     1      -8.778  12.278  67.922  1.00  0.00    -0.177 C  
HETATM    3  O   UNL     1      -8.494  13.407  67.057  1.00  0.00    -0.194 OA 
HETATM    4  C   UNL     1      -9.085  12.628  69.387  1.00  0.00     1.267 C  
HETATM    5  C   UNL     1     -10.084  11.681  67.351  1.00  0.00    -0.198 C  
HETATM    6  O   UNL     1     -10.639  12.437  66.371  1.00  0.00    -0.238 OA 
HETATM    7  O   UNL     1     -10.599  10.640  67.734  1.00  0.00    -0.201 OA 
ENDROOT
BRANCH   3   8
HETATM    8  C   UNL     1      -7.780  14.475  67.513  1.00  0.00    -0.188 A  
HETATM    9  C   UNL     1      -8.324  15.689  67.904  1.00  0.00    -0.150 A  
HETATM   10  C   UNL     1      -7.495  16.751  68.258  1.00  0.00    -0.186 A  
HETATM   11  C   UNL     1      -6.105  16.602  68.292  1.00  0.00    -0.125 A  
HETATM   12  C   UNL     1      -6.398  14.296  67.587  1.00  0.00    -0.126 A  
HETATM   13  C   UNL     1      -5.563  15.353  67.964  1.00  0.00    -0.144 A  
BRANCH  11  14
HETATM   14  C   UNL     1      -5.189  17.772  68.586  1.00  0.00    -0.152 C  
BRANCH  14  15
HETATM   15  C   UNL     1      -5.896  19.131  68.650  1.00  0.00    -0.214 C  
BRANCH  15  16
HETATM   16  N   UNL     1      -7.314  19.036  68.375  1.00  0.00    -0.282 N  
HETATM   17  C   UNL     1      -8.014  20.132  67.912  1.00  0.00    -0.233 C  
HETATM   18  H   UNL     1      -7.800  18.152  68.524  1.00  0.00     0.000 HD 
HETATM   19  O   UNL     1      -7.519  21.244  67.767  1.00  0.00    -0.249 OA 
BRANCH  17  20
HETATM   20  C   UNL     1      -9.426  19.885  67.531  1.00  0.00    -0.477 A  
HETATM   21  C   UNL     1      -9.794  19.676  66.196  1.00  0.00    -0.523 A  
HETATM   22  C   UNL     1     -11.135  19.462  65.869  1.00  0.00    -0.034 A  
HETATM   23  C   UNL     1     -12.101  19.452  66.874  1.00  0.00     2.785 A  
HETATM   24 CL   UNL     1     -13.752  19.192  66.463  1.00  0.00    10.734 Cl 
HETATM   25  C   UNL     1     -11.740  19.642  68.207  1.00  0.00     2.286 A  
HETATM   26  C   UNL     1     -10.398  19.854  68.538  1.00  0.00    -0.463 A  
ENDBRANCH  17  20
ENDBRANCH  15  16
ENDBRANCH  14  15
ENDBRANCH  11  14
ENDBRANCH   3   8
TORSDOF 5
ENDMDL
MODEL      213
REMARK 921   NORMALIZED FREE ENERGY PREDICTED BY IDOCK:   33.17 KCAL/MOL
REMARK 922        TOTAL FREE ENERGY PREDICTED BY IDOCK:   41.86 KCAL/MOL
REMARK 923 INTER-LIGAND FREE ENERGY PREDICTED BY IDOCK:   41.82 KCAL/MOL
REMARK 924 INTRA-LIGAND FREE ENERGY PREDICTED BY IDOCK:    0.04 KCAL/MOL
REMARK 927      BINDING AFFINITY PREDICTED BY RF-SCORE:    0.00 PKD
ROOT
HETATM    1  C   UNL     1      -9.776  17.643  73.312  1.00  0.00    10.610 C  
HETATM    2  C   UNL     1      -9.514  18.241  71.927  1.00  0.00     9.019 C  
HETATM    3  O   UNL     1     -10.151  17.438  70.902  1.00  0.00     2.096 OA 
HETATM    4  C   UNL     1      -8.036  18.579  71.678  1.00  0.00     8.220 C  
HETATM    5  C   UNL     1     -10.266  19.590  71.875  1.00  0.00     3.359 C  
HETATM    6  O   UNL     1     -11.138  19.683  70.839  1.00  0.00     2.870 OA 
HETATM    7  O   UNL     1     -10.103  20.509  72.666  1.00  0.00     2.857 OA 
ENDROOT
BRANCH   3   8
HETATM    8  C   UNL     1      -9.473  16.436  70.274  1.00  0.00     1.340 A  
HETATM    9  C   UNL     1      -8.174  16.530  69.797  1.00  0.00     0.742 A  
HETATM   10  C   UNL     1      -7.610  15.477  69.080  1.00  0.00    -0.180 A  
HETATM   11  C   UNL     1      -8.308  14.281  68.882  1.00  0.00    -0.041 A  
HETATM   12  C   UNL     1     -10.165  15.233  70.126  1.00  0.00    -0.166 A  
HETATM   13  C   UNL     1      -9.593  14.165  69.427  1.00  0.00     0.381 A  
BRANCH  11  14
HETATM   14  C   UNL     1      -7.743  13.165  68.029  1.00  0.00    -0.146 C  
BRANCH  14  15
HETATM   15  C   UNL     1      -7.334  11.912  68.813  1.00  0.00    -0.105 C  
BRANCH  15  16
HETATM   16  N   UNL     1      -7.924  10.703  68.280  1.00  0.00    -0.111 N  
HETATM   17  C   UNL     1      -8.889  10.020  68.992  1.00  0.00    -0.159 C  
HETATM   18  H   UNL     1      -7.625  10.352  67.370  1.00  0.00     0.000 HD 
HETATM   19  O   UNL     1      -9.258  10.338  70.117  1.00  0.00    -0.016 OA 
BRANCH  17  20
HETATM   20  C   UNL     1      -9.524   8.877  68.292  1.00  0.00    -0.150 A  
HETATM   21  C   UNL     1      -8.775   7.769  67.878  1.00  0.00    -0.124 A  
HETATM   22  C   UNL     1      -9.402   6.717  67.206  1.00  0.00    -0.144 A  
HETATM   23  C   UNL     1     -10.773   6.770  66.957  1.00  0.00    -0.365 A  
HETATM   24 CL   UNL     1     -11.537   5.473  66.126  1.00  0.00     0.817 Cl 
HETATM   25  C   UNL     1     -11.528   7.863  67.383  1.00  0.00     1.297 A  
HETATM   26  C   UNL     1     -10.904   8.916  68.056  1.00  0.00    -0.079 A  
ENDBRANCH  17  20
ENDBRANCH  15  16
ENDBRANCH  14  15
ENDBRANCH  11  14
ENDBRANCH   3   8
TORSDOF 5
ENDMDL
MODEL      214
REMARK 921   NORMALIZED FREE ENERGY PREDICTED BY IDOCK:   34.82 KCAL/MOL
REMARK 922        TOTAL FREE ENERGY PREDICTED BY IDOCK:   44.00 KCAL/MOL
REMARK 923 INTER-LIGAND FREE ENERGY PREDICTED BY IDOCK:   42.90 KCAL/MOL
REMARK 924 INTRA-LIGAND FREE ENERGY PREDICTED BY IDOCK:    1.09 KCAL/MOL
REMARK 927      BINDING AFFINITY PREDICTED BY RF-SCORE:    0.00 PKD
ROOT
HETATM    1  C   UNL     1      -9.087  20.694  72.059  1.00  0.00     2.485 C  
HETATM    2  C   UNL     1      -8.483  19.421  71.456  1.00  0.00     4.488 C  
HETATM    3  O   UNL     1      -8.704  19.388  70.024  1.00  0.00     0.622 OA 
HETATM    4  C   UNL     1      -8.874  18.142  72.215  1.00  0.00    15.088 C  
HETATM    5  C   UNL     1      -6.950  19.543  71.603  1.00  0.00     1.632 C  
HETATM    6  O   UNL     1      -6.284  19.424  70.426  1.00  0.00    -0.202 OA 
HETATM    7  O   UNL     1      -6.364  19.715  72.662  1.00  0.00     0.468 OA 
ENDROOT
BRANCH   3   8
HETATM    8  C   UNL     1      -9.797  18.768  69.497  1.00  0.00     0.197 A  
HETATM    9  C   UNL     1     -10.987  19.396  69.163  1.00  0.00     1.399 A  
HETATM   10  C   UNL     1     -12.079  18.650  68.725  1.00  0.00     5.480 A  
HETATM   11  C   UNL     1     -11.984  17.266  68.549  1.00  0.00     1.806 A  
HETATM   12  C   UNL     1      -9.672  17.394  69.282  1.00  0.00    -0.005 A  
HETATM   13  C   UNL     1     -10.759  16.644  68.821  1.00  0.00    -0.342 A  
BRANCH  11  14
HETATM   14  C   UNL     1     -13.187  16.431  68.162  1.00  0.00     4.490 C  
BRANCH  14  15
HETATM   15  C   UNL     1     -13.128  14.975  68.638  1.00  0.00     1.990 C  
BRANCH  15  16
HETATM   16  N   UNL     1     -11.787  14.552  68.979  1.00  0.00    -0.337 N  
HETATM   17  C   UNL     1     -11.059  13.761  68.114  1.00  0.00    -0.259 C  
HETATM   18  H   UNL     1     -11.376  14.842  69.867  1.00  0.00     0.000 HD 
HETATM   19  O   UNL     1     -11.502  13.319  67.059  1.00  0.00    -0.308 OA 
BRANCH  17  20
HETATM   20  C   UNL     1      -9.650  13.505  68.500  1.00  0.00    -0.151 A  
HETATM   21  C   UNL     1      -8.585  14.024  67.753  1.00  0.00    -0.183 A  
HETATM   22  C   UNL     1      -7.269  13.750  68.134  1.00  0.00    -0.121 A  
HETATM   23  C   UNL     1      -7.022  12.968  69.263  1.00  0.00     0.033 A  
HETATM   24 CL   UNL     1      -5.399  12.632  69.724  1.00  0.00    -0.079 Cl 
HETATM   25  C   UNL     1      -8.078  12.463  70.020  1.00  0.00     2.773 A  
HETATM   26  C   UNL     1      -9.395  12.736  69.642  1.00  0.00     1.938 A  
ENDBRANCH  17  20
ENDBRANCH  15  16
ENDBRANCH  14  15
ENDBRANCH  11  14
ENDBRANCH   3   8
TORSDOF 5
ENDMDL
MODEL      215
REMARK 921   NORMALIZED FREE ENERGY PREDICTED BY IDOCK:   37.98 KCAL/MOL
REMARK 922        TOTAL FREE ENERGY PREDICTED BY IDOCK:   48.08 KCAL/MOL
REMARK 923 INTER-LIGAND FREE ENERGY PREDICTED BY IDOCK:   47.98 KCAL/MOL
REMARK 924 INTRA-LIGAND FREE ENERGY PREDICTED BY IDOCK:    0.10 KCAL/MOL
REMARK 927      BINDING AFFINITY PREDICTED BY RF-SCORE:    0.00 PKD
ROOT
HETATM    1  C   UNL     1      -9.745  17.590  73.445  1.00  0.00    11.005 C  
HETATM    2  C   UNL     1      -9.615  18.571  72.276  1.00  0.00     8.207 C  
HETATM    3  O   UNL     1     -10.018  17.935  71.037  1.00  0.00     2.900 OA 
HETATM    4  C   UNL     1      -8.261  19.297  72.236  1.00  0.00     5.994 C  
HETATM    5  C   UNL     1     -10.675  19.673  72.500  1.00  0.00     4.760 C  
HETATM    6  O   UNL     1     -11.525  19.825  71.453  1.00  0.00     5.798 OA 
HETATM    7  O   UNL     1     -10.755  20.368  73.504  1.00  0.00     5.040 OA 
ENDROOT
BRANCH   3   8
HETATM    8  C   UNL     1      -9.104  17.316  70.237  1.00  0.00     2.703 A  
HETATM    9  C   UNL     1      -7.824  17.784  69.981  1.00  0.00     1.801 A  
HETATM   10  C   UNL     1      -7.004  17.126  69.066  1.00  0.00    -0.235 A  
HETATM   11  C   UNL     1      -7.422  15.947  68.439  1.00  0.00    -0.127 A  
HETATM   12  C   UNL     1      -9.518  16.117  69.655  1.00  0.00    -0.009 A  
HETATM   13  C   UNL     1      -8.689  15.440  68.754  1.00  0.00    -0.195 A  
BRANCH  11  14
HETATM   14  C   UNL     1      -6.579  15.273  67.377  1.00  0.00    -0.120 C  
BRANCH  14  15
HETATM   15  C   UNL     1      -6.002  13.915  67.793  1.00  0.00    -0.108 C  
BRANCH  15  16
HETATM   16  N   UNL     1      -6.230  12.884  66.804  1.00  0.00     0.219 N  
HETATM   17  C   UNL     1      -7.106  11.848  67.059  1.00  0.00    -0.116 C  
HETATM   18  H   UNL     1      -5.741  12.923  65.910  1.00  0.00     0.000 HD 
HETATM   19  O   UNL     1      -7.685  11.693  68.128  1.00  0.00    -0.107 OA 
BRANCH  17  20
HETATM   20  C   UNL     1      -7.370  10.928  65.925  1.00  0.00    -0.041 A  
HETATM   21  C   UNL     1      -7.159   9.549  66.041  1.00  0.00    -0.092 A  
HETATM   22  C   UNL     1      -7.402   8.713  64.949  1.00  0.00    -0.090 A  
HETATM   23  C   UNL     1      -7.861   9.256  63.749  1.00  0.00    -0.133 A  
HETATM   24 CL   UNL     1      -8.155   8.221  62.406  1.00  0.00    -0.163 Cl 
HETATM   25  C   UNL     1      -8.090  10.626  63.632  1.00  0.00     0.031 A  
HETATM   26  C   UNL     1      -7.849  11.464  64.723  1.00  0.00     1.063 A  
ENDBRANCH  17  20
ENDBRANCH  15  16
ENDBRANCH  14  15
ENDBRANCH  11  14
ENDBRANCH   3   8
TORSDOF 5
ENDMDL
MODEL      216
REMARK 921   NORMALIZED FREE ENERGY PREDICTED BY IDOCK:   43.84 KCAL/MOL
REMARK 922        TOTAL FREE ENERGY PREDICTED BY IDOCK:   55.65 KCAL/MOL
REMARK 923 INTER-LIGAND FREE ENERGY PREDICTED BY IDOCK:   54.35 KCAL/MOL
REMARK 924 INTRA-LIGAND FREE ENERGY PREDICTED BY IDOCK:    1.30 KCAL/MOL
REMARK 927      BINDING AFFINITY PREDICTED BY RF-SCORE:    0.00 PKD
ROOT
HETATM    1  C   UNL     1      -7.520  11.193  67.912  1.00  0.00    -0.094 C  
HETATM    2  C   UNL     1      -8.647  12.223  68.035  1.00  0.00    -0.176 C  
HETATM    3  O   UNL     1      -8.390  13.358  67.170  1.00  0.00    -0.187 OA 
HETATM    4  C   UNL     1      -9.003  12.567  69.490  1.00  0.00     1.614 C  
HETATM    5  C   UNL     1      -9.914  11.569  67.438  1.00  0.00    -0.190 C  
HETATM    6  O   UNL     1     -10.478  12.296  66.441  1.00  0.00    -0.230 OA 
HETATM    7  O   UNL     1     -10.394  10.510  67.816  1.00  0.00    -0.189 OA 
ENDROOT
BRANCH   3   8
HETATM    8  C   UNL     1      -7.732  14.457  67.635  1.00  0.00    -0.184 A  
HETATM    9  C   UNL     1      -7.818  14.951  68.928  1.00  0.00    -0.161 A  
HETATM   10  C   UNL     1      -7.182  16.142  69.270  1.00  0.00    -0.225 A  
HETATM   11  C   UNL     1      -6.390  16.831  68.345  1.00  0.00    -0.139 A  
HETATM   12  C   UNL     1      -6.908  15.107  66.714  1.00  0.00     0.919 A  
HETATM   13  C   UNL     1      -6.249  16.291  67.061  1.00  0.00    -0.105 A  
BRANCH  11  14
HETATM   14  C   UNL     1      -5.768  18.171  68.677  1.00  0.00    -0.185 C  
BRANCH  14  15
HETATM   15  C   UNL     1      -6.237  18.777  70.005  1.00  0.00    -0.116 C  
BRANCH  15  16
HETATM   16  N   UNL     1      -7.230  17.962  70.671  1.00  0.00     2.507 N  
HETATM   17  C   UNL     1      -8.107  18.524  71.577  1.00  0.00     8.061 C  
HETATM   18  H   UNL     1      -7.283  16.964  70.470  1.00  0.00     0.000 HD 
HETATM   19  O   UNL     1      -8.069  19.700  71.921  1.00  0.00     2.801 OA 
BRANCH  17  20
HETATM   20  C   UNL     1      -9.170  17.628  72.092  1.00  0.00    12.644 A  
HETATM   21  C   UNL     1      -9.203  17.232  73.435  1.00  0.00    15.165 A  
HETATM   22  C   UNL     1     -10.209  16.374  73.883  1.00  0.00     8.843 A  
HETATM   23  C   UNL     1     -11.182  15.919  72.993  1.00  0.00     0.772 A  
HETATM   24 CL   UNL     1     -12.416  14.859  73.551  1.00  0.00    -0.578 Cl 
HETATM   25  C   UNL     1     -11.166  16.323  71.659  1.00  0.00     0.016 A  
HETATM   26  C   UNL     1     -10.161  17.183  71.207  1.00  0.00     3.760 A  
ENDBRANCH  17  20
ENDBRANCH  15  16
ENDBRANCH  14  15
ENDBRANCH  11  14
ENDBRANCH   3   8
TORSDOF 5
ENDMDL
MODEL      217
REMARK 921   NORMALIZED FREE ENERGY PREDICTED BY IDOCK:   47.75 KCAL/MOL
REMARK 922        TOTAL FREE ENERGY PREDICTED BY IDOCK:   60.71 KCAL/MOL
REMARK 923 INTER-LIGAND FREE ENERGY PREDICTED BY IDOCK:   60.03 KCAL/MOL
REMARK 924 INTRA-LIGAND FREE ENERGY PREDICTED BY IDOCK:    0.68 KCAL/MOL
REMARK 927      BINDING AFFINITY PREDICTED BY RF-SCORE:    0.00 PKD
ROOT
HETATM    1  C   UNL     1      -8.889  21.301  72.636  1.00  0.00     4.671 C  
HETATM    2  C   UNL     1      -8.391  20.117  71.801  1.00  0.00     2.346 C  
HETATM    3  O   UNL     1      -8.735  20.303  70.405  1.00  0.00     1.014 OA 
HETATM    4  C   UNL     1      -8.763  18.750  72.397  1.00  0.00    10.194 C  
HETATM    5  C   UNL     1      -6.847  20.176  71.823  1.00  0.00     0.618 C  
HETATM    6  O   UNL     1      -6.291  20.216  70.586  1.00  0.00    -0.374 OA 
HETATM    7  O   UNL     1      -6.164  20.173  72.838  1.00  0.00     0.892 OA 
ENDROOT
BRANCH   3   8
HETATM    8  C   UNL     1      -9.894  19.796  69.896  1.00  0.00     0.363 A  
HETATM    9  C   UNL     1     -11.121  20.441  69.911  1.00  0.00     1.997 A  
HETATM   10  C   UNL     1     -12.264  19.790  69.454  1.00  0.00     8.345 A  
HETATM   11  C   UNL     1     -12.195  18.503  68.910  1.00  0.00     6.654 A  
HETATM   12  C   UNL     1      -9.799  18.531  69.314  1.00  0.00    -0.095 A  
HETATM   13  C   UNL     1     -10.942  17.882  68.833  1.00  0.00     0.592 A  
BRANCH  11  14
HETATM   14  C   UNL     1     -13.440  17.750  68.494  1.00  0.00     9.821 C  
BRANCH  14  15
HETATM   15  C   UNL     1     -13.256  16.231  68.382  1.00  0.00     4.022 C  
BRANCH  15  16
HETATM   16  N   UNL     1     -11.885  15.854  68.114  1.00  0.00    -0.288 N  
HETATM   17  C   UNL     1     -11.496  15.476  66.845  1.00  0.00    -0.000 C  
HETATM   18  H   UNL     1     -11.200  15.867  68.869  1.00  0.00     0.000 HD 
HETATM   19  O   UNL     1     -12.269  15.373  65.898  1.00  0.00     0.399 OA 
BRANCH  17  20
HETATM   20  C   UNL     1     -10.043  15.246  66.653  1.00  0.00    -0.268 A  
HETATM   21  C   UNL     1      -9.275  16.086  65.837  1.00  0.00    -0.321 A  
HETATM   22  C   UNL     1      -7.912  15.832  65.665  1.00  0.00     2.181 A  
HETATM   23  C   UNL     1      -7.321  14.747  66.313  1.00  0.00     2.552 A  
HETATM   24 CL   UNL     1      -5.643  14.438  66.093  1.00  0.00     5.046 Cl 
HETATM   25  C   UNL     1      -8.077  13.918  67.141  1.00  0.00    -0.103 A  
HETATM   26  C   UNL     1      -9.440  14.170  67.316  1.00  0.00    -0.229 A  
ENDBRANCH  17  20
ENDBRANCH  15  16
ENDBRANCH  14  15
ENDBRANCH  11  14
ENDBRANCH   3   8
TORSDOF 5
ENDMDL
