MODEL        1
REMARK 921   NORMALIZED FREE ENERGY PREDICTED BY IDOCK:   -8.39 KCAL/MOL
REMARK 922        TOTAL FREE ENERGY PREDICTED BY IDOCK:  -10.47 KCAL/MOL
REMARK 923 INTER-LIGAND FREE ENERGY PREDICTED BY IDOCK:   -9.86 KCAL/MOL
REMARK 924 INTRA-LIGAND FREE ENERGY PREDICTED BY IDOCK:   -0.62 KCAL/MOL
REMARK 927      BINDING AFFINITY PREDICTED BY RF-SCORE:    0.00 PKD
ROOT
HETATM    1  C   UNL     1     -10.691  13.126  65.027  1.00  0.00    -0.338 C  
HETATM    2  C   UNL     1     -10.314  13.452  66.482  1.00  0.00    -0.284 C  
HETATM    3  C   UNL     1     -10.707  14.870  66.904  1.00  0.00    -0.308 C  
HETATM    4  O   UNL     1      -8.915  13.256  66.689  1.00  0.00    -0.368 OA 
HETATM    5  C   UNL     1     -11.069  12.436  67.385  1.00  0.00    -0.272 C  
HETATM    6  N   UNL     1     -10.746  12.482  68.736  1.00  0.00    -0.297 N  
HETATM    7  H   UNL     1      -8.682  13.457  67.587  1.00  0.00     0.000 HD 
HETATM    8  H   UNL     1     -10.036  13.149  69.036  1.00  0.00     0.000 HD 
HETATM    9  O   UNL     1     -11.950  11.713  66.918  1.00  0.00    -0.567 OA 
ENDROOT
BRANCH   3  10
HETATM   10  S   UNL     1     -10.078  16.120  65.806  1.00  0.00    -0.347 S  
HETATM   11  O   UNL     1     -10.976  16.261  64.681  1.00  0.00    -0.674 OA 
HETATM   12  O   UNL     1      -8.662  15.852  65.604  1.00  0.00    -0.110 OA 
BRANCH  10  13
HETATM   13  C   UNL     1     -10.218  17.623  66.743  1.00  0.00    -0.335 A  
HETATM   14  C   UNL     1     -10.219  17.537  68.140  1.00  0.00    -0.359 A  
HETATM   15  C   UNL     1     -10.324  18.857  66.095  1.00  0.00    -0.517 A  
HETATM   16  F   UNL     1     -10.410  21.057  68.982  1.00  0.00    -0.004 F  
HETATM   17  C   UNL     1     -10.283  18.706  68.896  1.00  0.00    -0.262 A  
HETATM   18  C   UNL     1     -10.396  20.022  66.862  1.00  0.00    -0.567 A  
HETATM   19  C   UNL     1     -10.363  19.936  68.252  1.00  0.00    -0.393 A  
ENDBRANCH  10  13
ENDBRANCH   3  10
BRANCH   6  20
HETATM   20  C   UNL     1     -11.345  11.658  69.721  1.00  0.00    -0.200 A  
HETATM   21  C   UNL     1     -11.349   7.991  70.791  1.00  0.00    -0.272 C  
HETATM   22  C   UNL     1     -11.702   9.458  70.744  1.00  0.00    -0.349 A  
HETATM   23  C   UNL     1     -13.472   9.185  72.453  1.00  0.00    -0.476 C  
HETATM   24  F   UNL     1     -10.340   7.646  69.945  1.00  0.00    -0.203 F  
HETATM   25  F   UNL     1     -10.942   7.596  72.026  1.00  0.00    -0.236 F  
HETATM   26  C   UNL     1     -12.990  11.378  71.479  1.00  0.00    -0.505 A  
HETATM   27  F   UNL     1     -12.400   7.195  70.457  1.00  0.00    -0.319 F  
HETATM   28  C   UNL     1     -11.025  10.302  69.846  1.00  0.00    -0.358 A  
HETATM   29  N   UNL     1     -14.102   8.527  73.172  1.00  0.00    -0.050 NA 
HETATM   30  C   UNL     1     -12.301  12.204  70.579  1.00  0.00    -0.358 A  
HETATM   31  C   UNL     1     -12.706  10.004  71.554  1.00  0.00    -0.532 A  
ENDBRANCH   6  20
TORSDOF 3
ENDMDL
MODEL        2
REMARK 921   NORMALIZED FREE ENERGY PREDICTED BY IDOCK:   -7.76 KCAL/MOL
REMARK 922        TOTAL FREE ENERGY PREDICTED BY IDOCK:   -9.74 KCAL/MOL
REMARK 923 INTER-LIGAND FREE ENERGY PREDICTED BY IDOCK:   -9.55 KCAL/MOL
REMARK 924 INTRA-LIGAND FREE ENERGY PREDICTED BY IDOCK:   -0.19 KCAL/MOL
REMARK 927      BINDING AFFINITY PREDICTED BY RF-SCORE:    0.00 PKD
ROOT
HETATM    1  C   UNL     1     -10.321  11.174  64.875  1.00  0.00    -0.375 C  
HETATM    2  C   UNL     1     -10.185  11.782  66.281  1.00  0.00    -0.221 C  
HETATM    3  C   UNL     1     -11.261  12.824  66.595  1.00  0.00    -0.301 C  
HETATM    4  O   UNL     1      -8.889  12.358  66.450  1.00  0.00    -0.369 OA 
HETATM    5  C   UNL     1     -10.314  10.611  67.297  1.00  0.00    -0.220 C  
HETATM    6  N   UNL     1     -10.078  10.945  68.625  1.00  0.00    -0.183 N  
HETATM    7  H   UNL     1      -8.805  12.734  67.318  1.00  0.00     0.000 HD 
HETATM    8  H   UNL     1      -9.820  11.908  68.840  1.00  0.00     0.000 HD 
HETATM    9  O   UNL     1     -10.687   9.498  66.929  1.00  0.00    -0.207 OA 
ENDROOT
BRANCH   3  10
HETATM   10  S   UNL     1     -11.358  14.111  65.369  1.00  0.00    -0.335 S  
HETATM   11  O   UNL     1     -12.736  14.275  64.960  1.00  0.00    -0.625 OA 
HETATM   12  O   UNL     1     -10.312  13.862  64.389  1.00  0.00    -0.384 OA 
BRANCH  10  13
HETATM   13  C   UNL     1     -10.929  15.585  66.261  1.00  0.00    -0.242 A  
HETATM   14  C   UNL     1     -10.506  16.703  65.532  1.00  0.00    -0.285 A  
HETATM   15  C   UNL     1     -11.013  15.623  67.656  1.00  0.00    -0.315 A  
HETATM   16  F   UNL     1     -10.039  19.073  68.234  1.00  0.00    -0.358 F  
HETATM   17  C   UNL     1     -10.207  17.886  66.206  1.00  0.00    -0.363 A  
HETATM   18  C   UNL     1     -10.702  16.810  68.323  1.00  0.00    -0.364 A  
HETATM   19  C   UNL     1     -10.315  17.931  67.592  1.00  0.00    -0.381 A  
ENDBRANCH  10  13
ENDBRANCH   3  10
BRANCH   6  20
HETATM   20  C   UNL     1     -10.175  10.027  69.700  1.00  0.00    -0.239 A  
HETATM   21  C   UNL     1     -12.870   8.435  71.890  1.00  0.00    -0.353 C  
HETATM   22  C   UNL     1     -11.507   8.796  71.352  1.00  0.00    -0.366 A  
HETATM   23  C   UNL     1     -10.358   7.567  73.167  1.00  0.00    -0.347 C  
HETATM   24  F   UNL     1     -13.898   8.934  71.152  1.00  0.00    -0.369 F  
HETATM   25  F   UNL     1     -13.070   7.090  71.933  1.00  0.00    -0.359 F  
HETATM   26  C   UNL     1      -9.083   8.717  71.423  1.00  0.00    -0.295 A  
HETATM   27  F   UNL     1     -13.065   8.894  73.155  1.00  0.00    -0.375 F  
HETATM   28  C   UNL     1     -11.410   9.615  70.212  1.00  0.00    -0.311 A  
HETATM   29  N   UNL     1     -10.375   6.937  74.141  1.00  0.00    -0.344 NA 
HETATM   30  C   UNL     1      -9.008   9.533  70.284  1.00  0.00    -0.288 A  
HETATM   31  C   UNL     1     -10.327   8.360  71.969  1.00  0.00    -0.374 A  
ENDBRANCH   6  20
TORSDOF 3
ENDMDL
MODEL        3
REMARK 921   NORMALIZED FREE ENERGY PREDICTED BY IDOCK:   -7.70 KCAL/MOL
REMARK 922        TOTAL FREE ENERGY PREDICTED BY IDOCK:   -9.66 KCAL/MOL
REMARK 923 INTER-LIGAND FREE ENERGY PREDICTED BY IDOCK:   -9.09 KCAL/MOL
REMARK 924 INTRA-LIGAND FREE ENERGY PREDICTED BY IDOCK:   -0.58 KCAL/MOL
REMARK 927      BINDING AFFINITY PREDICTED BY RF-SCORE:    0.00 PKD
ROOT
HETATM    1  C   UNL     1     -11.836   9.339  71.819  1.00  0.00    -0.454 C  
HETATM    2  C   UNL     1     -10.819   9.537  70.683  1.00  0.00    -0.306 C  
HETATM    3  C   UNL     1     -10.834   8.404  69.655  1.00  0.00    -0.148 C  
HETATM    4  O   UNL     1      -9.502   9.691  71.214  1.00  0.00    -0.310 OA 
HETATM    5  C   UNL     1     -11.193  10.866  69.965  1.00  0.00    -0.263 C  
HETATM    6  N   UNL     1     -10.299  11.289  68.989  1.00  0.00    -0.305 N  
HETATM    7  H   UNL     1      -8.874   9.813  70.513  1.00  0.00     0.000 HD 
HETATM    8  H   UNL     1      -9.465  10.727  68.826  1.00  0.00     0.000 HD 
HETATM    9  O   UNL     1     -12.258  11.433  70.208  1.00  0.00    -0.332 OA 
ENDROOT
BRANCH   3  10
HETATM   10  S   UNL     1     -10.635   6.797  70.391  1.00  0.00    -0.238 S  
HETATM   11  O   UNL     1     -11.894   6.378  70.968  1.00  0.00    -0.343 OA 
HETATM   12  O   UNL     1      -9.420   6.830  71.192  1.00  0.00    -0.163 OA 
BRANCH  10  13
HETATM   13  C   UNL     1     -10.344   5.724  69.007  1.00  0.00    -0.245 A  
HETATM   14  C   UNL     1     -10.839   6.106  67.754  1.00  0.00    -0.413 A  
HETATM   15  C   UNL     1      -9.638   4.528  69.169  1.00  0.00    -0.251 A  
HETATM   16  F   UNL     1      -9.608   3.364  65.730  1.00  0.00    -0.166 F  
HETATM   17  C   UNL     1     -10.585   5.303  66.644  1.00  0.00    -0.334 A  
HETATM   18  C   UNL     1      -9.396   3.725  68.052  1.00  0.00    -0.232 A  
HETATM   19  C   UNL     1      -9.861   4.126  66.801  1.00  0.00    -0.176 A  
ENDBRANCH  10  13
ENDBRANCH   3  10
BRANCH   6  20
HETATM   20  C   UNL     1     -10.478  12.457  68.207  1.00  0.00    -0.225 A  
HETATM   21  C   UNL     1     -12.328  13.547  65.047  1.00  0.00    -0.428 C  
HETATM   22  C   UNL     1     -11.427  13.603  66.257  1.00  0.00    -0.352 A  
HETATM   23  C   UNL     1     -10.659  15.889  65.698  1.00  0.00    -0.378 C  
HETATM   24  F   UNL     1     -13.013  12.376  64.930  1.00  0.00    -0.560 F  
HETATM   25  F   UNL     1     -13.274  14.524  65.060  1.00  0.00    -0.276 F  
HETATM   26  C   UNL     1      -9.838  14.738  67.695  1.00  0.00    -0.218 A  
HETATM   27  F   UNL     1     -11.641  13.690  63.882  1.00  0.00    -0.404 F  
HETATM   28  C   UNL     1     -11.337  12.483  67.102  1.00  0.00    -0.381 A  
HETATM   29  N   UNL     1     -10.650  16.821  65.007  1.00  0.00    -0.705 NA 
HETATM   30  C   UNL     1      -9.764  13.611  68.528  1.00  0.00    -0.184 A  
HETATM   31  C   UNL     1     -10.654  14.733  66.552  1.00  0.00    -0.299 A  
ENDBRANCH   6  20
TORSDOF 3
ENDMDL
MODEL        4
REMARK 921   NORMALIZED FREE ENERGY PREDICTED BY IDOCK:   -7.63 KCAL/MOL
REMARK 922        TOTAL FREE ENERGY PREDICTED BY IDOCK:   -9.58 KCAL/MOL
REMARK 923 INTER-LIGAND FREE ENERGY PREDICTED BY IDOCK:   -9.09 KCAL/MOL
REMARK 924 INTRA-LIGAND FREE ENERGY PREDICTED BY IDOCK:   -0.50 KCAL/MOL
REMARK 927      BINDING AFFINITY PREDICTED BY RF-SCORE:    0.00 PKD
ROOT
HETATM    1  C   UNL     1     -11.924  12.945  66.026  1.00  0.00    -0.505 C  
HETATM    2  C   UNL     1     -11.416  13.474  67.378  1.00  0.00    -0.336 C  
HETATM    3  C   UNL     1     -10.457  12.510  68.081  1.00  0.00    -0.229 C  
HETATM    4  O   UNL     1     -12.515  13.776  68.238  1.00  0.00    -0.378 OA 
HETATM    5  C   UNL     1     -10.664  14.805  67.091  1.00  0.00    -0.299 C  
HETATM    6  N   UNL     1     -10.248  15.509  68.215  1.00  0.00    -0.221 N  
HETATM    7  H   UNL     1     -12.202  14.103  69.073  1.00  0.00     0.000 HD 
HETATM    8  H   UNL     1     -10.477  15.128  69.132  1.00  0.00     0.000 HD 
HETATM    9  O   UNL     1     -10.395  15.139  65.938  1.00  0.00    -0.288 OA 
ENDROOT
BRANCH   3  10
HETATM   10  S   UNL     1     -11.132  10.875  68.269  1.00  0.00    -0.289 S  
HETATM   11  O   UNL     1     -10.862  10.108  67.072  1.00  0.00    -0.230 OA 
HETATM   12  O   UNL     1     -12.488  11.016  68.777  1.00  0.00    -0.468 OA 
BRANCH  10  13
HETATM   13  C   UNL     1     -10.144  10.148  69.554  1.00  0.00    -0.235 A  
HETATM   14  C   UNL     1     -10.794   9.631  70.680  1.00  0.00    -0.386 A  
HETATM   15  C   UNL     1      -8.752  10.097  69.437  1.00  0.00    -0.186 A  
HETATM   16  F   UNL     1      -7.946   8.338  72.510  1.00  0.00    -0.142 F  
HETATM   17  C   UNL     1     -10.044   9.016  71.680  1.00  0.00    -0.405 A  
HETATM   18  C   UNL     1      -8.008   9.486  70.449  1.00  0.00    -0.200 A  
HETATM   19  C   UNL     1      -8.661   8.942  71.553  1.00  0.00    -0.162 A  
ENDBRANCH  10  13
ENDBRANCH   3  10
BRANCH   6  20
HETATM   20  C   UNL     1      -9.524  16.726  68.161  1.00  0.00    -0.234 A  
HETATM   21  C   UNL     1      -9.870  20.216  66.647  1.00  0.00    -0.456 C  
HETATM   22  C   UNL     1      -9.277  19.038  67.382  1.00  0.00    -0.326 A  
HETATM   23  C   UNL     1      -7.125  20.212  67.721  1.00  0.00    -0.295 C  
HETATM   24  F   UNL     1     -11.152  20.013  66.235  1.00  0.00    -0.483 F  
HETATM   25  F   UNL     1      -9.907  21.339  67.413  1.00  0.00    -0.618 F  
HETATM   26  C   UNL     1      -7.472  17.947  68.579  1.00  0.00    -0.270 A  
HETATM   27  F   UNL     1      -9.168  20.535  65.527  1.00  0.00    -0.161 F  
HETATM   28  C   UNL     1     -10.040  17.867  67.538  1.00  0.00    -0.343 A  
HETATM   29  N   UNL     1      -6.430  21.129  67.574  1.00  0.00    -0.384 NA 
HETATM   30  C   UNL     1      -8.250  16.788  68.726  1.00  0.00    -0.250 A  
HETATM   31  C   UNL     1      -7.974  19.066  67.895  1.00  0.00    -0.307 A  
ENDBRANCH   6  20
TORSDOF 3
ENDMDL
MODEL        5
REMARK 921   NORMALIZED FREE ENERGY PREDICTED BY IDOCK:   -7.58 KCAL/MOL
REMARK 922        TOTAL FREE ENERGY PREDICTED BY IDOCK:   -9.52 KCAL/MOL
REMARK 923 INTER-LIGAND FREE ENERGY PREDICTED BY IDOCK:   -9.35 KCAL/MOL
REMARK 924 INTRA-LIGAND FREE ENERGY PREDICTED BY IDOCK:   -0.18 KCAL/MOL
REMARK 927      BINDING AFFINITY PREDICTED BY RF-SCORE:    0.00 PKD
ROOT
HETATM    1  C   UNL     1     -10.365  10.832  64.837  1.00  0.00    -0.369 C  
HETATM    2  C   UNL     1     -10.282  11.475  66.231  1.00  0.00    -0.230 C  
HETATM    3  C   UNL     1     -11.406  12.478  66.501  1.00  0.00    -0.334 C  
HETATM    4  O   UNL     1      -9.014  12.107  66.412  1.00  0.00    -0.264 OA 
HETATM    5  C   UNL     1     -10.384  10.322  67.270  1.00  0.00    -0.232 C  
HETATM    6  N   UNL     1     -10.188  10.693  68.595  1.00  0.00    -0.173 N  
HETATM    7  H   UNL     1      -8.963  12.504  67.273  1.00  0.00     0.000 HD 
HETATM    8  H   UNL     1      -9.973  11.670  68.793  1.00  0.00     0.000 HD 
HETATM    9  O   UNL     1     -10.704   9.186  66.920  1.00  0.00    -0.203 OA 
ENDROOT
BRANCH   3  10
HETATM   10  S   UNL     1     -11.530  13.734  65.246  1.00  0.00    -0.324 S  
HETATM   11  O   UNL     1     -12.914  13.872  64.847  1.00  0.00    -0.711 OA 
HETATM   12  O   UNL     1     -10.490  13.473  64.262  1.00  0.00    -0.414 OA 
BRANCH  10  13
HETATM   13  C   UNL     1     -11.109  15.234  66.097  1.00  0.00    -0.280 A  
HETATM   14  C   UNL     1     -11.247  15.269  67.490  1.00  0.00    -0.317 A  
HETATM   15  C   UNL     1     -10.652  16.349  65.389  1.00  0.00    -0.338 A  
HETATM   16  F   UNL     1     -10.038  18.620  68.156  1.00  0.00    -0.323 F  
HETATM   17  C   UNL     1     -10.880  16.420  68.185  1.00  0.00    -0.346 A  
HETATM   18  C   UNL     1     -10.295  17.501  66.094  1.00  0.00    -0.330 A  
HETATM   19  C   UNL     1     -10.401  17.521  67.483  1.00  0.00    -0.356 A  
ENDBRANCH  10  13
ENDBRANCH   3  10
BRANCH   6  20
HETATM   20  C   UNL     1     -10.270   9.794  69.688  1.00  0.00    -0.233 A  
HETATM   21  C   UNL     1     -12.933   8.238  71.942  1.00  0.00    -0.347 C  
HETATM   22  C   UNL     1     -11.577   8.592  71.379  1.00  0.00    -0.354 A  
HETATM   23  C   UNL     1     -10.403   7.399  73.202  1.00  0.00    -0.334 C  
HETATM   24  F   UNL     1     -13.972   8.722  71.207  1.00  0.00    -0.400 F  
HETATM   25  F   UNL     1     -13.129   6.895  72.011  1.00  0.00    -0.347 F  
HETATM   26  C   UNL     1      -9.153   8.519  71.420  1.00  0.00    -0.266 A  
HETATM   27  F   UNL     1     -13.113   8.721  73.200  1.00  0.00    -0.345 F  
HETATM   28  C   UNL     1     -11.497   9.390  70.223  1.00  0.00    -0.223 A  
HETATM   29  N   UNL     1     -10.406   6.787  74.187  1.00  0.00    -0.361 NA 
HETATM   30  C   UNL     1      -9.095   9.313  70.265  1.00  0.00    -0.271 A  
HETATM   31  C   UNL     1     -10.389   8.170  71.989  1.00  0.00    -0.320 A  
ENDBRANCH   6  20
TORSDOF 3
ENDMDL
MODEL        6
REMARK 921   NORMALIZED FREE ENERGY PREDICTED BY IDOCK:   -7.52 KCAL/MOL
REMARK 922        TOTAL FREE ENERGY PREDICTED BY IDOCK:   -9.46 KCAL/MOL
REMARK 923 INTER-LIGAND FREE ENERGY PREDICTED BY IDOCK:   -8.81 KCAL/MOL
REMARK 924 INTRA-LIGAND FREE ENERGY PREDICTED BY IDOCK:   -0.65 KCAL/MOL
REMARK 927      BINDING AFFINITY PREDICTED BY RF-SCORE:    0.00 PKD
ROOT
HETATM    1  C   UNL     1     -11.895  12.293  65.538  1.00  0.00    -0.420 C  
HETATM    2  C   UNL     1     -11.267  12.976  66.764  1.00  0.00    -0.298 C  
HETATM    3  C   UNL     1     -10.253  12.092  67.494  1.00  0.00    -0.199 C  
HETATM    4  O   UNL     1     -12.284  13.399  67.674  1.00  0.00    -0.302 OA 
HETATM    5  C   UNL     1     -10.537  14.251  66.251  1.00  0.00    -0.291 C  
HETATM    6  N   UNL     1     -10.020  15.081  67.237  1.00  0.00    -0.232 N  
HETATM    7  H   UNL     1     -11.896  13.821  68.431  1.00  0.00     0.000 HD 
HETATM    8  H   UNL     1     -10.169  14.819  68.212  1.00  0.00     0.000 HD 
HETATM    9  O   UNL     1     -10.371  14.437  65.045  1.00  0.00    -0.402 OA 
ENDROOT
BRANCH   3  10
HETATM   10  S   UNL     1     -10.916  10.503  67.942  1.00  0.00    -0.306 S  
HETATM   11  O   UNL     1     -10.703   9.575  66.852  1.00  0.00    -0.207 OA 
HETATM   12  O   UNL     1     -12.246  10.721  68.489  1.00  0.00    -0.470 OA 
BRANCH  10  13
HETATM   13  C   UNL     1      -9.865   9.958  69.266  1.00  0.00    -0.207 A  
HETATM   14  C   UNL     1     -10.464   9.408  70.406  1.00  0.00    -0.311 A  
HETATM   15  C   UNL     1      -8.476  10.077  69.167  1.00  0.00    -0.156 A  
HETATM   16  F   UNL     1      -7.506   8.557  72.319  1.00  0.00    -0.121 F  
HETATM   17  C   UNL     1      -9.659   8.932  71.439  1.00  0.00    -0.359 A  
HETATM   18  C   UNL     1      -7.678   9.605  70.212  1.00  0.00    -0.184 A  
HETATM   19  C   UNL     1      -8.276   9.028  71.330  1.00  0.00    -0.110 A  
ENDBRANCH  10  13
ENDBRANCH   3  10
BRANCH   6  20
HETATM   20  C   UNL     1      -9.299  16.271  66.971  1.00  0.00    -0.221 A  
HETATM   21  C   UNL     1      -9.971  20.006  66.532  1.00  0.00    -0.479 C  
HETATM   22  C   UNL     1      -9.230  18.692  66.581  1.00  0.00    -0.321 A  
HETATM   23  C   UNL     1      -7.131  19.736  65.788  1.00  0.00    -0.306 C  
HETATM   24  F   UNL     1     -11.273  19.913  66.916  1.00  0.00    -0.515 F  
HETATM   25  F   UNL     1      -9.416  20.944  67.345  1.00  0.00    -0.552 F  
HETATM   26  C   UNL     1      -7.231  17.346  66.306  1.00  0.00    -0.346 A  
HETATM   27  F   UNL     1      -9.992  20.542  65.283  1.00  0.00    -0.348 F  
HETATM   28  C   UNL     1      -9.919  17.526  66.959  1.00  0.00    -0.311 A  
HETATM   29  N   UNL     1      -6.526  20.653  65.415  1.00  0.00    -0.251 NA 
HETATM   30  C   UNL     1      -7.935  16.195  66.688  1.00  0.00    -0.305 A  
HETATM   31  C   UNL     1      -7.877  18.591  66.235  1.00  0.00    -0.282 A  
ENDBRANCH   6  20
TORSDOF 3
ENDMDL
MODEL        7
REMARK 921   NORMALIZED FREE ENERGY PREDICTED BY IDOCK:   -7.50 KCAL/MOL
REMARK 922        TOTAL FREE ENERGY PREDICTED BY IDOCK:   -9.43 KCAL/MOL
REMARK 923 INTER-LIGAND FREE ENERGY PREDICTED BY IDOCK:   -8.75 KCAL/MOL
REMARK 924 INTRA-LIGAND FREE ENERGY PREDICTED BY IDOCK:   -0.68 KCAL/MOL
REMARK 927      BINDING AFFINITY PREDICTED BY RF-SCORE:    0.00 PKD
ROOT
HETATM    1  C   UNL     1     -11.564   9.758  71.230  1.00  0.00    -0.465 C  
HETATM    2  C   UNL     1     -10.658   9.755  69.987  1.00  0.00    -0.276 C  
HETATM    3  C   UNL     1     -10.854   8.523  69.100  1.00  0.00    -0.029 C  
HETATM    4  O   UNL     1      -9.286   9.861  70.372  1.00  0.00    -0.360 OA 
HETATM    5  C   UNL     1     -11.013  11.025  69.162  1.00  0.00    -0.237 C  
HETATM    6  N   UNL     1     -10.197  11.271  68.065  1.00  0.00    -0.178 N  
HETATM    7  H   UNL     1      -8.726   9.859  69.605  1.00  0.00     0.000 HD 
HETATM    8  H   UNL     1      -9.423  10.632  67.889  1.00  0.00     0.000 HD 
HETATM    9  O   UNL     1     -12.008  11.695  69.438  1.00  0.00    -0.313 OA 
ENDROOT
BRANCH   3  10
HETATM   10  S   UNL     1     -10.687   6.993  69.992  1.00  0.00    -0.251 S  
HETATM   11  O   UNL     1     -11.972   6.623  70.545  1.00  0.00    -0.400 OA 
HETATM   12  O   UNL     1      -9.512   7.107  70.843  1.00  0.00    -0.160 OA 
BRANCH  10  13
HETATM   13  C   UNL     1     -10.330   5.797  68.729  1.00  0.00    -0.224 A  
HETATM   14  C   UNL     1     -10.757   6.063  67.422  1.00  0.00    -0.393 A  
HETATM   15  C   UNL     1      -9.639   4.621  69.037  1.00  0.00    -0.242 A  
HETATM   16  F   UNL     1      -9.435   3.146  65.725  1.00  0.00    -0.157 F  
HETATM   17  C   UNL     1     -10.449   5.161  66.406  1.00  0.00    -0.356 A  
HETATM   18  C   UNL     1      -9.343   3.720  68.013  1.00  0.00    -0.232 A  
HETATM   19  C   UNL     1      -9.740   4.004  66.708  1.00  0.00    -0.190 A  
ENDBRANCH  10  13
ENDBRANCH   3  10
BRANCH   6  20
HETATM   20  C   UNL     1     -10.377  12.360  67.175  1.00  0.00    -0.219 A  
HETATM   21  C   UNL     1      -9.381  16.036  66.889  1.00  0.00    -0.228 C  
HETATM   22  C   UNL     1     -10.031  14.712  66.572  1.00  0.00    -0.292 A  
HETATM   23  C   UNL     1     -11.278  15.672  64.662  1.00  0.00    -0.369 C  
HETATM   24  F   UNL     1      -8.537  15.988  67.956  1.00  0.00    -0.160 F  
HETATM   25  F   UNL     1      -8.635  16.507  65.854  1.00  0.00    -0.341 F  
HETATM   26  C   UNL     1     -11.491  13.304  65.241  1.00  0.00    -0.319 A  
HETATM   27  F   UNL     1     -10.291  17.003  67.181  1.00  0.00    -0.286 F  
HETATM   28  C   UNL     1      -9.762  13.598  67.388  1.00  0.00    -0.228 A  
HETATM   29  N   UNL     1     -11.581  16.567  63.989  1.00  0.00    -1.124 NA 
HETATM   30  C   UNL     1     -11.208  12.205  66.066  1.00  0.00    -0.382 A  
HETATM   31  C   UNL     1     -10.920  14.561  65.500  1.00  0.00    -0.337 A  
ENDBRANCH   6  20
TORSDOF 3
ENDMDL
MODEL        8
REMARK 921   NORMALIZED FREE ENERGY PREDICTED BY IDOCK:   -7.27 KCAL/MOL
REMARK 922        TOTAL FREE ENERGY PREDICTED BY IDOCK:   -9.16 KCAL/MOL
REMARK 923 INTER-LIGAND FREE ENERGY PREDICTED BY IDOCK:   -8.98 KCAL/MOL
REMARK 924 INTRA-LIGAND FREE ENERGY PREDICTED BY IDOCK:   -0.18 KCAL/MOL
REMARK 927      BINDING AFFINITY PREDICTED BY RF-SCORE:    0.00 PKD
ROOT
HETATM    1  C   UNL     1     -11.712   9.187  72.010  1.00  0.00    -0.384 C  
HETATM    2  C   UNL     1     -10.872   9.224  70.723  1.00  0.00    -0.284 C  
HETATM    3  C   UNL     1     -10.838   7.883  69.985  1.00  0.00    -0.238 C  
HETATM    4  O   UNL     1      -9.540   9.652  71.010  1.00  0.00    -0.276 OA 
HETATM    5  C   UNL     1     -11.516  10.289  69.790  1.00  0.00    -0.256 C  
HETATM    6  N   UNL     1     -10.811  10.568  68.626  1.00  0.00    -0.220 N  
HETATM    7  H   UNL     1      -9.021   9.674  70.216  1.00  0.00     0.000 HD 
HETATM    8  H   UNL     1      -9.927  10.083  68.472  1.00  0.00     0.000 HD 
HETATM    9  O   UNL     1     -12.618  10.770  70.053  1.00  0.00    -0.308 OA 
ENDROOT
BRANCH   3  10
HETATM   10  S   UNL     1     -10.322   6.534  71.023  1.00  0.00    -0.210 S  
HETATM   11  O   UNL     1     -11.456   6.060  71.787  1.00  0.00    -0.288 OA 
HETATM   12  O   UNL     1      -9.091   6.937  71.685  1.00  0.00    -0.140 OA 
BRANCH  10  13
HETATM   13  C   UNL     1      -9.924   5.238  69.876  1.00  0.00    -0.239 A  
HETATM   14  C   UNL     1      -9.508   4.003  70.386  1.00  0.00    -0.252 A  
HETATM   15  C   UNL     1     -10.026   5.452  68.498  1.00  0.00    -0.223 A  
HETATM   16  F   UNL     1      -9.107   2.151  67.297  1.00  0.00    -0.136 F  
HETATM   17  C   UNL     1      -9.234   2.957  69.507  1.00  0.00    -0.211 A  
HETATM   18  C   UNL     1      -9.740   4.400  67.625  1.00  0.00    -0.198 A  
HETATM   19  C   UNL     1      -9.359   3.162  68.137  1.00  0.00    -0.191 A  
ENDBRANCH  10  13
ENDBRANCH   3  10
BRANCH   6  20
HETATM   20  C   UNL     1     -11.248  11.485  67.638  1.00  0.00    -0.281 A  
HETATM   21  C   UNL     1     -11.168  11.877  63.839  1.00  0.00    -0.420 C  
HETATM   22  C   UNL     1     -11.416  12.189  65.295  1.00  0.00    -0.388 A  
HETATM   23  C   UNL     1     -12.242  14.462  64.765  1.00  0.00    -0.446 C  
HETATM   24  F   UNL     1     -10.671  10.627  63.626  1.00  0.00    -0.344 F  
HETATM   25  F   UNL     1     -12.303  11.950  63.093  1.00  0.00    -0.593 F  
HETATM   26  C   UNL     1     -12.160  13.659  67.075  1.00  0.00    -0.423 A  
HETATM   27  F   UNL     1     -10.276  12.731  63.270  1.00  0.00    -0.296 F  
HETATM   28  C   UNL     1     -11.091  11.231  66.271  1.00  0.00    -0.229 A  
HETATM   29  N   UNL     1     -12.477  15.310  64.010  1.00  0.00    -0.685 NA 
HETATM   30  C   UNL     1     -11.831  12.689  68.034  1.00  0.00    -0.376 A  
HETATM   31  C   UNL     1     -11.940  13.421  65.709  1.00  0.00    -0.447 A  
ENDBRANCH   6  20
TORSDOF 3
ENDMDL
MODEL        9
REMARK 921   NORMALIZED FREE ENERGY PREDICTED BY IDOCK:   -7.23 KCAL/MOL
REMARK 922        TOTAL FREE ENERGY PREDICTED BY IDOCK:   -9.12 KCAL/MOL
REMARK 923 INTER-LIGAND FREE ENERGY PREDICTED BY IDOCK:   -8.62 KCAL/MOL
REMARK 924 INTRA-LIGAND FREE ENERGY PREDICTED BY IDOCK:   -0.50 KCAL/MOL
REMARK 927      BINDING AFFINITY PREDICTED BY RF-SCORE:    0.00 PKD
ROOT
HETATM    1  C   UNL     1     -10.849  13.852  65.051  1.00  0.00    -0.389 C  
HETATM    2  C   UNL     1     -10.350  13.993  66.498  1.00  0.00    -0.285 C  
HETATM    3  C   UNL     1     -10.588  15.385  67.086  1.00  0.00    -0.305 C  
HETATM    4  O   UNL     1      -8.962  13.664  66.579  1.00  0.00    -0.419 OA 
HETATM    5  C   UNL     1     -11.129  12.951  67.352  1.00  0.00    -0.273 C  
HETATM    6  N   UNL     1     -10.713  12.831  68.672  1.00  0.00    -0.250 N  
HETATM    7  H   UNL     1      -8.653  13.751  67.473  1.00  0.00     0.000 HD 
HETATM    8  H   UNL     1      -9.929  13.403  68.982  1.00  0.00     0.000 HD 
HETATM    9  O   UNL     1     -12.098  12.355  66.884  1.00  0.00    -0.564 OA 
ENDROOT
BRANCH   3  10
HETATM   10  S   UNL     1      -9.925  16.689  66.073  1.00  0.00    -0.303 S  
HETATM   11  O   UNL     1     -11.016  17.465  65.523  1.00  0.00    -0.286 OA 
HETATM   12  O   UNL     1      -8.916  16.099  65.206  1.00  0.00     0.033 OA 
BRANCH  10  13
HETATM   13  C   UNL     1      -9.096  17.751  67.229  1.00  0.00    -0.246 A  
HETATM   14  C   UNL     1      -9.817  18.808  67.796  1.00  0.00    -0.375 A  
HETATM   15  C   UNL     1      -7.755  17.533  67.560  1.00  0.00    -0.210 A  
HETATM   16  F   UNL     1      -7.292  20.177  70.005  1.00  0.00    -0.238 F  
HETATM   17  C   UNL     1      -9.201  19.628  68.740  1.00  0.00    -0.339 A  
HETATM   18  C   UNL     1      -7.144  18.365  68.500  1.00  0.00    -0.285 A  
HETATM   19  C   UNL     1      -7.875  19.395  69.088  1.00  0.00    -0.218 A  
ENDBRANCH  10  13
ENDBRANCH   3  10
BRANCH   6  20
HETATM   20  C   UNL     1     -11.316  11.959  69.613  1.00  0.00    -0.195 A  
HETATM   21  C   UNL     1     -11.126   8.294  70.674  1.00  0.00    -0.253 C  
HETATM   22  C   UNL     1     -11.580   9.733  70.607  1.00  0.00    -0.389 A  
HETATM   23  C   UNL     1     -13.434   9.322  72.194  1.00  0.00    -0.473 C  
HETATM   24  F   UNL     1     -10.041   8.028  69.896  1.00  0.00    -0.186 F  
HETATM   25  F   UNL     1     -10.774   7.921  71.933  1.00  0.00    -0.237 F  
HETATM   26  C   UNL     1     -13.048  11.550  71.259  1.00  0.00    -0.281 A  
HETATM   27  F   UNL     1     -12.092   7.428  70.269  1.00  0.00    -0.193 F  
HETATM   28  C   UNL     1     -10.907  10.629  69.758  1.00  0.00    -0.317 A  
HETATM   29  N   UNL     1     -14.061   8.616  72.868  1.00  0.00    -0.307 NA 
HETATM   30  C   UNL     1     -12.362  12.429  70.407  1.00  0.00    -0.307 A  
HETATM   31  C   UNL     1     -12.671  10.200  71.349  1.00  0.00    -0.530 A  
ENDBRANCH   6  20
TORSDOF 3
ENDMDL
MODEL       10
REMARK 921   NORMALIZED FREE ENERGY PREDICTED BY IDOCK:   -7.23 KCAL/MOL
REMARK 922        TOTAL FREE ENERGY PREDICTED BY IDOCK:   -9.12 KCAL/MOL
REMARK 923 INTER-LIGAND FREE ENERGY PREDICTED BY IDOCK:   -8.68 KCAL/MOL
REMARK 924 INTRA-LIGAND FREE ENERGY PREDICTED BY IDOCK:   -0.43 KCAL/MOL
REMARK 927      BINDING AFFINITY PREDICTED BY RF-SCORE:    0.00 PKD
ROOT
HETATM    1  C   UNL     1     -11.421  15.122  65.241  1.00  0.00    -0.266 C  
HETATM    2  C   UNL     1     -10.464  14.654  66.350  1.00  0.00    -0.295 C  
HETATM    3  C   UNL     1     -10.340  15.653  67.503  1.00  0.00    -0.277 C  
HETATM    4  O   UNL     1      -9.171  14.379  65.807  1.00  0.00    -0.515 OA 
HETATM    5  C   UNL     1     -11.032  13.318  66.907  1.00  0.00    -0.283 C  
HETATM    6  N   UNL     1     -10.224  12.664  67.829  1.00  0.00    -0.217 N  
HETATM    7  H   UNL     1      -8.580  14.090  66.491  1.00  0.00     0.000 HD 
HETATM    8  H   UNL     1      -9.323  13.081  68.059  1.00  0.00     0.000 HD 
HETATM    9  O   UNL     1     -12.161  12.938  66.598  1.00  0.00    -0.434 OA 
ENDROOT
BRANCH   3  10
HETATM   10  S   UNL     1      -9.905  17.290  66.958  1.00  0.00    -0.292 S  
HETATM   11  O   UNL     1     -10.996  18.194  67.248  1.00  0.00    -0.294 OA 
HETATM   12  O   UNL     1      -9.367  17.174  65.611  1.00  0.00    -0.515 OA 
BRANCH  10  13
HETATM   13  C   UNL     1      -8.574  17.760  68.036  1.00  0.00    -0.250 A  
HETATM   14  C   UNL     1      -7.686  16.768  68.468  1.00  0.00    -0.223 A  
HETATM   15  C   UNL     1      -8.422  19.090  68.439  1.00  0.00    -0.383 A  
HETATM   16  F   UNL     1      -5.398  18.784  70.426  1.00  0.00    -0.183 F  
HETATM   17  C   UNL     1      -6.608  17.121  69.278  1.00  0.00    -0.234 A  
HETATM   18  C   UNL     1      -7.343  19.432  69.258  1.00  0.00    -0.308 A  
HETATM   19  C   UNL     1      -6.442  18.448  69.659  1.00  0.00    -0.143 A  
ENDBRANCH  10  13
ENDBRANCH   3  10
BRANCH   6  20
HETATM   20  C   UNL     1     -10.579  11.451  68.470  1.00  0.00    -0.198 A  
HETATM   21  C   UNL     1     -12.799  10.256  71.340  1.00  0.00    -0.441 C  
HETATM   22  C   UNL     1     -11.801  10.225  70.208  1.00  0.00    -0.372 A  
HETATM   23  C   UNL     1     -11.298   7.832  70.589  1.00  0.00    -0.264 C  
HETATM   24  F   UNL     1     -13.383  11.472  71.520  1.00  0.00    -0.461 F  
HETATM   25  F   UNL     1     -13.825   9.383  71.149  1.00  0.00    -0.414 F  
HETATM   26  C   UNL     1     -10.197   9.080  68.795  1.00  0.00    -0.226 A  
HETATM   27  F   UNL     1     -12.237   9.935  72.536  1.00  0.00    -0.204 F  
HETATM   28  C   UNL     1     -11.533  11.406  69.493  1.00  0.00    -0.381 A  
HETATM   29  N   UNL     1     -11.436   6.843  71.180  1.00  0.00    -0.287 NA 
HETATM   30  C   UNL     1      -9.946  10.267  68.092  1.00  0.00    -0.168 A  
HETATM   31  C   UNL     1     -11.109   9.057  69.862  1.00  0.00    -0.155 A  
ENDBRANCH   6  20
TORSDOF 3
ENDMDL
MODEL       11
REMARK 921   NORMALIZED FREE ENERGY PREDICTED BY IDOCK:   -7.11 KCAL/MOL
REMARK 922        TOTAL FREE ENERGY PREDICTED BY IDOCK:   -8.97 KCAL/MOL
REMARK 923 INTER-LIGAND FREE ENERGY PREDICTED BY IDOCK:   -8.83 KCAL/MOL
REMARK 924 INTRA-LIGAND FREE ENERGY PREDICTED BY IDOCK:   -0.14 KCAL/MOL
REMARK 927      BINDING AFFINITY PREDICTED BY RF-SCORE:    0.00 PKD
ROOT
HETATM    1  C   UNL     1      -8.772   8.378  68.169  1.00  0.00    -0.143 C  
HETATM    2  C   UNL     1     -10.124   8.317  68.898  1.00  0.00    -0.199 C  
HETATM    3  C   UNL     1     -10.114   7.387  70.114  1.00  0.00    -0.197 C  
HETATM    4  O   UNL     1     -11.158   7.922  67.996  1.00  0.00    -0.457 OA 
HETATM    5  C   UNL     1     -10.447   9.761  69.379  1.00  0.00    -0.223 C  
HETATM    6  N   UNL     1     -11.705   9.935  69.943  1.00  0.00    -0.437 N  
HETATM    7  H   UNL     1     -11.994   7.884  68.446  1.00  0.00     0.000 HD 
HETATM    8  H   UNL     1     -12.328   9.129  69.984  1.00  0.00     0.000 HD 
HETATM    9  O   UNL     1      -9.593  10.646  69.329  1.00  0.00    -0.202 OA 
ENDROOT
BRANCH   3  10
HETATM   10  S   UNL     1      -9.544   5.746  69.726  1.00  0.00    -0.164 S  
HETATM   11  O   UNL     1      -8.098   5.746  69.667  1.00  0.00    -0.101 OA 
HETATM   12  O   UNL     1     -10.338   5.260  68.607  1.00  0.00    -0.174 OA 
BRANCH  10  13
HETATM   13  C   UNL     1      -9.980   4.791  71.158  1.00  0.00    -0.202 A  
HETATM   14  C   UNL     1     -10.681   5.425  72.191  1.00  0.00    -0.286 A  
HETATM   15  C   UNL     1      -9.630   3.441  71.246  1.00  0.00    -0.232 A  
HETATM   16  F   UNL     1     -11.138   2.626  74.447  1.00  0.00    -0.204 F  
HETATM   17  C   UNL     1     -11.074   4.685  73.305  1.00  0.00    -0.403 A  
HETATM   18  C   UNL     1     -10.020   2.710  72.371  1.00  0.00    -0.235 A  
HETATM   19  C   UNL     1     -10.748   3.336  73.381  1.00  0.00    -0.202 A  
ENDBRANCH  10  13
ENDBRANCH   3  10
BRANCH   6  20
HETATM   20  C   UNL     1     -12.173  11.166  70.465  1.00  0.00    -0.384 A  
HETATM   21  C   UNL     1     -11.669  14.910  69.898  1.00  0.00    -0.305 C  
HETATM   22  C   UNL     1     -12.161  13.618  70.504  1.00  0.00    -0.438 A  
HETATM   23  C   UNL     1     -13.327  14.810  72.334  1.00  0.00    -0.408 C  
HETATM   24  F   UNL     1     -10.920  14.735  68.775  1.00  0.00    -0.228 F  
HETATM   25  F   UNL     1     -12.688  15.732  69.533  1.00  0.00    -0.241 F  
HETATM   26  C   UNL     1     -13.400  12.369  72.175  1.00  0.00    -0.508 A  
HETATM   27  F   UNL     1     -10.888  15.620  70.756  1.00  0.00    -0.311 F  
HETATM   28  C   UNL     1     -11.792  12.396  69.917  1.00  0.00    -0.376 A  
HETATM   29  N   UNL     1     -13.617  15.784  72.894  1.00  0.00    -0.581 NA 
HETATM   30  C   UNL     1     -13.022  11.160  71.572  1.00  0.00    -0.542 A  
HETATM   31  C   UNL     1     -12.959  13.598  71.655  1.00  0.00    -0.448 A  
ENDBRANCH   6  20
TORSDOF 3
ENDMDL
MODEL       12
REMARK 921   NORMALIZED FREE ENERGY PREDICTED BY IDOCK:   -7.02 KCAL/MOL
REMARK 922        TOTAL FREE ENERGY PREDICTED BY IDOCK:   -8.86 KCAL/MOL
REMARK 923 INTER-LIGAND FREE ENERGY PREDICTED BY IDOCK:   -8.75 KCAL/MOL
REMARK 924 INTRA-LIGAND FREE ENERGY PREDICTED BY IDOCK:   -0.12 KCAL/MOL
REMARK 927      BINDING AFFINITY PREDICTED BY RF-SCORE:    0.00 PKD
ROOT
HETATM    1  C   UNL     1     -12.082  14.354  64.401  1.00  0.00    -0.491 C  
HETATM    2  C   UNL     1     -10.903  13.908  65.281  1.00  0.00    -0.333 C  
HETATM    3  C   UNL     1     -10.494  14.955  66.319  1.00  0.00    -0.302 C  
HETATM    4  O   UNL     1      -9.778  13.566  64.469  1.00  0.00    -0.602 OA 
HETATM    5  C   UNL     1     -11.353  12.618  66.025  1.00  0.00    -0.327 C  
HETATM    6  N   UNL     1     -10.366  11.983  66.769  1.00  0.00    -0.205 N  
HETATM    7  H   UNL     1      -9.049  13.291  65.012  1.00  0.00     0.000 HD 
HETATM    8  H   UNL     1      -9.428  12.381  66.761  1.00  0.00     0.000 HD 
HETATM    9  O   UNL     1     -12.531  12.260  66.006  1.00  0.00    -0.503 OA 
ENDROOT
BRANCH   3  10
HETATM   10  S   UNL     1     -10.164  16.550  65.602  1.00  0.00    -0.239 S  
HETATM   11  O   UNL     1     -11.269  16.924  64.746  1.00  0.00    -0.733 OA 
HETATM   12  O   UNL     1      -8.800  16.528  65.095  1.00  0.00     0.579 OA 
BRANCH  10  13
HETATM   13  C   UNL     1     -10.212  17.661  66.986  1.00  0.00    -0.332 A  
HETATM   14  C   UNL     1     -10.235  17.115  68.276  1.00  0.00    -0.334 A  
HETATM   15  C   UNL     1     -10.227  19.044  66.788  1.00  0.00    -0.465 A  
HETATM   16  F   UNL     1     -10.196  20.158  70.244  1.00  0.00    -0.325 F  
HETATM   17  C   UNL     1     -10.228  17.967  69.379  1.00  0.00     0.038 A  
HETATM   18  C   UNL     1     -10.228  19.889  67.900  1.00  0.00    -0.571 A  
HETATM   19  C   UNL     1     -10.216  19.343  69.181  1.00  0.00    -0.149 A  
ENDBRANCH  10  13
ENDBRANCH   3  10
BRANCH   6  20
HETATM   20  C   UNL     1     -10.587  10.813  67.538  1.00  0.00    -0.237 A  
HETATM   21  C   UNL     1     -11.799   9.854  71.031  1.00  0.00    -0.376 C  
HETATM   22  C   UNL     1     -11.249   9.721  69.632  1.00  0.00    -0.216 A  
HETATM   23  C   UNL     1     -10.856   7.294  69.914  1.00  0.00    -0.247 C  
HETATM   24  F   UNL     1     -12.180  11.121  71.350  1.00  0.00    -0.409 F  
HETATM   25  F   UNL     1     -12.900   9.081  71.230  1.00  0.00    -0.327 F  
HETATM   26  C   UNL     1     -10.324   8.419  67.807  1.00  0.00    -0.297 A  
HETATM   27  F   UNL     1     -10.896   9.490  71.980  1.00  0.00    -0.397 F  
HETATM   28  C   UNL     1     -11.139  10.866  68.823  1.00  0.00    -0.310 A  
HETATM   29  N   UNL     1     -10.871   6.326  70.554  1.00  0.00    -0.266 NA 
HETATM   30  C   UNL     1     -10.224   9.572  67.015  1.00  0.00    -0.321 A  
HETATM   31  C   UNL     1     -10.820   8.491  69.119  1.00  0.00    -0.049 A  
ENDBRANCH   6  20
TORSDOF 3
ENDMDL
MODEL       13
REMARK 921   NORMALIZED FREE ENERGY PREDICTED BY IDOCK:   -7.01 KCAL/MOL
REMARK 922        TOTAL FREE ENERGY PREDICTED BY IDOCK:   -8.86 KCAL/MOL
REMARK 923 INTER-LIGAND FREE ENERGY PREDICTED BY IDOCK:   -8.33 KCAL/MOL
REMARK 924 INTRA-LIGAND FREE ENERGY PREDICTED BY IDOCK:   -0.53 KCAL/MOL
REMARK 927      BINDING AFFINITY PREDICTED BY RF-SCORE:    0.00 PKD
ROOT
HETATM    1  C   UNL     1     -11.741  14.735  65.253  1.00  0.00    -0.311 C  
HETATM    2  C   UNL     1     -10.606  14.189  66.135  1.00  0.00    -0.293 C  
HETATM    3  C   UNL     1     -10.274  15.095  67.322  1.00  0.00    -0.243 C  
HETATM    4  O   UNL     1      -9.432  13.967  65.352  1.00  0.00    -0.533 OA 
HETATM    5  C   UNL     1     -11.075  12.809  66.678  1.00  0.00    -0.276 C  
HETATM    6  N   UNL     1     -10.121  12.091  67.388  1.00  0.00    -0.193 N  
HETATM    7  H   UNL     1      -8.730  13.630  65.896  1.00  0.00     0.000 HD 
HETATM    8  H   UNL     1      -9.191  12.496  67.486  1.00  0.00     0.000 HD 
HETATM    9  O   UNL     1     -12.244  12.445  66.544  1.00  0.00    -0.586 OA 
ENDROOT
BRANCH   3  10
HETATM   10  S   UNL     1      -9.932  16.773  66.839  1.00  0.00    -0.283 S  
HETATM   11  O   UNL     1     -11.019  17.624  67.272  1.00  0.00    -0.206 OA 
HETATM   12  O   UNL     1      -9.509  16.750  65.447  1.00  0.00    -0.408 OA 
BRANCH  10  13
HETATM   13  C   UNL     1      -8.527  17.225  67.827  1.00  0.00    -0.217 A  
HETATM   14  C   UNL     1      -8.054  18.541  67.747  1.00  0.00    -0.264 A  
HETATM   15  C   UNL     1      -7.913  16.287  68.662  1.00  0.00    -0.215 A  
HETATM   16  F   UNL     1      -5.365  18.388  70.172  1.00  0.00    -0.189 F  
HETATM   17  C   UNL     1      -6.981  18.931  68.546  1.00  0.00    -0.299 A  
HETATM   18  C   UNL     1      -6.833  16.686  69.453  1.00  0.00    -0.218 A  
HETATM   19  C   UNL     1      -6.387  18.005  69.396  1.00  0.00    -0.243 A  
ENDBRANCH  10  13
ENDBRANCH   3  10
BRANCH   6  20
HETATM   20  C   UNL     1     -10.364  10.829  67.985  1.00  0.00    -0.182 A  
HETATM   21  C   UNL     1     -11.725   9.409  71.260  1.00  0.00    -0.360 C  
HETATM   22  C   UNL     1     -11.111   9.466  69.882  1.00  0.00    -0.223 A  
HETATM   23  C   UNL     1     -10.706   7.024  69.858  1.00  0.00    -0.240 C  
HETATM   24  F   UNL     1     -12.133  10.621  71.726  1.00  0.00    -0.388 F  
HETATM   25  F   UNL     1     -12.826   8.612  71.303  1.00  0.00    -0.315 F  
HETATM   26  C   UNL     1     -10.090   8.421  67.946  1.00  0.00    -0.254 A  
HETATM   27  F   UNL     1     -10.862   8.927  72.193  1.00  0.00    -0.390 F  
HETATM   28  C   UNL     1     -10.975  10.708  69.238  1.00  0.00    -0.294 A  
HETATM   29  N   UNL     1     -10.740   5.980  70.363  1.00  0.00    -0.268 NA 
HETATM   30  C   UNL     1      -9.965   9.670  67.319  1.00  0.00    -0.250 A  
HETATM   31  C   UNL     1     -10.645   8.316  69.231  1.00  0.00    -0.191 A  
ENDBRANCH   6  20
TORSDOF 3
ENDMDL
MODEL       14
REMARK 921   NORMALIZED FREE ENERGY PREDICTED BY IDOCK:   -6.99 KCAL/MOL
REMARK 922        TOTAL FREE ENERGY PREDICTED BY IDOCK:   -8.83 KCAL/MOL
REMARK 923 INTER-LIGAND FREE ENERGY PREDICTED BY IDOCK:   -8.71 KCAL/MOL
REMARK 924 INTRA-LIGAND FREE ENERGY PREDICTED BY IDOCK:   -0.12 KCAL/MOL
REMARK 927      BINDING AFFINITY PREDICTED BY RF-SCORE:    0.00 PKD
ROOT
HETATM    1  C   UNL     1     -10.314  10.936  65.303  1.00  0.00    -0.334 C  
HETATM    2  C   UNL     1     -10.277  11.635  66.672  1.00  0.00    -0.216 C  
HETATM    3  C   UNL     1     -11.461  12.578  66.901  1.00  0.00    -0.353 C  
HETATM    4  O   UNL     1      -9.051  12.349  66.833  1.00  0.00    -0.200 OA 
HETATM    5  C   UNL     1     -10.314  10.518  67.754  1.00  0.00    -0.212 C  
HETATM    6  N   UNL     1     -10.147  10.950  69.064  1.00  0.00    -0.232 N  
HETATM    7  H   UNL     1      -9.028  12.781  67.678  1.00  0.00     0.000 HD 
HETATM    8  H   UNL     1      -9.993  11.945  69.225  1.00  0.00     0.000 HD 
HETATM    9  O   UNL     1     -10.562   9.352  67.446  1.00  0.00    -0.265 OA 
ENDROOT
BRANCH   3  10
HETATM   10  S   UNL     1     -11.655  13.775  65.599  1.00  0.00    -0.343 S  
HETATM   11  O   UNL     1     -13.062  13.924  65.296  1.00  0.00    -0.777 OA 
HETATM   12  O   UNL     1     -10.696  13.445  64.554  1.00  0.00    -0.380 OA 
BRANCH  10  13
HETATM   13  C   UNL     1     -11.144  15.304  66.343  1.00  0.00    -0.273 A  
HETATM   14  C   UNL     1     -10.618  16.303  65.515  1.00  0.00    -0.369 A  
HETATM   15  C   UNL     1     -11.267  15.500  67.721  1.00  0.00    -0.302 A  
HETATM   16  F   UNL     1     -10.058  18.916  67.962  1.00  0.00    -0.336 F  
HETATM   17  C   UNL     1     -10.252  17.528  66.069  1.00  0.00    -0.306 A  
HETATM   18  C   UNL     1     -10.889  16.729  68.268  1.00  0.00    -0.366 A  
HETATM   19  C   UNL     1     -10.398  17.733  67.436  1.00  0.00    -0.369 A  
ENDBRANCH  10  13
ENDBRANCH   3  10
BRANCH   6  20
HETATM   20  C   UNL     1     -10.179  10.090  70.190  1.00  0.00    -0.242 A  
HETATM   21  C   UNL     1      -7.832   7.753  72.093  1.00  0.00    -0.106 C  
HETATM   22  C   UNL     1      -9.090   8.482  71.688  1.00  0.00    -0.296 A  
HETATM   23  C   UNL     1     -10.455   7.241  73.338  1.00  0.00    -0.377 C  
HETATM   24  F   UNL     1      -6.729   8.140  71.395  1.00  0.00    -0.045 F  
HETATM   25  F   UNL     1      -7.521   7.946  73.403  1.00  0.00    -0.121 F  
HETATM   26  C   UNL     1     -11.462   8.942  71.896  1.00  0.00    -0.442 A  
HETATM   27  F   UNL     1      -7.931   6.409  71.913  1.00  0.00    -0.100 F  
HETATM   28  C   UNL     1      -9.036   9.424  70.645  1.00  0.00    -0.292 A  
HETATM   29  N   UNL     1     -10.571   6.436  74.166  1.00  0.00    -0.222 NA 
HETATM   30  C   UNL     1     -11.387   9.880  70.855  1.00  0.00    -0.446 A  
HETATM   31  C   UNL     1     -10.322   8.231  72.304  1.00  0.00    -0.386 A  
ENDBRANCH   6  20
TORSDOF 3
ENDMDL
MODEL       15
REMARK 921   NORMALIZED FREE ENERGY PREDICTED BY IDOCK:   -6.96 KCAL/MOL
REMARK 922        TOTAL FREE ENERGY PREDICTED BY IDOCK:   -8.79 KCAL/MOL
REMARK 923 INTER-LIGAND FREE ENERGY PREDICTED BY IDOCK:   -8.42 KCAL/MOL
REMARK 924 INTRA-LIGAND FREE ENERGY PREDICTED BY IDOCK:   -0.37 KCAL/MOL
REMARK 927      BINDING AFFINITY PREDICTED BY RF-SCORE:    0.00 PKD
ROOT
HETATM    1  C   UNL     1     -11.784  12.150  66.242  1.00  0.00    -0.389 C  
HETATM    2  C   UNL     1     -11.102  12.926  67.381  1.00  0.00    -0.273 C  
HETATM    3  C   UNL     1     -10.032  12.112  68.111  1.00  0.00    -0.201 C  
HETATM    4  O   UNL     1     -12.076  13.395  68.315  1.00  0.00    -0.343 OA 
HETATM    5  C   UNL     1     -10.428  14.174  66.741  1.00  0.00    -0.277 C  
HETATM    6  N   UNL     1      -9.874  15.079  67.638  1.00  0.00    -0.220 N  
HETATM    7  H   UNL     1     -11.655  13.874  69.019  1.00  0.00     0.000 HD 
HETATM    8  H   UNL     1      -9.963  14.883  68.634  1.00  0.00     0.000 HD 
HETATM    9  O   UNL     1     -10.332  14.279  65.518  1.00  0.00    -0.317 OA 
ENDROOT
BRANCH   3  10
HETATM   10  S   UNL     1     -10.636  10.546  68.703  1.00  0.00    -0.217 S  
HETATM   11  O   UNL     1     -12.074  10.502  68.548  1.00  0.00    -0.329 OA 
HETATM   12  O   UNL     1     -10.016  10.298  69.995  1.00  0.00    -0.208 OA 
BRANCH  10  13
HETATM   13  C   UNL     1      -9.978   9.369  67.548  1.00  0.00    -0.199 A  
HETATM   14  C   UNL     1      -9.139   9.835  66.529  1.00  0.00    -0.182 A  
HETATM   15  C   UNL     1     -10.294   8.011  67.659  1.00  0.00    -0.312 A  
HETATM   16  F   UNL     1      -8.313   6.697  64.913  1.00  0.00    -0.136 F  
HETATM   17  C   UNL     1      -8.575   8.924  65.638  1.00  0.00    -0.188 A  
HETATM   18  C   UNL     1      -9.730   7.107  66.756  1.00  0.00    -0.252 A  
HETATM   19  C   UNL     1      -8.868   7.570  65.764  1.00  0.00    -0.090 A  
ENDBRANCH  10  13
ENDBRANCH   3  10
BRANCH   6  20
HETATM   20  C   UNL     1      -9.193  16.260  67.250  1.00  0.00    -0.208 A  
HETATM   21  C   UNL     1      -9.977  19.927  66.524  1.00  0.00    -0.474 C  
HETATM   22  C   UNL     1      -9.200  18.640  66.658  1.00  0.00    -0.321 A  
HETATM   23  C   UNL     1      -7.154  19.664  65.714  1.00  0.00    -0.303 C  
HETATM   24  F   UNL     1     -11.264  19.836  66.957  1.00  0.00    -0.549 F  
HETATM   25  F   UNL     1      -9.422  20.943  67.238  1.00  0.00    -0.556 F  
HETATM   26  C   UNL     1      -7.175  17.324  66.432  1.00  0.00    -0.327 A  
HETATM   27  F   UNL     1     -10.050  20.356  65.236  1.00  0.00    -0.421 F  
HETATM   28  C   UNL     1      -9.846  17.493  67.154  1.00  0.00    -0.297 A  
HETATM   29  N   UNL     1      -6.585  20.560  65.247  1.00  0.00    -0.265 NA 
HETATM   30  C   UNL     1      -7.837  16.192  66.931  1.00  0.00    -0.283 A  
HETATM   31  C   UNL     1      -7.856  18.543  66.279  1.00  0.00    -0.282 A  
ENDBRANCH   6  20
TORSDOF 3
ENDMDL
MODEL       16
REMARK 921   NORMALIZED FREE ENERGY PREDICTED BY IDOCK:   -6.92 KCAL/MOL
REMARK 922        TOTAL FREE ENERGY PREDICTED BY IDOCK:   -8.75 KCAL/MOL
REMARK 923 INTER-LIGAND FREE ENERGY PREDICTED BY IDOCK:   -8.67 KCAL/MOL
REMARK 924 INTRA-LIGAND FREE ENERGY PREDICTED BY IDOCK:   -0.08 KCAL/MOL
REMARK 927      BINDING AFFINITY PREDICTED BY RF-SCORE:    0.00 PKD
ROOT
HETATM    1  C   UNL     1     -11.887  14.970  67.378  1.00  0.00    -0.167 C  
HETATM    2  C   UNL     1     -10.825  13.861  67.301  1.00  0.00    -0.286 C  
HETATM    3  C   UNL     1      -9.396  14.379  67.473  1.00  0.00    -0.198 C  
HETATM    4  O   UNL     1     -10.937  13.151  66.066  1.00  0.00    -0.277 OA 
HETATM    5  C   UNL     1     -11.132  12.857  68.449  1.00  0.00    -0.262 C  
HETATM    6  N   UNL     1     -10.358  11.703  68.456  1.00  0.00    -0.207 N  
HETATM    7  H   UNL     1     -10.282  12.465  66.018  1.00  0.00     0.000 HD 
HETATM    8  H   UNL     1      -9.670  11.582  67.713  1.00  0.00     0.000 HD 
HETATM    9  O   UNL     1     -11.951  13.135  69.324  1.00  0.00    -0.311 OA 
ENDROOT
BRANCH   3  10
HETATM   10  S   UNL     1      -8.997  15.698  66.347  1.00  0.00    -0.344 S  
HETATM   11  O   UNL     1      -9.839  15.594  65.175  1.00  0.00    -0.337 OA 
HETATM   12  O   UNL     1      -7.548  15.747  66.225  1.00  0.00     0.071 OA 
BRANCH  10  13
HETATM   13  C   UNL     1      -9.520  17.164  67.202  1.00  0.00    -0.248 A  
HETATM   14  C   UNL     1      -9.081  17.359  68.517  1.00  0.00    -0.273 A  
HETATM   15  C   UNL     1     -10.349  18.097  66.572  1.00  0.00    -0.397 A  
HETATM   16  F   UNL     1     -10.577  20.587  69.206  1.00  0.00    -0.416 F  
HETATM   17  C   UNL     1      -9.441  18.524  69.192  1.00  0.00    -0.084 A  
HETATM   18  C   UNL     1     -10.712  19.257  67.261  1.00  0.00    -0.594 A  
HETATM   19  C   UNL     1     -10.245  19.464  68.557  1.00  0.00    -0.398 A  
ENDBRANCH  10  13
ENDBRANCH   3  10
BRANCH   6  20
HETATM   20  C   UNL     1     -10.467  10.685  69.435  1.00  0.00    -0.225 A  
HETATM   21  C   UNL     1     -13.174   8.965  71.510  1.00  0.00    -0.327 C  
HETATM   22  C   UNL     1     -11.810   9.336  70.982  1.00  0.00    -0.376 A  
HETATM   23  C   UNL     1     -10.671   7.894  72.640  1.00  0.00    -0.347 C  
HETATM   24  F   UNL     1     -14.198   9.570  70.847  1.00  0.00    -0.302 F  
HETATM   25  F   UNL     1     -13.419   7.631  71.421  1.00  0.00    -0.359 F  
HETATM   26  C   UNL     1      -9.390   9.173  70.994  1.00  0.00    -0.333 A  
HETATM   27  F   UNL     1     -13.332   9.301  72.818  1.00  0.00    -0.484 F  
HETATM   28  C   UNL     1     -11.706  10.262  69.929  1.00  0.00    -0.298 A  
HETATM   29  N   UNL     1     -10.692   7.169  73.546  1.00  0.00    -0.373 NA 
HETATM   30  C   UNL     1      -9.307  10.097  69.942  1.00  0.00    -0.134 A  
HETATM   31  C   UNL     1     -10.635   8.803  71.528  1.00  0.00    -0.379 A  
ENDBRANCH   6  20
TORSDOF 3
ENDMDL
MODEL       17
REMARK 921   NORMALIZED FREE ENERGY PREDICTED BY IDOCK:   -6.88 KCAL/MOL
REMARK 922        TOTAL FREE ENERGY PREDICTED BY IDOCK:   -8.71 KCAL/MOL
REMARK 923 INTER-LIGAND FREE ENERGY PREDICTED BY IDOCK:   -8.48 KCAL/MOL
REMARK 924 INTRA-LIGAND FREE ENERGY PREDICTED BY IDOCK:   -0.22 KCAL/MOL
REMARK 927      BINDING AFFINITY PREDICTED BY RF-SCORE:    0.00 PKD
ROOT
HETATM    1  C   UNL     1      -9.119  14.565  66.233  1.00  0.00    -0.164 C  
HETATM    2  C   UNL     1      -8.493  13.788  67.403  1.00  0.00    -0.202 C  
HETATM    3  C   UNL     1      -8.207  14.663  68.625  1.00  0.00    -0.159 C  
HETATM    4  O   UNL     1      -7.294  13.136  66.982  1.00  0.00    -0.370 OA 
HETATM    5  C   UNL     1      -9.509  12.682  67.809  1.00  0.00    -0.198 C  
HETATM    6  N   UNL     1      -9.060  11.780  68.766  1.00  0.00    -0.379 N  
HETATM    7  H   UNL     1      -6.907  12.656  67.704  1.00  0.00     0.000 HD 
HETATM    8  H   UNL     1      -8.108  11.886  69.115  1.00  0.00     0.000 HD 
HETATM    9  O   UNL     1     -10.655  12.685  67.358  1.00  0.00    -0.222 OA 
ENDROOT
BRANCH   3  10
HETATM   10  S   UNL     1      -7.225  16.095  68.238  1.00  0.00    -0.140 S  
HETATM   11  O   UNL     1      -6.412  15.814  67.075  1.00  0.00    -0.299 OA 
HETATM   12  O   UNL     1      -6.622  16.560  69.477  1.00  0.00    -0.216 OA 
BRANCH  10  13
HETATM   13  C   UNL     1      -8.418  17.306  67.725  1.00  0.00    -0.217 A  
HETATM   14  C   UNL     1      -8.028  18.266  66.783  1.00  0.00    -0.263 A  
HETATM   15  C   UNL     1      -9.713  17.297  68.251  1.00  0.00    -0.294 A  
HETATM   16  F   UNL     1     -11.150  20.064  66.390  1.00  0.00    -0.500 F  
HETATM   17  C   UNL     1      -8.959  19.199  66.332  1.00  0.00    -0.356 A  
HETATM   18  C   UNL     1     -10.637  18.242  67.799  1.00  0.00    -0.415 A  
HETATM   19  C   UNL     1     -10.255  19.174  66.836  1.00  0.00    -0.395 A  
ENDBRANCH  10  13
ENDBRANCH   3  10
BRANCH   6  20
HETATM   20  C   UNL     1      -9.846  10.722  69.286  1.00  0.00    -0.138 A  
HETATM   21  C   UNL     1     -13.019  10.245  71.360  1.00  0.00    -0.440 C  
HETATM   22  C   UNL     1     -11.764   9.918  70.586  1.00  0.00    -0.404 A  
HETATM   23  C   UNL     1     -11.937   7.511  71.135  1.00  0.00    -0.308 C  
HETATM   24  F   UNL     1     -13.345  11.566  71.337  1.00  0.00    -0.428 F  
HETATM   25  F   UNL     1     -14.109   9.590  70.878  1.00  0.00    -0.338 F  
HETATM   26  C   UNL     1     -10.110   8.357  69.743  1.00  0.00    -0.197 A  
HETATM   27  F   UNL     1     -12.918   9.912  72.674  1.00  0.00    -0.387 F  
HETATM   28  C   UNL     1     -11.044  10.957  69.970  1.00  0.00    -0.285 A  
HETATM   29  N   UNL     1     -12.458   6.622  71.669  1.00  0.00    -0.344 NA 
HETATM   30  C   UNL     1      -9.408   9.407  69.134  1.00  0.00    -0.159 A  
HETATM   31  C   UNL     1     -11.278   8.609  70.483  1.00  0.00    -0.266 A  
ENDBRANCH   6  20
TORSDOF 3
ENDMDL
MODEL       18
REMARK 921   NORMALIZED FREE ENERGY PREDICTED BY IDOCK:   -6.87 KCAL/MOL
REMARK 922        TOTAL FREE ENERGY PREDICTED BY IDOCK:   -8.69 KCAL/MOL
REMARK 923 INTER-LIGAND FREE ENERGY PREDICTED BY IDOCK:   -8.32 KCAL/MOL
REMARK 924 INTRA-LIGAND FREE ENERGY PREDICTED BY IDOCK:   -0.37 KCAL/MOL
REMARK 927      BINDING AFFINITY PREDICTED BY RF-SCORE:    0.00 PKD
ROOT
HETATM    1  C   UNL     1      -9.226   6.655  66.182  1.00  0.00    -0.120 C  
HETATM    2  C   UNL     1     -10.153   7.180  67.291  1.00  0.00    -0.215 C  
HETATM    3  C   UNL     1      -9.648   6.861  68.701  1.00  0.00    -0.133 C  
HETATM    4  O   UNL     1     -11.474   6.663  67.122  1.00  0.00    -0.779 OA 
HETATM    5  C   UNL     1     -10.229   8.725  67.127  1.00  0.00    -0.276 C  
HETATM    6  N   UNL     1     -11.135   9.370  67.960  1.00  0.00    -0.513 N  
HETATM    7  H   UNL     1     -12.046   6.987  67.807  1.00  0.00     0.000 HD 
HETATM    8  H   UNL     1     -11.695   8.799  68.593  1.00  0.00     0.000 HD 
HETATM    9  O   UNL     1      -9.463   9.314  66.365  1.00  0.00    -0.182 OA 
ENDROOT
BRANCH   3  10
HETATM   10  S   UNL     1      -9.312   5.130  68.941  1.00  0.00    -0.133 S  
HETATM   11  O   UNL     1      -7.880   4.926  68.987  1.00  0.00    -0.075 OA 
HETATM   12  O   UNL     1     -10.143   4.388  68.006  1.00  0.00    -0.061 OA 
BRANCH  10  13
HETATM   13  C   UNL     1      -9.910   4.801  70.581  1.00  0.00    -0.222 A  
HETATM   14  C   UNL     1      -9.587   3.574  71.172  1.00  0.00    -0.240 A  
HETATM   15  C   UNL     1     -10.684   5.748  71.259  1.00  0.00    -0.323 A  
HETATM   16  F   UNL     1     -11.145   4.012  74.415  1.00  0.00    -0.234 F  
HETATM   17  C   UNL     1     -10.007   3.311  72.475  1.00  0.00    -0.227 A  
HETATM   18  C   UNL     1     -11.107   5.471  72.561  1.00  0.00    -0.324 A  
HETATM   19  C   UNL     1     -10.755   4.263  73.159  1.00  0.00    -0.205 A  
ENDBRANCH  10  13
ENDBRANCH   3  10
BRANCH   6  20
HETATM   20  C   UNL     1     -11.329  10.773  67.980  1.00  0.00    -0.307 A  
HETATM   21  C   UNL     1     -12.020  13.619  65.528  1.00  0.00    -0.384 C  
HETATM   22  C   UNL     1     -11.727  12.897  66.821  1.00  0.00    -0.445 A  
HETATM   23  C   UNL     1     -11.515  15.023  68.071  1.00  0.00    -0.342 C  
HETATM   24  F   UNL     1     -12.224  12.785  64.472  1.00  0.00    -0.396 F  
HETATM   25  F   UNL     1     -13.138  14.390  65.607  1.00  0.00    -0.487 F  
HETATM   26  C   UNL     1     -11.245  12.867  69.198  1.00  0.00    -0.293 A  
HETATM   27  F   UNL     1     -11.007  14.446  65.155  1.00  0.00    -0.305 F  
HETATM   28  C   UNL     1     -11.650  11.493  66.825  1.00  0.00    -0.133 A  
HETATM   29  N   UNL     1     -11.511  16.182  68.117  1.00  0.00    -0.284 NA 
HETATM   30  C   UNL     1     -11.174  11.467  69.181  1.00  0.00    -0.335 A  
HETATM   31  C   UNL     1     -11.504  13.587  68.019  1.00  0.00    -0.342 A  
ENDBRANCH   6  20
TORSDOF 3
ENDMDL
MODEL       19
REMARK 921   NORMALIZED FREE ENERGY PREDICTED BY IDOCK:   -6.85 KCAL/MOL
REMARK 922        TOTAL FREE ENERGY PREDICTED BY IDOCK:   -8.67 KCAL/MOL
REMARK 923 INTER-LIGAND FREE ENERGY PREDICTED BY IDOCK:   -8.10 KCAL/MOL
REMARK 924 INTRA-LIGAND FREE ENERGY PREDICTED BY IDOCK:   -0.57 KCAL/MOL
REMARK 927      BINDING AFFINITY PREDICTED BY RF-SCORE:    0.00 PKD
ROOT
HETATM    1  C   UNL     1      -9.019   6.763  66.143  1.00  0.00    -0.157 C  
HETATM    2  C   UNL     1     -10.008   7.288  67.197  1.00  0.00    -0.215 C  
HETATM    3  C   UNL     1      -9.608   6.934  68.631  1.00  0.00    -0.133 C  
HETATM    4  O   UNL     1     -11.325   6.803  66.928  1.00  0.00    -0.731 OA 
HETATM    5  C   UNL     1     -10.042   8.837  67.057  1.00  0.00    -0.265 C  
HETATM    6  N   UNL     1     -10.990   9.487  67.838  1.00  0.00    -0.503 N  
HETATM    7  H   UNL     1     -11.936   7.127  67.579  1.00  0.00     0.000 HD 
HETATM    8  H   UNL     1     -11.603   8.918  68.421  1.00  0.00     0.000 HD 
HETATM    9  O   UNL     1      -9.214   9.423  66.360  1.00  0.00    -0.151 OA 
ENDROOT
BRANCH   3  10
HETATM   10  S   UNL     1      -9.323   5.193  68.861  1.00  0.00    -0.133 S  
HETATM   11  O   UNL     1      -7.899   4.937  68.842  1.00  0.00    -0.075 OA 
HETATM   12  O   UNL     1     -10.222   4.480  67.967  1.00  0.00    -0.028 OA 
BRANCH  10  13
HETATM   13  C   UNL     1      -9.858   4.888  70.527  1.00  0.00    -0.227 A  
HETATM   14  C   UNL     1     -10.712   5.818  71.131  1.00  0.00    -0.327 A  
HETATM   15  C   UNL     1      -9.433   3.746  71.212  1.00  0.00    -0.229 A  
HETATM   16  F   UNL     1     -11.243   4.196  74.328  1.00  0.00    -0.233 F  
HETATM   17  C   UNL     1     -11.181   5.578  72.421  1.00  0.00    -0.305 A  
HETATM   18  C   UNL     1      -9.902   3.518  72.508  1.00  0.00    -0.220 A  
HETATM   19  C   UNL     1     -10.779   4.429  73.094  1.00  0.00    -0.220 A  
ENDBRANCH  10  13
ENDBRANCH   3  10
BRANCH   6  20
HETATM   20  C   UNL     1     -11.156  10.893  67.872  1.00  0.00    -0.302 A  
HETATM   21  C   UNL     1     -12.171  13.729  65.521  1.00  0.00    -0.442 C  
HETATM   22  C   UNL     1     -11.695  13.013  66.763  1.00  0.00    -0.440 A  
HETATM   23  C   UNL     1     -11.261  15.146  67.941  1.00  0.00    -0.329 C  
HETATM   24  F   UNL     1     -12.548  12.889  64.519  1.00  0.00    -0.446 F  
HETATM   25  F   UNL     1     -13.251  14.519  65.762  1.00  0.00    -0.397 F  
HETATM   26  C   UNL     1     -10.854  12.997  69.038  1.00  0.00    -0.197 A  
HETATM   27  F   UNL     1     -11.214  14.534  64.989  1.00  0.00    -0.317 F  
HETATM   28  C   UNL     1     -11.640  11.608  66.771  1.00  0.00    -0.220 A  
HETATM   29  N   UNL     1     -11.232  16.306  67.973  1.00  0.00    -0.306 NA 
HETATM   30  C   UNL     1     -10.808  11.595  69.027  1.00  0.00    -0.247 A  
HETATM   31  C   UNL     1     -11.280  13.710  67.905  1.00  0.00    -0.300 A  
ENDBRANCH   6  20
TORSDOF 3
ENDMDL
MODEL       20
REMARK 921   NORMALIZED FREE ENERGY PREDICTED BY IDOCK:   -6.81 KCAL/MOL
REMARK 922        TOTAL FREE ENERGY PREDICTED BY IDOCK:   -8.62 KCAL/MOL
REMARK 923 INTER-LIGAND FREE ENERGY PREDICTED BY IDOCK:   -8.00 KCAL/MOL
REMARK 924 INTRA-LIGAND FREE ENERGY PREDICTED BY IDOCK:   -0.62 KCAL/MOL
REMARK 927      BINDING AFFINITY PREDICTED BY RF-SCORE:    0.00 PKD
ROOT
HETATM    1  C   UNL     1     -11.786  14.730  65.740  1.00  0.00    -0.252 C  
HETATM    2  C   UNL     1     -10.556  14.177  66.478  1.00  0.00    -0.282 C  
HETATM    3  C   UNL     1     -10.085  15.076  67.624  1.00  0.00    -0.231 C  
HETATM    4  O   UNL     1      -9.482  13.960  65.561  1.00  0.00    -0.518 OA 
HETATM    5  C   UNL     1     -10.960  12.794  67.064  1.00  0.00    -0.263 C  
HETATM    6  N   UNL     1      -9.930  12.071  67.653  1.00  0.00    -0.188 N  
HETATM    7  H   UNL     1      -8.722  13.618  66.017  1.00  0.00     0.000 HD 
HETATM    8  H   UNL     1      -8.994  12.474  67.643  1.00  0.00     0.000 HD 
HETATM    9  O   UNL     1     -12.137  12.433  67.067  1.00  0.00    -0.549 OA 
ENDROOT
BRANCH   3  10
HETATM   10  S   UNL     1      -9.799  16.756  67.114  1.00  0.00    -0.266 S  
HETATM   11  O   UNL     1     -10.900  17.582  67.559  1.00  0.00    -0.321 OA 
HETATM   12  O   UNL     1      -9.403  16.728  65.714  1.00  0.00    -0.515 OA 
BRANCH  10  13
HETATM   13  C   UNL     1      -8.387  17.259  68.068  1.00  0.00    -0.228 A  
HETATM   14  C   UNL     1      -8.125  18.628  68.196  1.00  0.00    -0.318 A  
HETATM   15  C   UNL     1      -7.562  16.307  68.674  1.00  0.00    -0.188 A  
HETATM   16  F   UNL     1      -5.220  18.511  70.359  1.00  0.00    -0.187 F  
HETATM   17  C   UNL     1      -7.050  19.049  68.976  1.00  0.00    -0.361 A  
HETATM   18  C   UNL     1      -6.482  16.738  69.446  1.00  0.00    -0.229 A  
HETATM   19  C   UNL     1      -6.244  18.102  69.600  1.00  0.00    -0.210 A  
ENDBRANCH  10  13
ENDBRANCH   3  10
BRANCH   6  20
HETATM   20  C   UNL     1     -10.103  10.805  68.266  1.00  0.00    -0.171 A  
HETATM   21  C   UNL     1     -10.174   7.115  67.280  1.00  0.00    -0.245 C  
HETATM   22  C   UNL     1     -10.267   8.362  68.126  1.00  0.00    -0.253 A  
HETATM   23  C   UNL     1     -11.014   7.079  70.106  1.00  0.00    -0.272 C  
HETATM   24  F   UNL     1      -9.766   7.351  66.003  1.00  0.00    -0.170 F  
HETATM   25  F   UNL     1      -9.291   6.212  67.785  1.00  0.00    -0.115 F  
HETATM   26  C   UNL     1     -10.719   9.505  70.217  1.00  0.00    -0.315 A  
HETATM   27  F   UNL     1     -11.367   6.472  67.173  1.00  0.00    -0.434 F  
HETATM   28  C   UNL     1      -9.982   9.611  67.547  1.00  0.00    -0.231 A  
HETATM   29  N   UNL     1     -11.315   6.084  70.622  1.00  0.00    -0.288 NA 
HETATM   30  C   UNL     1     -10.427  10.742  69.621  1.00  0.00    -0.183 A  
HETATM   31  C   UNL     1     -10.656   8.317  69.471  1.00  0.00    -0.216 A  
ENDBRANCH   6  20
TORSDOF 3
ENDMDL
MODEL       21
REMARK 921   NORMALIZED FREE ENERGY PREDICTED BY IDOCK:   -6.78 KCAL/MOL
REMARK 922        TOTAL FREE ENERGY PREDICTED BY IDOCK:   -8.58 KCAL/MOL
REMARK 923 INTER-LIGAND FREE ENERGY PREDICTED BY IDOCK:   -8.09 KCAL/MOL
REMARK 924 INTRA-LIGAND FREE ENERGY PREDICTED BY IDOCK:   -0.49 KCAL/MOL
REMARK 927      BINDING AFFINITY PREDICTED BY RF-SCORE:    0.00 PKD
ROOT
HETATM    1  C   UNL     1      -9.134   8.328  69.340  1.00  0.00    -0.154 C  
HETATM    2  C   UNL     1     -10.487   9.005  69.067  1.00  0.00    -0.218 C  
HETATM    3  C   UNL     1     -11.481   8.854  70.221  1.00  0.00    -0.105 C  
HETATM    4  O   UNL     1     -11.063   8.496  67.863  1.00  0.00    -0.475 OA 
HETATM    5  C   UNL     1     -10.204  10.518  68.848  1.00  0.00    -0.208 C  
HETATM    6  N   UNL     1     -11.295  11.279  68.448  1.00  0.00    -0.254 N  
HETATM    7  H   UNL     1     -11.899   8.913  67.694  1.00  0.00     0.000 HD 
HETATM    8  H   UNL     1     -12.186  10.802  68.306  1.00  0.00     0.000 HD 
HETATM    9  O   UNL     1      -9.097  10.994  69.103  1.00  0.00    -0.114 OA 
ENDROOT
BRANCH   3  10
HETATM   10  S   UNL     1     -11.722   7.161  70.712  1.00  0.00    -0.310 S  
HETATM   11  O   UNL     1     -11.448   6.295  69.586  1.00  0.00    -0.432 OA 
HETATM   12  O   UNL     1     -12.990   7.087  71.421  1.00  0.00    -0.382 OA 
BRANCH  10  13
HETATM   13  C   UNL     1     -10.424   6.867  71.888  1.00  0.00    -0.201 A  
HETATM   14  C   UNL     1      -9.699   5.673  71.794  1.00  0.00    -0.192 A  
HETATM   15  C   UNL     1     -10.137   7.809  72.881  1.00  0.00    -0.363 A  
HETATM   16  F   UNL     1      -7.324   6.167  74.486  1.00  0.00    -0.092 F  
HETATM   17  C   UNL     1      -8.646   5.441  72.677  1.00  0.00    -0.120 A  
HETATM   18  C   UNL     1      -9.085   7.563  73.766  1.00  0.00    -0.311 A  
HETATM   19  C   UNL     1      -8.344   6.389  73.648  1.00  0.00    -0.119 A  
ENDBRANCH  10  13
ENDBRANCH   3  10
BRANCH   6  20
HETATM   20  C   UNL     1     -11.246  12.677  68.226  1.00  0.00    -0.272 A  
HETATM   21  C   UNL     1     -10.439  15.115  65.397  1.00  0.00    -0.393 C  
HETATM   22  C   UNL     1     -10.800  14.600  66.770  1.00  0.00    -0.312 A  
HETATM   23  C   UNL     1     -10.745  16.875  67.743  1.00  0.00    -0.315 C  
HETATM   24  F   UNL     1     -10.349  14.137  64.454  1.00  0.00    -0.440 F  
HETATM   25  F   UNL     1     -11.354  16.000  64.920  1.00  0.00    -0.356 F  
HETATM   26  C   UNL     1     -11.298  14.929  69.120  1.00  0.00    -0.309 A  
HETATM   27  F   UNL     1      -9.239  15.753  65.383  1.00  0.00    -0.282 F  
HETATM   28  C   UNL     1     -10.965  13.217  66.966  1.00  0.00    -0.289 A  
HETATM   29  N   UNL     1     -10.567  18.018  67.653  1.00  0.00    -0.413 NA 
HETATM   30  C   UNL     1     -11.460  13.547  69.296  1.00  0.00    -0.345 A  
HETATM   31  C   UNL     1     -10.953  15.458  67.866  1.00  0.00    -0.310 A  
ENDBRANCH   6  20
TORSDOF 3
ENDMDL
MODEL       22
REMARK 921   NORMALIZED FREE ENERGY PREDICTED BY IDOCK:   -6.73 KCAL/MOL
REMARK 922        TOTAL FREE ENERGY PREDICTED BY IDOCK:   -8.52 KCAL/MOL
REMARK 923 INTER-LIGAND FREE ENERGY PREDICTED BY IDOCK:   -8.07 KCAL/MOL
REMARK 924 INTRA-LIGAND FREE ENERGY PREDICTED BY IDOCK:   -0.46 KCAL/MOL
REMARK 927      BINDING AFFINITY PREDICTED BY RF-SCORE:    0.00 PKD
ROOT
HETATM    1  C   UNL     1     -10.850  12.217  65.599  1.00  0.00    -0.321 C  
HETATM    2  C   UNL     1     -10.550  12.688  67.031  1.00  0.00    -0.240 C  
HETATM    3  C   UNL     1      -9.555  11.788  67.767  1.00  0.00    -0.184 C  
HETATM    4  O   UNL     1     -11.759  12.790  67.785  1.00  0.00    -0.330 OA 
HETATM    5  C   UNL     1      -9.944  14.117  66.923  1.00  0.00    -0.261 C  
HETATM    6  N   UNL     1      -9.734  14.770  68.131  1.00  0.00    -0.213 N  
HETATM    7  H   UNL     1     -11.574  13.080  68.670  1.00  0.00     0.000 HD 
HETATM    8  H   UNL     1     -10.005  14.290  68.989  1.00  0.00     0.000 HD 
HETATM    9  O   UNL     1      -9.604  14.574  65.832  1.00  0.00    -0.301 OA 
ENDROOT
BRANCH   3  10
HETATM   10  S   UNL     1     -10.037  10.075  67.766  1.00  0.00    -0.195 S  
HETATM   11  O   UNL     1      -9.085   9.313  66.987  1.00  0.00    -0.128 OA 
HETATM   12  O   UNL     1     -11.461  10.022  67.467  1.00  0.00    -0.163 OA 
BRANCH  10  13
HETATM   13  C   UNL     1      -9.816   9.566  69.453  1.00  0.00    -0.186 A  
HETATM   14  C   UNL     1     -10.897   9.696  70.333  1.00  0.00    -0.353 A  
HETATM   15  C   UNL     1      -8.591   9.050  69.885  1.00  0.00    -0.143 A  
HETATM   16  F   UNL     1      -9.429   8.296  73.337  1.00  0.00    -0.322 F  
HETATM   17  C   UNL     1     -10.761   9.261  71.650  1.00  0.00    -0.393 A  
HETATM   18  C   UNL     1      -8.463   8.625  71.209  1.00  0.00    -0.226 A  
HETATM   19  C   UNL     1      -9.551   8.724  72.074  1.00  0.00    -0.286 A  
ENDBRANCH  10  13
ENDBRANCH   3  10
BRANCH   6  20
HETATM   20  C   UNL     1      -9.165  16.062  68.243  1.00  0.00    -0.191 A  
HETATM   21  C   UNL     1     -10.148  19.702  67.627  1.00  0.00    -0.417 C  
HETATM   22  C   UNL     1      -9.310  18.496  67.976  1.00  0.00    -0.321 A  
HETATM   23  C   UNL     1      -7.269  19.871  68.235  1.00  0.00    -0.299 C  
HETATM   24  F   UNL     1     -11.455  19.406  67.382  1.00  0.00    -0.454 F  
HETATM   25  F   UNL     1     -10.164  20.628  68.622  1.00  0.00    -0.384 F  
HETATM   26  C   UNL     1      -7.212  17.453  68.602  1.00  0.00    -0.237 A  
HETATM   27  F   UNL     1      -9.700  20.340  66.513  1.00  0.00    -0.472 F  
HETATM   28  C   UNL     1      -9.903  17.221  67.980  1.00  0.00    -0.284 A  
HETATM   29  N   UNL     1      -6.713  20.889  68.193  1.00  0.00    -0.237 NA 
HETATM   30  C   UNL     1      -7.823  16.190  68.603  1.00  0.00    -0.188 A  
HETATM   31  C   UNL     1      -7.946  18.604  68.274  1.00  0.00    -0.337 A  
ENDBRANCH   6  20
TORSDOF 3
ENDMDL
MODEL       23
REMARK 921   NORMALIZED FREE ENERGY PREDICTED BY IDOCK:   -6.72 KCAL/MOL
REMARK 922        TOTAL FREE ENERGY PREDICTED BY IDOCK:   -8.52 KCAL/MOL
REMARK 923 INTER-LIGAND FREE ENERGY PREDICTED BY IDOCK:   -8.13 KCAL/MOL
REMARK 924 INTRA-LIGAND FREE ENERGY PREDICTED BY IDOCK:   -0.39 KCAL/MOL
REMARK 927      BINDING AFFINITY PREDICTED BY RF-SCORE:    0.00 PKD
ROOT
HETATM    1  C   UNL     1     -11.537  14.598  65.488  1.00  0.00    -0.335 C  
HETATM    2  C   UNL     1     -10.608  14.275  66.669  1.00  0.00    -0.278 C  
HETATM    3  C   UNL     1     -10.541  15.396  67.709  1.00  0.00    -0.274 C  
HETATM    4  O   UNL     1      -9.293  13.973  66.198  1.00  0.00    -0.456 OA 
HETATM    5  C   UNL     1     -11.167  12.995  67.352  1.00  0.00    -0.288 C  
HETATM    6  N   UNL     1     -10.377  12.463  68.363  1.00  0.00    -0.226 N  
HETATM    7  H   UNL     1      -8.718  13.774  66.928  1.00  0.00     0.000 HD 
HETATM    8  H   UNL     1      -9.492  12.924  68.573  1.00  0.00     0.000 HD 
HETATM    9  O   UNL     1     -12.278  12.557  67.052  1.00  0.00    -0.490 OA 
ENDROOT
BRANCH   3  10
HETATM   10  S   UNL     1     -10.120  16.973  67.002  1.00  0.00    -0.302 S  
HETATM   11  O   UNL     1     -11.182  17.916  67.277  1.00  0.00    -0.004 OA 
HETATM   12  O   UNL     1      -9.665  16.736  65.641  1.00  0.00    -0.539 OA 
BRANCH  10  13
HETATM   13  C   UNL     1      -8.722  17.512  67.957  1.00  0.00    -0.254 A  
HETATM   14  C   UNL     1      -7.876  16.539  68.503  1.00  0.00    -0.210 A  
HETATM   15  C   UNL     1      -8.478  18.874  68.154  1.00  0.00    -0.342 A  
HETATM   16  F   UNL     1      -5.399  18.671  70.068  1.00  0.00    -0.187 F  
HETATM   17  C   UNL     1      -6.748  16.937  69.217  1.00  0.00    -0.238 A  
HETATM   18  C   UNL     1      -7.349  19.263  68.879  1.00  0.00    -0.392 A  
HETATM   19  C   UNL     1      -6.491  18.293  69.392  1.00  0.00    -0.232 A  
ENDBRANCH  10  13
ENDBRANCH   3  10
BRANCH   6  20
HETATM   20  C   UNL     1     -10.729  11.319  69.122  1.00  0.00    -0.207 A  
HETATM   21  C   UNL     1     -10.113   7.549  69.097  1.00  0.00    -0.192 C  
HETATM   22  C   UNL     1     -10.657   8.898  69.503  1.00  0.00    -0.233 A  
HETATM   23  C   UNL     1     -12.135   7.892  71.216  1.00  0.00    -0.296 C  
HETATM   24  F   UNL     1      -9.188   7.612  68.100  1.00  0.00    -0.138 F  
HETATM   25  F   UNL     1      -9.499   6.907  70.126  1.00  0.00    -0.159 F  
HETATM   26  C   UNL     1     -12.075  10.314  70.869  1.00  0.00    -0.468 A  
HETATM   27  F   UNL     1     -11.086   6.713  68.646  1.00  0.00    -0.260 F  
HETATM   28  C   UNL     1     -10.220  10.050  68.826  1.00  0.00    -0.201 A  
HETATM   29  N   UNL     1     -12.573   6.973  71.771  1.00  0.00    -0.356 NA 
HETATM   30  C   UNL     1     -11.625  11.452  70.183  1.00  0.00    -0.368 A  
HETATM   31  C   UNL     1     -11.608   9.036  70.523  1.00  0.00    -0.209 A  
ENDBRANCH   6  20
TORSDOF 3
ENDMDL
MODEL       24
REMARK 921   NORMALIZED FREE ENERGY PREDICTED BY IDOCK:   -6.72 KCAL/MOL
REMARK 922        TOTAL FREE ENERGY PREDICTED BY IDOCK:   -8.51 KCAL/MOL
REMARK 923 INTER-LIGAND FREE ENERGY PREDICTED BY IDOCK:   -8.05 KCAL/MOL
REMARK 924 INTRA-LIGAND FREE ENERGY PREDICTED BY IDOCK:   -0.46 KCAL/MOL
REMARK 927      BINDING AFFINITY PREDICTED BY RF-SCORE:    0.00 PKD
ROOT
HETATM    1  C   UNL     1      -8.994   7.812  68.575  1.00  0.00    -0.133 C  
HETATM    2  C   UNL     1     -10.329   8.537  68.336  1.00  0.00    -0.202 C  
HETATM    3  C   UNL     1     -11.119   8.787  69.623  1.00  0.00    -0.028 C  
HETATM    4  O   UNL     1     -11.133   7.806  67.409  1.00  0.00    -0.525 OA 
HETATM    5  C   UNL     1      -9.991   9.908  67.684  1.00  0.00    -0.171 C  
HETATM    6  N   UNL     1     -11.085  10.655  67.264  1.00  0.00    -0.288 N  
HETATM    7  H   UNL     1     -11.957   8.253  67.262  1.00  0.00     0.000 HD 
HETATM    8  H   UNL     1     -12.015  10.255  67.387  1.00  0.00     0.000 HD 
HETATM    9  O   UNL     1      -8.830  10.313  67.638  1.00  0.00    -0.122 OA 
ENDROOT
BRANCH   3  10
HETATM   10  S   UNL     1     -11.379   7.307  70.576  1.00  0.00    -0.266 S  
HETATM   11  O   UNL     1     -11.286   6.157  69.703  1.00  0.00    -0.384 OA 
HETATM   12  O   UNL     1     -12.555   7.522  71.406  1.00  0.00    -0.336 OA 
BRANCH  10  13
HETATM   13  C   UNL     1      -9.964   7.232  71.646  1.00  0.00    -0.180 A  
HETATM   14  C   UNL     1      -9.344   5.992  71.841  1.00  0.00    -0.160 A  
HETATM   15  C   UNL     1      -9.485   8.385  72.275  1.00  0.00    -0.367 A  
HETATM   16  F   UNL     1      -6.611   6.992  74.002  1.00  0.00    -0.075 F  
HETATM   17  C   UNL     1      -8.205   5.916  72.640  1.00  0.00    -0.112 A  
HETATM   18  C   UNL     1      -8.349   8.297  73.081  1.00  0.00    -0.253 A  
HETATM   19  C   UNL     1      -7.714   7.067  73.245  1.00  0.00    -0.089 A  
ENDBRANCH  10  13
ENDBRANCH   3  10
BRANCH   6  20
HETATM   20  C   UNL     1     -10.985  11.939  66.674  1.00  0.00    -0.291 A  
HETATM   21  C   UNL     1     -10.458  15.567  67.750  1.00  0.00    -0.273 C  
HETATM   22  C   UNL     1     -10.716  14.369  66.868  1.00  0.00    -0.292 A  
HETATM   23  C   UNL     1     -11.083  15.795  64.878  1.00  0.00    -0.399 C  
HETATM   24  F   UNL     1     -10.187  15.242  69.044  1.00  0.00    -0.203 F  
HETATM   25  F   UNL     1      -9.395  16.302  67.328  1.00  0.00    -0.215 F  
HETATM   26  C   UNL     1     -11.222  13.357  64.722  1.00  0.00    -0.360 A  
HETATM   27  F   UNL     1     -11.520  16.414  67.797  1.00  0.00    -0.253 F  
HETATM   28  C   UNL     1     -10.700  13.081  67.431  1.00  0.00    -0.256 A  
HETATM   29  N   UNL     1     -11.164  16.835  64.370  1.00  0.00    -1.107 NA 
HETATM   30  C   UNL     1     -11.199  12.080  65.303  1.00  0.00    -0.374 A  
HETATM   31  C   UNL     1     -10.998  14.503  65.502  1.00  0.00    -0.337 A  
ENDBRANCH   6  20
TORSDOF 3
ENDMDL
MODEL       25
REMARK 921   NORMALIZED FREE ENERGY PREDICTED BY IDOCK:   -6.70 KCAL/MOL
REMARK 922        TOTAL FREE ENERGY PREDICTED BY IDOCK:   -8.49 KCAL/MOL
REMARK 923 INTER-LIGAND FREE ENERGY PREDICTED BY IDOCK:   -7.82 KCAL/MOL
REMARK 924 INTRA-LIGAND FREE ENERGY PREDICTED BY IDOCK:   -0.67 KCAL/MOL
REMARK 927      BINDING AFFINITY PREDICTED BY RF-SCORE:    0.00 PKD
ROOT
HETATM    1  C   UNL     1     -10.066   9.929  67.537  1.00  0.00    -0.244 C  
HETATM    2  C   UNL     1     -10.144  10.034  69.069  1.00  0.00    -0.200 C  
HETATM    3  C   UNL     1     -11.322  10.879  69.557  1.00  0.00    -0.283 C  
HETATM    4  O   UNL     1      -8.923  10.557  69.594  1.00  0.00    -0.379 OA 
HETATM    5  C   UNL     1     -10.308   8.587  69.616  1.00  0.00    -0.218 C  
HETATM    6  N   UNL     1     -10.257   8.462  70.999  1.00  0.00    -0.193 N  
HETATM    7  H   UNL     1      -8.971  10.622  70.540  1.00  0.00     0.000 HD 
HETATM    8  H   UNL     1     -10.097   9.305  71.551  1.00  0.00     0.000 HD 
HETATM    9  O   UNL     1     -10.551   7.651  68.854  1.00  0.00    -0.211 OA 
ENDROOT
BRANCH   3  10
HETATM   10  S   UNL     1     -11.365  12.499  68.822  1.00  0.00    -0.315 S  
HETATM   11  O   UNL     1     -12.270  12.485  67.693  1.00  0.00    -0.401 OA 
HETATM   12  O   UNL     1      -9.990  12.949  68.672  1.00  0.00    -0.191 OA 
BRANCH  10  13
HETATM   13  C   UNL     1     -12.137  13.511  70.060  1.00  0.00    -0.341 A  
HETATM   14  C   UNL     1     -12.745  12.879  71.151  1.00  0.00    -0.366 A  
HETATM   15  C   UNL     1     -12.134  14.904  69.943  1.00  0.00    -0.379 A  
HETATM   16  F   UNL     1     -13.831  15.781  73.031  1.00  0.00    -0.597 F  
HETATM   17  C   UNL     1     -13.317  13.654  72.159  1.00  0.00    -0.587 A  
HETATM   18  C   UNL     1     -12.717  15.672  70.954  1.00  0.00    -0.500 A  
HETATM   19  C   UNL     1     -13.291  15.040  72.055  1.00  0.00    -0.379 A  
ENDBRANCH  10  13
ENDBRANCH   3  10
BRANCH   6  20
HETATM   20  C   UNL     1     -10.415   7.234  71.688  1.00  0.00    -0.198 A  
HETATM   21  C   UNL     1      -8.287   4.259  72.788  1.00  0.00    -0.101 C  
HETATM   22  C   UNL     1      -9.496   5.133  72.556  1.00  0.00    -0.166 A  
HETATM   23  C   UNL     1     -11.035   3.398  73.420  1.00  0.00    -0.206 C  
HETATM   24  F   UNL     1      -7.112   4.846  72.431  1.00  0.00    -0.067 F  
HETATM   25  F   UNL     1      -8.140   3.916  74.096  1.00  0.00    -0.082 F  
HETATM   26  C   UNL     1     -11.881   5.561  72.648  1.00  0.00    -0.176 A  
HETATM   27  F   UNL     1      -8.346   3.095  72.088  1.00  0.00    -0.068 F  
HETATM   28  C   UNL     1      -9.327   6.403  71.977  1.00  0.00    -0.151 A  
HETATM   29  N   UNL     1     -11.241   2.339  73.847  1.00  0.00    -0.187 NA 
HETATM   30  C   UNL     1     -11.692   6.826  72.072  1.00  0.00    -0.343 A  
HETATM   31  C   UNL     1     -10.790   4.706  72.876  1.00  0.00    -0.295 A  
ENDBRANCH   6  20
TORSDOF 3
ENDMDL
MODEL       26
REMARK 921   NORMALIZED FREE ENERGY PREDICTED BY IDOCK:   -6.69 KCAL/MOL
REMARK 922        TOTAL FREE ENERGY PREDICTED BY IDOCK:   -8.48 KCAL/MOL
REMARK 923 INTER-LIGAND FREE ENERGY PREDICTED BY IDOCK:   -7.95 KCAL/MOL
REMARK 924 INTRA-LIGAND FREE ENERGY PREDICTED BY IDOCK:   -0.54 KCAL/MOL
REMARK 927      BINDING AFFINITY PREDICTED BY RF-SCORE:    0.00 PKD
ROOT
HETATM    1  C   UNL     1      -7.604  10.001  67.365  1.00  0.00    -0.091 C  
HETATM    2  C   UNL     1      -9.000  10.644  67.358  1.00  0.00    -0.136 C  
HETATM    3  C   UNL     1      -9.733  10.510  68.694  1.00  0.00    -0.173 C  
HETATM    4  O   UNL     1      -9.797  10.091  66.310  1.00  0.00    -0.208 OA 
HETATM    5  C   UNL     1      -8.802  12.156  67.048  1.00  0.00    -0.203 C  
HETATM    6  N   UNL     1      -9.970  12.885  66.862  1.00  0.00    -0.233 N  
HETATM    7  H   UNL     1     -10.660  10.488  66.306  1.00  0.00     0.000 HD 
HETATM    8  H   UNL     1     -10.859  12.389  66.917  1.00  0.00     0.000 HD 
HETATM    9  O   UNL     1      -7.678  12.658  67.060  1.00  0.00    -0.123 OA 
ENDROOT
BRANCH   3  10
HETATM   10  S   UNL     1      -9.829   8.828  69.266  1.00  0.00    -0.185 S  
HETATM   11  O   UNL     1      -8.666   8.533  70.074  1.00  0.00    -0.130 OA 
HETATM   12  O   UNL     1     -10.176   7.996  68.124  1.00  0.00    -0.194 OA 
BRANCH  10  13
HETATM   13  C   UNL     1     -11.215   8.831  70.377  1.00  0.00    -0.223 A  
HETATM   14  C   UNL     1     -11.767   7.601  70.754  1.00  0.00    -0.260 A  
HETATM   15  C   UNL     1     -11.737  10.035  70.859  1.00  0.00    -0.462 A  
HETATM   16  F   UNL     1     -14.337   8.743  73.040  1.00  0.00    -0.374 F  
HETATM   17  C   UNL     1     -12.826   7.576  71.660  1.00  0.00    -0.392 A  
HETATM   18  C   UNL     1     -12.804   9.999  71.760  1.00  0.00    -0.546 A  
HETATM   19  C   UNL     1     -13.328   8.772  72.160  1.00  0.00    -0.423 A  
ENDBRANCH  10  13
ENDBRANCH   3  10
BRANCH   6  20
HETATM   20  C   UNL     1      -9.999  14.277  66.600  1.00  0.00    -0.275 A  
HETATM   21  C   UNL     1      -9.290  17.562  68.416  1.00  0.00    -0.287 C  
HETATM   22  C   UNL     1      -9.713  16.600  67.332  1.00  0.00    -0.251 A  
HETATM   23  C   UNL     1     -10.481  18.440  65.866  1.00  0.00    -0.321 C  
HETATM   24  F   UNL     1      -8.763  16.951  69.512  1.00  0.00    -0.086 F  
HETATM   25  F   UNL     1      -8.339  18.435  67.991  1.00  0.00    -0.248 F  
HETATM   26  C   UNL     1     -10.633  16.108  65.143  1.00  0.00    -0.366 A  
HETATM   27  F   UNL     1     -10.327  18.313  68.875  1.00  0.00    -0.368 F  
HETATM   28  C   UNL     1      -9.575  15.217  67.545  1.00  0.00    -0.206 A  
HETATM   29  N   UNL     1     -10.670  19.566  65.656  1.00  0.00    -0.435 NA 
HETATM   30  C   UNL     1     -10.485  14.732  65.374  1.00  0.00    -0.401 A  
HETATM   31  C   UNL     1     -10.264  17.043  66.123  1.00  0.00    -0.346 A  
ENDBRANCH   6  20
TORSDOF 3
ENDMDL
MODEL       27
REMARK 921   NORMALIZED FREE ENERGY PREDICTED BY IDOCK:   -6.67 KCAL/MOL
REMARK 922        TOTAL FREE ENERGY PREDICTED BY IDOCK:   -8.45 KCAL/MOL
REMARK 923 INTER-LIGAND FREE ENERGY PREDICTED BY IDOCK:   -8.05 KCAL/MOL
REMARK 924 INTRA-LIGAND FREE ENERGY PREDICTED BY IDOCK:   -0.40 KCAL/MOL
REMARK 927      BINDING AFFINITY PREDICTED BY RF-SCORE:    0.00 PKD
ROOT
HETATM    1  C   UNL     1      -8.794   7.140  65.594  1.00  0.00    -0.043 C  
HETATM    2  C   UNL     1      -9.580   8.112  66.490  1.00  0.00    -0.234 C  
HETATM    3  C   UNL     1      -8.963   8.286  67.879  1.00  0.00    -0.134 C  
HETATM    4  O   UNL     1     -10.938   7.687  66.613  1.00  0.00    -0.381 OA 
HETATM    5  C   UNL     1      -9.584   9.491  65.770  1.00  0.00    -0.270 C  
HETATM    6  N   UNL     1     -10.369  10.472  66.363  1.00  0.00    -0.234 N  
HETATM    7  H   UNL     1     -11.423   8.287  67.167  1.00  0.00     0.000 HD 
HETATM    8  H   UNL     1     -10.897  10.223  67.200  1.00  0.00     0.000 HD 
HETATM    9  O   UNL     1      -8.862   9.693  64.794  1.00  0.00    -0.180 OA 
ENDROOT
BRANCH   3  10
HETATM   10  S   UNL     1      -8.703   6.740  68.721  1.00  0.00    -0.124 S  
HETATM   11  O   UNL     1      -7.285   6.549  68.938  1.00  0.00    -0.079 OA 
HETATM   12  O   UNL     1      -9.497   5.731  68.038  1.00  0.00    -0.108 OA 
BRANCH  10  13
HETATM   13  C   UNL     1      -9.417   7.001  70.326  1.00  0.00    -0.165 A  
HETATM   14  C   UNL     1     -10.402   6.109  70.768  1.00  0.00    -0.266 A  
HETATM   15  C   UNL     1      -9.002   8.071  71.124  1.00  0.00    -0.162 A  
HETATM   16  F   UNL     1     -11.028   7.455  74.074  1.00  0.00    -0.284 F  
HETATM   17  C   UNL     1     -10.944   6.266  72.042  1.00  0.00    -0.299 A  
HETATM   18  C   UNL     1      -9.558   8.225  72.396  1.00  0.00    -0.364 A  
HETATM   19  C   UNL     1     -10.513   7.315  72.846  1.00  0.00    -0.282 A  
ENDBRANCH  10  13
ENDBRANCH   3  10
BRANCH   6  20
HETATM   20  C   UNL     1     -10.481  11.798  65.876  1.00  0.00    -0.255 A  
HETATM   21  C   UNL     1      -9.186  15.292  66.718  1.00  0.00    -0.250 C  
HETATM   22  C   UNL     1      -9.954  14.188  66.032  1.00  0.00    -0.340 A  
HETATM   23  C   UNL     1     -11.167  15.796  64.594  1.00  0.00    -0.363 C  
HETATM   24  F   UNL     1      -8.320  14.844  67.668  1.00  0.00    -0.136 F  
HETATM   25  F   UNL     1      -8.431  16.015  65.848  1.00  0.00    -0.355 F  
HETATM   26  C   UNL     1     -11.564  13.389  64.403  1.00  0.00    -0.421 A  
HETATM   27  F   UNL     1     -10.002  16.176  67.349  1.00  0.00    -0.233 F  
HETATM   28  C   UNL     1      -9.758  12.856  66.437  1.00  0.00    -0.263 A  
HETATM   29  N   UNL     1     -11.412  16.879  64.257  1.00  0.00    -1.039 NA 
HETATM   30  C   UNL     1     -11.352  12.066  64.820  1.00  0.00    -0.369 A  
HETATM   31  C   UNL     1     -10.881  14.452  65.016  1.00  0.00    -0.420 A  
ENDBRANCH   6  20
TORSDOF 3
ENDMDL
MODEL       28
REMARK 921   NORMALIZED FREE ENERGY PREDICTED BY IDOCK:   -6.59 KCAL/MOL
REMARK 922        TOTAL FREE ENERGY PREDICTED BY IDOCK:   -8.36 KCAL/MOL
REMARK 923 INTER-LIGAND FREE ENERGY PREDICTED BY IDOCK:   -8.36 KCAL/MOL
REMARK 924 INTRA-LIGAND FREE ENERGY PREDICTED BY IDOCK:    0.00 KCAL/MOL
REMARK 927      BINDING AFFINITY PREDICTED BY RF-SCORE:    0.00 PKD
ROOT
HETATM    1  C   UNL     1     -10.312  10.717  64.767  1.00  0.00    -0.380 C  
HETATM    2  C   UNL     1     -10.323  11.223  66.219  1.00  0.00    -0.247 C  
HETATM    3  C   UNL     1     -11.481  12.179  66.517  1.00  0.00    -0.369 C  
HETATM    4  O   UNL     1      -9.081  11.854  66.535  1.00  0.00    -0.204 OA 
HETATM    5  C   UNL     1     -10.460   9.973  67.135  1.00  0.00    -0.244 C  
HETATM    6  N   UNL     1     -10.349  10.217  68.498  1.00  0.00    -0.169 N  
HETATM    7  H   UNL     1      -9.087  12.167  67.431  1.00  0.00     0.000 HD 
HETATM    8  H   UNL     1     -10.166  11.173  68.801  1.00  0.00     0.000 HD 
HETATM    9  O   UNL     1     -10.735   8.872  66.659  1.00  0.00    -0.161 OA 
ENDROOT
BRANCH   3  10
HETATM   10  S   UNL     1     -11.559  13.547  65.383  1.00  0.00    -0.328 S  
HETATM   11  O   UNL     1     -12.922  13.709  64.925  1.00  0.00    -0.706 OA 
HETATM   12  O   UNL     1     -10.465  13.394  64.435  1.00  0.00    -0.426 OA 
BRANCH  10  13
HETATM   13  C   UNL     1     -11.206  14.963  66.395  1.00  0.00    -0.331 A  
HETATM   14  C   UNL     1     -11.619  14.944  67.732  1.00  0.00    -0.358 A  
HETATM   15  C   UNL     1     -10.532  16.067  65.864  1.00  0.00    -0.373 A  
HETATM   16  F   UNL     1     -10.319  18.141  68.837  1.00  0.00    -0.362 F  
HETATM   17  C   UNL     1     -11.314  16.024  68.558  1.00  0.00    -0.382 A  
HETATM   18  C   UNL     1     -10.239  17.148  66.698  1.00  0.00    -0.319 A  
HETATM   19  C   UNL     1     -10.621  17.111  68.037  1.00  0.00    -0.374 A  
ENDBRANCH  10  13
ENDBRANCH   3  10
BRANCH   6  20
HETATM   20  C   UNL     1     -10.474   9.216  69.493  1.00  0.00    -0.219 A  
HETATM   21  C   UNL     1      -8.997   5.795  70.334  1.00  0.00    -0.146 C  
HETATM   22  C   UNL     1      -9.866   7.026  70.416  1.00  0.00    -0.184 A  
HETATM   23  C   UNL     1     -11.180   6.091  72.294  1.00  0.00    -0.293 C  
HETATM   24  F   UNL     1      -8.047   5.861  69.361  1.00  0.00    -0.100 F  
HETATM   25  F   UNL     1      -8.320   5.561  71.489  1.00  0.00    -0.114 F  
HETATM   26  C   UNL     1     -11.663   8.320  71.406  1.00  0.00    -0.327 A  
HETATM   27  F   UNL     1      -9.716   4.670  70.073  1.00  0.00    -0.200 F  
HETATM   28  C   UNL     1      -9.665   8.074  69.500  1.00  0.00    -0.170 A  
HETATM   29  N   UNL     1     -11.428   5.237  73.038  1.00  0.00    -0.309 NA 
HETATM   30  C   UNL     1     -11.445   9.355  70.485  1.00  0.00    -0.317 A  
HETATM   31  C   UNL     1     -10.888   7.149  71.365  1.00  0.00    -0.253 A  
ENDBRANCH   6  20
TORSDOF 3
ENDMDL
MODEL       29
REMARK 921   NORMALIZED FREE ENERGY PREDICTED BY IDOCK:   -6.56 KCAL/MOL
REMARK 922        TOTAL FREE ENERGY PREDICTED BY IDOCK:   -8.32 KCAL/MOL
REMARK 923 INTER-LIGAND FREE ENERGY PREDICTED BY IDOCK:   -7.75 KCAL/MOL
REMARK 924 INTRA-LIGAND FREE ENERGY PREDICTED BY IDOCK:   -0.58 KCAL/MOL
REMARK 927      BINDING AFFINITY PREDICTED BY RF-SCORE:    0.00 PKD
ROOT
HETATM    1  C   UNL     1     -10.760  13.474  64.641  1.00  0.00    -0.429 C  
HETATM    2  C   UNL     1     -10.135  12.700  65.813  1.00  0.00    -0.271 C  
HETATM    3  C   UNL     1     -10.985  12.743  67.086  1.00  0.00    -0.263 C  
HETATM    4  O   UNL     1      -8.823  13.192  66.091  1.00  0.00    -0.429 OA 
HETATM    5  C   UNL     1      -9.995  11.220  65.357  1.00  0.00    -0.250 C  
HETATM    6  N   UNL     1      -9.317  10.386  66.238  1.00  0.00    -0.162 N  
HETATM    7  H   UNL     1      -8.437  12.715  66.815  1.00  0.00     0.000 HD 
HETATM    8  H   UNL     1      -8.945  10.794  67.096  1.00  0.00     0.000 HD 
HETATM    9  O   UNL     1     -10.533  10.827  64.323  1.00  0.00    -0.367 OA 
ENDROOT
BRANCH   3  10
HETATM   10  S   UNL     1     -11.400  14.398  67.587  1.00  0.00    -0.346 S  
HETATM   11  O   UNL     1     -12.476  14.892  66.755  1.00  0.00     0.085 OA 
HETATM   12  O   UNL     1     -10.156  15.141  67.718  1.00  0.00    -0.228 OA 
BRANCH  10  13
HETATM   13  C   UNL     1     -12.087  14.195  69.212  1.00  0.00    -0.324 A  
HETATM   14  C   UNL     1     -12.640  15.314  69.845  1.00  0.00    -0.213 A  
HETATM   15  C   UNL     1     -12.072  12.945  69.839  1.00  0.00    -0.335 A  
HETATM   16  F   UNL     1     -13.808  13.785  72.916  1.00  0.00    -0.560 F  
HETATM   17  C   UNL     1     -13.225  15.170  71.102  1.00  0.00    -0.535 A  
HETATM   18  C   UNL     1     -12.653  12.813  71.102  1.00  0.00    -0.365 A  
HETATM   19  C   UNL     1     -13.233  13.922  71.714  1.00  0.00    -0.376 A  
ENDBRANCH  10  13
ENDBRANCH   3  10
BRANCH   6  20
HETATM   20  C   UNL     1      -9.111   9.002  66.016  1.00  0.00    -0.208 A  
HETATM   21  C   UNL     1     -10.494   5.655  67.234  1.00  0.00    -0.258 C  
HETATM   22  C   UNL     1      -9.632   6.655  66.501  1.00  0.00    -0.187 A  
HETATM   23  C   UNL     1      -8.177   4.873  65.587  1.00  0.00    -0.115 C  
HETATM   24  F   UNL     1     -11.512   6.224  67.936  1.00  0.00    -0.397 F  
HETATM   25  F   UNL     1     -11.083   4.764  66.393  1.00  0.00    -0.223 F  
HETATM   26  C   UNL     1      -7.779   7.225  65.044  1.00  0.00    -0.115 A  
HETATM   27  F   UNL     1      -9.786   4.925  68.137  1.00  0.00    -0.173 F  
HETATM   28  C   UNL     1      -9.908   8.028  66.628  1.00  0.00    -0.322 A  
HETATM   29  N   UNL     1      -7.868   3.759  65.490  1.00  0.00    -0.092 NA 
HETATM   30  C   UNL     1      -8.072   8.590  65.181  1.00  0.00    -0.142 A  
HETATM   31  C   UNL     1      -8.544   6.257  65.713  1.00  0.00    -0.153 A  
ENDBRANCH   6  20
TORSDOF 3
ENDMDL
MODEL       30
REMARK 921   NORMALIZED FREE ENERGY PREDICTED BY IDOCK:   -6.55 KCAL/MOL
REMARK 922        TOTAL FREE ENERGY PREDICTED BY IDOCK:   -8.32 KCAL/MOL
REMARK 923 INTER-LIGAND FREE ENERGY PREDICTED BY IDOCK:   -7.86 KCAL/MOL
REMARK 924 INTRA-LIGAND FREE ENERGY PREDICTED BY IDOCK:   -0.46 KCAL/MOL
REMARK 927      BINDING AFFINITY PREDICTED BY RF-SCORE:    0.00 PKD
ROOT
HETATM    1  C   UNL     1      -9.167  12.782  66.792  1.00  0.00    -0.225 C  
HETATM    2  C   UNL     1      -9.336  12.466  68.288  1.00  0.00    -0.199 C  
HETATM    3  C   UNL     1     -10.736  12.784  68.817  1.00  0.00    -0.214 C  
HETATM    4  O   UNL     1      -8.357  13.166  69.057  1.00  0.00    -0.343 OA 
HETATM    5  C   UNL     1      -9.070  10.944  68.464  1.00  0.00    -0.173 C  
HETATM    6  N   UNL     1      -9.040  10.491  69.777  1.00  0.00    -0.397 N  
HETATM    7  H   UNL     1      -8.461  12.972  69.981  1.00  0.00     0.000 HD 
HETATM    8  H   UNL     1      -9.169  11.174  70.523  1.00  0.00     0.000 HD 
HETATM    9  O   UNL     1      -8.983  10.203  67.485  1.00  0.00    -0.131 OA 
ENDROOT
BRANCH   3  10
HETATM   10  S   UNL     1     -11.245  14.454  68.475  1.00  0.00    -0.281 S  
HETATM   11  O   UNL     1     -12.324  14.435  67.511  1.00  0.00    -0.273 OA 
HETATM   12  O   UNL     1     -10.042  15.237  68.235  1.00  0.00    -0.221 OA 
BRANCH  10  13
HETATM   13  C   UNL     1     -11.958  15.007  70.005  1.00  0.00    -0.332 A  
HETATM   14  C   UNL     1     -13.245  14.566  70.335  1.00  0.00    -0.012 A  
HETATM   15  C   UNL     1     -11.247  15.861  70.853  1.00  0.00    -0.389 A  
HETATM   16  F   UNL     1     -13.630  16.135  73.580  1.00  0.00    -0.639 F  
HETATM   17  C   UNL     1     -13.808  14.950  71.551  1.00  0.00    -0.550 A  
HETATM   18  C   UNL     1     -11.823  16.247  72.065  1.00  0.00    -0.568 A  
HETATM   19  C   UNL     1     -13.091  15.779  72.407  1.00  0.00    -0.465 A  
ENDBRANCH  10  13
ENDBRANCH   3  10
BRANCH   6  20
HETATM   20  C   UNL     1      -8.841   9.137  70.142  1.00  0.00    -0.197 A  
HETATM   21  C   UNL     1     -10.872   5.919  70.479  1.00  0.00    -0.296 C  
HETATM   22  C   UNL     1      -9.706   6.876  70.536  1.00  0.00    -0.177 A  
HETATM   23  C   UNL     1      -8.252   5.189  71.616  1.00  0.00    -0.116 C  
HETATM   24  F   UNL     1     -11.990   6.454  69.915  1.00  0.00    -0.486 F  
HETATM   25  F   UNL     1     -10.593   4.805  69.751  1.00  0.00    -0.309 F  
HETATM   26  C   UNL     1      -7.410   7.426  71.091  1.00  0.00    -0.072 A  
HETATM   27  F   UNL     1     -11.251   5.490  71.713  1.00  0.00    -0.310 F  
HETATM   28  C   UNL     1      -9.869   8.191  70.065  1.00  0.00    -0.182 A  
HETATM   29  N   UNL     1      -8.075   4.136  72.070  1.00  0.00    -0.084 NA 
HETATM   30  C   UNL     1      -7.592   8.732  70.614  1.00  0.00    -0.090 A  
HETATM   31  C   UNL     1      -8.466   6.501  71.069  1.00  0.00    -0.127 A  
ENDBRANCH   6  20
TORSDOF 3
ENDMDL
MODEL       31
REMARK 921   NORMALIZED FREE ENERGY PREDICTED BY IDOCK:   -6.54 KCAL/MOL
REMARK 922        TOTAL FREE ENERGY PREDICTED BY IDOCK:   -8.31 KCAL/MOL
REMARK 923 INTER-LIGAND FREE ENERGY PREDICTED BY IDOCK:   -8.37 KCAL/MOL
REMARK 924 INTRA-LIGAND FREE ENERGY PREDICTED BY IDOCK:    0.07 KCAL/MOL
REMARK 927      BINDING AFFINITY PREDICTED BY RF-SCORE:    0.00 PKD
ROOT
HETATM    1  C   UNL     1     -10.099   9.687  68.299  1.00  0.00    -0.203 C  
HETATM    2  C   UNL     1     -11.097  10.659  68.949  1.00  0.00    -0.261 C  
HETATM    3  C   UNL     1     -11.168  10.522  70.472  1.00  0.00    -0.265 C  
HETATM    4  O   UNL     1     -12.399  10.485  68.387  1.00  0.00    -0.700 OA 
HETATM    5  C   UNL     1     -10.623  12.098  68.600  1.00  0.00    -0.223 C  
HETATM    6  N   UNL     1     -11.482  13.120  68.987  1.00  0.00    -0.278 N  
HETATM    7  H   UNL     1     -13.016  11.085  68.789  1.00  0.00     0.000 HD 
HETATM    8  H   UNL     1     -12.357  12.864  69.444  1.00  0.00     0.000 HD 
HETATM    9  O   UNL     1      -9.518  12.291  68.094  1.00  0.00    -0.203 OA 
ENDROOT
BRANCH   3  10
HETATM   10  S   UNL     1     -11.490   8.854  71.004  1.00  0.00    -0.308 S  
HETATM   11  O   UNL     1     -11.450   7.973  69.857  1.00  0.00    -0.035 OA 
HETATM   12  O   UNL     1     -12.652   8.891  71.879  1.00  0.00    -0.328 OA 
BRANCH  10  13
HETATM   13  C   UNL     1     -10.076   8.440  71.995  1.00  0.00    -0.294 A  
HETATM   14  C   UNL     1      -8.809   8.820  71.536  1.00  0.00    -0.295 A  
HETATM   15  C   UNL     1     -10.230   7.752  73.201  1.00  0.00    -0.398 A  
HETATM   16  F   UNL     1      -6.766   7.634  74.285  1.00  0.00    -0.087 F  
HETATM   17  C   UNL     1      -7.688   8.546  72.318  1.00  0.00    -0.113 A  
HETATM   18  C   UNL     1      -9.100   7.474  73.973  1.00  0.00    -0.295 A  
HETATM   19  C   UNL     1      -7.844   7.884  73.531  1.00  0.00    -0.167 A  
ENDBRANCH  10  13
ENDBRANCH   3  10
BRANCH   6  20
HETATM   20  C   UNL     1     -11.215  14.497  68.785  1.00  0.00    -0.261 A  
HETATM   21  C   UNL     1     -10.055  16.821  65.984  1.00  0.00    -0.332 C  
HETATM   22  C   UNL     1     -10.483  16.347  67.352  1.00  0.00    -0.309 A  
HETATM   23  C   UNL     1     -10.063  18.570  68.357  1.00  0.00    -0.388 C  
HETATM   24  F   UNL     1     -10.127  15.856  65.025  1.00  0.00    -0.337 F  
HETATM   25  F   UNL     1     -10.822  17.846  65.527  1.00  0.00    -0.410 F  
HETATM   26  C   UNL     1     -10.906  16.715  69.712  1.00  0.00    -0.238 A  
HETATM   27  F   UNL     1      -8.769  17.263  65.967  1.00  0.00    -0.282 F  
HETATM   28  C   UNL     1     -10.861  15.005  67.530  1.00  0.00    -0.297 A  
HETATM   29  N   UNL     1      -9.707  19.672  68.282  1.00  0.00    -0.379 NA 
HETATM   30  C   UNL     1     -11.282  15.372  69.868  1.00  0.00    -0.310 A  
HETATM   31  C   UNL     1     -10.490  17.202  68.462  1.00  0.00    -0.377 A  
ENDBRANCH   6  20
TORSDOF 3
ENDMDL
MODEL       32
REMARK 921   NORMALIZED FREE ENERGY PREDICTED BY IDOCK:   -6.52 KCAL/MOL
REMARK 922        TOTAL FREE ENERGY PREDICTED BY IDOCK:   -8.28 KCAL/MOL
REMARK 923 INTER-LIGAND FREE ENERGY PREDICTED BY IDOCK:   -8.14 KCAL/MOL
REMARK 924 INTRA-LIGAND FREE ENERGY PREDICTED BY IDOCK:   -0.14 KCAL/MOL
REMARK 927      BINDING AFFINITY PREDICTED BY RF-SCORE:    0.00 PKD
ROOT
HETATM    1  C   UNL     1     -11.683  12.622  65.819  1.00  0.00    -0.466 C  
HETATM    2  C   UNL     1     -11.226  13.306  67.118  1.00  0.00    -0.299 C  
HETATM    3  C   UNL     1     -10.345  12.411  67.993  1.00  0.00    -0.216 C  
HETATM    4  O   UNL     1     -12.356  13.754  67.869  1.00  0.00    -0.426 OA 
HETATM    5  C   UNL     1     -10.408  14.563  66.707  1.00  0.00    -0.269 C  
HETATM    6  N   UNL     1     -10.024  15.394  67.753  1.00  0.00    -0.224 N  
HETATM    7  H   UNL     1     -12.074  14.176  68.671  1.00  0.00     0.000 HD 
HETATM    8  H   UNL     1     -10.316  15.143  68.697  1.00  0.00     0.000 HD 
HETATM    9  O   UNL     1     -10.066  14.735  65.537  1.00  0.00    -0.337 OA 
ENDROOT
BRANCH   3  10
HETATM   10  S   UNL     1     -11.093  10.837  68.351  1.00  0.00    -0.288 S  
HETATM   11  O   UNL     1     -10.987   9.985  67.186  1.00  0.00    -0.226 OA 
HETATM   12  O   UNL     1     -12.383  11.097  68.973  1.00  0.00    -0.479 OA 
BRANCH  10  13
HETATM   13  C   UNL     1     -10.028  10.126  69.582  1.00  0.00    -0.232 A  
HETATM   14  C   UNL     1     -10.616   9.449  70.657  1.00  0.00    -0.354 A  
HETATM   15  C   UNL     1      -8.640  10.243  69.474  1.00  0.00    -0.153 A  
HETATM   16  F   UNL     1      -7.638   8.344  72.403  1.00  0.00    -0.125 F  
HETATM   17  C   UNL     1      -9.800   8.844  71.612  1.00  0.00    -0.387 A  
HETATM   18  C   UNL     1      -7.831   9.640  70.440  1.00  0.00    -0.181 A  
HETATM   19  C   UNL     1      -8.418   8.938  71.491  1.00  0.00    -0.114 A  
ENDBRANCH  10  13
ENDBRANCH   3  10
BRANCH   6  20
HETATM   20  C   UNL     1      -9.251  16.569  67.585  1.00  0.00    -0.200 A  
HETATM   21  C   UNL     1      -6.462  18.460  69.386  1.00  0.00    -0.239 C  
HETATM   22  C   UNL     1      -7.527  18.128  68.369  1.00  0.00    -0.287 A  
HETATM   23  C   UNL     1      -7.241  20.301  67.219  1.00  0.00    -0.288 C  
HETATM   24  F   UNL     1      -6.255  17.473  70.300  1.00  0.00    -0.207 F  
HETATM   25  F   UNL     1      -5.251  18.686  68.812  1.00  0.00    -0.176 F  
HETATM   26  C   UNL     1      -8.862  18.655  66.414  1.00  0.00    -0.283 A  
HETATM   27  F   UNL     1      -6.762  19.573  70.106  1.00  0.00    -0.297 F  
HETATM   28  C   UNL     1      -8.217  16.907  68.466  1.00  0.00    -0.249 A  
HETATM   29  N   UNL     1      -6.745  21.346  67.123  1.00  0.00    -0.579 NA 
HETATM   30  C   UNL     1      -9.538  17.431  66.526  1.00  0.00    -0.292 A  
HETATM   31  C   UNL     1      -7.870  19.015  67.341  1.00  0.00    -0.263 A  
ENDBRANCH   6  20
TORSDOF 3
ENDMDL
MODEL       33
REMARK 921   NORMALIZED FREE ENERGY PREDICTED BY IDOCK:   -6.50 KCAL/MOL
REMARK 922        TOTAL FREE ENERGY PREDICTED BY IDOCK:   -8.25 KCAL/MOL
REMARK 923 INTER-LIGAND FREE ENERGY PREDICTED BY IDOCK:   -7.85 KCAL/MOL
REMARK 924 INTRA-LIGAND FREE ENERGY PREDICTED BY IDOCK:   -0.40 KCAL/MOL
REMARK 927      BINDING AFFINITY PREDICTED BY RF-SCORE:    0.00 PKD
ROOT
HETATM    1  C   UNL     1      -7.549  11.196  66.516  1.00  0.00    -0.135 C  
HETATM    2  C   UNL     1      -8.612  12.137  67.106  1.00  0.00    -0.185 C  
HETATM    3  C   UNL     1      -9.179  11.647  68.440  1.00  0.00    -0.182 C  
HETATM    4  O   UNL     1      -9.675  12.335  66.172  1.00  0.00    -0.239 OA 
HETATM    5  C   UNL     1      -7.925  13.514  67.333  1.00  0.00    -0.156 C  
HETATM    6  N   UNL     1      -8.767  14.543  67.735  1.00  0.00    -0.166 N  
HETATM    7  H   UNL     1     -10.332  12.916  66.536  1.00  0.00     0.000 HD 
HETATM    8  H   UNL     1      -9.762  14.339  67.831  1.00  0.00     0.000 HD 
HETATM    9  O   UNL     1      -6.703  13.630  67.238  1.00  0.00    -0.222 OA 
ENDROOT
BRANCH   3  10
HETATM   10  S   UNL     1      -9.802   9.982  68.359  1.00  0.00    -0.159 S  
HETATM   11  O   UNL     1      -8.748   9.062  68.729  1.00  0.00    -0.133 OA 
HETATM   12  O   UNL     1     -10.509   9.840  67.095  1.00  0.00    -0.243 OA 
BRANCH  10  13
HETATM   13  C   UNL     1     -11.002   9.909  69.666  1.00  0.00    -0.252 A  
HETATM   14  C   UNL     1     -11.106   8.726  70.407  1.00  0.00    -0.261 A  
HETATM   15  C   UNL     1     -11.819  11.009  69.943  1.00  0.00    -0.431 A  
HETATM   16  F   UNL     1     -13.662   9.700  72.785  1.00  0.00    -0.400 F  
HETATM   17  C   UNL     1     -12.009   8.661  71.467  1.00  0.00    -0.362 A  
HETATM   18  C   UNL     1     -12.728  10.930  71.001  1.00  0.00    -0.505 A  
HETATM   19  C   UNL     1     -12.805   9.763  71.758  1.00  0.00    -0.434 A  
ENDBRANCH  10  13
ENDBRANCH   3  10
BRANCH   6  20
HETATM   20  C   UNL     1      -8.327  15.859  68.019  1.00  0.00    -0.160 A  
HETATM   21  C   UNL     1      -8.861  19.414  66.725  1.00  0.00    -0.327 C  
HETATM   22  C   UNL     1      -8.314  18.264  67.535  1.00  0.00    -0.247 A  
HETATM   23  C   UNL     1      -6.673  19.724  68.676  1.00  0.00    -0.306 C  
HETATM   24  F   UNL     1      -9.870  19.057  65.883  1.00  0.00    -0.362 F  
HETATM   25  F   UNL     1      -9.371  20.402  67.507  1.00  0.00    -0.440 F  
HETATM   26  C   UNL     1      -6.814  17.338  69.201  1.00  0.00    -0.234 A  
HETATM   27  F   UNL     1      -7.913  19.992  65.940  1.00  0.00    -0.327 F  
HETATM   28  C   UNL     1      -8.832  16.972  67.336  1.00  0.00    -0.210 A  
HETATM   29  N   UNL     1      -6.168  20.755  68.841  1.00  0.00    -0.282 NA 
HETATM   30  C   UNL     1      -7.346  16.057  68.990  1.00  0.00    -0.191 A  
HETATM   31  C   UNL     1      -7.282  18.439  68.466  1.00  0.00    -0.298 A  
ENDBRANCH   6  20
TORSDOF 3
ENDMDL
MODEL       34
REMARK 921   NORMALIZED FREE ENERGY PREDICTED BY IDOCK:   -6.48 KCAL/MOL
REMARK 922        TOTAL FREE ENERGY PREDICTED BY IDOCK:   -8.24 KCAL/MOL
REMARK 923 INTER-LIGAND FREE ENERGY PREDICTED BY IDOCK:   -7.81 KCAL/MOL
REMARK 924 INTRA-LIGAND FREE ENERGY PREDICTED BY IDOCK:   -0.42 KCAL/MOL
REMARK 927      BINDING AFFINITY PREDICTED BY RF-SCORE:    0.00 PKD
ROOT
HETATM    1  C   UNL     1      -6.402   9.799  70.393  1.00  0.00    -0.093 C  
HETATM    2  C   UNL     1      -7.798   9.309  69.973  1.00  0.00    -0.116 C  
HETATM    3  C   UNL     1      -8.739   9.082  71.158  1.00  0.00    -0.203 C  
HETATM    4  O   UNL     1      -7.693   8.112  69.201  1.00  0.00    -0.094 OA 
HETATM    5  C   UNL     1      -8.408  10.408  69.056  1.00  0.00    -0.150 C  
HETATM    6  N   UNL     1      -9.620  10.082  68.460  1.00  0.00    -0.148 N  
HETATM    7  H   UNL     1      -8.555   7.810  68.941  1.00  0.00     0.000 HD 
HETATM    8  H   UNL     1     -10.011   9.158  68.640  1.00  0.00     0.000 HD 
HETATM    9  O   UNL     1      -7.871  11.511  68.955  1.00  0.00    -0.131 OA 
ENDROOT
BRANCH   3  10
HETATM   10  S   UNL     1      -8.051   8.003  72.394  1.00  0.00    -0.143 S  
HETATM   11  O   UNL     1      -7.850   8.749  73.617  1.00  0.00    -0.411 OA 
HETATM   12  O   UNL     1      -6.955   7.272  71.775  1.00  0.00    -0.058 OA 
BRANCH  10  13
HETATM   13  C   UNL     1      -9.356   6.846  72.729  1.00  0.00    -0.135 A  
HETATM   14  C   UNL     1     -10.511   6.901  71.940  1.00  0.00    -0.224 A  
HETATM   15  C   UNL     1      -9.227   5.906  73.755  1.00  0.00    -0.127 A  
HETATM   16  F   UNL     1     -12.366   4.127  73.352  1.00  0.00    -0.190 F  
HETATM   17  C   UNL     1     -11.530   5.975  72.154  1.00  0.00    -0.356 A  
HETATM   18  C   UNL     1     -10.257   4.987  73.967  1.00  0.00    -0.265 A  
HETATM   19  C   UNL     1     -11.391   5.023  73.159  1.00  0.00    -0.321 A  
ENDBRANCH  10  13
ENDBRANCH   3  10
BRANCH   6  20
HETATM   20  C   UNL     1     -10.346  10.959  67.615  1.00  0.00    -0.197 A  
HETATM   21  C   UNL     1     -10.883  11.571  63.883  1.00  0.00    -0.401 C  
HETATM   22  C   UNL     1     -10.969  11.751  65.379  1.00  0.00    -0.352 A  
HETATM   23  C   UNL     1     -12.243  13.860  65.149  1.00  0.00    -0.427 C  
HETATM   24  F   UNL     1     -10.213  10.447  63.506  1.00  0.00    -0.351 F  
HETATM   25  F   UNL     1     -12.109  11.478  63.302  1.00  0.00    -0.549 F  
HETATM   26  C   UNL     1     -11.692  12.958  67.355  1.00  0.00    -0.428 A  
HETATM   27  F   UNL     1     -10.243  12.604  63.273  1.00  0.00    -0.357 F  
HETATM   28  C   UNL     1     -10.346  10.815  66.224  1.00  0.00    -0.303 A  
HETATM   29  N   UNL     1     -12.727  14.693  64.502  1.00  0.00    -0.559 NA 
HETATM   30  C   UNL     1     -11.065  12.012  68.181  1.00  0.00    -0.294 A  
HETATM   31  C   UNL     1     -11.632  12.841  65.957  1.00  0.00    -0.432 A  
ENDBRANCH   6  20
TORSDOF 3
ENDMDL
MODEL       35
REMARK 921   NORMALIZED FREE ENERGY PREDICTED BY IDOCK:   -6.48 KCAL/MOL
REMARK 922        TOTAL FREE ENERGY PREDICTED BY IDOCK:   -8.24 KCAL/MOL
REMARK 923 INTER-LIGAND FREE ENERGY PREDICTED BY IDOCK:   -7.97 KCAL/MOL
REMARK 924 INTRA-LIGAND FREE ENERGY PREDICTED BY IDOCK:   -0.26 KCAL/MOL
REMARK 927      BINDING AFFINITY PREDICTED BY RF-SCORE:    0.00 PKD
ROOT
HETATM    1  C   UNL     1     -11.618  12.765  64.931  1.00  0.00    -0.369 C  
HETATM    2  C   UNL     1     -10.627  12.967  66.089  1.00  0.00    -0.277 C  
HETATM    3  C   UNL     1     -10.712  14.359  66.720  1.00  0.00    -0.292 C  
HETATM    4  O   UNL     1      -9.291  12.717  65.649  1.00  0.00    -0.450 OA 
HETATM    5  C   UNL     1     -10.971  11.907  67.173  1.00  0.00    -0.269 C  
HETATM    6  N   UNL     1     -10.089  11.841  68.245  1.00  0.00    -0.192 N  
HETATM    7  H   UNL     1      -8.679  12.842  66.364  1.00  0.00     0.000 HD 
HETATM    8  H   UNL     1      -9.281  12.462  68.240  1.00  0.00     0.000 HD 
HETATM    9  O   UNL     1     -12.007  11.247  67.101  1.00  0.00    -0.470 OA 
ENDROOT
BRANCH   3  10
HETATM   10  S   UNL     1     -10.552  15.671  65.530  1.00  0.00    -0.423 S  
HETATM   11  O   UNL     1     -11.759  15.743  64.736  1.00  0.00    -0.212 OA 
HETATM   12  O   UNL     1      -9.248  15.532  64.898  1.00  0.00     0.530 OA 
BRANCH  10  13
HETATM   13  C   UNL     1     -10.522  17.146  66.519  1.00  0.00    -0.255 A  
HETATM   14  C   UNL     1     -10.308  17.018  67.896  1.00  0.00    -0.338 A  
HETATM   15  C   UNL     1     -10.709  18.401  65.931  1.00  0.00    -0.209 A  
HETATM   16  F   UNL     1     -10.313  20.512  68.858  1.00  0.00    -0.442 F  
HETATM   17  C   UNL     1     -10.235  18.164  68.686  1.00  0.00    -0.382 A  
HETATM   18  C   UNL     1     -10.644  19.542  66.733  1.00  0.00    -0.597 A  
HETATM   19  C   UNL     1     -10.396  19.414  68.097  1.00  0.00    -0.415 A  
ENDBRANCH  10  13
ENDBRANCH   3  10
BRANCH   6  20
HETATM   20  C   UNL     1     -10.246  10.961  69.345  1.00  0.00    -0.122 A  
HETATM   21  C   UNL     1      -8.404   8.042  70.981  1.00  0.00    -0.116 C  
HETATM   22  C   UNL     1      -9.474   9.070  70.702  1.00  0.00    -0.286 A  
HETATM   23  C   UNL     1     -10.974   8.116  72.424  1.00  0.00    -0.345 C  
HETATM   24  F   UNL     1      -7.294   8.185  70.206  1.00  0.00    -0.055 F  
HETATM   25  F   UNL     1      -7.961   8.092  72.266  1.00  0.00    -0.112 F  
HETATM   26  C   UNL     1     -11.641  10.075  71.118  1.00  0.00    -0.460 A  
HETATM   27  F   UNL     1      -8.839   6.771  70.772  1.00  0.00    -0.143 F  
HETATM   28  C   UNL     1      -9.269  10.020  69.685  1.00  0.00    -0.236 A  
HETATM   29  N   UNL     1     -11.222   7.324  73.234  1.00  0.00    -0.239 NA 
HETATM   30  C   UNL     1     -11.417  11.015  70.101  1.00  0.00    -0.383 A  
HETATM   31  C   UNL     1     -10.682   9.092  71.410  1.00  0.00    -0.414 A  
ENDBRANCH   6  20
TORSDOF 3
ENDMDL
MODEL       36
REMARK 921   NORMALIZED FREE ENERGY PREDICTED BY IDOCK:   -6.42 KCAL/MOL
REMARK 922        TOTAL FREE ENERGY PREDICTED BY IDOCK:   -8.16 KCAL/MOL
REMARK 923 INTER-LIGAND FREE ENERGY PREDICTED BY IDOCK:   -7.67 KCAL/MOL
REMARK 924 INTRA-LIGAND FREE ENERGY PREDICTED BY IDOCK:   -0.49 KCAL/MOL
REMARK 927      BINDING AFFINITY PREDICTED BY RF-SCORE:    0.00 PKD
ROOT
HETATM    1  C   UNL     1     -11.214  12.452  66.496  1.00  0.00    -0.368 C  
HETATM    2  C   UNL     1     -11.154  13.307  67.773  1.00  0.00    -0.265 C  
HETATM    3  C   UNL     1     -10.507  12.582  68.955  1.00  0.00    -0.080 C  
HETATM    4  O   UNL     1     -12.463  13.751  68.135  1.00  0.00    -0.372 OA 
HETATM    5  C   UNL     1     -10.308  14.567  67.436  1.00  0.00    -0.252 C  
HETATM    6  N   UNL     1     -10.256  15.535  68.432  1.00  0.00    -0.213 N  
HETATM    7  H   UNL     1     -12.426  14.279  68.924  1.00  0.00     0.000 HD 
HETATM    8  H   UNL     1     -10.782  15.370  69.290  1.00  0.00     0.000 HD 
HETATM    9  O   UNL     1      -9.669  14.634  66.386  1.00  0.00    -0.267 OA 
ENDROOT
BRANCH   3  10
HETATM   10  S   UNL     1     -11.258  11.007  69.299  1.00  0.00    -0.282 S  
HETATM   11  O   UNL     1     -12.505  10.906  68.572  1.00  0.00    -0.375 OA 
HETATM   12  O   UNL     1     -11.214  10.806  70.739  1.00  0.00    -0.174 OA 
BRANCH  10  13
HETATM   13  C   UNL     1     -10.154   9.833  68.552  1.00  0.00    -0.166 A  
HETATM   14  C   UNL     1     -10.679   8.609  68.120  1.00  0.00    -0.116 A  
HETATM   15  C   UNL     1      -8.796  10.129  68.403  1.00  0.00    -0.123 A  
HETATM   16  F   UNL     1      -7.697   7.116  66.701  1.00  0.00    -0.089 F  
HETATM   17  C   UNL     1      -9.841   7.691  67.490  1.00  0.00    -0.214 A  
HETATM   18  C   UNL     1      -7.963   9.198  67.778  1.00  0.00    -0.101 A  
HETATM   19  C   UNL     1      -8.495   7.996  67.318  1.00  0.00    -0.125 A  
ENDBRANCH  10  13
ENDBRANCH   3  10
BRANCH   6  20
HETATM   20  C   UNL     1      -9.515  16.738  68.327  1.00  0.00    -0.240 A  
HETATM   21  C   UNL     1      -9.827  20.175  66.689  1.00  0.00    -0.456 C  
HETATM   22  C   UNL     1      -9.243  19.017  67.461  1.00  0.00    -0.325 A  
HETATM   23  C   UNL     1      -7.071  20.170  67.735  1.00  0.00    -0.295 C  
HETATM   24  F   UNL     1     -11.116  19.976  66.297  1.00  0.00    -0.483 F  
HETATM   25  F   UNL     1      -9.840  21.326  67.414  1.00  0.00    -0.618 F  
HETATM   26  C   UNL     1      -7.442  17.943  68.679  1.00  0.00    -0.280 A  
HETATM   27  F   UNL     1      -9.133  20.443  65.552  1.00  0.00    -0.199 F  
HETATM   28  C   UNL     1     -10.021  17.864  67.667  1.00  0.00    -0.324 A  
HETATM   29  N   UNL     1      -6.364  21.071  67.548  1.00  0.00    -0.322 NA 
HETATM   30  C   UNL     1      -8.234  16.802  68.876  1.00  0.00    -0.224 A  
HETATM   31  C   UNL     1      -7.935  19.044  67.959  1.00  0.00    -0.322 A  
ENDBRANCH   6  20
TORSDOF 3
ENDMDL
MODEL       37
REMARK 921   NORMALIZED FREE ENERGY PREDICTED BY IDOCK:   -6.37 KCAL/MOL
REMARK 922        TOTAL FREE ENERGY PREDICTED BY IDOCK:   -8.10 KCAL/MOL
REMARK 923 INTER-LIGAND FREE ENERGY PREDICTED BY IDOCK:   -8.96 KCAL/MOL
REMARK 924 INTRA-LIGAND FREE ENERGY PREDICTED BY IDOCK:    0.86 KCAL/MOL
REMARK 927      BINDING AFFINITY PREDICTED BY RF-SCORE:    0.00 PKD
ROOT
HETATM    1  C   UNL     1     -12.213  11.886  70.785  1.00  0.00    -0.401 C  
HETATM    2  C   UNL     1     -11.710  10.876  69.740  1.00  0.00    -0.338 C  
HETATM    3  C   UNL     1     -10.405  11.305  69.066  1.00  0.00    -0.166 C  
HETATM    4  O   UNL     1     -12.713  10.644  68.750  1.00  0.00    -0.530 OA 
HETATM    5  C   UNL     1     -11.467   9.533  70.486  1.00  0.00    -0.276 C  
HETATM    6  N   UNL     1     -11.139   8.452  69.677  1.00  0.00    -0.439 N  
HETATM    7  H   UNL     1     -12.402  10.020  68.104  1.00  0.00     0.000 HD 
HETATM    8  H   UNL     1     -11.102   8.600  68.669  1.00  0.00     0.000 HD 
HETATM    9  O   UNL     1     -11.487   9.484  71.716  1.00  0.00    -0.384 OA 
ENDROOT
BRANCH   3  10
HETATM   10  S   UNL     1     -10.492  12.935  68.360  1.00  0.00    -0.247 S  
HETATM   11  O   UNL     1      -9.152  13.456  68.198  1.00  0.00    -0.197 OA 
HETATM   12  O   UNL     1     -11.499  13.680  69.101  1.00  0.00    -0.261 OA 
BRANCH  10  13
HETATM   13  C   UNL     1     -11.117  12.660  66.720  1.00  0.00    -0.277 A  
HETATM   14  C   UNL     1     -10.565  11.617  65.966  1.00  0.00    -0.303 A  
HETATM   15  C   UNL     1     -12.134  13.466  66.201  1.00  0.00    -0.481 A  
HETATM   16  F   UNL     1     -12.589  11.872  62.970  1.00  0.00    -0.630 F  
HETATM   17  C   UNL     1     -11.070  11.353  64.694  1.00  0.00    -0.277 A  
HETATM   18  C   UNL     1     -12.627  13.198  64.922  1.00  0.00    -0.468 A  
HETATM   19  C   UNL     1     -12.099  12.139  64.188  1.00  0.00    -0.409 A  
ENDBRANCH  10  13
ENDBRANCH   3  10
BRANCH   6  20
HETATM   20  C   UNL     1     -10.854   7.154  70.170  1.00  0.00    -0.257 A  
HETATM   21  C   UNL     1     -10.374   5.391  73.525  1.00  0.00    -0.224 C  
HETATM   22  C   UNL     1     -10.434   5.615  72.033  1.00  0.00    -0.270 A  
HETATM   23  C   UNL     1      -9.616   3.328  71.560  1.00  0.00    -0.164 C  
HETATM   24  F   UNL     1     -10.769   6.470  74.255  1.00  0.00    -0.307 F  
HETATM   25  F   UNL     1     -11.173   4.367  73.927  1.00  0.00    -0.317 F  
HETATM   26  C   UNL     1     -10.163   4.871  69.741  1.00  0.00    -0.284 A  
HETATM   27  F   UNL     1      -9.119   5.094  73.954  1.00  0.00    -0.119 F  
HETATM   28  C   UNL     1     -10.831   6.871  71.540  1.00  0.00    -0.257 A  
HETATM   29  N   UNL     1      -9.228   2.292  71.909  1.00  0.00    -0.085 NA 
HETATM   30  C   UNL     1     -10.563   6.129  69.269  1.00  0.00    -0.348 A  
HETATM   31  C   UNL     1     -10.081   4.615  71.120  1.00  0.00    -0.243 A  
ENDBRANCH   6  20
TORSDOF 3
ENDMDL
MODEL       38
REMARK 921   NORMALIZED FREE ENERGY PREDICTED BY IDOCK:   -6.36 KCAL/MOL
REMARK 922        TOTAL FREE ENERGY PREDICTED BY IDOCK:   -8.09 KCAL/MOL
REMARK 923 INTER-LIGAND FREE ENERGY PREDICTED BY IDOCK:   -7.81 KCAL/MOL
REMARK 924 INTRA-LIGAND FREE ENERGY PREDICTED BY IDOCK:   -0.27 KCAL/MOL
REMARK 927      BINDING AFFINITY PREDICTED BY RF-SCORE:    0.00 PKD
ROOT
HETATM    1  C   UNL     1      -8.077   8.033  68.433  1.00  0.00    -0.122 C  
HETATM    2  C   UNL     1      -9.508   8.445  68.049  1.00  0.00    -0.143 C  
HETATM    3  C   UNL     1     -10.505   7.285  68.098  1.00  0.00    -0.198 C  
HETATM    4  O   UNL     1      -9.522   9.041  66.751  1.00  0.00    -0.158 OA 
HETATM    5  C   UNL     1      -9.957   9.531  69.069  1.00  0.00    -0.180 C  
HETATM    6  N   UNL     1     -11.180  10.132  68.801  1.00  0.00    -0.412 N  
HETATM    7  H   UNL     1     -10.406   9.296  66.514  1.00  0.00     0.000 HD 
HETATM    8  H   UNL     1     -11.683   9.845  67.961  1.00  0.00     0.000 HD 
HETATM    9  O   UNL     1      -9.292   9.757  70.079  1.00  0.00    -0.225 OA 
ENDROOT
BRANCH   3  10
HETATM   10  S   UNL     1      -9.984   5.883  67.134  1.00  0.00    -0.179 S  
HETATM   11  O   UNL     1      -8.676   6.148  66.577  1.00  0.00    -0.124 OA 
HETATM   12  O   UNL     1     -11.098   5.503  66.278  1.00  0.00    -0.129 OA 
BRANCH  10  13
HETATM   13  C   UNL     1      -9.758   4.596  68.336  1.00  0.00    -0.134 A  
HETATM   14  C   UNL     1      -9.398   3.321  67.885  1.00  0.00    -0.246 A  
HETATM   15  C   UNL     1      -9.937   4.856  69.698  1.00  0.00    -0.302 A  
HETATM   16  F   UNL     1      -9.092   1.596  71.058  1.00  0.00    -0.098 F  
HETATM   17  C   UNL     1      -9.170   2.306  68.813  1.00  0.00    -0.222 A  
HETATM   18  C   UNL     1      -9.716   3.830  70.620  1.00  0.00    -0.235 A  
HETATM   19  C   UNL     1      -9.324   2.571  70.169  1.00  0.00    -0.117 A  
ENDBRANCH  10  13
ENDBRANCH   3  10
BRANCH   6  20
HETATM   20  C   UNL     1     -11.773  11.120  69.626  1.00  0.00    -0.339 A  
HETATM   21  C   UNL     1     -11.787  14.921  70.004  1.00  0.00    -0.307 C  
HETATM   22  C   UNL     1     -12.074  13.465  70.278  1.00  0.00    -0.419 A  
HETATM   23  C   UNL     1     -13.277  13.998  72.375  1.00  0.00    -0.488 C  
HETATM   24  F   UNL     1     -11.087  15.133  68.856  1.00  0.00    -0.231 F  
HETATM   25  F   UNL     1     -12.923  15.659  69.880  1.00  0.00    -0.274 F  
HETATM   26  C   UNL     1     -13.045  11.685  71.610  1.00  0.00    -0.456 A  
HETATM   27  F   UNL     1     -11.057  15.501  70.994  1.00  0.00    -0.322 F  
HETATM   28  C   UNL     1     -11.584  12.487  69.395  1.00  0.00    -0.368 A  
HETATM   29  N   UNL     1     -13.657  14.756  73.167  1.00  0.00    -0.523 NA 
HETATM   30  C   UNL     1     -12.549  10.725  70.716  1.00  0.00    -0.476 A  
HETATM   31  C   UNL     1     -12.796  13.052  71.405  1.00  0.00    -0.385 A  
ENDBRANCH   6  20
TORSDOF 3
ENDMDL
MODEL       39
REMARK 921   NORMALIZED FREE ENERGY PREDICTED BY IDOCK:   -6.34 KCAL/MOL
REMARK 922        TOTAL FREE ENERGY PREDICTED BY IDOCK:   -8.07 KCAL/MOL
REMARK 923 INTER-LIGAND FREE ENERGY PREDICTED BY IDOCK:   -7.40 KCAL/MOL
REMARK 924 INTRA-LIGAND FREE ENERGY PREDICTED BY IDOCK:   -0.67 KCAL/MOL
REMARK 927      BINDING AFFINITY PREDICTED BY RF-SCORE:    0.00 PKD
ROOT
HETATM    1  C   UNL     1     -10.336  12.951  64.673  1.00  0.00    -0.366 C  
HETATM    2  C   UNL     1      -9.974  12.209  65.970  1.00  0.00    -0.236 C  
HETATM    3  C   UNL     1     -10.973  12.453  67.104  1.00  0.00    -0.262 C  
HETATM    4  O   UNL     1      -8.659  12.567  66.397  1.00  0.00    -0.409 OA 
HETATM    5  C   UNL     1      -9.961  10.690  65.636  1.00  0.00    -0.268 C  
HETATM    6  N   UNL     1      -9.516   9.858  66.656  1.00  0.00    -0.166 N  
HETATM    7  H   UNL     1      -8.436  12.109  67.199  1.00  0.00     0.000 HD 
HETATM    8  H   UNL     1      -9.213  10.289  67.529  1.00  0.00     0.000 HD 
HETATM    9  O   UNL     1     -10.403  10.278  64.563  1.00  0.00    -0.255 OA 
ENDROOT
BRANCH   3  10
HETATM   10  S   UNL     1     -11.240  14.181  67.432  1.00  0.00    -0.333 S  
HETATM   11  O   UNL     1     -12.302  14.669  66.579  1.00  0.00    -0.265 OA 
HETATM   12  O   UNL     1      -9.938  14.830  67.450  1.00  0.00    -0.223 OA 
BRANCH  10  13
HETATM   13  C   UNL     1     -11.884  14.208  69.087  1.00  0.00    -0.341 A  
HETATM   14  C   UNL     1     -11.982  12.996  69.782  1.00  0.00    -0.377 A  
HETATM   15  C   UNL     1     -12.280  15.412  69.677  1.00  0.00    -0.312 A  
HETATM   16  F   UNL     1     -13.241  14.197  72.961  1.00  0.00    -0.543 F  
HETATM   17  C   UNL     1     -12.442  12.998  71.097  1.00  0.00    -0.364 A  
HETATM   18  C   UNL     1     -12.747  15.402  70.993  1.00  0.00    -0.510 A  
HETATM   19  C   UNL     1     -12.812  14.199  71.693  1.00  0.00    -0.349 A  
ENDBRANCH  10  13
ENDBRANCH   3  10
BRANCH   6  20
HETATM   20  C   UNL     1      -9.458   8.446  66.556  1.00  0.00    -0.220 A  
HETATM   21  C   UNL     1      -7.285   5.764  64.920  1.00  0.00    -0.066 C  
HETATM   22  C   UNL     1      -8.414   6.401  65.693  1.00  0.00    -0.147 A  
HETATM   23  C   UNL     1      -9.570   4.232  65.980  1.00  0.00    -0.192 C  
HETATM   24  F   UNL     1      -6.329   6.648  64.522  1.00  0.00    -0.035 F  
HETATM   25  F   UNL     1      -6.629   4.819  65.646  1.00  0.00    -0.037 F  
HETATM   26  C   UNL     1     -10.504   6.289  66.919  1.00  0.00    -0.337 A  
HETATM   27  F   UNL     1      -7.715   5.150  63.786  1.00  0.00    -0.062 F  
HETATM   28  C   UNL     1      -8.412   7.793  65.894  1.00  0.00    -0.151 A  
HETATM   29  N   UNL     1      -9.653   3.089  65.797  1.00  0.00    -0.009 NA 
HETATM   30  C   UNL     1     -10.483   7.679  67.111  1.00  0.00    -0.412 A  
HETATM   31  C   UNL     1      -9.482   5.650  66.198  1.00  0.00    -0.157 A  
ENDBRANCH   6  20
TORSDOF 3
ENDMDL
MODEL       40
REMARK 921   NORMALIZED FREE ENERGY PREDICTED BY IDOCK:   -6.32 KCAL/MOL
REMARK 922        TOTAL FREE ENERGY PREDICTED BY IDOCK:   -8.05 KCAL/MOL
REMARK 923 INTER-LIGAND FREE ENERGY PREDICTED BY IDOCK:   -7.54 KCAL/MOL
REMARK 924 INTRA-LIGAND FREE ENERGY PREDICTED BY IDOCK:   -0.50 KCAL/MOL
REMARK 927      BINDING AFFINITY PREDICTED BY RF-SCORE:    0.00 PKD
ROOT
HETATM    1  C   UNL     1     -12.385  13.877  66.051  1.00  0.00    -0.511 C  
HETATM    2  C   UNL     1     -10.938  13.518  66.428  1.00  0.00    -0.293 C  
HETATM    3  C   UNL     1     -10.261  14.578  67.300  1.00  0.00    -0.255 C  
HETATM    4  O   UNL     1     -10.160  13.289  65.253  1.00  0.00    -0.383 OA 
HETATM    5  C   UNL     1     -10.994  12.181  67.222  1.00  0.00    -0.260 C  
HETATM    6  N   UNL     1      -9.761  11.620  67.532  1.00  0.00    -0.176 N  
HETATM    7  H   UNL     1      -9.266  13.068  65.485  1.00  0.00     0.000 HD 
HETATM    8  H   UNL     1      -8.921  12.098  67.208  1.00  0.00     0.000 HD 
HETATM    9  O   UNL     1     -12.069  11.724  67.609  1.00  0.00    -0.598 OA 
ENDROOT
BRANCH   3  10
HETATM   10  S   UNL     1     -10.331  16.208  66.589  1.00  0.00    -0.296 S  
HETATM   11  O   UNL     1     -11.389  16.960  67.227  1.00  0.00     0.128 OA 
HETATM   12  O   UNL     1     -10.287  16.056  65.143  1.00  0.00    -0.523 OA 
BRANCH  10  13
HETATM   13  C   UNL     1      -8.808  16.964  67.103  1.00  0.00    -0.206 A  
HETATM   14  C   UNL     1      -8.775  17.615  68.342  1.00  0.00    -0.284 A  
HETATM   15  C   UNL     1      -7.675  16.908  66.286  1.00  0.00    -0.332 A  
HETATM   16  F   UNL     1      -5.296  18.629  68.423  1.00  0.00    -0.172 F  
HETATM   17  C   UNL     1      -7.580  18.177  68.786  1.00  0.00    -0.285 A  
HETATM   18  C   UNL     1      -6.484  17.482  66.737  1.00  0.00    -0.234 A  
HETATM   19  C   UNL     1      -6.446  18.099  67.986  1.00  0.00    -0.189 A  
ENDBRANCH  10  13
ENDBRANCH   3  10
BRANCH   6  20
HETATM   20  C   UNL     1      -9.602  10.422  68.273  1.00  0.00    -0.144 A  
HETATM   21  C   UNL     1     -10.639   6.752  68.066  1.00  0.00    -0.231 C  
HETATM   22  C   UNL     1     -10.039   8.031  68.597  1.00  0.00    -0.212 A  
HETATM   23  C   UNL     1      -9.411   6.960  70.739  1.00  0.00    -0.165 C  
HETATM   24  F   UNL     1     -11.152   6.870  66.811  1.00  0.00    -0.432 F  
HETATM   25  F   UNL     1      -9.729   5.744  67.995  1.00  0.00    -0.114 F  
HETATM   26  C   UNL     1      -8.897   9.314  70.310  1.00  0.00    -0.254 A  
HETATM   27  F   UNL     1     -11.659   6.297  68.841  1.00  0.00    -0.438 F  
HETATM   28  C   UNL     1     -10.093   9.196  67.812  1.00  0.00    -0.253 A  
HETATM   29  N   UNL     1      -9.388   6.046  71.453  1.00  0.00    -0.146 NA 
HETATM   30  C   UNL     1      -8.958  10.465  69.510  1.00  0.00    -0.127 A  
HETATM   31  C   UNL     1      -9.449   8.101  69.866  1.00  0.00    -0.160 A  
ENDBRANCH   6  20
TORSDOF 3
ENDMDL
MODEL       41
REMARK 921   NORMALIZED FREE ENERGY PREDICTED BY IDOCK:   -6.31 KCAL/MOL
REMARK 922        TOTAL FREE ENERGY PREDICTED BY IDOCK:   -8.03 KCAL/MOL
REMARK 923 INTER-LIGAND FREE ENERGY PREDICTED BY IDOCK:   -7.36 KCAL/MOL
REMARK 924 INTRA-LIGAND FREE ENERGY PREDICTED BY IDOCK:   -0.67 KCAL/MOL
REMARK 927      BINDING AFFINITY PREDICTED BY RF-SCORE:    0.00 PKD
ROOT
HETATM    1  C   UNL     1      -9.373  10.410  67.124  1.00  0.00    -0.177 C  
HETATM    2  C   UNL     1      -9.403  10.469  68.660  1.00  0.00    -0.172 C  
HETATM    3  C   UNL     1     -10.719  11.016  69.217  1.00  0.00    -0.222 C  
HETATM    4  O   UNL     1      -8.309  11.247  69.149  1.00  0.00    -0.355 OA 
HETATM    5  C   UNL     1      -9.210   9.014  69.175  1.00  0.00    -0.144 C  
HETATM    6  N   UNL     1      -9.070   8.881  70.551  1.00  0.00    -0.181 N  
HETATM    7  H   UNL     1      -8.328  11.284  70.098  1.00  0.00     0.000 HD 
HETATM    8  H   UNL     1      -9.080   9.728  71.118  1.00  0.00     0.000 HD 
HETATM    9  O   UNL     1      -9.270   8.060  68.399  1.00  0.00    -0.136 OA 
ENDROOT
BRANCH   3  10
HETATM   10  S   UNL     1     -11.160  12.596  68.528  1.00  0.00    -0.284 S  
HETATM   11  O   UNL     1     -12.097  12.396  67.443  1.00  0.00    -0.505 OA 
HETATM   12  O   UNL     1      -9.929  13.344  68.324  1.00  0.00    -0.231 OA 
BRANCH  10  13
HETATM   13  C   UNL     1     -12.072  13.391  69.828  1.00  0.00    -0.310 A  
HETATM   14  C   UNL     1     -12.585  12.598  70.861  1.00  0.00    -0.338 A  
HETATM   15  C   UNL     1     -12.269  14.775  69.814  1.00  0.00    -0.337 A  
HETATM   16  F   UNL     1     -14.081  15.165  72.937  1.00  0.00    -0.497 F  
HETATM   17  C   UNL     1     -13.264  13.205  71.916  1.00  0.00    -0.526 A  
HETATM   18  C   UNL     1     -12.959  15.373  70.871  1.00  0.00    -0.539 A  
HETATM   19  C   UNL     1     -13.439  14.585  71.915  1.00  0.00    -0.378 A  
ENDBRANCH  10  13
ENDBRANCH   3  10
BRANCH   6  20
HETATM   20  C   UNL     1      -8.914   7.638  71.213  1.00  0.00    -0.133 A  
HETATM   21  C   UNL     1     -11.076   5.019  72.963  1.00  0.00    -0.308 C  
HETATM   22  C   UNL     1      -9.853   5.732  72.438  1.00  0.00    -0.186 A  
HETATM   23  C   UNL     1      -8.327   4.111  73.519  1.00  0.00    -0.089 C  
HETATM   24  F   UNL     1     -12.249   5.601  72.590  1.00  0.00    -0.338 F  
HETATM   25  F   UNL     1     -11.152   3.733  72.528  1.00  0.00    -0.111 F  
HETATM   26  C   UNL     1      -7.452   5.967  72.186  1.00  0.00    -0.095 A  
HETATM   27  F   UNL     1     -11.104   4.971  74.321  1.00  0.00    -0.311 F  
HETATM   28  C   UNL     1     -10.011   6.906  71.680  1.00  0.00    -0.180 A  
HETATM   29  N   UNL     1      -8.134   3.181  74.185  1.00  0.00    -0.069 NA 
HETATM   30  C   UNL     1      -7.631   7.135  71.429  1.00  0.00    -0.088 A  
HETATM   31  C   UNL     1      -8.557   5.273  72.705  1.00  0.00    -0.120 A  
ENDBRANCH   6  20
TORSDOF 3
ENDMDL
MODEL       42
REMARK 921   NORMALIZED FREE ENERGY PREDICTED BY IDOCK:   -6.25 KCAL/MOL
REMARK 922        TOTAL FREE ENERGY PREDICTED BY IDOCK:   -7.97 KCAL/MOL
REMARK 923 INTER-LIGAND FREE ENERGY PREDICTED BY IDOCK:   -7.32 KCAL/MOL
REMARK 924 INTRA-LIGAND FREE ENERGY PREDICTED BY IDOCK:   -0.65 KCAL/MOL
REMARK 927      BINDING AFFINITY PREDICTED BY RF-SCORE:    0.00 PKD
ROOT
HETATM    1  C   UNL     1     -10.180  11.626  66.985  1.00  0.00    -0.240 C  
HETATM    2  C   UNL     1     -10.083  11.455  68.510  1.00  0.00    -0.206 C  
HETATM    3  C   UNL     1     -11.239  12.114  69.266  1.00  0.00    -0.226 C  
HETATM    4  O   UNL     1      -8.838  11.966  68.990  1.00  0.00    -0.375 OA 
HETATM    5  C   UNL     1     -10.105   9.927  68.799  1.00  0.00    -0.174 C  
HETATM    6  N   UNL     1      -9.886   9.567  70.123  1.00  0.00    -0.228 N  
HETATM    7  H   UNL     1      -8.778  11.861  69.931  1.00  0.00     0.000 HD 
HETATM    8  H   UNL     1      -9.707  10.308  70.799  1.00  0.00     0.000 HD 
HETATM    9  O   UNL     1     -10.386   9.123  67.911  1.00  0.00    -0.207 OA 
ENDROOT
BRANCH   3  10
HETATM   10  S   UNL     1     -11.454  13.829  68.847  1.00  0.00    -0.328 S  
HETATM   11  O   UNL     1     -12.467  13.945  67.820  1.00  0.00    -0.133 OA 
HETATM   12  O   UNL     1     -10.130  14.403  68.659  1.00  0.00    -0.233 OA 
BRANCH  10  13
HETATM   13  C   UNL     1     -12.153  14.545  70.314  1.00  0.00    -0.323 A  
HETATM   14  C   UNL     1     -11.434  15.551  70.971  1.00  0.00    -0.426 A  
HETATM   15  C   UNL     1     -13.392  14.111  70.796  1.00  0.00    -0.130 A  
HETATM   16  F   UNL     1     -13.756  16.341  73.638  1.00  0.00    -0.590 F  
HETATM   17  C   UNL     1     -11.983  16.159  72.098  1.00  0.00    -0.623 A  
HETATM   18  C   UNL     1     -13.929  14.721  71.932  1.00  0.00    -0.577 A  
HETATM   19  C   UNL     1     -13.227  15.745  72.563  1.00  0.00    -0.487 A  
ENDBRANCH  10  13
ENDBRANCH   3  10
BRANCH   6  20
HETATM   20  C   UNL     1      -9.896   8.229  70.590  1.00  0.00    -0.182 A  
HETATM   21  C   UNL     1      -7.451   5.337  71.091  1.00  0.00    -0.084 C  
HETATM   22  C   UNL     1      -8.746   6.112  71.049  1.00  0.00    -0.132 A  
HETATM   23  C   UNL     1     -10.075   4.109  71.638  1.00  0.00    -0.128 C  
HETATM   24  F   UNL     1      -6.354   6.092  70.809  1.00  0.00    -0.033 F  
HETATM   25  F   UNL     1      -7.214   4.790  72.313  1.00  0.00    -0.068 F  
HETATM   26  C   UNL     1     -11.154   6.276  71.283  1.00  0.00    -0.345 A  
HETATM   27  F   UNL     1      -7.433   4.311  70.199  1.00  0.00    -0.044 F  
HETATM   28  C   UNL     1      -8.723   7.473  70.698  1.00  0.00    -0.141 A  
HETATM   29  N   UNL     1     -10.161   2.977  71.879  1.00  0.00    -0.133 NA 
HETATM   30  C   UNL     1     -11.111   7.634  70.932  1.00  0.00    -0.275 A  
HETATM   31  C   UNL     1      -9.979   5.509  71.326  1.00  0.00    -0.249 A  
ENDBRANCH   6  20
TORSDOF 3
ENDMDL
MODEL       43
REMARK 921   NORMALIZED FREE ENERGY PREDICTED BY IDOCK:   -6.20 KCAL/MOL
REMARK 922        TOTAL FREE ENERGY PREDICTED BY IDOCK:   -7.91 KCAL/MOL
REMARK 923 INTER-LIGAND FREE ENERGY PREDICTED BY IDOCK:   -7.82 KCAL/MOL
REMARK 924 INTRA-LIGAND FREE ENERGY PREDICTED BY IDOCK:   -0.09 KCAL/MOL
REMARK 927      BINDING AFFINITY PREDICTED BY RF-SCORE:    0.00 PKD
ROOT
HETATM    1  C   UNL     1     -11.926  16.048  69.495  1.00  0.00    -0.194 C  
HETATM    2  C   UNL     1     -11.565  14.776  68.711  1.00  0.00    -0.320 C  
HETATM    3  C   UNL     1     -10.146  14.802  68.139  1.00  0.00    -0.221 C  
HETATM    4  O   UNL     1     -12.507  14.555  67.660  1.00  0.00    -0.595 OA 
HETATM    5  C   UNL     1     -11.680  13.583  69.703  1.00  0.00    -0.314 C  
HETATM    6  N   UNL     1     -11.525  12.322  69.140  1.00  0.00    -0.277 N  
HETATM    7  H   UNL     1     -12.284  13.769  67.176  1.00  0.00     0.000 HD 
HETATM    8  H   UNL     1     -11.371  12.261  68.134  1.00  0.00     0.000 HD 
HETATM    9  O   UNL     1     -11.814  13.780  70.910  1.00  0.00    -0.254 OA 
ENDROOT
BRANCH   3  10
HETATM   10  S   UNL     1      -9.822  16.249  67.155  1.00  0.00    -0.249 S  
HETATM   11  O   UNL     1     -10.970  17.128  67.209  1.00  0.00    -0.177 OA 
HETATM   12  O   UNL     1      -9.284  15.800  65.880  1.00  0.00    -0.340 OA 
BRANCH  10  13
HETATM   13  C   UNL     1      -8.521  17.081  68.032  1.00  0.00    -0.216 A  
HETATM   14  C   UNL     1      -8.507  18.480  68.029  1.00  0.00    -0.302 A  
HETATM   15  C   UNL     1      -7.538  16.350  68.707  1.00  0.00    -0.211 A  
HETATM   16  F   UNL     1      -5.623  19.083  70.140  1.00  0.00    -0.211 F  
HETATM   17  C   UNL     1      -7.522  19.156  68.748  1.00  0.00    -0.379 A  
HETATM   18  C   UNL     1      -6.550  17.037  69.417  1.00  0.00    -0.225 A  
HETATM   19  C   UNL     1      -6.559  18.430  69.440  1.00  0.00    -0.209 A  
ENDBRANCH  10  13
ENDBRANCH   3  10
BRANCH   6  20
HETATM   20  C   UNL     1     -11.567  11.115  69.882  1.00  0.00    -0.337 A  
HETATM   21  C   UNL     1      -9.281   8.170  70.717  1.00  0.00    -0.150 C  
HETATM   22  C   UNL     1     -10.514   9.039  70.654  1.00  0.00    -0.285 A  
HETATM   23  C   UNL     1     -11.891   7.333  71.803  1.00  0.00    -0.295 C  
HETATM   24  F   UNL     1      -8.180   8.745  70.160  1.00  0.00    -0.094 F  
HETATM   25  F   UNL     1      -8.927   7.866  71.995  1.00  0.00    -0.135 F  
HETATM   26  C   UNL     1     -12.856   9.473  71.113  1.00  0.00    -0.361 A  
HETATM   27  F   UNL     1      -9.448   6.986  70.070  1.00  0.00    -0.159 F  
HETATM   28  C   UNL     1     -10.444  10.291  70.019  1.00  0.00    -0.293 A  
HETATM   29  N   UNL     1     -12.023   6.288  72.289  1.00  0.00    -0.293 NA 
HETATM   30  C   UNL     1     -12.765  10.720  70.477  1.00  0.00    -0.388 A  
HETATM   31  C   UNL     1     -11.740   8.624  71.189  1.00  0.00    -0.334 A  
ENDBRANCH   6  20
TORSDOF 3
ENDMDL
MODEL       44
REMARK 921   NORMALIZED FREE ENERGY PREDICTED BY IDOCK:   -6.20 KCAL/MOL
REMARK 922        TOTAL FREE ENERGY PREDICTED BY IDOCK:   -7.90 KCAL/MOL
REMARK 923 INTER-LIGAND FREE ENERGY PREDICTED BY IDOCK:   -7.31 KCAL/MOL
REMARK 924 INTRA-LIGAND FREE ENERGY PREDICTED BY IDOCK:   -0.59 KCAL/MOL
REMARK 927      BINDING AFFINITY PREDICTED BY RF-SCORE:    0.00 PKD
ROOT
HETATM    1  C   UNL     1     -10.729  16.138  65.138  1.00  0.00    -0.391 C  
HETATM    2  C   UNL     1      -9.941  15.487  66.286  1.00  0.00    -0.293 C  
HETATM    3  C   UNL     1      -9.309  16.505  67.239  1.00  0.00    -0.222 C  
HETATM    4  O   UNL     1      -8.932  14.619  65.767  1.00  0.00    -0.419 OA 
HETATM    5  C   UNL     1     -10.946  14.611  67.088  1.00  0.00    -0.316 C  
HETATM    6  N   UNL     1     -10.388  13.828  68.090  1.00  0.00    -0.245 N  
HETATM    7  H   UNL     1      -8.445  14.216  66.476  1.00  0.00     0.000 HD 
HETATM    8  H   UNL     1      -9.377  13.860  68.218  1.00  0.00     0.000 HD 
HETATM    9  O   UNL     1     -12.156  14.695  66.881  1.00  0.00    -0.361 OA 
ENDROOT
BRANCH   3  10
HETATM   10  S   UNL     1      -8.301  17.707  66.399  1.00  0.00    -0.230 S  
HETATM   11  O   UNL     1      -9.156  18.711  65.803  1.00  0.00    -0.402 OA 
HETATM   12  O   UNL     1      -7.329  16.980  65.597  1.00  0.00    -0.054 OA 
BRANCH  10  13
HETATM   13  C   UNL     1      -7.424  18.521  67.711  1.00  0.00    -0.230 A  
HETATM   14  C   UNL     1      -6.971  17.749  68.787  1.00  0.00    -0.257 A  
HETATM   15  C   UNL     1      -7.194  19.899  67.664  1.00  0.00    -0.312 A  
HETATM   16  F   UNL     1      -5.277  20.302  70.722  1.00  0.00    -0.225 F  
HETATM   17  C   UNL     1      -6.241  18.358  69.806  1.00  0.00    -0.190 A  
HETATM   18  C   UNL     1      -6.469  20.502  68.695  1.00  0.00    -0.295 A  
HETATM   19  C   UNL     1      -5.990  19.724  69.747  1.00  0.00    -0.303 A  
ENDBRANCH  10  13
ENDBRANCH   3  10
BRANCH   6  20
HETATM   20  C   UNL     1     -11.140  12.986  68.947  1.00  0.00    -0.262 A  
HETATM   21  C   UNL     1     -13.042  13.206  72.253  1.00  0.00    -0.353 C  
HETATM   22  C   UNL     1     -12.425  12.623  71.005  1.00  0.00    -0.354 A  
HETATM   23  C   UNL     1     -13.054  10.319  71.654  1.00  0.00    -0.449 C  
HETATM   24  F   UNL     1     -12.929  14.560  72.336  1.00  0.00    -0.355 F  
HETATM   25  F   UNL     1     -14.373  12.944  72.343  1.00  0.00    -0.447 F  
HETATM   26  C   UNL     1     -11.874  10.758  69.556  1.00  0.00    -0.380 A  
HETATM   27  F   UNL     1     -12.474  12.718  73.388  1.00  0.00     1.531 F  
HETATM   28  C   UNL     1     -11.777  13.476  70.093  1.00  0.00    -0.280 A  
HETATM   29  N   UNL     1     -13.524   9.562  72.397  1.00  0.00    -0.440 NA 
HETATM   30  C   UNL     1     -11.234  11.625  68.657  1.00  0.00    -0.308 A  
HETATM   31  C   UNL     1     -12.455  11.249  70.736  1.00  0.00    -0.471 A  
ENDBRANCH   6  20
TORSDOF 3
ENDMDL
MODEL       45
REMARK 921   NORMALIZED FREE ENERGY PREDICTED BY IDOCK:   -6.16 KCAL/MOL
REMARK 922        TOTAL FREE ENERGY PREDICTED BY IDOCK:   -7.86 KCAL/MOL
REMARK 923 INTER-LIGAND FREE ENERGY PREDICTED BY IDOCK:   -7.28 KCAL/MOL
REMARK 924 INTRA-LIGAND FREE ENERGY PREDICTED BY IDOCK:   -0.58 KCAL/MOL
REMARK 927      BINDING AFFINITY PREDICTED BY RF-SCORE:    0.00 PKD
ROOT
HETATM    1  C   UNL     1      -5.291  14.085  69.022  1.00  0.00    -0.077 C  
HETATM    2  C   UNL     1      -6.811  14.131  68.791  1.00  0.00    -0.101 C  
HETATM    3  C   UNL     1      -7.211  14.962  67.570  1.00  0.00    -0.201 C  
HETATM    4  O   UNL     1      -7.476  14.627  69.954  1.00  0.00    -0.384 OA 
HETATM    5  C   UNL     1      -7.281  12.664  68.571  1.00  0.00    -0.113 C  
HETATM    6  N   UNL     1      -8.656  12.486  68.483  1.00  0.00    -0.338 N  
HETATM    7  H   UNL     1      -8.414  14.655  69.811  1.00  0.00     0.000 HD 
HETATM    8  H   UNL     1      -9.254  13.305  68.588  1.00  0.00     0.000 HD 
HETATM    9  O   UNL     1      -6.463  11.760  68.405  1.00  0.00    -0.050 OA 
ENDROOT
BRANCH   3  10
HETATM   10  S   UNL     1      -6.539  16.609  67.603  1.00  0.00    -0.163 S  
HETATM   11  O   UNL     1      -5.483  16.712  66.619  1.00  0.00    -0.343 OA 
HETATM   12  O   UNL     1      -6.300  16.957  68.995  1.00  0.00    -0.171 OA 
BRANCH  10  13
HETATM   13  C   UNL     1      -7.868  17.626  67.009  1.00  0.00    -0.215 A  
HETATM   14  C   UNL     1      -9.066  17.004  66.638  1.00  0.00    -0.278 A  
HETATM   15  C   UNL     1      -7.717  19.013  66.918  1.00  0.00    -0.253 A  
HETATM   16  F   UNL     1     -11.034  19.914  65.748  1.00  0.00    -0.539 F  
HETATM   17  C   UNL     1     -10.139  17.785  66.212  1.00  0.00    -0.345 A  
HETATM   18  C   UNL     1      -8.795  19.786  66.481  1.00  0.00    -0.420 A  
HETATM   19  C   UNL     1      -9.997  19.167  66.145  1.00  0.00    -0.381 A  
ENDBRANCH  10  13
ENDBRANCH   3  10
BRANCH   6  20
HETATM   20  C   UNL     1      -9.278  11.233  68.256  1.00  0.00    -0.176 A  
HETATM   21  C   UNL     1     -10.409   8.178  70.251  1.00  0.00    -0.209 C  
HETATM   22  C   UNL     1     -10.122   9.081  69.076  1.00  0.00    -0.204 A  
HETATM   23  C   UNL     1     -10.789   7.338  67.451  1.00  0.00    -0.247 C  
HETATM   24  F   UNL     1     -10.169   8.760  71.458  1.00  0.00    -0.262 F  
HETATM   25  F   UNL     1     -11.708   7.778  70.291  1.00  0.00    -0.238 F  
HETATM   26  C   UNL     1     -10.049   9.545  66.697  1.00  0.00    -0.321 A  
HETATM   27  F   UNL     1      -9.657   7.046  70.231  1.00  0.00    -0.166 F  
HETATM   28  C   UNL     1      -9.613  10.372  69.307  1.00  0.00    -0.226 A  
HETATM   29  N   UNL     1     -11.153   6.265  67.199  1.00  0.00    -0.353 NA 
HETATM   30  C   UNL     1      -9.544  10.829  66.947  1.00  0.00    -0.198 A  
HETATM   31  C   UNL     1     -10.323   8.663  67.755  1.00  0.00    -0.303 A  
ENDBRANCH   6  20
TORSDOF 3
ENDMDL
MODEL       46
REMARK 921   NORMALIZED FREE ENERGY PREDICTED BY IDOCK:   -6.14 KCAL/MOL
REMARK 922        TOTAL FREE ENERGY PREDICTED BY IDOCK:   -7.83 KCAL/MOL
REMARK 923 INTER-LIGAND FREE ENERGY PREDICTED BY IDOCK:   -7.26 KCAL/MOL
REMARK 924 INTRA-LIGAND FREE ENERGY PREDICTED BY IDOCK:   -0.57 KCAL/MOL
REMARK 927      BINDING AFFINITY PREDICTED BY RF-SCORE:    0.00 PKD
ROOT
HETATM    1  C   UNL     1     -10.806   8.612  71.136  1.00  0.00    -0.320 C  
HETATM    2  C   UNL     1      -9.878   9.018  69.979  1.00  0.00    -0.184 C  
HETATM    3  C   UNL     1      -9.813   7.974  68.863  1.00  0.00    -0.175 C  
HETATM    4  O   UNL     1      -8.563   9.288  70.468  1.00  0.00    -0.198 OA 
HETATM    5  C   UNL     1     -10.440  10.344  69.390  1.00  0.00    -0.238 C  
HETATM    6  N   UNL     1      -9.652  10.946  68.417  1.00  0.00    -0.170 N  
HETATM    7  H   UNL     1      -7.990   9.538  69.754  1.00  0.00     0.000 HD 
HETATM    8  H   UNL     1      -8.767  10.502  68.174  1.00  0.00     0.000 HD 
HETATM    9  O   UNL     1     -11.551  10.758  69.722  1.00  0.00    -0.263 OA 
ENDROOT
BRANCH   3  10
HETATM   10  S   UNL     1      -9.390   6.351  69.455  1.00  0.00    -0.143 S  
HETATM   11  O   UNL     1     -10.587   5.691  69.929  1.00  0.00    -0.281 OA 
HETATM   12  O   UNL     1      -8.222   6.488  70.312  1.00  0.00    -0.121 OA 
BRANCH  10  13
HETATM   13  C   UNL     1      -8.891   5.477  67.992  1.00  0.00    -0.105 A  
HETATM   14  C   UNL     1      -7.988   4.416  68.127  1.00  0.00    -0.079 A  
HETATM   15  C   UNL     1      -9.390   5.844  66.739  1.00  0.00    -0.144 A  
HETATM   16  F   UNL     1      -7.783   3.323  64.678  1.00  0.00    -0.073 F  
HETATM   17  C   UNL     1      -7.616   3.686  66.999  1.00  0.00    -0.079 A  
HETATM   18  C   UNL     1      -9.005   5.112  65.614  1.00  0.00    -0.154 A  
HETATM   19  C   UNL     1      -8.133   4.035  65.757  1.00  0.00    -0.097 A  
ENDBRANCH  10  13
ENDBRANCH   3  10
BRANCH   6  20
HETATM   20  C   UNL     1     -10.006  12.140  67.742  1.00  0.00    -0.198 A  
HETATM   21  C   UNL     1     -12.389  13.291  64.987  1.00  0.00    -0.448 C  
HETATM   22  C   UNL     1     -11.306  13.332  66.038  1.00  0.00    -0.329 A  
HETATM   23  C   UNL     1     -10.737  15.679  65.496  1.00  0.00    -0.389 C  
HETATM   24  F   UNL     1     -13.034  12.094  64.915  1.00  0.00    -0.433 F  
HETATM   25  F   UNL     1     -13.361  14.216  65.208  1.00  0.00    -0.430 F  
HETATM   26  C   UNL     1      -9.554  14.474  67.266  1.00  0.00    -0.226 A  
HETATM   27  F   UNL     1     -11.908  13.527  63.738  1.00  0.00    -0.437 F  
HETATM   28  C   UNL     1     -11.033  12.178  66.792  1.00  0.00    -0.325 A  
HETATM   29  N   UNL     1     -10.880  16.644  64.867  1.00  0.00    -0.701 NA 
HETATM   30  C   UNL     1      -9.298  13.312  68.010  1.00  0.00    -0.218 A  
HETATM   31  C   UNL     1     -10.544  14.484  66.270  1.00  0.00    -0.304 A  
ENDBRANCH   6  20
TORSDOF 3
ENDMDL
MODEL       47
REMARK 921   NORMALIZED FREE ENERGY PREDICTED BY IDOCK:   -6.11 KCAL/MOL
REMARK 922        TOTAL FREE ENERGY PREDICTED BY IDOCK:   -7.80 KCAL/MOL
REMARK 923 INTER-LIGAND FREE ENERGY PREDICTED BY IDOCK:   -7.73 KCAL/MOL
REMARK 924 INTRA-LIGAND FREE ENERGY PREDICTED BY IDOCK:   -0.07 KCAL/MOL
REMARK 927      BINDING AFFINITY PREDICTED BY RF-SCORE:    0.00 PKD
ROOT
HETATM    1  C   UNL     1     -10.316  11.011  65.427  1.00  0.00    -0.330 C  
HETATM    2  C   UNL     1     -10.157  10.980  66.956  1.00  0.00    -0.196 C  
HETATM    3  C   UNL     1     -11.211  11.813  67.690  1.00  0.00    -0.281 C  
HETATM    4  O   UNL     1      -8.849  11.417  67.329  1.00  0.00    -0.147 OA 
HETATM    5  C   UNL     1     -10.299   9.495  67.398  1.00  0.00    -0.258 C  
HETATM    6  N   UNL     1     -10.046   9.245  68.741  1.00  0.00    -0.189 N  
HETATM    7  H   UNL     1      -8.751  11.398  68.274  1.00  0.00     0.000 HD 
HETATM    8  H   UNL     1      -9.768  10.029  69.331  1.00  0.00     0.000 HD 
HETATM    9  O   UNL     1     -10.695   8.639  66.607  1.00  0.00    -0.180 OA 
ENDROOT
BRANCH   3  10
HETATM   10  S   UNL     1     -11.295  13.492  67.109  1.00  0.00    -0.337 S  
HETATM   11  O   UNL     1     -12.462  13.648  66.269  1.00  0.00    -0.422 OA 
HETATM   12  O   UNL     1      -9.971  13.854  66.625  1.00  0.00    -0.264 OA 
BRANCH  10  13
HETATM   13  C   UNL     1     -11.614  14.438  68.578  1.00  0.00    -0.314 A  
HETATM   14  C   UNL     1     -12.336  13.834  69.614  1.00  0.00    -0.284 A  
HETATM   15  C   UNL     1     -11.152  15.753  68.692  1.00  0.00    -0.327 A  
HETATM   16  F   UNL     1     -12.285  16.509  72.058  1.00  0.00    -0.475 F  
HETATM   17  C   UNL     1     -12.560  14.540  70.794  1.00  0.00    -0.418 A  
HETATM   18  C   UNL     1     -11.389  16.455  69.875  1.00  0.00    -0.175 A  
HETATM   19  C   UNL     1     -12.079  15.839  70.917  1.00  0.00    -0.416 A  
ENDBRANCH  10  13
ENDBRANCH   3  10
BRANCH   6  20
HETATM   20  C   UNL     1     -10.151   7.965  69.340  1.00  0.00    -0.196 A  
HETATM   21  C   UNL     1     -10.954   6.441  72.750  1.00  0.00    -0.257 C  
HETATM   22  C   UNL     1     -10.555   6.544  71.298  1.00  0.00    -0.268 A  
HETATM   23  C   UNL     1     -10.069   4.121  71.161  1.00  0.00    -0.075 C  
HETATM   24  F   UNL     1     -11.332   7.629  73.297  1.00  0.00    -0.419 F  
HETATM   25  F   UNL     1     -12.006   5.601  72.939  1.00  0.00    -0.296 F  
HETATM   26  C   UNL     1      -9.797   5.571  69.209  1.00  0.00    -0.233 A  
HETATM   27  F   UNL     1      -9.944   5.979  73.533  1.00  0.00    -0.157 F  
HETATM   28  C   UNL     1     -10.562   7.801  70.667  1.00  0.00    -0.222 A  
HETATM   29  N   UNL     1      -9.989   3.068  71.643  1.00  0.00    -0.140 NA 
HETATM   30  C   UNL     1      -9.813   6.834  68.598  1.00  0.00    -0.142 A  
HETATM   31  C   UNL     1     -10.150   5.424  70.560  1.00  0.00    -0.306 A  
ENDBRANCH   6  20
TORSDOF 3
ENDMDL
MODEL       48
REMARK 921   NORMALIZED FREE ENERGY PREDICTED BY IDOCK:   -6.09 KCAL/MOL
REMARK 922        TOTAL FREE ENERGY PREDICTED BY IDOCK:   -7.78 KCAL/MOL
REMARK 923 INTER-LIGAND FREE ENERGY PREDICTED BY IDOCK:   -7.73 KCAL/MOL
REMARK 924 INTRA-LIGAND FREE ENERGY PREDICTED BY IDOCK:   -0.05 KCAL/MOL
REMARK 927      BINDING AFFINITY PREDICTED BY RF-SCORE:    0.00 PKD
ROOT
HETATM    1  C   UNL     1     -12.343  11.828  71.044  1.00  0.00    -0.386 C  
HETATM    2  C   UNL     1     -11.819  11.062  69.818  1.00  0.00    -0.347 C  
HETATM    3  C   UNL     1     -10.701  11.800  69.077  1.00  0.00    -0.169 C  
HETATM    4  O   UNL     1     -12.889  10.774  68.917  1.00  0.00    -0.472 OA 
HETATM    5  C   UNL     1     -11.262   9.704  70.334  1.00  0.00    -0.283 C  
HETATM    6  N   UNL     1     -10.867   8.808  69.348  1.00  0.00    -0.388 N  
HETATM    7  H   UNL     1     -12.566  10.302  68.159  1.00  0.00     0.000 HD 
HETATM    8  H   UNL     1     -10.986   9.083  68.374  1.00  0.00     0.000 HD 
HETATM    9  O   UNL     1     -11.114   9.503  71.539  1.00  0.00    -0.367 OA 
ENDROOT
BRANCH   3  10
HETATM   10  S   UNL     1     -11.149  13.462  68.625  1.00  0.00    -0.275 S  
HETATM   11  O   UNL     1      -9.994  14.321  68.767  1.00  0.00    -0.231 OA 
HETATM   12  O   UNL     1     -12.402  13.775  69.296  1.00  0.00    -0.312 OA 
BRANCH  10  13
HETATM   13  C   UNL     1     -11.476  13.359  66.882  1.00  0.00    -0.342 A  
HETATM   14  C   UNL     1     -11.864  14.523  66.209  1.00  0.00    -0.354 A  
HETATM   15  C   UNL     1     -11.348  12.142  66.205  1.00  0.00    -0.411 A  
HETATM   16  F   UNL     1     -12.127  13.236  62.832  1.00  0.00    -0.585 F  
HETATM   17  C   UNL     1     -12.082  14.477  64.833  1.00  0.00    -0.421 A  
HETATM   18  C   UNL     1     -11.577  12.105  64.828  1.00  0.00    -0.380 A  
HETATM   19  C   UNL     1     -11.929  13.273  64.155  1.00  0.00    -0.447 A  
ENDBRANCH  10  13
ENDBRANCH   3  10
BRANCH   6  20
HETATM   20  C   UNL     1     -10.309   7.533  69.617  1.00  0.00    -0.225 A  
HETATM   21  C   UNL     1      -6.869   5.938  70.080  1.00  0.00    -0.057 C  
HETATM   22  C   UNL     1      -8.367   6.073  69.948  1.00  0.00    -0.123 A  
HETATM   23  C   UNL     1      -8.691   3.621  70.040  1.00  0.00    -0.070 C  
HETATM   24  F   UNL     1      -6.212   7.131  70.078  1.00  0.00    -0.026 F  
HETATM   25  F   UNL     1      -6.505   5.322  71.236  1.00  0.00    -0.029 F  
HETATM   26  C   UNL     1     -10.601   5.136  69.828  1.00  0.00    -0.175 A  
HETATM   27  F   UNL     1      -6.323   5.214  69.067  1.00  0.00    -0.026 F  
HETATM   28  C   UNL     1      -8.934   7.351  69.798  1.00  0.00    -0.141 A  
HETATM   29  N   UNL     1      -8.276   2.540  70.104  1.00  0.00    -0.041 NA 
HETATM   30  C   UNL     1     -11.147   6.420  69.682  1.00  0.00    -0.465 A  
HETATM   31  C   UNL     1      -9.213   4.957  69.945  1.00  0.00    -0.178 A  
ENDBRANCH   6  20
TORSDOF 3
ENDMDL
MODEL       49
REMARK 921   NORMALIZED FREE ENERGY PREDICTED BY IDOCK:   -6.04 KCAL/MOL
REMARK 922        TOTAL FREE ENERGY PREDICTED BY IDOCK:   -7.72 KCAL/MOL
REMARK 923 INTER-LIGAND FREE ENERGY PREDICTED BY IDOCK:   -7.31 KCAL/MOL
REMARK 924 INTRA-LIGAND FREE ENERGY PREDICTED BY IDOCK:   -0.41 KCAL/MOL
REMARK 927      BINDING AFFINITY PREDICTED BY RF-SCORE:    0.00 PKD
ROOT
HETATM    1  C   UNL     1      -6.203  10.049  70.104  1.00  0.00    -0.077 C  
HETATM    2  C   UNL     1      -7.455   9.419  69.471  1.00  0.00    -0.083 C  
HETATM    3  C   UNL     1      -8.556   9.110  70.489  1.00  0.00    -0.219 C  
HETATM    4  O   UNL     1      -7.108   8.230  68.759  1.00  0.00    -0.068 OA 
HETATM    5  C   UNL     1      -8.006  10.442  68.437  1.00  0.00    -0.110 C  
HETATM    6  N   UNL     1      -9.064   9.992  67.657  1.00  0.00    -0.134 N  
HETATM    7  H   UNL     1      -7.881   7.841  68.368  1.00  0.00     0.000 HD 
HETATM    8  H   UNL     1      -9.389   9.035  67.795  1.00  0.00     0.000 HD 
HETATM    9  O   UNL     1      -7.570  11.592  68.397  1.00  0.00    -0.109 OA 
ENDROOT
BRANCH   3  10
HETATM   10  S   UNL     1      -7.983   8.118  71.850  1.00  0.00    -0.131 S  
HETATM   11  O   UNL     1      -7.811   8.960  73.014  1.00  0.00    -0.378 OA 
HETATM   12  O   UNL     1      -6.892   7.290  71.359  1.00  0.00    -0.051 OA 
BRANCH  10  13
HETATM   13  C   UNL     1      -9.356   7.051  72.211  1.00  0.00    -0.136 A  
HETATM   14  C   UNL     1      -9.211   6.102  73.230  1.00  0.00    -0.131 A  
HETATM   15  C   UNL     1     -10.550   7.161  71.492  1.00  0.00    -0.228 A  
HETATM   16  F   UNL     1     -12.523   4.631  73.194  1.00  0.00    -0.271 F  
HETATM   17  C   UNL     1     -10.289   5.284  73.561  1.00  0.00    -0.253 A  
HETATM   18  C   UNL     1     -11.622   6.330  71.826  1.00  0.00    -0.358 A  
HETATM   19  C   UNL     1     -11.485   5.410  72.863  1.00  0.00    -0.275 A  
ENDBRANCH  10  13
ENDBRANCH   3  10
BRANCH   6  20
HETATM   20  C   UNL     1      -9.720  10.783  66.682  1.00  0.00    -0.190 A  
HETATM   21  C   UNL     1     -11.800  13.982  66.495  1.00  0.00    -0.417 C  
HETATM   22  C   UNL     1     -11.097  12.717  66.066  1.00  0.00    -0.321 A  
HETATM   23  C   UNL     1     -11.982  12.893  63.761  1.00  0.00    -0.512 C  
HETATM   24  F   UNL     1     -11.584  14.310  67.798  1.00  0.00    -0.298 F  
HETATM   25  F   UNL     1     -11.403  15.064  65.775  1.00  0.00    -0.337 F  
HETATM   26  C   UNL     1     -10.508  11.050  64.405  1.00  0.00    -0.422 A  
HETATM   27  F   UNL     1     -13.150  13.898  66.354  1.00  0.00    -0.289 F  
HETATM   28  C   UNL     1     -10.348  11.990  67.008  1.00  0.00    -0.235 A  
HETATM   29  N   UNL     1     -12.631  13.419  62.956  1.00  0.00    -0.574 NA 
HETATM   30  C   UNL     1      -9.763  10.340  65.359  1.00  0.00    -0.340 A  
HETATM   31  C   UNL     1     -11.188  12.227  64.757  1.00  0.00    -0.364 A  
ENDBRANCH   6  20
TORSDOF 3
ENDMDL
MODEL       50
REMARK 921   NORMALIZED FREE ENERGY PREDICTED BY IDOCK:   -6.02 KCAL/MOL
REMARK 922        TOTAL FREE ENERGY PREDICTED BY IDOCK:   -7.70 KCAL/MOL
REMARK 923 INTER-LIGAND FREE ENERGY PREDICTED BY IDOCK:   -8.11 KCAL/MOL
REMARK 924 INTRA-LIGAND FREE ENERGY PREDICTED BY IDOCK:    0.42 KCAL/MOL
REMARK 927      BINDING AFFINITY PREDICTED BY RF-SCORE:    0.00 PKD
ROOT
HETATM    1  C   UNL     1     -10.887   7.640  69.159  1.00  0.00    -0.082 C  
HETATM    2  C   UNL     1     -10.991   9.082  69.681  1.00  0.00    -0.136 C  
HETATM    3  C   UNL     1      -9.765   9.524  70.483  1.00  0.00    -0.263 C  
HETATM    4  O   UNL     1     -12.170   9.241  70.472  1.00  0.00    -0.479 OA 
HETATM    5  C   UNL     1     -11.133  10.007  68.438  1.00  0.00    -0.182 C  
HETATM    6  N   UNL     1     -11.381  11.346  68.715  1.00  0.00    -0.243 N  
HETATM    7  H   UNL     1     -12.235  10.131  70.795  1.00  0.00     0.000 HD 
HETATM    8  H   UNL     1     -11.474  11.625  69.691  1.00  0.00     0.000 HD 
HETATM    9  O   UNL     1     -10.946   9.568  67.304  1.00  0.00    -0.203 OA 
ENDROOT
BRANCH   3  10
HETATM   10  S   UNL     1      -9.369   8.411  71.813  1.00  0.00    -0.250 S  
HETATM   11  O   UNL     1     -10.594   7.878  72.369  1.00  0.00    -0.249 OA 
HETATM   12  O   UNL     1      -8.389   9.073  72.661  1.00  0.00    -0.319 OA 
BRANCH  10  13
HETATM   13  C   UNL     1      -8.559   7.051  71.007  1.00  0.00    -0.134 A  
HETATM   14  C   UNL     1      -8.956   5.750  71.338  1.00  0.00    -0.147 A  
HETATM   15  C   UNL     1      -7.552   7.280  70.065  1.00  0.00    -0.090 A  
HETATM   16  F   UNL     1      -6.830   3.856  69.097  1.00  0.00    -0.042 F  
HETATM   17  C   UNL     1      -8.368   4.668  70.686  1.00  0.00    -0.096 A  
HETATM   18  C   UNL     1      -6.962   6.189  69.423  1.00  0.00    -0.067 A  
HETATM   19  C   UNL     1      -7.384   4.897  69.731  1.00  0.00    -0.056 A  
ENDBRANCH  10  13
ENDBRANCH   3  10
BRANCH   6  20
HETATM   20  C   UNL     1     -11.512  12.347  67.721  1.00  0.00    -0.324 A  
HETATM   21  C   UNL     1     -11.564  12.632  63.912  1.00  0.00    -0.451 C  
HETATM   22  C   UNL     1     -11.572  13.033  65.367  1.00  0.00    -0.374 A  
HETATM   23  C   UNL     1     -11.525  15.442  64.802  1.00  0.00    -0.336 C  
HETATM   24  F   UNL     1     -11.586  11.284  63.718  1.00  0.00    -0.450 F  
HETATM   25  F   UNL     1     -12.639  13.116  63.235  1.00  0.00    -0.494 F  
HETATM   26  C   UNL     1     -11.584  14.697  67.132  1.00  0.00    -0.394 A  
HETATM   27  F   UNL     1     -10.460  13.081  63.257  1.00  0.00    -0.164 F  
HETATM   28  C   UNL     1     -11.560  12.035  66.358  1.00  0.00    -0.381 A  
HETATM   29  N   UNL     1     -11.479  16.307  64.030  1.00  0.00    -0.984 NA 
HETATM   30  C   UNL     1     -11.574  13.687  68.105  1.00  0.00    -0.367 A  
HETATM   31  C   UNL     1     -11.567  14.376  65.765  1.00  0.00    -0.353 A  
ENDBRANCH   6  20
TORSDOF 3
ENDMDL
MODEL       51
REMARK 921   NORMALIZED FREE ENERGY PREDICTED BY IDOCK:   -6.00 KCAL/MOL
REMARK 922        TOTAL FREE ENERGY PREDICTED BY IDOCK:   -7.67 KCAL/MOL
REMARK 923 INTER-LIGAND FREE ENERGY PREDICTED BY IDOCK:   -7.12 KCAL/MOL
REMARK 924 INTRA-LIGAND FREE ENERGY PREDICTED BY IDOCK:   -0.55 KCAL/MOL
REMARK 927      BINDING AFFINITY PREDICTED BY RF-SCORE:    0.00 PKD
ROOT
HETATM    1  C   UNL     1     -11.842  11.468  67.598  1.00  0.00    -0.194 C  
HETATM    2  C   UNL     1     -10.876  12.033  68.651  1.00  0.00    -0.237 C  
HETATM    3  C   UNL     1      -9.810  11.028  69.094  1.00  0.00    -0.096 C  
HETATM    4  O   UNL     1     -11.600  12.503  69.790  1.00  0.00    -0.406 OA 
HETATM    5  C   UNL     1     -10.167  13.259  68.008  1.00  0.00    -0.240 C  
HETATM    6  N   UNL     1      -9.351  13.993  68.860  1.00  0.00    -0.394 N  
HETATM    7  H   UNL     1     -11.003  12.852  70.441  1.00  0.00     0.000 HD 
HETATM    8  H   UNL     1      -9.288  13.700  69.834  1.00  0.00     0.000 HD 
HETATM    9  O   UNL     1     -10.275  13.486  66.803  1.00  0.00    -0.256 OA 
ENDROOT
BRANCH   3  10
HETATM   10  S   UNL     1     -10.501   9.486  69.650  1.00  0.00    -0.237 S  
HETATM   11  O   UNL     1     -10.345   8.492  68.610  1.00  0.00    -0.202 OA 
HETATM   12  O   UNL     1     -11.808   9.772  70.221  1.00  0.00    -0.234 OA 
BRANCH  10  13
HETATM   13  C   UNL     1      -9.427   8.988  70.974  1.00  0.00    -0.274 A  
HETATM   14  C   UNL     1     -10.006   8.569  72.178  1.00  0.00    -0.387 A  
HETATM   15  C   UNL     1      -8.038   9.014  70.812  1.00  0.00    -0.194 A  
HETATM   16  F   UNL     1      -7.021   7.699  74.040  1.00  0.00    -0.089 F  
HETATM   17  C   UNL     1      -9.185   8.131  73.215  1.00  0.00    -0.316 A  
HETATM   18  C   UNL     1      -7.224   8.581  71.860  1.00  0.00    -0.113 A  
HETATM   19  C   UNL     1      -7.805   8.133  73.045  1.00  0.00    -0.154 A  
ENDBRANCH  10  13
ENDBRANCH   3  10
BRANCH   6  20
HETATM   20  C   UNL     1      -8.600  15.124  68.455  1.00  0.00    -0.163 A  
HETATM   21  C   UNL     1      -8.876  18.934  68.516  1.00  0.00    -0.352 C  
HETATM   22  C   UNL     1      -8.338  17.552  68.231  1.00  0.00    -0.265 A  
HETATM   23  C   UNL     1      -6.476  18.454  66.872  1.00  0.00    -0.183 C  
HETATM   24  F   UNL     1      -9.992  18.934  69.296  1.00  0.00    -0.398 F  
HETATM   25  F   UNL     1      -7.975  19.716  69.167  1.00  0.00    -0.392 F  
HETATM   26  C   UNL     1      -6.723  16.046  67.229  1.00  0.00    -0.232 A  
HETATM   27  F   UNL     1      -9.219  19.600  67.381  1.00  0.00    -0.335 F  
HETATM   28  C   UNL     1      -9.020  16.429  68.732  1.00  0.00    -0.245 A  
HETATM   29  N   UNL     1      -5.904  19.339  66.386  1.00  0.00    -0.164 NA 
HETATM   30  C   UNL     1      -7.416  14.938  67.740  1.00  0.00    -0.179 A  
HETATM   31  C   UNL     1      -7.188  17.351  67.458  1.00  0.00    -0.184 A  
ENDBRANCH   6  20
TORSDOF 3
ENDMDL
MODEL       52
REMARK 921   NORMALIZED FREE ENERGY PREDICTED BY IDOCK:   -6.00 KCAL/MOL
REMARK 922        TOTAL FREE ENERGY PREDICTED BY IDOCK:   -7.67 KCAL/MOL
REMARK 923 INTER-LIGAND FREE ENERGY PREDICTED BY IDOCK:   -7.32 KCAL/MOL
REMARK 924 INTRA-LIGAND FREE ENERGY PREDICTED BY IDOCK:   -0.34 KCAL/MOL
REMARK 927      BINDING AFFINITY PREDICTED BY RF-SCORE:    0.00 PKD
ROOT
HETATM    1  C   UNL     1      -8.280   8.780  69.910  1.00  0.00    -0.118 C  
HETATM    2  C   UNL     1      -8.411   8.941  68.386  1.00  0.00    -0.125 C  
HETATM    3  C   UNL     1      -9.321   7.892  67.744  1.00  0.00    -0.140 C  
HETATM    4  O   UNL     1      -7.123   8.907  67.770  1.00  0.00    -0.077 OA 
HETATM    5  C   UNL     1      -9.017  10.351  68.129  1.00  0.00    -0.132 C  
HETATM    6  N   UNL     1      -9.082  10.738  66.796  1.00  0.00    -0.152 N  
HETATM    7  H   UNL     1      -7.203   9.006  66.829  1.00  0.00     0.000 HD 
HETATM    8  H   UNL     1      -8.717  10.097  66.092  1.00  0.00     0.000 HD 
HETATM    9  O   UNL     1      -9.476  11.016  69.056  1.00  0.00    -0.184 OA 
ENDROOT
BRANCH   3  10
HETATM   10  S   UNL     1      -8.853   6.225  68.153  1.00  0.00    -0.111 S  
HETATM   11  O   UNL     1      -7.433   6.184  68.430  1.00  0.00    -0.084 OA 
HETATM   12  O   UNL     1      -9.446   5.347  67.156  1.00  0.00    -0.117 OA 
BRANCH  10  13
HETATM   13  C   UNL     1      -9.667   5.919  69.702  1.00  0.00    -0.158 A  
HETATM   14  C   UNL     1      -9.004   5.140  70.658  1.00  0.00    -0.162 A  
HETATM   15  C   UNL     1     -10.937   6.445  69.954  1.00  0.00    -0.410 A  
HETATM   16  F   UNL     1     -11.422   5.269  73.355  1.00  0.00    -0.341 F  
HETATM   17  C   UNL     1      -9.603   4.924  71.898  1.00  0.00    -0.205 A  
HETATM   18  C   UNL     1     -11.533   6.215  71.196  1.00  0.00    -0.314 A  
HETATM   19  C   UNL     1     -10.856   5.468  72.158  1.00  0.00    -0.235 A  
ENDBRANCH  10  13
ENDBRANCH   3  10
BRANCH   6  20
HETATM   20  C   UNL     1      -9.627  11.970  66.357  1.00  0.00    -0.228 A  
HETATM   21  C   UNL     1     -12.567  13.237  64.273  1.00  0.00    -0.182 C  
HETATM   22  C   UNL     1     -11.301  13.243  65.096  1.00  0.00    -0.318 A  
HETATM   23  C   UNL     1     -10.979  15.674  64.758  1.00  0.00    -0.400 C  
HETATM   24  F   UNL     1     -13.147  12.010  64.173  1.00  0.00    -0.540 F  
HETATM   25  F   UNL     1     -13.524  14.053  64.789  1.00  0.00     0.146 F  
HETATM   26  C   UNL     1      -9.405  14.371  66.104  1.00  0.00    -0.221 A  
HETATM   27  F   UNL     1     -12.355  13.651  62.995  1.00  0.00    -0.565 F  
HETATM   28  C   UNL     1     -10.822  12.035  65.632  1.00  0.00    -0.325 A  
HETATM   29  N   UNL     1     -11.296  16.689  64.295  1.00  0.00    -1.093 NA 
HETATM   30  C   UNL     1      -8.944  13.155  66.632  1.00  0.00    -0.135 A  
HETATM   31  C   UNL     1     -10.571  14.417  65.323  1.00  0.00    -0.398 A  
ENDBRANCH   6  20
TORSDOF 3
ENDMDL
MODEL       53
REMARK 921   NORMALIZED FREE ENERGY PREDICTED BY IDOCK:   -5.99 KCAL/MOL
REMARK 922        TOTAL FREE ENERGY PREDICTED BY IDOCK:   -7.66 KCAL/MOL
REMARK 923 INTER-LIGAND FREE ENERGY PREDICTED BY IDOCK:   -7.02 KCAL/MOL
REMARK 924 INTRA-LIGAND FREE ENERGY PREDICTED BY IDOCK:   -0.63 KCAL/MOL
REMARK 927      BINDING AFFINITY PREDICTED BY RF-SCORE:    0.00 PKD
ROOT
HETATM    1  C   UNL     1     -11.379   8.641  70.065  1.00  0.00    -0.022 C  
HETATM    2  C   UNL     1     -10.335   8.985  68.990  1.00  0.00    -0.219 C  
HETATM    3  C   UNL     1     -10.196   7.904  67.916  1.00  0.00    -0.209 C  
HETATM    4  O   UNL     1      -9.065   9.235  69.593  1.00  0.00    -0.148 OA 
HETATM    5  C   UNL     1     -10.800  10.305  68.311  1.00  0.00    -0.255 C  
HETATM    6  N   UNL     1      -9.907  10.855  67.400  1.00  0.00    -0.171 N  
HETATM    7  H   UNL     1      -8.420   9.448  68.929  1.00  0.00     0.000 HD 
HETATM    8  H   UNL     1      -9.016  10.380  67.255  1.00  0.00     0.000 HD 
HETATM    9  O   UNL     1     -11.924  10.759  68.524  1.00  0.00    -0.487 OA 
ENDROOT
BRANCH   3  10
HETATM   10  S   UNL     1      -9.878   6.290  68.594  1.00  0.00    -0.142 S  
HETATM   11  O   UNL     1     -11.136   5.604  68.796  1.00  0.00    -0.156 OA 
HETATM   12  O   UNL     1      -8.931   6.452  69.686  1.00  0.00    -0.136 OA 
BRANCH  10  13
HETATM   13  C   UNL     1      -9.051   5.428  67.279  1.00  0.00    -0.111 A  
HETATM   14  C   UNL     1      -9.790   5.087  66.140  1.00  0.00    -0.214 A  
HETATM   15  C   UNL     1      -7.696   5.102  67.385  1.00  0.00    -0.092 A  
HETATM   16  F   UNL     1      -7.187   3.549  64.142  1.00  0.00    -0.052 F  
HETATM   17  C   UNL     1      -9.152   4.451  65.077  1.00  0.00    -0.150 A  
HETATM   18  C   UNL     1      -7.068   4.456  66.318  1.00  0.00    -0.074 A  
HETATM   19  C   UNL     1      -7.798   4.149  65.172  1.00  0.00    -0.089 A  
ENDBRANCH  10  13
ENDBRANCH   3  10
BRANCH   6  20
HETATM   20  C   UNL     1     -10.160  12.036  66.659  1.00  0.00    -0.198 A  
HETATM   21  C   UNL     1      -9.495  15.789  66.912  1.00  0.00    -0.228 C  
HETATM   22  C   UNL     1     -10.013  14.469  66.393  1.00  0.00    -0.304 A  
HETATM   23  C   UNL     1     -11.288  15.573  64.581  1.00  0.00    -0.357 C  
HETATM   24  F   UNL     1      -8.680  15.667  67.996  1.00  0.00    -0.161 F  
HETATM   25  F   UNL     1      -8.766  16.461  65.981  1.00  0.00    -0.320 F  
HETATM   26  C   UNL     1     -11.301  13.138  64.827  1.00  0.00    -0.352 A  
HETATM   27  F   UNL     1     -10.497  16.624  67.295  1.00  0.00    -0.300 F  
HETATM   28  C   UNL     1      -9.666  13.282  67.061  1.00  0.00    -0.238 A  
HETATM   29  N   UNL     1     -11.652  16.523  64.024  1.00  0.00    -1.124 NA 
HETATM   30  C   UNL     1     -10.942  11.965  65.506  1.00  0.00    -0.347 A  
HETATM   31  C   UNL     1     -10.853  14.392  65.275  1.00  0.00    -0.370 A  
ENDBRANCH   6  20
TORSDOF 3
ENDMDL
MODEL       54
REMARK 921   NORMALIZED FREE ENERGY PREDICTED BY IDOCK:   -5.97 KCAL/MOL
REMARK 922        TOTAL FREE ENERGY PREDICTED BY IDOCK:   -7.63 KCAL/MOL
REMARK 923 INTER-LIGAND FREE ENERGY PREDICTED BY IDOCK:   -7.38 KCAL/MOL
REMARK 924 INTRA-LIGAND FREE ENERGY PREDICTED BY IDOCK:   -0.25 KCAL/MOL
REMARK 927      BINDING AFFINITY PREDICTED BY RF-SCORE:    0.00 PKD
ROOT
HETATM    1  C   UNL     1     -10.157   8.855  72.053  1.00  0.00    -0.351 C  
HETATM    2  C   UNL     1      -9.448   9.034  70.700  1.00  0.00    -0.236 C  
HETATM    3  C   UNL     1      -9.236   7.716  69.952  1.00  0.00    -0.147 C  
HETATM    4  O   UNL     1      -8.195   9.696  70.879  1.00  0.00    -0.335 OA 
HETATM    5  C   UNL     1     -10.348   9.960  69.833  1.00  0.00    -0.258 C  
HETATM    6  N   UNL     1      -9.805  10.352  68.617  1.00  0.00    -0.170 N  
HETATM    7  H   UNL     1      -7.757   9.806  70.044  1.00  0.00     0.000 HD 
HETATM    8  H   UNL     1      -8.864  10.033  68.386  1.00  0.00     0.000 HD 
HETATM    9  O   UNL     1     -11.493  10.237  70.191  1.00  0.00    -0.266 OA 
ENDROOT
BRANCH   3  10
HETATM   10  S   UNL     1      -8.401   6.488  70.932  1.00  0.00    -0.127 S  
HETATM   11  O   UNL     1      -9.381   5.721  71.670  1.00  0.00    -0.146 OA 
HETATM   12  O   UNL     1      -7.299   7.149  71.616  1.00  0.00    -0.082 OA 
BRANCH  10  13
HETATM   13  C   UNL     1      -7.708   5.379  69.731  1.00  0.00    -0.077 A  
HETATM   14  C   UNL     1      -8.518   4.958  68.669  1.00  0.00    -0.089 A  
HETATM   15  C   UNL     1      -6.385   4.941  69.847  1.00  0.00    -0.030 A  
HETATM   16  F   UNL     1      -6.146   2.917  66.841  1.00  0.00    -0.022 F  
HETATM   17  C   UNL     1      -7.983   4.124  67.690  1.00  0.00    -0.091 A  
HETATM   18  C   UNL     1      -5.861   4.097  68.865  1.00  0.00    -0.022 A  
HETATM   19  C   UNL     1      -6.660   3.708  67.792  1.00  0.00    -0.042 A  
ENDBRANCH  10  13
ENDBRANCH   3  10
BRANCH   6  20
HETATM   20  C   UNL     1     -10.480  11.169  67.676  1.00  0.00    -0.196 A  
HETATM   21  C   UNL     1     -10.881  11.469  63.889  1.00  0.00    -0.401 C  
HETATM   22  C   UNL     1     -11.010  11.779  65.361  1.00  0.00    -0.352 A  
HETATM   23  C   UNL     1     -12.219  13.891  64.907  1.00  0.00    -0.422 C  
HETATM   24  F   UNL     1     -10.229  10.301  63.633  1.00  0.00    -0.327 F  
HETATM   25  F   UNL     1     -12.089  11.355  63.276  1.00  0.00    -0.503 F  
HETATM   26  C   UNL     1     -11.764  13.169  67.200  1.00  0.00    -0.430 A  
HETATM   27  F   UNL     1     -10.195  12.430  63.215  1.00  0.00    -0.408 F  
HETATM   28  C   UNL     1     -10.439  10.905  66.303  1.00  0.00    -0.304 A  
HETATM   29  N   UNL     1     -12.660  14.676  64.175  1.00  0.00    -0.790 NA 
HETATM   30  C   UNL     1     -11.189  12.284  68.124  1.00  0.00    -0.320 A  
HETATM   31  C   UNL     1     -11.662  12.930  65.820  1.00  0.00    -0.437 A  
ENDBRANCH   6  20
TORSDOF 3
ENDMDL
MODEL       55
REMARK 921   NORMALIZED FREE ENERGY PREDICTED BY IDOCK:   -5.96 KCAL/MOL
REMARK 922        TOTAL FREE ENERGY PREDICTED BY IDOCK:   -7.62 KCAL/MOL
REMARK 923 INTER-LIGAND FREE ENERGY PREDICTED BY IDOCK:   -7.34 KCAL/MOL
REMARK 924 INTRA-LIGAND FREE ENERGY PREDICTED BY IDOCK:   -0.28 KCAL/MOL
REMARK 927      BINDING AFFINITY PREDICTED BY RF-SCORE:    0.00 PKD
ROOT
HETATM    1  C   UNL     1     -10.161   9.690  66.009  1.00  0.00    -0.318 C  
HETATM    2  C   UNL     1     -10.411  10.355  67.373  1.00  0.00    -0.249 C  
HETATM    3  C   UNL     1      -9.459   9.866  68.467  1.00  0.00    -0.146 C  
HETATM    4  O   UNL     1     -11.764  10.152  67.784  1.00  0.00    -0.594 OA 
HETATM    5  C   UNL     1     -10.204  11.884  67.179  1.00  0.00    -0.208 C  
HETATM    6  N   UNL     1     -10.523  12.674  68.276  1.00  0.00    -0.233 N  
HETATM    7  H   UNL     1     -11.919  10.562  68.627  1.00  0.00     0.000 HD 
HETATM    8  H   UNL     1     -10.886  12.213  69.111  1.00  0.00     0.000 HD 
HETATM    9  O   UNL     1      -9.708  12.324  66.142  1.00  0.00    -0.239 OA 
ENDROOT
BRANCH   3  10
HETATM   10  S   UNL     1      -9.445   8.095  68.633  1.00  0.00    -0.148 S  
HETATM   11  O   UNL     1      -8.107   7.604  68.382  1.00  0.00    -0.121 OA 
HETATM   12  O   UNL     1     -10.583   7.576  67.890  1.00  0.00    -0.219 OA 
BRANCH  10  13
HETATM   13  C   UNL     1      -9.754   7.824  70.361  1.00  0.00    -0.179 A  
HETATM   14  C   UNL     1     -11.038   8.082  70.855  1.00  0.00    -0.271 A  
HETATM   15  C   UNL     1      -8.736   7.364  71.202  1.00  0.00    -0.137 A  
HETATM   16  F   UNL     1     -10.588   7.104  74.315  1.00  0.00    -0.376 F  
HETATM   17  C   UNL     1     -11.317   7.834  72.197  1.00  0.00    -0.353 A  
HETATM   18  C   UNL     1      -9.023   7.127  72.548  1.00  0.00    -0.147 A  
HETATM   19  C   UNL     1     -10.312   7.353  73.029  1.00  0.00    -0.306 A  
ENDBRANCH  10  13
ENDBRANCH   3  10
BRANCH   6  20
HETATM   20  C   UNL     1     -10.376  14.083  68.306  1.00  0.00    -0.247 A  
HETATM   21  C   UNL     1      -7.577  16.682  68.359  1.00  0.00    -0.197 C  
HETATM   22  C   UNL     1      -8.964  16.087  68.384  1.00  0.00    -0.188 A  
HETATM   23  C   UNL     1     -10.009  18.295  68.784  1.00  0.00    -0.370 C  
HETATM   24  F   UNL     1      -6.594  15.766  68.148  1.00  0.00    -0.106 F  
HETATM   25  F   UNL     1      -7.430  17.610  67.375  1.00  0.00    -0.184 F  
HETATM   26  C   UNL     1     -11.375  16.274  68.580  1.00  0.00    -0.330 A  
HETATM   27  F   UNL     1      -7.260  17.303  69.526  1.00  0.00    -0.213 F  
HETATM   28  C   UNL     1      -9.121  14.697  68.237  1.00  0.00    -0.189 A  
HETATM   29  N   UNL     1      -9.937  19.438  68.966  1.00  0.00    -0.441 NA 
HETATM   30  C   UNL     1     -11.510  14.886  68.430  1.00  0.00    -0.338 A  
HETATM   31  C   UNL     1     -10.106  16.876  68.574  1.00  0.00    -0.297 A  
ENDBRANCH   6  20
TORSDOF 3
ENDMDL
MODEL       56
REMARK 921   NORMALIZED FREE ENERGY PREDICTED BY IDOCK:   -5.96 KCAL/MOL
REMARK 922        TOTAL FREE ENERGY PREDICTED BY IDOCK:   -7.62 KCAL/MOL
REMARK 923 INTER-LIGAND FREE ENERGY PREDICTED BY IDOCK:   -7.14 KCAL/MOL
REMARK 924 INTRA-LIGAND FREE ENERGY PREDICTED BY IDOCK:   -0.48 KCAL/MOL
REMARK 927      BINDING AFFINITY PREDICTED BY RF-SCORE:    0.00 PKD
ROOT
HETATM    1  C   UNL     1      -8.929   7.217  68.301  1.00  0.00    -0.125 C  
HETATM    2  C   UNL     1     -10.272   7.912  68.578  1.00  0.00    -0.205 C  
HETATM    3  C   UNL     1     -10.699   7.839  70.046  1.00  0.00    -0.244 C  
HETATM    4  O   UNL     1     -11.297   7.364  67.748  1.00  0.00    -0.417 OA 
HETATM    5  C   UNL     1     -10.099   9.407  68.183  1.00  0.00    -0.181 C  
HETATM    6  N   UNL     1     -11.256  10.175  68.233  1.00  0.00    -0.481 N  
HETATM    7  H   UNL     1     -12.126   7.793  67.919  1.00  0.00     0.000 HD 
HETATM    8  H   UNL     1     -12.127   9.715  68.496  1.00  0.00     0.000 HD 
HETATM    9  O   UNL     1      -8.985   9.867  67.934  1.00  0.00    -0.128 OA 
ENDROOT
BRANCH   3  10
HETATM   10  S   UNL     1     -10.720   6.177  70.679  1.00  0.00    -0.295 S  
HETATM   11  O   UNL     1     -10.619   5.246  69.576  1.00  0.00    -0.279 OA 
HETATM   12  O   UNL     1     -11.813   6.086  71.635  1.00  0.00    -0.241 OA 
BRANCH  10  13
HETATM   13  C   UNL     1      -9.196   6.042  71.581  1.00  0.00    -0.145 A  
HETATM   14  C   UNL     1      -8.563   7.220  71.995  1.00  0.00    -0.117 A  
HETATM   15  C   UNL     1      -8.648   4.788  71.867  1.00  0.00    -0.128 A  
HETATM   16  F   UNL     1      -5.737   5.817  73.779  1.00  0.00    -0.040 F  
HETATM   17  C   UNL     1      -7.390   7.138  72.743  1.00  0.00    -0.076 A  
HETATM   18  C   UNL     1      -7.467   4.718  72.610  1.00  0.00    -0.086 A  
HETATM   19  C   UNL     1      -6.858   5.891  73.050  1.00  0.00    -0.075 A  
ENDBRANCH  10  13
ENDBRANCH   3  10
BRANCH   6  20
HETATM   20  C   UNL     1     -11.298  11.561  67.938  1.00  0.00    -0.303 A  
HETATM   21  C   UNL     1     -11.729  13.847  64.908  1.00  0.00    -0.368 C  
HETATM   22  C   UNL     1     -11.490  13.403  66.331  1.00  0.00    -0.359 A  
HETATM   23  C   UNL     1     -11.028  15.718  67.076  1.00  0.00    -0.221 C  
HETATM   24  F   UNL     1     -12.042  12.826  64.064  1.00  0.00    -0.404 F  
HETATM   25  F   UNL     1     -12.756  14.732  64.807  1.00  0.00    -0.404 F  
HETATM   26  C   UNL     1     -10.967  13.852  68.657  1.00  0.00    -0.281 A  
HETATM   27  F   UNL     1     -10.641  14.454  64.365  1.00  0.00    -0.395 F  
HETATM   28  C   UNL     1     -11.563  12.036  66.649  1.00  0.00    -0.389 A  
HETATM   29  N   UNL     1     -10.899  16.851  66.862  1.00  0.00    -0.108 NA 
HETATM   30  C   UNL     1     -11.047  12.483  68.954  1.00  0.00    -0.309 A  
HETATM   31  C   UNL     1     -11.171  14.314  67.346  1.00  0.00    -0.330 A  
ENDBRANCH   6  20
TORSDOF 3
ENDMDL
MODEL       57
REMARK 921   NORMALIZED FREE ENERGY PREDICTED BY IDOCK:   -5.96 KCAL/MOL
REMARK 922        TOTAL FREE ENERGY PREDICTED BY IDOCK:   -7.62 KCAL/MOL
REMARK 923 INTER-LIGAND FREE ENERGY PREDICTED BY IDOCK:   -7.52 KCAL/MOL
REMARK 924 INTRA-LIGAND FREE ENERGY PREDICTED BY IDOCK:   -0.09 KCAL/MOL
REMARK 927      BINDING AFFINITY PREDICTED BY RF-SCORE:    0.00 PKD
ROOT
HETATM    1  C   UNL     1      -8.942   7.818  66.654  1.00  0.00    -0.175 C  
HETATM    2  C   UNL     1     -10.038   7.869  67.731  1.00  0.00    -0.192 C  
HETATM    3  C   UNL     1      -9.653   7.138  69.019  1.00  0.00    -0.146 C  
HETATM    4  O   UNL     1     -11.262   7.337  67.220  1.00  0.00    -0.579 OA 
HETATM    5  C   UNL     1     -10.280   9.369  68.063  1.00  0.00    -0.204 C  
HETATM    6  N   UNL     1     -11.342   9.627  68.921  1.00  0.00    -0.464 N  
HETATM    7  H   UNL     1     -11.939   7.368  67.885  1.00  0.00     0.000 HD 
HETATM    8  H   UNL     1     -11.894   8.836  69.253  1.00  0.00     0.000 HD 
HETATM    9  O   UNL     1      -9.513  10.236  67.646  1.00  0.00    -0.150 OA 
ENDROOT
BRANCH   3  10
HETATM   10  S   UNL     1      -9.140   5.458  68.736  1.00  0.00    -0.121 S  
HETATM   11  O   UNL     1      -7.714   5.431  68.493  1.00  0.00    -0.082 OA 
HETATM   12  O   UNL     1     -10.072   4.869  67.786  1.00  0.00    -0.153 OA 
BRANCH  10  13
HETATM   13  C   UNL     1      -9.389   4.664  70.305  1.00  0.00    -0.149 A  
HETATM   14  C   UNL     1     -10.062   5.371  71.309  1.00  0.00    -0.270 A  
HETATM   15  C   UNL     1      -8.922   3.365  70.527  1.00  0.00    -0.162 A  
HETATM   16  F   UNL     1     -10.118   2.856  73.918  1.00  0.00    -0.126 F  
HETATM   17  C   UNL     1     -10.309   4.752  72.533  1.00  0.00    -0.259 A  
HETATM   18  C   UNL     1      -9.167   2.757  71.760  1.00  0.00    -0.171 A  
HETATM   19  C   UNL     1      -9.867   3.451  72.745  1.00  0.00    -0.140 A  
ENDBRANCH  10  13
ENDBRANCH   3  10
BRANCH   6  20
HETATM   20  C   UNL     1     -11.703  10.923  69.364  1.00  0.00    -0.325 A  
HETATM   21  C   UNL     1     -11.150  14.566  68.357  1.00  0.00    -0.256 C  
HETATM   22  C   UNL     1     -11.607  13.364  69.147  1.00  0.00    -0.365 A  
HETATM   23  C   UNL     1     -12.502  14.782  70.968  1.00  0.00    -0.330 C  
HETATM   24  F   UNL     1     -10.550  14.247  67.177  1.00  0.00    -0.269 F  
HETATM   25  F   UNL     1     -12.179  15.393  68.030  1.00  0.00    -0.235 F  
HETATM   26  C   UNL     1     -12.673  12.344  71.072  1.00  0.00    -0.315 A  
HETATM   27  F   UNL     1     -10.248  15.322  69.038  1.00  0.00    -0.203 F  
HETATM   28  C   UNL     1     -11.351  12.074  68.650  1.00  0.00    -0.329 A  
HETATM   29  N   UNL     1     -12.690  15.819  71.454  1.00  0.00    -0.464 NA 
HETATM   30  C   UNL     1     -12.410  11.065  70.559  1.00  0.00    -0.462 A  
HETATM   31  C   UNL     1     -12.259  13.494  70.380  1.00  0.00    -0.426 A  
ENDBRANCH   6  20
TORSDOF 3
ENDMDL
MODEL       58
REMARK 921   NORMALIZED FREE ENERGY PREDICTED BY IDOCK:   -5.95 KCAL/MOL
REMARK 922        TOTAL FREE ENERGY PREDICTED BY IDOCK:   -7.61 KCAL/MOL
REMARK 923 INTER-LIGAND FREE ENERGY PREDICTED BY IDOCK:   -7.33 KCAL/MOL
REMARK 924 INTRA-LIGAND FREE ENERGY PREDICTED BY IDOCK:   -0.28 KCAL/MOL
REMARK 927      BINDING AFFINITY PREDICTED BY RF-SCORE:    0.00 PKD
ROOT
HETATM    1  C   UNL     1     -12.398  11.197  68.365  1.00  0.00     0.443 C  
HETATM    2  C   UNL     1     -11.312  11.884  69.209  1.00  0.00    -0.277 C  
HETATM    3  C   UNL     1     -10.178  10.940  69.617  1.00  0.00     0.021 C  
HETATM    4  O   UNL     1     -11.888  12.479  70.372  1.00  0.00    -0.516 OA 
HETATM    5  C   UNL     1     -10.718  13.030  68.341  1.00  0.00    -0.256 C  
HETATM    6  N   UNL     1      -9.811  13.860  68.988  1.00  0.00    -0.428 N  
HETATM    7  H   UNL     1     -11.218  12.903  70.894  1.00  0.00     0.000 HD 
HETATM    8  H   UNL     1      -9.615  13.682  69.972  1.00  0.00     0.000 HD 
HETATM    9  O   UNL     1     -10.988  13.116  67.143  1.00  0.00    -0.261 OA 
ENDROOT
BRANCH   3  10
HETATM   10  S   UNL     1     -10.759   9.470  70.432  1.00  0.00    -0.309 S  
HETATM   11  O   UNL     1     -12.163   9.622  70.745  1.00  0.00    -0.284 OA 
HETATM   12  O   UNL     1      -9.794   9.133  71.468  1.00  0.00    -0.304 OA 
BRANCH  10  13
HETATM   13  C   UNL     1     -10.666   8.218  69.175  1.00  0.00    -0.101 A  
HETATM   14  C   UNL     1     -11.111   6.928  69.488  1.00  0.00    -0.270 A  
HETATM   15  C   UNL     1     -10.162   8.520  67.907  1.00  0.00    -0.273 A  
HETATM   16  F   UNL     1     -10.607   5.298  66.291  1.00  0.00    -0.259 F  
HETATM   17  C   UNL     1     -11.091   5.940  68.505  1.00  0.00    -0.171 A  
HETATM   18  C   UNL     1     -10.137   7.521  66.931  1.00  0.00    -0.336 A  
HETATM   19  C   UNL     1     -10.612   6.247  67.236  1.00  0.00    -0.302 A  
ENDBRANCH  10  13
ENDBRANCH   3  10
BRANCH   6  20
HETATM   20  C   UNL     1      -9.142  14.940  68.361  1.00  0.00    -0.185 A  
HETATM   21  C   UNL     1      -9.322  18.754  68.235  1.00  0.00    -0.337 C  
HETATM   22  C   UNL     1      -8.886  17.341  67.931  1.00  0.00    -0.235 A  
HETATM   23  C   UNL     1      -7.342  18.100  66.151  1.00  0.00    -0.274 C  
HETATM   24  F   UNL     1     -10.244  18.837  69.234  1.00  0.00    -0.401 F  
HETATM   25  F   UNL     1      -8.287  19.543  68.628  1.00  0.00    -0.365 F  
HETATM   26  C   UNL     1      -7.555  15.726  66.706  1.00  0.00    -0.177 A  
HETATM   27  F   UNL     1      -9.887  19.365  67.160  1.00  0.00    -0.343 F  
HETATM   28  C   UNL     1      -9.467  16.273  68.637  1.00  0.00    -0.228 A  
HETATM   29  N   UNL     1      -6.871  18.936  65.499  1.00  0.00    -0.431 NA 
HETATM   30  C   UNL     1      -8.144  14.674  67.422  1.00  0.00    -0.216 A  
HETATM   31  C   UNL     1      -7.933  17.057  66.944  1.00  0.00    -0.256 A  
ENDBRANCH   6  20
TORSDOF 3
ENDMDL
MODEL       59
REMARK 921   NORMALIZED FREE ENERGY PREDICTED BY IDOCK:   -5.93 KCAL/MOL
REMARK 922        TOTAL FREE ENERGY PREDICTED BY IDOCK:   -7.59 KCAL/MOL
REMARK 923 INTER-LIGAND FREE ENERGY PREDICTED BY IDOCK:   -8.24 KCAL/MOL
REMARK 924 INTRA-LIGAND FREE ENERGY PREDICTED BY IDOCK:    0.65 KCAL/MOL
REMARK 927      BINDING AFFINITY PREDICTED BY RF-SCORE:    0.00 PKD
ROOT
HETATM    1  C   UNL     1     -12.246  11.836  71.062  1.00  0.00    -0.303 C  
HETATM    2  C   UNL     1     -11.856  10.904  69.903  1.00  0.00    -0.349 C  
HETATM    3  C   UNL     1     -10.716  11.454  69.043  1.00  0.00    -0.205 C  
HETATM    4  O   UNL     1     -12.993  10.631  69.081  1.00  0.00    -0.488 OA 
HETATM    5  C   UNL     1     -11.400   9.558  70.535  1.00  0.00    -0.283 C  
HETATM    6  N   UNL     1     -11.139   8.534  69.634  1.00  0.00    -0.438 N  
HETATM    7  H   UNL     1     -12.753  10.056  68.365  1.00  0.00     0.000 HD 
HETATM    8  H   UNL     1     -11.281   8.719  68.641  1.00  0.00     0.000 HD 
HETATM    9  O   UNL     1     -11.210   9.466  71.747  1.00  0.00    -0.376 OA 
ENDROOT
BRANCH   3  10
HETATM   10  S   UNL     1     -11.033  13.096  68.438  1.00  0.00    -0.274 S  
HETATM   11  O   UNL     1      -9.795  13.846  68.425  1.00  0.00    -0.222 OA 
HETATM   12  O   UNL     1     -12.206  13.601  69.136  1.00  0.00    -0.326 OA 
BRANCH  10  13
HETATM   13  C   UNL     1     -11.477  12.848  66.737  1.00  0.00    -0.340 A  
HETATM   14  C   UNL     1     -10.796  11.866  66.008  1.00  0.00    -0.342 A  
HETATM   15  C   UNL     1     -12.484  13.617  66.145  1.00  0.00    -0.449 A  
HETATM   16  F   UNL     1     -12.529  12.122  62.836  1.00  0.00    -0.493 F  
HETATM   17  C   UNL     1     -11.158  11.622  64.685  1.00  0.00    -0.342 A  
HETATM   18  C   UNL     1     -12.833  13.370  64.815  1.00  0.00    -0.222 A  
HETATM   19  C   UNL     1     -12.176  12.369  64.104  1.00  0.00    -0.468 A  
ENDBRANCH  10  13
ENDBRANCH   3  10
BRANCH   6  20
HETATM   20  C   UNL     1     -10.686   7.245  70.011  1.00  0.00    -0.245 A  
HETATM   21  C   UNL     1      -9.133   4.152  68.394  1.00  0.00    -0.132 C  
HETATM   22  C   UNL     1      -9.733   5.058  69.442  1.00  0.00    -0.254 A  
HETATM   23  C   UNL     1      -9.706   3.263  71.146  1.00  0.00    -0.142 C  
HETATM   24  F   UNL     1      -8.948   4.759  67.190  1.00  0.00    -0.111 F  
HETATM   25  F   UNL     1      -7.911   3.680  68.757  1.00  0.00    -0.056 F  
HETATM   26  C   UNL     1     -10.536   5.501  71.688  1.00  0.00    -0.292 A  
HETATM   27  F   UNL     1      -9.909   3.064  68.144  1.00  0.00    -0.224 F  
HETATM   28  C   UNL     1     -10.077   6.378  69.098  1.00  0.00    -0.194 A  
HETATM   29  N   UNL     1      -9.495   2.170  71.471  1.00  0.00    -0.120 NA 
HETATM   30  C   UNL     1     -10.870   6.814  71.326  1.00  0.00    -0.266 A  
HETATM   31  C   UNL     1      -9.984   4.616  70.747  1.00  0.00    -0.284 A  
ENDBRANCH   6  20
TORSDOF 3
ENDMDL
MODEL       60
REMARK 921   NORMALIZED FREE ENERGY PREDICTED BY IDOCK:   -5.92 KCAL/MOL
REMARK 922        TOTAL FREE ENERGY PREDICTED BY IDOCK:   -7.58 KCAL/MOL
REMARK 923 INTER-LIGAND FREE ENERGY PREDICTED BY IDOCK:   -7.64 KCAL/MOL
REMARK 924 INTRA-LIGAND FREE ENERGY PREDICTED BY IDOCK:    0.06 KCAL/MOL
REMARK 927      BINDING AFFINITY PREDICTED BY RF-SCORE:    0.00 PKD
ROOT
HETATM    1  C   UNL     1     -10.858   6.418  69.824  1.00  0.00    -0.373 C  
HETATM    2  C   UNL     1     -11.491   7.503  70.710  1.00  0.00    -0.284 C  
HETATM    3  C   UNL     1     -10.786   7.669  72.058  1.00  0.00    -0.227 C  
HETATM    4  O   UNL     1     -12.877   7.226  70.920  1.00  0.00    -0.574 OA 
HETATM    5  C   UNL     1     -11.394   8.843  69.928  1.00  0.00     0.017 C  
HETATM    6  N   UNL     1     -12.043   9.924  70.512  1.00  0.00    -0.405 N  
HETATM    7  H   UNL     1     -13.269   7.896  71.468  1.00  0.00     0.000 HD 
HETATM    8  H   UNL     1     -12.547   9.767  71.383  1.00  0.00     0.000 HD 
HETATM    9  O   UNL     1     -10.708   8.927  68.909  1.00  0.00    -0.197 OA 
ENDROOT
BRANCH   3  10
HETATM   10  S   UNL     1     -10.640   6.141  72.958  1.00  0.00    -0.255 S  
HETATM   11  O   UNL     1     -11.683   5.235  72.529  1.00  0.00    -0.177 OA 
HETATM   12  O   UNL     1     -10.471   6.476  74.364  1.00  0.00    -0.313 OA 
BRANCH  10  13
HETATM   13  C   UNL     1      -9.112   5.447  72.377  1.00  0.00    -0.137 A  
HETATM   14  C   UNL     1      -9.019   4.055  72.256  1.00  0.00    -0.137 A  
HETATM   15  C   UNL     1      -8.033   6.273  72.051  1.00  0.00    -0.109 A  
HETATM   16  F   UNL     1      -5.661   3.766  70.922  1.00  0.00    -0.011 F  
HETATM   17  C   UNL     1      -7.846   3.489  71.760  1.00  0.00    -0.061 A  
HETATM   18  C   UNL     1      -6.859   5.696  71.563  1.00  0.00    -0.066 A  
HETATM   19  C   UNL     1      -6.781   4.313  71.411  1.00  0.00    -0.030 A  
ENDBRANCH  10  13
ENDBRANCH   3  10
BRANCH   6  20
HETATM   20  C   UNL     1     -12.044  11.233  69.968  1.00  0.00    -0.348 A  
HETATM   21  C   UNL     1     -11.562  12.944  66.587  1.00  0.00    -0.372 C  
HETATM   22  C   UNL     1     -11.780  12.763  68.070  1.00  0.00    -0.405 A  
HETATM   23  C   UNL     1     -11.682  15.202  68.479  1.00  0.00    -0.325 C  
HETATM   24  F   UNL     1     -11.541  11.774  65.892  1.00  0.00    -0.387 F  
HETATM   25  F   UNL     1     -12.537  13.695  66.008  1.00  0.00    -0.456 F  
HETATM   26  C   UNL     1     -12.061  13.631  70.317  1.00  0.00    -0.427 A  
HETATM   27  F   UNL     1     -10.383  13.561  66.309  1.00  0.00    -0.270 F  
HETATM   28  C   UNL     1     -11.896  11.464  68.596  1.00  0.00    -0.377 A  
HETATM   29  N   UNL     1     -11.538  16.293  68.110  1.00  0.00    -0.184 NA 
HETATM   30  C   UNL     1     -12.175  12.328  70.822  1.00  0.00    -0.354 A  
HETATM   31  C   UNL     1     -11.847  13.853  68.947  1.00  0.00    -0.393 A  
ENDBRANCH   6  20
TORSDOF 3
ENDMDL
MODEL       61
REMARK 921   NORMALIZED FREE ENERGY PREDICTED BY IDOCK:   -5.88 KCAL/MOL
REMARK 922        TOTAL FREE ENERGY PREDICTED BY IDOCK:   -7.53 KCAL/MOL
REMARK 923 INTER-LIGAND FREE ENERGY PREDICTED BY IDOCK:   -7.28 KCAL/MOL
REMARK 924 INTRA-LIGAND FREE ENERGY PREDICTED BY IDOCK:   -0.25 KCAL/MOL
REMARK 927      BINDING AFFINITY PREDICTED BY RF-SCORE:    0.00 PKD
ROOT
HETATM    1  C   UNL     1      -9.448   8.506  71.725  1.00  0.00    -0.328 C  
HETATM    2  C   UNL     1      -8.749   9.110  70.496  1.00  0.00    -0.221 C  
HETATM    3  C   UNL     1      -8.117   8.057  69.583  1.00  0.00    -0.119 C  
HETATM    4  O   UNL     1      -7.758  10.055  70.902  1.00  0.00    -0.372 OA 
HETATM    5  C   UNL     1      -9.832   9.882  69.690  1.00  0.00    -0.232 C  
HETATM    6  N   UNL     1      -9.361  10.618  68.609  1.00  0.00    -0.169 N  
HETATM    7  H   UNL     1      -7.326  10.428  70.143  1.00  0.00     0.000 HD 
HETATM    8  H   UNL     1      -8.357  10.621  68.432  1.00  0.00     0.000 HD 
HETATM    9  O   UNL     1     -11.026   9.760  69.964  1.00  0.00    -0.244 OA 
ENDROOT
BRANCH   3  10
HETATM   10  S   UNL     1      -7.014   6.961  70.448  1.00  0.00    -0.064 S  
HETATM   11  O   UNL     1      -6.612   7.577  71.694  1.00  0.00    -0.042 OA 
HETATM   12  O   UNL     1      -6.023   6.492  69.491  1.00  0.00    -0.020 OA 
BRANCH  10  13
HETATM   13  C   UNL     1      -8.040   5.580  70.889  1.00  0.00    -0.114 A  
HETATM   14  C   UNL     1      -8.167   5.252  72.244  1.00  0.00    -0.118 A  
HETATM   15  C   UNL     1      -8.703   4.843  69.903  1.00  0.00    -0.117 A  
HETATM   16  F   UNL     1     -10.493   2.483  72.004  1.00  0.00    -0.222 F  
HETATM   17  C   UNL     1      -9.002   4.201  72.618  1.00  0.00    -0.124 A  
HETATM   18  C   UNL     1      -9.531   3.786  70.287  1.00  0.00    -0.257 A  
HETATM   19  C   UNL     1      -9.681   3.484  71.639  1.00  0.00    -0.163 A  
ENDBRANCH  10  13
ENDBRANCH   3  10
BRANCH   6  20
HETATM   20  C   UNL     1     -10.193  11.364  67.738  1.00  0.00    -0.181 A  
HETATM   21  C   UNL     1     -11.007  11.569  64.011  1.00  0.00    -0.383 C  
HETATM   22  C   UNL     1     -11.007  11.893  65.486  1.00  0.00    -0.347 A  
HETATM   23  C   UNL     1     -12.422  13.895  65.144  1.00  0.00    -0.453 C  
HETATM   24  F   UNL     1     -10.294  10.452  63.698  1.00  0.00    -0.336 F  
HETATM   25  F   UNL     1     -12.259  11.351  63.529  1.00  0.00    -0.474 F  
HETATM   26  C   UNL     1     -11.675  13.249  67.383  1.00  0.00    -0.419 A  
HETATM   27  F   UNL     1     -10.473  12.570  63.262  1.00  0.00    -0.419 F  
HETATM   28  C   UNL     1     -10.274  11.082  66.370  1.00  0.00    -0.284 A  
HETATM   29  N   UNL     1     -12.998  14.631  64.456  1.00  0.00    -0.344 NA 
HETATM   30  C   UNL     1     -10.939  12.426  68.249  1.00  0.00    -0.269 A  
HETATM   31  C   UNL     1     -11.698  12.996  66.001  1.00  0.00    -0.442 A  
ENDBRANCH   6  20
TORSDOF 3
ENDMDL
MODEL       62
REMARK 921   NORMALIZED FREE ENERGY PREDICTED BY IDOCK:   -5.87 KCAL/MOL
REMARK 922        TOTAL FREE ENERGY PREDICTED BY IDOCK:   -7.51 KCAL/MOL
REMARK 923 INTER-LIGAND FREE ENERGY PREDICTED BY IDOCK:   -7.36 KCAL/MOL
REMARK 924 INTRA-LIGAND FREE ENERGY PREDICTED BY IDOCK:   -0.16 KCAL/MOL
REMARK 927      BINDING AFFINITY PREDICTED BY RF-SCORE:    0.00 PKD
ROOT
HETATM    1  C   UNL     1     -12.398  14.441  68.725  1.00  0.00    -0.080 C  
HETATM    2  C   UNL     1     -11.631  13.164  68.347  1.00  0.00    -0.337 C  
HETATM    3  C   UNL     1     -10.204  13.437  67.865  1.00  0.00    -0.241 C  
HETATM    4  O   UNL     1     -12.346  12.430  67.352  1.00  0.00    -0.343 OA 
HETATM    5  C   UNL     1     -11.563  12.279  69.625  1.00  0.00    -0.278 C  
HETATM    6  N   UNL     1     -11.024  11.011  69.446  1.00  0.00    -0.240 N  
HETATM    7  H   UNL     1     -11.872  11.641  67.118  1.00  0.00     0.000 HD 
HETATM    8  H   UNL     1     -10.734  10.741  68.506  1.00  0.00     0.000 HD 
HETATM    9  O   UNL     1     -11.894  12.732  70.721  1.00  0.00    -0.140 OA 
ENDROOT
BRANCH   3  10
HETATM   10  S   UNL     1     -10.136  14.617  66.535  1.00  0.00    -0.289 S  
HETATM   11  O   UNL     1     -11.482  14.928  66.106  1.00  0.00    -0.341 OA 
HETATM   12  O   UNL     1      -9.138  14.149  65.585  1.00  0.00     0.216 OA 
BRANCH  10  13
HETATM   13  C   UNL     1      -9.509  16.091  67.302  1.00  0.00    -0.215 A  
HETATM   14  C   UNL     1     -10.393  17.154  67.521  1.00  0.00    -0.341 A  
HETATM   15  C   UNL     1      -8.165  16.181  67.675  1.00  0.00    -0.161 A  
HETATM   16  F   UNL     1      -8.171  19.485  69.183  1.00  0.00    -0.389 F  
HETATM   17  C   UNL     1      -9.934  18.303  68.162  1.00  0.00    -0.377 A  
HETATM   18  C   UNL     1      -7.713  17.341  68.309  1.00  0.00    -0.234 A  
HETATM   19  C   UNL     1      -8.603  18.384  68.556  1.00  0.00    -0.319 A  
ENDBRANCH  10  13
ENDBRANCH   3  10
BRANCH   6  20
HETATM   20  C   UNL     1     -10.852  10.070  70.491  1.00  0.00    -0.314 A  
HETATM   21  C   UNL     1      -8.057   7.992  72.060  1.00  0.00    -0.131 C  
HETATM   22  C   UNL     1      -9.436   8.541  71.784  1.00  0.00    -0.328 A  
HETATM   23  C   UNL     1     -10.486   6.972  73.385  1.00  0.00    -0.347 C  
HETATM   24  F   UNL     1      -7.073   8.602  71.345  1.00  0.00    -0.059 F  
HETATM   25  F   UNL     1      -7.698   8.126  73.365  1.00  0.00    -0.157 F  
HETATM   26  C   UNL     1     -11.833   8.601  72.151  1.00  0.00    -0.447 A  
HETATM   27  F   UNL     1      -7.959   6.668  71.767  1.00  0.00    -0.099 F  
HETATM   28  C   UNL     1      -9.593   9.560  70.828  1.00  0.00    -0.261 A  
HETATM   29  N   UNL     1     -10.425   6.095  74.142  1.00  0.00    -0.277 NA 
HETATM   30  C   UNL     1     -11.969   9.618  71.194  1.00  0.00    -0.452 A  
HETATM   31  C   UNL     1     -10.573   8.049  72.436  1.00  0.00    -0.373 A  
ENDBRANCH   6  20
TORSDOF 3
ENDMDL
MODEL       63
REMARK 921   NORMALIZED FREE ENERGY PREDICTED BY IDOCK:   -5.85 KCAL/MOL
REMARK 922        TOTAL FREE ENERGY PREDICTED BY IDOCK:   -7.49 KCAL/MOL
REMARK 923 INTER-LIGAND FREE ENERGY PREDICTED BY IDOCK:   -7.90 KCAL/MOL
REMARK 924 INTRA-LIGAND FREE ENERGY PREDICTED BY IDOCK:    0.41 KCAL/MOL
REMARK 927      BINDING AFFINITY PREDICTED BY RF-SCORE:    0.00 PKD
ROOT
HETATM    1  C   UNL     1     -11.273  12.235  65.780  1.00  0.00    -0.378 C  
HETATM    2  C   UNL     1     -11.004  13.212  66.937  1.00  0.00    -0.276 C  
HETATM    3  C   UNL     1     -10.213  12.584  68.087  1.00  0.00    -0.231 C  
HETATM    4  O   UNL     1     -12.233  13.748  67.431  1.00  0.00    -0.394 OA 
HETATM    5  C   UNL     1     -10.179  14.394  66.352  1.00  0.00    -0.289 C  
HETATM    6  N   UNL     1      -9.956  15.454  67.222  1.00  0.00    -0.225 N  
HETATM    7  H   UNL     1     -12.068  14.351  68.146  1.00  0.00     0.000 HD 
HETATM    8  H   UNL     1     -10.357  15.400  68.158  1.00  0.00     0.000 HD 
HETATM    9  O   UNL     1      -9.698  14.325  65.222  1.00  0.00    -0.230 OA 
ENDROOT
BRANCH   3  10
HETATM   10  S   UNL     1     -10.953  11.086  68.699  1.00  0.00    -0.247 S  
HETATM   11  O   UNL     1      -9.919  10.234  69.247  1.00  0.00    -0.205 OA 
HETATM   12  O   UNL     1     -11.861  10.594  67.674  1.00  0.00    -0.411 OA 
BRANCH  10  13
HETATM   13  C   UNL     1     -11.931  11.624  70.080  1.00  0.00    -0.351 A  
HETATM   14  C   UNL     1     -11.835  12.962  70.482  1.00  0.00    -0.152 A  
HETATM   15  C   UNL     1     -12.776  10.730  70.745  1.00  0.00    -0.451 A  
HETATM   16  F   UNL     1     -14.254  12.982  73.180  1.00  0.00     0.087 F  
HETATM   17  C   UNL     1     -12.627  13.418  71.534  1.00  0.00    -0.331 A  
HETATM   18  C   UNL     1     -13.559  11.196  71.803  1.00  0.00    -0.046 A  
HETATM   19  C   UNL     1     -13.485  12.535  72.179  1.00  0.00    -0.422 A  
ENDBRANCH  10  13
ENDBRANCH   3  10
BRANCH   6  20
HETATM   20  C   UNL     1      -9.204  16.607  66.886  1.00  0.00    -0.227 A  
HETATM   21  C   UNL     1      -9.770  20.335  66.274  1.00  0.00    -0.330 C  
HETATM   22  C   UNL     1      -9.069  19.002  66.376  1.00  0.00    -0.339 A  
HETATM   23  C   UNL     1      -6.952  19.941  65.501  1.00  0.00    -0.309 C  
HETATM   24  F   UNL     1     -11.068  20.301  66.683  1.00  0.00    -0.330 F  
HETATM   25  F   UNL     1      -9.174  21.294  67.032  1.00  0.00    -0.318 F  
HETATM   26  C   UNL     1      -7.116  17.584  66.138  1.00  0.00    -0.341 A  
HETATM   27  F   UNL     1      -9.796  20.810  65.000  1.00  0.00    -0.017 F  
HETATM   28  C   UNL     1      -9.786  17.878  66.822  1.00  0.00    -0.314 A  
HETATM   29  N   UNL     1      -6.327  20.820  65.074  1.00  0.00    -0.268 NA 
HETATM   30  C   UNL     1      -7.848  16.475  66.587  1.00  0.00    -0.321 A  
HETATM   31  C   UNL     1      -7.725  18.844  66.015  1.00  0.00    -0.239 A  
ENDBRANCH   6  20
TORSDOF 3
ENDMDL
MODEL       64
REMARK 921   NORMALIZED FREE ENERGY PREDICTED BY IDOCK:   -5.85 KCAL/MOL
REMARK 922        TOTAL FREE ENERGY PREDICTED BY IDOCK:   -7.49 KCAL/MOL
REMARK 923 INTER-LIGAND FREE ENERGY PREDICTED BY IDOCK:   -6.82 KCAL/MOL
REMARK 924 INTRA-LIGAND FREE ENERGY PREDICTED BY IDOCK:   -0.67 KCAL/MOL
REMARK 927      BINDING AFFINITY PREDICTED BY RF-SCORE:    0.00 PKD
ROOT
HETATM    1  C   UNL     1     -12.021  14.106  66.157  1.00  0.00    -0.437 C  
HETATM    2  C   UNL     1     -10.509  13.968  65.916  1.00  0.00    -0.309 C  
HETATM    3  C   UNL     1      -9.671  14.911  66.783  1.00  0.00    -0.251 C  
HETATM    4  O   UNL     1     -10.204  14.179  64.537  1.00  0.00    -0.612 OA 
HETATM    5  C   UNL     1     -10.125  12.501  66.262  1.00  0.00    -0.250 C  
HETATM    6  N   UNL     1      -8.814  12.142  65.972  1.00  0.00    -0.412 N  
HETATM    7  H   UNL     1      -9.270  14.095  64.387  1.00  0.00     0.000 HD 
HETATM    8  H   UNL     1      -8.209  12.841  65.542  1.00  0.00     0.000 HD 
HETATM    9  O   UNL     1     -10.925  11.760  66.832  1.00  0.00    -0.256 OA 
ENDROOT
BRANCH   3  10
HETATM   10  S   UNL     1     -10.169  16.613  66.637  1.00  0.00    -0.304 S  
HETATM   11  O   UNL     1     -11.134  16.916  67.671  1.00  0.00    -0.222 OA 
HETATM   12  O   UNL     1     -10.471  16.862  65.236  1.00  0.00    -0.638 OA 
BRANCH  10  13
HETATM   13  C   UNL     1      -8.702  17.526  67.047  1.00  0.00    -0.240 A  
HETATM   14  C   UNL     1      -8.761  18.436  68.109  1.00  0.00    -0.318 A  
HETATM   15  C   UNL     1      -7.520  17.335  66.325  1.00  0.00    -0.354 A  
HETATM   16  F   UNL     1      -5.323  19.583  68.144  1.00  0.00    -0.178 F  
HETATM   17  C   UNL     1      -7.611  19.131  68.479  1.00  0.00    -0.369 A  
HETATM   18  C   UNL     1      -6.375  18.043  66.698  1.00  0.00    -0.228 A  
HETATM   19  C   UNL     1      -6.429  18.923  67.777  1.00  0.00    -0.211 A  
ENDBRANCH  10  13
ENDBRANCH   3  10
BRANCH   6  20
HETATM   20  C   UNL     1      -8.267  10.863  66.240  1.00  0.00    -0.165 A  
HETATM   21  C   UNL     1      -7.902   7.472  64.520  1.00  0.00    -0.130 C  
HETATM   22  C   UNL     1      -7.827   8.542  65.582  1.00  0.00    -0.102 A  
HETATM   23  C   UNL     1      -6.949   6.948  67.260  1.00  0.00    -0.078 C  
HETATM   24  F   UNL     1      -8.368   7.923  63.323  1.00  0.00    -0.147 F  
HETATM   25  F   UNL     1      -6.688   6.920  64.254  1.00  0.00    -0.041 F  
HETATM   26  C   UNL     1      -7.299   9.304  67.823  1.00  0.00    -0.084 A  
HETATM   27  F   UNL     1      -8.723   6.448  64.873  1.00  0.00    -0.098 F  
HETATM   28  C   UNL     1      -8.262   9.844  65.281  1.00  0.00    -0.145 A  
HETATM   29  N   UNL     1      -6.629   5.880  67.582  1.00  0.00    -0.054 NA 
HETATM   30  C   UNL     1      -7.736  10.597  67.503  1.00  0.00    -0.101 A  
HETATM   31  C   UNL     1      -7.358   8.271  66.873  1.00  0.00    -0.084 A  
ENDBRANCH   6  20
TORSDOF 3
ENDMDL
MODEL       65
REMARK 921   NORMALIZED FREE ENERGY PREDICTED BY IDOCK:   -5.85 KCAL/MOL
REMARK 922        TOTAL FREE ENERGY PREDICTED BY IDOCK:   -7.49 KCAL/MOL
REMARK 923 INTER-LIGAND FREE ENERGY PREDICTED BY IDOCK:   -8.42 KCAL/MOL
REMARK 924 INTRA-LIGAND FREE ENERGY PREDICTED BY IDOCK:    0.93 KCAL/MOL
REMARK 927      BINDING AFFINITY PREDICTED BY RF-SCORE:    0.00 PKD
ROOT
HETATM    1  C   UNL     1     -12.122   9.139  72.066  1.00  0.00    -0.431 C  
HETATM    2  C   UNL     1     -11.132   9.281  70.898  1.00  0.00    -0.306 C  
HETATM    3  C   UNL     1     -10.869   7.964  70.165  1.00  0.00    -0.243 C  
HETATM    4  O   UNL     1      -9.897   9.834  71.358  1.00  0.00    -0.203 OA 
HETATM    5  C   UNL     1     -11.755  10.294  69.895  1.00  0.00    -0.225 C  
HETATM    6  N   UNL     1     -10.938  10.661  68.833  1.00  0.00    -0.231 N  
HETATM    7  H   UNL     1      -9.286   9.922  70.637  1.00  0.00     0.000 HD 
HETATM    8  H   UNL     1      -9.998  10.269  68.793  1.00  0.00     0.000 HD 
HETATM    9  O   UNL     1     -12.924  10.658  70.015  1.00  0.00    -0.173 OA 
ENDROOT
BRANCH   3  10
HETATM   10  S   UNL     1     -10.357   6.654  71.256  1.00  0.00    -0.207 S  
HETATM   11  O   UNL     1      -9.866   5.544  70.468  1.00  0.00    -0.173 OA 
HETATM   12  O   UNL     1     -11.413   6.465  72.239  1.00  0.00    -0.273 OA 
BRANCH  10  13
HETATM   13  C   UNL     1      -8.944   7.325  72.098  1.00  0.00    -0.131 A  
HETATM   14  C   UNL     1      -9.054   7.598  73.466  1.00  0.00    -0.317 A  
HETATM   15  C   UNL     1      -7.755   7.572  71.406  1.00  0.00    -0.085 A  
HETATM   16  F   UNL     1      -5.688   8.757  74.146  1.00  0.00    -0.096 F  
HETATM   17  C   UNL     1      -7.945   8.082  74.158  1.00  0.00    -0.292 A  
HETATM   18  C   UNL     1      -6.652   8.066  72.106  1.00  0.00    -0.067 A  
HETATM   19  C   UNL     1      -6.754   8.304  73.475  1.00  0.00    -0.120 A  
ENDBRANCH  10  13
ENDBRANCH   3  10
BRANCH   6  20
HETATM   20  C   UNL     1     -11.335  11.547  67.801  1.00  0.00    -0.296 A  
HETATM   21  C   UNL     1     -11.207  11.767  63.989  1.00  0.00    -0.385 C  
HETATM   22  C   UNL     1     -11.458  12.152  65.427  1.00  0.00    -0.387 A  
HETATM   23  C   UNL     1     -12.203  14.424  64.789  1.00  0.00    -0.446 C  
HETATM   24  F   UNL     1     -10.749  10.494  63.837  1.00  0.00    -0.326 F  
HETATM   25  F   UNL     1     -12.331  11.844  63.229  1.00  0.00    -0.600 F  
HETATM   26  C   UNL     1     -12.169  13.723  67.133  1.00  0.00    -0.352 A  
HETATM   27  F   UNL     1     -10.281  12.565  63.393  1.00  0.00    -0.403 F  
HETATM   28  C   UNL     1     -11.173  11.228  66.448  1.00  0.00    -0.190 A  
HETATM   29  N   UNL     1     -12.402  15.246  63.994  1.00  0.00    -0.643 NA 
HETATM   30  C   UNL     1     -11.882  12.786  68.137  1.00  0.00    -0.372 A  
HETATM   31  C   UNL     1     -11.944  13.417  65.781  1.00  0.00    -0.447 A  
ENDBRANCH   6  20
TORSDOF 3
ENDMDL
MODEL       66
REMARK 921   NORMALIZED FREE ENERGY PREDICTED BY IDOCK:   -5.83 KCAL/MOL
REMARK 922        TOTAL FREE ENERGY PREDICTED BY IDOCK:   -7.47 KCAL/MOL
REMARK 923 INTER-LIGAND FREE ENERGY PREDICTED BY IDOCK:   -7.36 KCAL/MOL
REMARK 924 INTRA-LIGAND FREE ENERGY PREDICTED BY IDOCK:   -0.11 KCAL/MOL
REMARK 927      BINDING AFFINITY PREDICTED BY RF-SCORE:    0.00 PKD
ROOT
HETATM    1  C   UNL     1     -11.921  13.269  66.571  1.00  0.00    -0.448 C  
HETATM    2  C   UNL     1     -10.578  12.722  67.083  1.00  0.00    -0.237 C  
HETATM    3  C   UNL     1     -10.250  13.167  68.509  1.00  0.00    -0.215 C  
HETATM    4  O   UNL     1      -9.519  13.099  66.202  1.00  0.00    -0.396 OA 
HETATM    5  C   UNL     1     -10.680  11.170  67.056  1.00  0.00    -0.268 C  
HETATM    6  N   UNL     1      -9.506  10.490  67.355  1.00  0.00    -0.153 N  
HETATM    7  H   UNL     1      -8.690  12.762  66.518  1.00  0.00     0.000 HD 
HETATM    8  H   UNL     1      -8.668  11.039  67.546  1.00  0.00     0.000 HD 
HETATM    9  O   UNL     1     -11.761  10.614  66.865  1.00  0.00    -0.042 OA 
ENDROOT
BRANCH   3  10
HETATM   10  S   UNL     1     -10.320  14.933  68.718  1.00  0.00    -0.250 S  
HETATM   11  O   UNL     1     -10.944  15.525  67.554  1.00  0.00    -0.311 OA 
HETATM   12  O   UNL     1      -9.008  15.373  69.167  1.00  0.00    -0.211 OA 
BRANCH  10  13
HETATM   13  C   UNL     1     -11.460  15.161  70.060  1.00  0.00    -0.286 A  
HETATM   14  C   UNL     1     -11.123  16.068  71.072  1.00  0.00    -0.238 A  
HETATM   15  C   UNL     1     -12.663  14.450  70.100  1.00  0.00    -0.259 A  
HETATM   16  F   UNL     1     -14.095  15.843  73.132  1.00  0.00    -0.628 F  
HETATM   17  C   UNL     1     -12.021  16.298  72.112  1.00  0.00    -0.575 A  
HETATM   18  C   UNL     1     -13.553  14.681  71.151  1.00  0.00    -0.404 A  
HETATM   19  C   UNL     1     -13.229  15.609  72.138  1.00  0.00    -0.461 A  
ENDBRANCH  10  13
ENDBRANCH   3  10
BRANCH   6  20
HETATM   20  C   UNL     1      -9.403   9.078  67.411  1.00  0.00    -0.139 A  
HETATM   21  C   UNL     1     -10.014   6.244  69.899  1.00  0.00    -0.169 C  
HETATM   22  C   UNL     1      -9.603   6.963  68.637  1.00  0.00    -0.133 A  
HETATM   23  C   UNL     1      -8.703   4.887  67.634  1.00  0.00    -0.103 C  
HETATM   24  F   UNL     1     -10.605   7.053  70.820  1.00  0.00    -0.219 F  
HETATM   25  F   UNL     1     -10.910   5.249  69.659  1.00  0.00    -0.369 F  
HETATM   26  C   UNL     1      -8.638   7.006  66.412  1.00  0.00    -0.136 A  
HETATM   27  F   UNL     1      -8.959   5.669  70.535  1.00  0.00    -0.129 F  
HETATM   28  C   UNL     1      -9.812   8.349  68.533  1.00  0.00    -0.186 A  
HETATM   29  N   UNL     1      -8.454   3.754  67.685  1.00  0.00    -0.094 NA 
HETATM   30  C   UNL     1      -8.857   8.389  66.328  1.00  0.00    -0.190 A  
HETATM   31  C   UNL     1      -8.993   6.293  67.568  1.00  0.00    -0.108 A  
ENDBRANCH   6  20
TORSDOF 3
ENDMDL
MODEL       67
REMARK 921   NORMALIZED FREE ENERGY PREDICTED BY IDOCK:   -5.77 KCAL/MOL
REMARK 922        TOTAL FREE ENERGY PREDICTED BY IDOCK:   -7.39 KCAL/MOL
REMARK 923 INTER-LIGAND FREE ENERGY PREDICTED BY IDOCK:   -7.14 KCAL/MOL
REMARK 924 INTRA-LIGAND FREE ENERGY PREDICTED BY IDOCK:   -0.26 KCAL/MOL
REMARK 927      BINDING AFFINITY PREDICTED BY RF-SCORE:    0.00 PKD
ROOT
HETATM    1  C   UNL     1     -12.137  13.494  68.322  1.00  0.00    -0.295 C  
HETATM    2  C   UNL     1     -11.363  12.516  67.423  1.00  0.00    -0.313 C  
HETATM    3  C   UNL     1     -10.177  13.165  66.706  1.00  0.00    -0.252 C  
HETATM    4  O   UNL     1     -12.240  11.921  66.465  1.00  0.00    -0.483 OA 
HETATM    5  C   UNL     1     -10.829  11.379  68.340  1.00  0.00    -0.207 C  
HETATM    6  N   UNL     1     -10.217  10.320  67.683  1.00  0.00    -0.193 N  
HETATM    7  H   UNL     1     -11.762  11.317  65.909  1.00  0.00     0.000 HD 
HETATM    8  H   UNL     1     -10.178  10.345  66.664  1.00  0.00     0.000 HD 
HETATM    9  O   UNL     1     -10.884  11.483  69.565  1.00  0.00    -0.179 OA 
ENDROOT
BRANCH   3  10
HETATM   10  S   UNL     1     -10.633  14.622  65.791  1.00  0.00    -0.342 S  
HETATM   11  O   UNL     1     -12.057  14.841  65.923  1.00  0.00    -0.246 OA 
HETATM   12  O   UNL     1     -10.010  14.527  64.479  1.00  0.00    -0.116 OA 
BRANCH  10  13
HETATM   13  C   UNL     1      -9.845  15.946  66.673  1.00  0.00    -0.254 A  
HETATM   14  C   UNL     1      -8.547  16.314  66.300  1.00  0.00    -0.374 A  
HETATM   15  C   UNL     1     -10.510  16.602  67.714  1.00  0.00    -0.316 A  
HETATM   16  F   UNL     1      -8.000  19.081  68.576  1.00  0.00    -0.318 F  
HETATM   17  C   UNL     1      -7.925  17.380  66.947  1.00  0.00    -0.257 A  
HETATM   18  C   UNL     1      -9.875  17.663  68.362  1.00  0.00    -0.334 A  
HETATM   19  C   UNL     1      -8.596  18.049  67.965  1.00  0.00    -0.264 A  
ENDBRANCH  10  13
ENDBRANCH   3  10
BRANCH   6  20
HETATM   20  C   UNL     1      -9.642   9.205  68.344  1.00  0.00    -0.151 A  
HETATM   21  C   UNL     1     -10.773   6.055  70.185  1.00  0.00    -0.311 C  
HETATM   22  C   UNL     1      -9.868   7.118  69.611  1.00  0.00    -0.162 A  
HETATM   23  C   UNL     1      -7.861   6.098  70.640  1.00  0.00    -0.106 C  
HETATM   24  F   UNL     1     -12.084   6.218  69.854  1.00  0.00    -0.437 F  
HETATM   25  F   UNL     1     -10.442   4.807  69.758  1.00  0.00    -0.326 F  
HETATM   26  C   UNL     1      -7.684   8.116  69.267  1.00  0.00    -0.104 A  
HETATM   27  F   UNL     1     -10.737   6.022  71.543  1.00  0.00    -0.259 F  
HETATM   28  C   UNL     1     -10.425   8.164  68.854  1.00  0.00    -0.202 A  
HETATM   29  N   UNL     1      -7.353   5.292  71.303  1.00  0.00    -0.080 NA 
HETATM   30  C   UNL     1      -8.259   9.150  68.513  1.00  0.00    -0.115 A  
HETATM   31  C   UNL     1      -8.484   7.109  69.831  1.00  0.00    -0.140 A  
ENDBRANCH   6  20
TORSDOF 3
ENDMDL
MODEL       68
REMARK 921   NORMALIZED FREE ENERGY PREDICTED BY IDOCK:   -5.73 KCAL/MOL
REMARK 922        TOTAL FREE ENERGY PREDICTED BY IDOCK:   -7.35 KCAL/MOL
REMARK 923 INTER-LIGAND FREE ENERGY PREDICTED BY IDOCK:   -7.25 KCAL/MOL
REMARK 924 INTRA-LIGAND FREE ENERGY PREDICTED BY IDOCK:   -0.10 KCAL/MOL
REMARK 927      BINDING AFFINITY PREDICTED BY RF-SCORE:    0.00 PKD
ROOT
HETATM    1  C   UNL     1     -11.372   7.789  70.111  1.00  0.00    -0.121 C  
HETATM    2  C   UNL     1     -11.029   9.215  70.571  1.00  0.00    -0.258 C  
HETATM    3  C   UNL     1      -9.666   9.316  71.261  1.00  0.00    -0.229 C  
HETATM    4  O   UNL     1     -12.048   9.717  71.437  1.00  0.00    -0.345 OA 
HETATM    5  C   UNL     1     -11.010  10.111  69.300  1.00  0.00    -0.240 C  
HETATM    6  N   UNL     1     -10.853  11.472  69.530  1.00  0.00    -0.440 N  
HETATM    7  H   UNL     1     -11.836  10.598  71.721  1.00  0.00     0.000 HD 
HETATM    8  H   UNL     1     -10.785  11.790  70.497  1.00  0.00     0.000 HD 
HETATM    9  O   UNL     1     -11.047   9.609  68.176  1.00  0.00    -0.176 OA 
ENDROOT
BRANCH   3  10
HETATM   10  S   UNL     1      -9.486   8.170  72.610  1.00  0.00    -0.286 S  
HETATM   11  O   UNL     1     -10.789   7.891  73.175  1.00  0.00    -0.375 OA 
HETATM   12  O   UNL     1      -8.395   8.645  73.446  1.00  0.00    -0.398 OA 
BRANCH  10  13
HETATM   13  C   UNL     1      -8.956   6.666  71.827  1.00  0.00    -0.140 A  
HETATM   14  C   UNL     1      -7.952   6.742  70.854  1.00  0.00    -0.106 A  
HETATM   15  C   UNL     1      -9.531   5.441  72.177  1.00  0.00    -0.164 A  
HETATM   16  F   UNL     1      -7.584   3.225  70.059  1.00  0.00    -0.044 F  
HETATM   17  C   UNL     1      -7.488   5.571  70.258  1.00  0.00    -0.076 A  
HETATM   18  C   UNL     1      -9.065   4.274  71.568  1.00  0.00    -0.176 A  
HETATM   19  C   UNL     1      -8.042   4.349  70.625  1.00  0.00    -0.067 A  
ENDBRANCH  10  13
ENDBRANCH   3  10
BRANCH   6  20
HETATM   20  C   UNL     1     -10.783  12.445  68.503  1.00  0.00    -0.238 A  
HETATM   21  C   UNL     1      -8.741  15.549  67.613  1.00  0.00    -0.175 C  
HETATM   22  C   UNL     1      -9.797  14.473  67.538  1.00  0.00    -0.222 A  
HETATM   23  C   UNL     1     -10.884  15.544  65.588  1.00  0.00    -0.346 C  
HETATM   24  F   UNL     1      -7.845  15.363  68.621  1.00  0.00    -0.121 F  
HETATM   25  F   UNL     1      -8.001  15.629  66.476  1.00  0.00    -0.272 F  
HETATM   26  C   UNL     1     -11.752  13.456  66.524  1.00  0.00    -0.415 A  
HETATM   27  F   UNL     1      -9.274  16.784  67.816  1.00  0.00    -0.213 F  
HETATM   28  C   UNL     1      -9.798  13.439  68.490  1.00  0.00    -0.178 A  
HETATM   29  N   UNL     1     -10.967  16.401  64.811  1.00  0.00    -0.684 NA 
HETATM   30  C   UNL     1     -11.735  12.432  67.482  1.00  0.00    -0.425 A  
HETATM   31  C   UNL     1     -10.798  14.485  66.557  1.00  0.00    -0.314 A  
ENDBRANCH   6  20
TORSDOF 3
ENDMDL
MODEL       69
REMARK 921   NORMALIZED FREE ENERGY PREDICTED BY IDOCK:   -5.70 KCAL/MOL
REMARK 922        TOTAL FREE ENERGY PREDICTED BY IDOCK:   -7.31 KCAL/MOL
REMARK 923 INTER-LIGAND FREE ENERGY PREDICTED BY IDOCK:   -7.19 KCAL/MOL
REMARK 924 INTRA-LIGAND FREE ENERGY PREDICTED BY IDOCK:   -0.13 KCAL/MOL
REMARK 927      BINDING AFFINITY PREDICTED BY RF-SCORE:    0.00 PKD
ROOT
HETATM    1  C   UNL     1      -8.908   7.078  66.223  1.00  0.00    -0.164 C  
HETATM    2  C   UNL     1      -9.952   7.479  67.278  1.00  0.00    -0.210 C  
HETATM    3  C   UNL     1      -9.638   6.936  68.674  1.00  0.00    -0.133 C  
HETATM    4  O   UNL     1     -11.255   7.054  66.875  1.00  0.00    -0.594 OA 
HETATM    5  C   UNL     1      -9.964   9.033  67.339  1.00  0.00    -0.209 C  
HETATM    6  N   UNL     1     -10.950   9.592  68.142  1.00  0.00    -0.469 N  
HETATM    7  H   UNL     1     -11.900   7.301  67.527  1.00  0.00     0.000 HD 
HETATM    8  H   UNL     1     -11.600   8.963  68.612  1.00  0.00     0.000 HD 
HETATM    9  O   UNL     1      -9.092   9.691  66.771  1.00  0.00    -0.142 OA 
ENDROOT
BRANCH   3  10
HETATM   10  S   UNL     1      -9.383   5.176  68.692  1.00  0.00    -0.133 S  
HETATM   11  O   UNL     1      -7.970   4.898  68.549  1.00  0.00    -0.084 OA 
HETATM   12  O   UNL     1     -10.357   4.583  67.788  1.00  0.00     0.010 OA 
BRANCH  10  13
HETATM   13  C   UNL     1      -9.816   4.697  70.347  1.00  0.00    -0.236 A  
HETATM   14  C   UNL     1      -9.519   3.393  70.760  1.00  0.00    -0.240 A  
HETATM   15  C   UNL     1     -10.436   5.604  71.210  1.00  0.00    -0.299 A  
HETATM   16  F   UNL     1     -10.665   3.548  74.195  1.00  0.00    -0.218 F  
HETATM   17  C   UNL     1      -9.807   3.008  72.068  1.00  0.00    -0.242 A  
HETATM   18  C   UNL     1     -10.730   5.206  72.516  1.00  0.00    -0.286 A  
HETATM   19  C   UNL     1     -10.402   3.918  72.935  1.00  0.00    -0.168 A  
ENDBRANCH  10  13
ENDBRANCH   3  10
BRANCH   6  20
HETATM   20  C   UNL     1     -11.105  10.985  68.349  1.00  0.00    -0.251 A  
HETATM   21  C   UNL     1     -12.405  13.368  71.038  1.00  0.00    -0.315 C  
HETATM   22  C   UNL     1     -11.842  12.877  69.726  1.00  0.00    -0.380 A  
HETATM   23  C   UNL     1     -11.897  15.147  68.743  1.00  0.00    -0.303 C  
HETATM   24  F   UNL     1     -12.562  12.384  71.966  1.00  0.00    -0.274 F  
HETATM   25  F   UNL     1     -11.611  14.301  71.626  1.00  0.00    -0.296 F  
HETATM   26  C   UNL     1     -11.062  13.239  67.458  1.00  0.00    -0.292 A  
HETATM   27  F   UNL     1     -13.631  13.938  70.894  1.00  0.00    -0.288 F  
HETATM   28  C   UNL     1     -11.577  11.506  69.560  1.00  0.00    -0.400 A  
HETATM   29  N   UNL     1     -12.148  16.278  68.803  1.00  0.00     0.092 NA 
HETATM   30  C   UNL     1     -10.803  11.868  67.312  1.00  0.00    -0.294 A  
HETATM   31  C   UNL     1     -11.596  13.744  68.655  1.00  0.00    -0.369 A  
ENDBRANCH   6  20
TORSDOF 3
ENDMDL
MODEL       70
REMARK 921   NORMALIZED FREE ENERGY PREDICTED BY IDOCK:   -5.69 KCAL/MOL
REMARK 922        TOTAL FREE ENERGY PREDICTED BY IDOCK:   -7.30 KCAL/MOL
REMARK 923 INTER-LIGAND FREE ENERGY PREDICTED BY IDOCK:   -6.88 KCAL/MOL
REMARK 924 INTRA-LIGAND FREE ENERGY PREDICTED BY IDOCK:   -0.42 KCAL/MOL
REMARK 927      BINDING AFFINITY PREDICTED BY RF-SCORE:    0.00 PKD
ROOT
HETATM    1  C   UNL     1     -12.075   9.248  72.412  1.00  0.00    -0.139 C  
HETATM    2  C   UNL     1     -10.946   9.100  71.379  1.00  0.00    -0.344 C  
HETATM    3  C   UNL     1     -10.712   7.651  70.944  1.00  0.00    -0.235 C  
HETATM    4  O   UNL     1      -9.731   9.654  71.887  1.00  0.00     0.087 OA 
HETATM    5  C   UNL     1     -11.358   9.935  70.133  1.00  0.00    -0.275 C  
HETATM    6  N   UNL     1     -10.393  10.037  69.138  1.00  0.00    -0.202 N  
HETATM    7  H   UNL     1      -9.034   9.563  71.249  1.00  0.00     0.000 HD 
HETATM    8  H   UNL     1      -9.492   9.588  69.295  1.00  0.00     0.000 HD 
HETATM    9  O   UNL     1     -12.498  10.387  70.028  1.00  0.00    -0.237 OA 
ENDROOT
BRANCH   3  10
HETATM   10  S   UNL     1     -10.446   6.550  72.315  1.00  0.00    -0.207 S  
HETATM   11  O   UNL     1     -11.725   6.081  72.804  1.00  0.00    -0.218 OA 
HETATM   12  O   UNL     1      -9.491   7.186  73.209  1.00  0.00    -0.151 OA 
BRANCH  10  13
HETATM   13  C   UNL     1      -9.651   5.140  71.584  1.00  0.00    -0.154 A  
HETATM   14  C   UNL     1     -10.097   4.701  70.331  1.00  0.00    -0.275 A  
HETATM   15  C   UNL     1      -8.606   4.490  72.247  1.00  0.00    -0.118 A  
HETATM   16  F   UNL     1      -7.784   1.969  69.766  1.00  0.00    -0.042 F  
HETATM   17  C   UNL     1      -9.458   3.625  69.717  1.00  0.00    -0.254 A  
HETATM   18  C   UNL     1      -7.979   3.407  71.627  1.00  0.00    -0.058 A  
HETATM   19  C   UNL     1      -8.402   2.994  70.366  1.00  0.00    -0.048 A  
ENDBRANCH  10  13
ENDBRANCH   3  10
BRANCH   6  20
HETATM   20  C   UNL     1     -10.588  10.729  67.917  1.00  0.00    -0.221 A  
HETATM   21  C   UNL     1     -11.905  14.103  66.700  1.00  0.00    -0.424 C  
HETATM   22  C   UNL     1     -11.354  12.697  66.670  1.00  0.00    -0.379 A  
HETATM   23  C   UNL     1     -11.502  12.590  64.201  1.00  0.00    -0.385 C  
HETATM   24  F   UNL     1     -12.010  14.620  67.954  1.00  0.00    -0.353 F  
HETATM   25  F   UNL     1     -11.127  14.978  66.008  1.00  0.00    -0.323 F  
HETATM   26  C   UNL     1     -10.636  10.701  65.494  1.00  0.00    -0.180 A  
HETATM   27  F   UNL     1     -13.150  14.183  66.161  1.00  0.00    -0.444 F  
HETATM   28  C   UNL     1     -11.050  12.050  67.880  1.00  0.00    -0.289 A  
HETATM   29  N   UNL     1     -11.788  13.052  63.176  1.00  0.00    -0.373 NA 
HETATM   30  C   UNL     1     -10.336  10.073  66.712  1.00  0.00    -0.283 A  
HETATM   31  C   UNL     1     -11.160  12.004  65.468  1.00  0.00    -0.361 A  
ENDBRANCH   6  20
TORSDOF 3
ENDMDL
MODEL       71
REMARK 921   NORMALIZED FREE ENERGY PREDICTED BY IDOCK:   -5.68 KCAL/MOL
REMARK 922        TOTAL FREE ENERGY PREDICTED BY IDOCK:   -7.29 KCAL/MOL
REMARK 923 INTER-LIGAND FREE ENERGY PREDICTED BY IDOCK:   -7.37 KCAL/MOL
REMARK 924 INTRA-LIGAND FREE ENERGY PREDICTED BY IDOCK:    0.09 KCAL/MOL
REMARK 927      BINDING AFFINITY PREDICTED BY RF-SCORE:    0.00 PKD
ROOT
HETATM    1  C   UNL     1     -10.504  10.622  64.956  1.00  0.00    -0.278 C  
HETATM    2  C   UNL     1     -10.619  11.463  66.238  1.00  0.00    -0.263 C  
HETATM    3  C   UNL     1      -9.704  10.976  67.364  1.00  0.00    -0.168 C  
HETATM    4  O   UNL     1     -11.973  11.492  66.694  1.00  0.00    -0.428 OA 
HETATM    5  C   UNL     1     -10.219  12.919  65.865  1.00  0.00    -0.290 C  
HETATM    6  N   UNL     1     -10.395  13.862  66.870  1.00  0.00    -0.264 N  
HETATM    7  H   UNL     1     -12.044  12.010  67.486  1.00  0.00     0.000 HD 
HETATM    8  H   UNL     1     -10.787  13.550  67.758  1.00  0.00     0.000 HD 
HETATM    9  O   UNL     1      -9.703  13.169  64.776  1.00  0.00    -0.047 OA 
ENDROOT
BRANCH   3  10
HETATM   10  S   UNL     1      -9.918   9.248  67.733  1.00  0.00    -0.203 S  
HETATM   11  O   UNL     1      -8.626   8.654  67.998  1.00  0.00    -0.135 OA 
HETATM   12  O   UNL     1     -10.805   8.691  66.723  1.00  0.00    -0.145 OA 
BRANCH  10  13
HETATM   13  C   UNL     1     -10.789   9.246  69.281  1.00  0.00    -0.152 A  
HETATM   14  C   UNL     1     -11.326  10.454  69.743  1.00  0.00    -0.353 A  
HETATM   15  C   UNL     1     -10.932   8.065  70.015  1.00  0.00    -0.202 A  
HETATM   16  F   UNL     1     -12.926   9.304  72.785  1.00  0.00    -0.453 F  
HETATM   17  C   UNL     1     -12.052  10.468  70.933  1.00  0.00    -0.487 A  
HETATM   18  C   UNL     1     -11.654   8.092  71.210  1.00  0.00    -0.306 A  
HETATM   19  C   UNL     1     -12.216   9.288  71.650  1.00  0.00    -0.370 A  
ENDBRANCH  10  13
ENDBRANCH   3  10
BRANCH   6  20
HETATM   20  C   UNL     1     -10.062  15.233  66.734  1.00  0.00    -0.258 A  
HETATM   21  C   UNL     1      -7.666  17.778  68.275  1.00  0.00    -0.266 C  
HETATM   22  C   UNL     1      -8.766  17.200  67.418  1.00  0.00    -0.211 A  
HETATM   23  C   UNL     1      -9.386  19.429  66.540  1.00  0.00    -0.359 C  
HETATM   24  F   UNL     1      -6.990  16.845  68.999  1.00  0.00    -0.177 F  
HETATM   25  F   UNL     1      -6.722  18.424  67.539  1.00  0.00    -0.188 F  
HETATM   26  C   UNL     1     -10.566  17.415  65.806  1.00  0.00    -0.185 A  
HETATM   27  F   UNL     1      -8.134  18.679  69.179  1.00  0.00    -0.286 F  
HETATM   28  C   UNL     1      -9.021  15.818  67.464  1.00  0.00    -0.201 A  
HETATM   29  N   UNL     1      -9.258  20.582  66.503  1.00  0.00    -0.169 NA 
HETATM   30  C   UNL     1     -10.804  16.034  65.865  1.00  0.00    -0.210 A  
HETATM   31  C   UNL     1      -9.561  18.004  66.591  1.00  0.00    -0.315 A  
ENDBRANCH   6  20
TORSDOF 3
ENDMDL
MODEL       72
REMARK 921   NORMALIZED FREE ENERGY PREDICTED BY IDOCK:   -5.68 KCAL/MOL
REMARK 922        TOTAL FREE ENERGY PREDICTED BY IDOCK:   -7.29 KCAL/MOL
REMARK 923 INTER-LIGAND FREE ENERGY PREDICTED BY IDOCK:   -7.88 KCAL/MOL
REMARK 924 INTRA-LIGAND FREE ENERGY PREDICTED BY IDOCK:    0.59 KCAL/MOL
REMARK 927      BINDING AFFINITY PREDICTED BY RF-SCORE:    0.00 PKD
ROOT
HETATM    1  C   UNL     1      -9.986  10.042  65.182  1.00  0.00    -0.350 C  
HETATM    2  C   UNL     1     -10.146  10.429  66.661  1.00  0.00    -0.224 C  
HETATM    3  C   UNL     1     -11.394  11.273  66.932  1.00  0.00    -0.155 C  
HETATM    4  O   UNL     1      -8.984  11.121  67.123  1.00  0.00    -0.142 OA 
HETATM    5  C   UNL     1     -10.256   9.105  67.469  1.00  0.00    -0.245 C  
HETATM    6  N   UNL     1     -10.267   9.247  68.851  1.00  0.00    -0.196 N  
HETATM    7  H   UNL     1      -9.083  11.360  68.036  1.00  0.00     0.000 HD 
HETATM    8  H   UNL     1     -10.183  10.187  69.237  1.00  0.00     0.000 HD 
HETATM    9  O   UNL     1     -10.407   8.028  66.892  1.00  0.00    -0.306 OA 
ENDROOT
BRANCH   3  10
HETATM   10  S   UNL     1     -11.491  12.718  65.899  1.00  0.00    -0.377 S  
HETATM   11  O   UNL     1     -12.853  12.883  65.439  1.00  0.00    -0.599 OA 
HETATM   12  O   UNL     1     -10.385  12.657  64.955  1.00  0.00    -0.296 OA 
BRANCH  10  13
HETATM   13  C   UNL     1     -11.180  14.065  67.014  1.00  0.00    -0.313 A  
HETATM   14  C   UNL     1     -10.050  14.862  66.795  1.00  0.00    -0.254 A  
HETATM   15  C   UNL     1     -12.046  14.318  68.082  1.00  0.00    -0.275 A  
HETATM   16  F   UNL     1     -10.457  17.274  69.469  1.00  0.00    -0.321 F  
HETATM   17  C   UNL     1      -9.810  15.952  67.630  1.00  0.00    -0.233 A  
HETATM   18  C   UNL     1     -11.791  15.407  68.919  1.00  0.00    -0.350 A  
HETATM   19  C   UNL     1     -10.685  16.219  68.677  1.00  0.00    -0.309 A  
ENDBRANCH  10  13
ENDBRANCH   3  10
BRANCH   6  20
HETATM   20  C   UNL     1     -10.390   8.164  69.756  1.00  0.00    -0.216 A  
HETATM   21  C   UNL     1      -9.413   7.289  73.344  1.00  0.00    -0.208 C  
HETATM   22  C   UNL     1      -9.960   7.144  71.945  1.00  0.00    -0.180 A  
HETATM   23  C   UNL     1     -10.453   4.742  72.284  1.00  0.00    -0.189 C  
HETATM   24  F   UNL     1      -8.986   8.548  73.635  1.00  0.00    -0.288 F  
HETATM   25  F   UNL     1     -10.338   6.989  74.295  1.00  0.00    -0.374 F  
HETATM   26  C   UNL     1     -10.967   5.845  70.161  1.00  0.00    -0.412 A  
HETATM   27  F   UNL     1      -8.348   6.476  73.571  1.00  0.00    -0.117 F  
HETATM   28  C   UNL     1      -9.946   8.253  71.080  1.00  0.00    -0.230 A  
HETATM   29  N   UNL     1     -10.439   3.780  72.932  1.00  0.00    -0.171 NA 
HETATM   30  C   UNL     1     -10.947   6.964  69.315  1.00  0.00    -0.260 A  
HETATM   31  C   UNL     1     -10.461   5.926  71.468  1.00  0.00    -0.287 A  
ENDBRANCH   6  20
TORSDOF 3
ENDMDL
MODEL       73
REMARK 921   NORMALIZED FREE ENERGY PREDICTED BY IDOCK:   -5.64 KCAL/MOL
REMARK 922        TOTAL FREE ENERGY PREDICTED BY IDOCK:   -7.25 KCAL/MOL
REMARK 923 INTER-LIGAND FREE ENERGY PREDICTED BY IDOCK:   -6.60 KCAL/MOL
REMARK 924 INTRA-LIGAND FREE ENERGY PREDICTED BY IDOCK:   -0.65 KCAL/MOL
REMARK 927      BINDING AFFINITY PREDICTED BY RF-SCORE:    0.00 PKD
ROOT
HETATM    1  C   UNL     1     -10.271  11.986  64.662  1.00  0.00    -0.313 C  
HETATM    2  C   UNL     1      -9.837  11.817  66.128  1.00  0.00    -0.229 C  
HETATM    3  C   UNL     1     -10.791  12.485  67.121  1.00  0.00    -0.250 C  
HETATM    4  O   UNL     1      -8.513  12.320  66.316  1.00  0.00    -0.397 OA 
HETATM    5  C   UNL     1      -9.804  10.290  66.419  1.00  0.00    -0.217 C  
HETATM    6  N   UNL     1      -9.297   9.929  67.661  1.00  0.00    -0.140 N  
HETATM    7  H   UNL     1      -8.245  12.216  67.221  1.00  0.00     0.000 HD 
HETATM    8  H   UNL     1      -8.967  10.671  68.278  1.00  0.00     0.000 HD 
HETATM    9  O   UNL     1     -10.282   9.487  65.617  1.00  0.00    -0.228 OA 
ENDROOT
BRANCH   3  10
HETATM   10  S   UNL     1     -11.083  14.201  66.755  1.00  0.00    -0.318 S  
HETATM   11  O   UNL     1     -12.337  14.330  66.046  1.00  0.00    -0.432 OA 
HETATM   12  O   UNL     1      -9.852  14.746  66.201  1.00  0.00    -0.279 OA 
BRANCH  10  13
HETATM   13  C   UNL     1     -11.338  14.942  68.348  1.00  0.00    -0.303 A  
HETATM   14  C   UNL     1     -12.182  14.292  69.256  1.00  0.00    -0.289 A  
HETATM   15  C   UNL     1     -10.708  16.144  68.683  1.00  0.00    -0.295 A  
HETATM   16  F   UNL     1     -11.881  16.519  72.099  1.00  0.00    -0.530 F  
HETATM   17  C   UNL     1     -12.362  14.830  70.529  1.00  0.00    -0.398 A  
HETATM   18  C   UNL     1     -10.901  16.680  69.958  1.00  0.00    -0.173 A  
HETATM   19  C   UNL     1     -11.715  16.013  70.870  1.00  0.00    -0.402 A  
ENDBRANCH  10  13
ENDBRANCH   3  10
BRANCH   6  20
HETATM   20  C   UNL     1      -9.212   8.592  68.123  1.00  0.00    -0.137 A  
HETATM   21  C   UNL     1      -7.008   5.512  67.626  1.00  0.00    -0.066 C  
HETATM   22  C   UNL     1      -8.139   6.387  68.110  1.00  0.00    -0.113 A  
HETATM   23  C   UNL     1      -9.246   4.490  69.251  1.00  0.00    -0.133 C  
HETATM   24  F   UNL     1      -6.077   6.180  66.892  1.00  0.00    -0.021 F  
HETATM   25  F   UNL     1      -6.323   4.937  68.650  1.00  0.00    -0.030 F  
HETATM   26  C   UNL     1     -10.208   6.739  69.326  1.00  0.00    -0.197 A  
HETATM   27  F   UNL     1      -7.443   4.496  66.834  1.00  0.00    -0.076 F  
HETATM   28  C   UNL     1      -8.163   7.746  67.749  1.00  0.00    -0.126 A  
HETATM   29  N   UNL     1      -9.308   3.366  69.533  1.00  0.00    -0.163 NA 
HETATM   30  C   UNL     1     -10.213   8.092  68.956  1.00  0.00    -0.217 A  
HETATM   31  C   UNL     1      -9.184   5.880  68.893  1.00  0.00    -0.126 A  
ENDBRANCH   6  20
TORSDOF 3
ENDMDL
MODEL       74
REMARK 921   NORMALIZED FREE ENERGY PREDICTED BY IDOCK:   -5.61 KCAL/MOL
REMARK 922        TOTAL FREE ENERGY PREDICTED BY IDOCK:   -7.21 KCAL/MOL
REMARK 923 INTER-LIGAND FREE ENERGY PREDICTED BY IDOCK:   -6.81 KCAL/MOL
REMARK 924 INTRA-LIGAND FREE ENERGY PREDICTED BY IDOCK:   -0.40 KCAL/MOL
REMARK 927      BINDING AFFINITY PREDICTED BY RF-SCORE:    0.00 PKD
ROOT
HETATM    1  C   UNL     1     -10.249   9.841  66.117  1.00  0.00    -0.278 C  
HETATM    2  C   UNL     1     -10.213  10.460  67.524  1.00  0.00    -0.210 C  
HETATM    3  C   UNL     1      -9.374   9.653  68.517  1.00  0.00    -0.137 C  
HETATM    4  O   UNL     1     -11.539  10.621  68.030  1.00  0.00    -0.586 OA 
HETATM    5  C   UNL     1      -9.590  11.878  67.381  1.00  0.00    -0.174 C  
HETATM    6  N   UNL     1      -9.601  12.654  68.534  1.00  0.00    -0.374 N  
HETATM    7  H   UNL     1     -11.517  11.003  68.899  1.00  0.00     0.000 HD 
HETATM    8  H   UNL     1     -10.027  12.261  69.373  1.00  0.00     0.000 HD 
HETATM    9  O   UNL     1      -9.054  12.226  66.329  1.00  0.00    -0.206 OA 
ENDROOT
BRANCH   3  10
HETATM   10  S   UNL     1      -9.856   7.943  68.604  1.00  0.00    -0.175 S  
HETATM   11  O   UNL     1      -8.737   7.113  68.215  1.00  0.00    -0.128 OA 
HETATM   12  O   UNL     1     -11.146   7.818  67.942  1.00  0.00     0.045 OA 
BRANCH  10  13
HETATM   13  C   UNL     1     -10.105   7.656  70.339  1.00  0.00    -0.190 A  
HETATM   14  C   UNL     1      -9.539   6.510  70.910  1.00  0.00    -0.186 A  
HETATM   15  C   UNL     1     -10.849   8.555  71.109  1.00  0.00    -0.298 A  
HETATM   16  F   UNL     1     -10.525   6.982  74.366  1.00  0.00    -0.378 F  
HETATM   17  C   UNL     1      -9.683   6.287  72.278  1.00  0.00    -0.165 A  
HETATM   18  C   UNL     1     -10.994   8.317  72.478  1.00  0.00    -0.424 A  
HETATM   19  C   UNL     1     -10.401   7.194  73.050  1.00  0.00    -0.271 A  
ENDBRANCH  10  13
ENDBRANCH   3  10
BRANCH   6  20
HETATM   20  C   UNL     1      -9.055  13.959  68.613  1.00  0.00    -0.085 A  
HETATM   21  C   UNL     1     -10.215  17.586  68.312  1.00  0.00    -0.365 C  
HETATM   22  C   UNL     1      -9.302  16.395  68.478  1.00  0.00    -0.225 A  
HETATM   23  C   UNL     1      -7.281  17.824  68.482  1.00  0.00    -0.259 C  
HETATM   24  F   UNL     1     -11.535  17.258  68.256  1.00  0.00    -0.185 F  
HETATM   25  F   UNL     1     -10.102  18.472  69.337  1.00  0.00    -0.340 F  
HETATM   26  C   UNL     1      -7.107  15.396  68.732  1.00  0.00    -0.125 A  
HETATM   27  F   UNL     1      -9.959  18.281  67.172  1.00  0.00    -0.293 F  
HETATM   28  C   UNL     1      -9.855  15.103  68.516  1.00  0.00    -0.220 A  
HETATM   29  N   UNL     1      -6.765  18.860  68.401  1.00  0.00    -0.241 NA 
HETATM   30  C   UNL     1      -7.678  14.115  68.770  1.00  0.00    -0.121 A  
HETATM   31  C   UNL     1      -7.912  16.536  68.569  1.00  0.00    -0.216 A  
ENDBRANCH   6  20
TORSDOF 3
ENDMDL
MODEL       75
REMARK 921   NORMALIZED FREE ENERGY PREDICTED BY IDOCK:   -5.59 KCAL/MOL
REMARK 922        TOTAL FREE ENERGY PREDICTED BY IDOCK:   -7.19 KCAL/MOL
REMARK 923 INTER-LIGAND FREE ENERGY PREDICTED BY IDOCK:   -7.13 KCAL/MOL
REMARK 924 INTRA-LIGAND FREE ENERGY PREDICTED BY IDOCK:   -0.05 KCAL/MOL
REMARK 927      BINDING AFFINITY PREDICTED BY RF-SCORE:    0.00 PKD
ROOT
HETATM    1  C   UNL     1      -7.594   8.283  68.324  1.00  0.00    -0.101 C  
HETATM    2  C   UNL     1      -8.849   8.907  67.691  1.00  0.00    -0.134 C  
HETATM    3  C   UNL     1     -10.154   8.357  68.271  1.00  0.00    -0.199 C  
HETATM    4  O   UNL     1      -8.834   8.725  66.275  1.00  0.00    -0.139 OA 
HETATM    5  C   UNL     1      -8.786  10.436  67.969  1.00  0.00    -0.123 C  
HETATM    6  N   UNL     1      -9.771  11.196  67.351  1.00  0.00    -0.172 N  
HETATM    7  H   UNL     1      -9.609   9.110  65.884  1.00  0.00     0.000 HD 
HETATM    8  H   UNL     1     -10.442  10.716  66.752  1.00  0.00     0.000 HD 
HETATM    9  O   UNL     1      -7.960  10.898  68.756  1.00  0.00    -0.123 OA 
ENDROOT
BRANCH   3  10
HETATM   10  S   UNL     1     -10.246   6.581  68.210  1.00  0.00    -0.190 S  
HETATM   11  O   UNL     1      -8.934   6.047  67.911  1.00  0.00    -0.120 OA 
HETATM   12  O   UNL     1     -11.399   6.230  67.395  1.00  0.00    -0.247 OA 
BRANCH  10  13
HETATM   13  C   UNL     1     -10.600   6.112  69.885  1.00  0.00    -0.265 A  
HETATM   14  C   UNL     1     -11.535   6.867  70.603  1.00  0.00    -0.383 A  
HETATM   15  C   UNL     1      -9.959   5.014  70.468  1.00  0.00    -0.312 A  
HETATM   16  F   UNL     1     -11.573   5.019  73.721  1.00  0.00    -0.304 F  
HETATM   17  C   UNL     1     -11.864   6.491  71.904  1.00  0.00    -0.381 A  
HETATM   18  C   UNL     1     -10.289   4.651  71.775  1.00  0.00    -0.208 A  
HETATM   19  C   UNL     1     -11.245   5.384  72.475  1.00  0.00    -0.247 A  
ENDBRANCH  10  13
ENDBRANCH   3  10
BRANCH   6  20
HETATM   20  C   UNL     1      -9.899  12.599  67.503  1.00  0.00    -0.203 A  
HETATM   21  C   UNL     1     -11.481  15.098  69.921  1.00  0.00    -0.288 C  
HETATM   22  C   UNL     1     -10.752  14.552  68.717  1.00  0.00    -0.257 A  
HETATM   23  C   UNL     1     -10.573  16.796  67.689  1.00  0.00    -0.325 C  
HETATM   24  F   UNL     1     -11.811  14.146  70.837  1.00  0.00    -0.358 F  
HETATM   25  F   UNL     1     -10.744  16.017  70.599  1.00  0.00    -0.291 F  
HETATM   26  C   UNL     1      -9.637  14.825  66.581  1.00  0.00    -0.289 A  
HETATM   27  F   UNL     1     -12.649  15.709  69.587  1.00  0.00    -0.334 F  
HETATM   28  C   UNL     1     -10.521  13.168  68.620  1.00  0.00    -0.242 A  
HETATM   29  N   UNL     1     -10.785  17.937  67.688  1.00  0.00    -0.383 NA 
HETATM   30  C   UNL     1      -9.414  13.442  66.503  1.00  0.00    -0.252 A  
HETATM   31  C   UNL     1     -10.319  15.381  67.675  1.00  0.00    -0.262 A  
ENDBRANCH   6  20
TORSDOF 3
ENDMDL
MODEL       76
REMARK 921   NORMALIZED FREE ENERGY PREDICTED BY IDOCK:   -5.58 KCAL/MOL
REMARK 922        TOTAL FREE ENERGY PREDICTED BY IDOCK:   -7.17 KCAL/MOL
REMARK 923 INTER-LIGAND FREE ENERGY PREDICTED BY IDOCK:   -6.92 KCAL/MOL
REMARK 924 INTRA-LIGAND FREE ENERGY PREDICTED BY IDOCK:   -0.25 KCAL/MOL
REMARK 927      BINDING AFFINITY PREDICTED BY RF-SCORE:    0.00 PKD
ROOT
HETATM    1  C   UNL     1      -8.567   9.140  70.337  1.00  0.00    -0.236 C  
HETATM    2  C   UNL     1      -8.506   9.106  68.801  1.00  0.00    -0.130 C  
HETATM    3  C   UNL     1      -9.171   7.867  68.198  1.00  0.00    -0.136 C  
HETATM    4  O   UNL     1      -7.152   9.194  68.356  1.00  0.00    -0.071 OA 
HETATM    5  C   UNL     1      -9.251  10.371  68.289  1.00  0.00    -0.149 C  
HETATM    6  N   UNL     1      -9.183  10.591  66.918  1.00  0.00    -0.154 N  
HETATM    7  H   UNL     1      -7.114   9.172  67.407  1.00  0.00     0.000 HD 
HETATM    8  H   UNL     1      -8.642   9.936  66.354  1.00  0.00     0.000 HD 
HETATM    9  O   UNL     1      -9.919  11.062  69.058  1.00  0.00    -0.205 OA 
ENDROOT
BRANCH   3  10
HETATM   10  S   UNL     1      -8.548   6.345  68.877  1.00  0.00    -0.123 S  
HETATM   11  O   UNL     1      -7.271   6.595  69.510  1.00  0.00    -0.077 OA 
HETATM   12  O   UNL     1      -8.688   5.320  67.854  1.00  0.00    -0.104 OA 
BRANCH  10  13
HETATM   13  C   UNL     1      -9.683   5.964  70.188  1.00  0.00    -0.168 A  
HETATM   14  C   UNL     1      -9.256   5.106  71.208  1.00  0.00    -0.182 A  
HETATM   15  C   UNL     1     -10.970   6.510  70.196  1.00  0.00    -0.374 A  
HETATM   16  F   UNL     1     -12.200   5.131  73.322  1.00  0.00    -0.272 F  
HETATM   17  C   UNL     1     -10.113   4.828  72.271  1.00  0.00    -0.245 A  
HETATM   18  C   UNL     1     -11.825   6.218  71.261  1.00  0.00    -0.247 A  
HETATM   19  C   UNL     1     -11.385   5.391  72.292  1.00  0.00    -0.134 A  
ENDBRANCH  10  13
ENDBRANCH   3  10
BRANCH   6  20
HETATM   20  C   UNL     1      -9.819  11.671  66.258  1.00  0.00    -0.219 A  
HETATM   21  C   UNL     1     -10.104  15.467  66.568  1.00  0.00    -0.279 C  
HETATM   22  C   UNL     1     -10.330  14.062  66.067  1.00  0.00    -0.312 A  
HETATM   23  C   UNL     1     -12.063  14.810  64.465  1.00  0.00    -0.446 C  
HETATM   24  F   UNL     1      -9.154  15.554  67.540  1.00  0.00    -0.185 F  
HETATM   25  F   UNL     1      -9.694  16.309  65.581  1.00  0.00    -0.331 F  
HETATM   26  C   UNL     1     -11.425  12.452  64.619  1.00  0.00    -0.384 A  
HETATM   27  F   UNL     1     -11.228  16.015  67.100  1.00  0.00    -0.281 F  
HETATM   28  C   UNL     1      -9.612  13.000  66.643  1.00  0.00    -0.259 A  
HETATM   29  N   UNL     1     -12.724  15.637  63.991  1.00  0.00    -0.559 NA 
HETATM   30  C   UNL     1     -10.697  11.407  65.206  1.00  0.00    -0.326 A  
HETATM   31  C   UNL     1     -11.258  13.776  65.057  1.00  0.00    -0.339 A  
ENDBRANCH   6  20
TORSDOF 3
ENDMDL
MODEL       77
REMARK 921   NORMALIZED FREE ENERGY PREDICTED BY IDOCK:   -5.54 KCAL/MOL
REMARK 922        TOTAL FREE ENERGY PREDICTED BY IDOCK:   -7.12 KCAL/MOL
REMARK 923 INTER-LIGAND FREE ENERGY PREDICTED BY IDOCK:   -7.25 KCAL/MOL
REMARK 924 INTRA-LIGAND FREE ENERGY PREDICTED BY IDOCK:    0.13 KCAL/MOL
REMARK 927      BINDING AFFINITY PREDICTED BY RF-SCORE:    0.00 PKD
ROOT
HETATM    1  C   UNL     1      -7.692   9.765  66.798  1.00  0.00    -0.098 C  
HETATM    2  C   UNL     1      -8.785  10.758  67.226  1.00  0.00    -0.130 C  
HETATM    3  C   UNL     1      -9.362  10.460  68.612  1.00  0.00    -0.167 C  
HETATM    4  O   UNL     1      -9.837  10.788  66.260  1.00  0.00    -0.200 OA 
HETATM    5  C   UNL     1      -8.132  12.170  67.252  1.00  0.00    -0.176 C  
HETATM    6  N   UNL     1      -9.004  13.227  67.485  1.00  0.00    -0.196 N  
HETATM    7  H   UNL     1     -10.512  11.400  66.525  1.00  0.00     0.000 HD 
HETATM    8  H   UNL     1      -9.995  13.015  67.598  1.00  0.00     0.000 HD 
HETATM    9  O   UNL     1      -6.912  12.300  67.156  1.00  0.00    -0.148 OA 
ENDROOT
BRANCH   3  10
HETATM   10  S   UNL     1      -9.946   8.787  68.774  1.00  0.00    -0.190 S  
HETATM   11  O   UNL     1      -8.858   7.944  69.218  1.00  0.00    -0.140 OA 
HETATM   12  O   UNL     1     -10.696   8.466  67.569  1.00  0.00    -0.240 OA 
BRANCH  10  13
HETATM   13  C   UNL     1     -11.096   8.863  70.125  1.00  0.00    -0.201 A  
HETATM   14  C   UNL     1     -11.555  10.120  70.538  1.00  0.00    -0.411 A  
HETATM   15  C   UNL     1     -11.529   7.694  70.758  1.00  0.00    -0.295 A  
HETATM   16  F   UNL     1     -13.851   9.121  73.157  1.00  0.00    -0.385 F  
HETATM   17  C   UNL     1     -12.491  10.202  71.566  1.00  0.00    -0.526 A  
HETATM   18  C   UNL     1     -12.461   7.788  71.793  1.00  0.00    -0.348 A  
HETATM   19  C   UNL     1     -12.941   9.038  72.178  1.00  0.00    -0.424 A  
ENDBRANCH  10  13
ENDBRANCH   3  10
BRANCH   6  20
HETATM   20  C   UNL     1      -8.598  14.581  67.573  1.00  0.00    -0.189 A  
HETATM   21  C   UNL     1     -10.163  18.026  68.099  1.00  0.00    -0.384 C  
HETATM   22  C   UNL     1      -9.125  16.962  67.836  1.00  0.00    -0.233 A  
HETATM   23  C   UNL     1      -7.357  18.649  67.443  1.00  0.00    -0.218 C  
HETATM   24  F   UNL     1     -11.397  17.526  68.385  1.00  0.00    -0.170 F  
HETATM   25  F   UNL     1      -9.837  18.818  69.155  1.00  0.00    -0.378 F  
HETATM   26  C   UNL     1      -6.865  16.256  67.311  1.00  0.00    -0.230 A  
HETATM   27  F   UNL     1     -10.338  18.854  67.035  1.00  0.00    -0.350 F  
HETATM   28  C   UNL     1      -9.503  15.608  67.862  1.00  0.00    -0.204 A  
HETATM   29  N   UNL     1      -7.000  19.749  67.352  1.00  0.00    -0.214 NA 
HETATM   30  C   UNL     1      -7.262  14.910  67.344  1.00  0.00    -0.213 A  
HETATM   31  C   UNL     1      -7.795  17.283  67.539  1.00  0.00    -0.194 A  
ENDBRANCH   6  20
TORSDOF 3
ENDMDL
MODEL       78
REMARK 921   NORMALIZED FREE ENERGY PREDICTED BY IDOCK:   -5.46 KCAL/MOL
REMARK 922        TOTAL FREE ENERGY PREDICTED BY IDOCK:   -7.04 KCAL/MOL
REMARK 923 INTER-LIGAND FREE ENERGY PREDICTED BY IDOCK:   -6.67 KCAL/MOL
REMARK 924 INTRA-LIGAND FREE ENERGY PREDICTED BY IDOCK:   -0.37 KCAL/MOL
REMARK 927      BINDING AFFINITY PREDICTED BY RF-SCORE:    0.00 PKD
ROOT
HETATM    1  C   UNL     1      -7.883   8.865  68.852  1.00  0.00    -0.096 C  
HETATM    2  C   UNL     1      -8.794   9.425  67.747  1.00  0.00    -0.123 C  
HETATM    3  C   UNL     1     -10.203   8.827  67.765  1.00  0.00    -0.228 C  
HETATM    4  O   UNL     1      -8.200   9.224  66.463  1.00  0.00    -0.106 OA 
HETATM    5  C   UNL     1      -8.901  10.959  67.979  1.00  0.00    -0.135 C  
HETATM    6  N   UNL     1      -9.576  11.667  66.992  1.00  0.00    -0.182 N  
HETATM    7  H   UNL     1      -8.762   9.569  65.781  1.00  0.00     0.000 HD 
HETATM    8  H   UNL     1      -9.930  11.149  66.187  1.00  0.00     0.000 HD 
HETATM    9  O   UNL     1      -8.482  11.468  69.018  1.00  0.00    -0.038 OA 
ENDROOT
BRANCH   3  10
HETATM   10  S   UNL     1     -10.201   7.048  67.726  1.00  0.00    -0.198 S  
HETATM   11  O   UNL     1      -8.864   6.580  67.434  1.00  0.00    -0.116 OA 
HETATM   12  O   UNL     1     -11.334   6.627  66.916  1.00  0.00    -0.333 OA 
BRANCH  10  13
HETATM   13  C   UNL     1     -10.532   6.582  69.407  1.00  0.00    -0.221 A  
HETATM   14  C   UNL     1     -11.279   7.456  70.205  1.00  0.00    -0.239 A  
HETATM   15  C   UNL     1     -10.055   5.370  69.916  1.00  0.00    -0.322 A  
HETATM   16  F   UNL     1     -11.449   5.524  73.266  1.00  0.00    -0.311 F  
HETATM   17  C   UNL     1     -11.590   7.092  71.513  1.00  0.00    -0.310 A  
HETATM   18  C   UNL     1     -10.364   5.018  71.232  1.00  0.00    -0.255 A  
HETATM   19  C   UNL     1     -11.137   5.876  72.012  1.00  0.00    -0.274 A  
ENDBRANCH  10  13
ENDBRANCH   3  10
BRANCH   6  20
HETATM   20  C   UNL     1      -9.803  13.065  67.037  1.00  0.00    -0.238 A  
HETATM   21  C   UNL     1      -7.783  16.306  67.118  1.00  0.00    -0.188 C  
HETATM   22  C   UNL     1      -8.965  15.368  67.136  1.00  0.00    -0.236 A  
HETATM   23  C   UNL     1     -10.551  17.220  67.560  1.00  0.00    -0.329 C  
HETATM   24  F   UNL     1      -6.594  15.681  66.898  1.00  0.00    -0.179 F  
HETATM   25  F   UNL     1      -7.886  17.250  66.145  1.00  0.00    -0.285 F  
HETATM   26  C   UNL     1     -11.340  14.915  67.334  1.00  0.00    -0.354 A  
HETATM   27  F   UNL     1      -7.636  16.976  68.292  1.00  0.00    -0.182 F  
HETATM   28  C   UNL     1      -8.753  13.987  66.975  1.00  0.00    -0.220 A  
HETATM   29  N   UNL     1     -10.781  18.341  67.754  1.00  0.00    -0.390 NA 
HETATM   30  C   UNL     1     -11.107  13.541  67.169  1.00  0.00    -0.308 A  
HETATM   31  C   UNL     1     -10.273  15.828  67.335  1.00  0.00    -0.270 A  
ENDBRANCH   6  20
TORSDOF 3
ENDMDL
MODEL       79
REMARK 921   NORMALIZED FREE ENERGY PREDICTED BY IDOCK:   -5.45 KCAL/MOL
REMARK 922        TOTAL FREE ENERGY PREDICTED BY IDOCK:   -7.02 KCAL/MOL
REMARK 923 INTER-LIGAND FREE ENERGY PREDICTED BY IDOCK:   -7.10 KCAL/MOL
REMARK 924 INTRA-LIGAND FREE ENERGY PREDICTED BY IDOCK:    0.08 KCAL/MOL
REMARK 927      BINDING AFFINITY PREDICTED BY RF-SCORE:    0.00 PKD
ROOT
HETATM    1  C   UNL     1     -11.653  12.712  65.778  1.00  0.00    -0.431 C  
HETATM    2  C   UNL     1     -11.362  13.390  67.127  1.00  0.00    -0.315 C  
HETATM    3  C   UNL     1     -10.503  12.534  68.060  1.00  0.00    -0.219 C  
HETATM    4  O   UNL     1     -12.583  13.741  67.780  1.00  0.00    -0.297 OA 
HETATM    5  C   UNL     1     -10.599  14.709  66.817  1.00  0.00    -0.288 C  
HETATM    6  N   UNL     1     -10.369  15.536  67.910  1.00  0.00    -0.246 N  
HETATM    7  H   UNL     1     -12.404  14.160  68.613  1.00  0.00     0.000 HD 
HETATM    8  H   UNL     1     -10.727  15.242  68.818  1.00  0.00     0.000 HD 
HETATM    9  O   UNL     1     -10.166  14.935  65.687  1.00  0.00    -0.310 OA 
ENDROOT
BRANCH   3  10
HETATM   10  S   UNL     1     -11.170  10.904  68.316  1.00  0.00    -0.305 S  
HETATM   11  O   UNL     1     -11.017  10.132  67.102  1.00  0.00    -0.235 OA 
HETATM   12  O   UNL     1     -12.472  11.058  68.946  1.00  0.00    -0.460 OA 
BRANCH  10  13
HETATM   13  C   UNL     1     -10.072  10.175  69.507  1.00  0.00    -0.235 A  
HETATM   14  C   UNL     1     -10.630   9.462  70.575  1.00  0.00    -0.331 A  
HETATM   15  C   UNL     1      -8.688  10.311  69.376  1.00  0.00    -0.168 A  
HETATM   16  F   UNL     1      -7.606   8.349  72.233  1.00  0.00    -0.119 F  
HETATM   17  C   UNL     1      -9.789   8.843  71.497  1.00  0.00    -0.384 A  
HETATM   18  C   UNL     1      -7.853   9.694  70.310  1.00  0.00    -0.193 A  
HETATM   19  C   UNL     1      -8.411   8.957  71.352  1.00  0.00    -0.135 A  
ENDBRANCH  10  13
ENDBRANCH   3  10
BRANCH   6  20
HETATM   20  C   UNL     1      -9.667  16.765  67.837  1.00  0.00    -0.245 A  
HETATM   21  C   UNL     1      -6.817  18.336  65.837  1.00  0.00    -0.290 C  
HETATM   22  C   UNL     1      -7.904  18.170  66.871  1.00  0.00    -0.249 A  
HETATM   23  C   UNL     1      -7.354  20.334  67.938  1.00  0.00    -0.276 C  
HETATM   24  F   UNL     1      -6.737  17.300  64.958  1.00  0.00     0.576 F  
HETATM   25  F   UNL     1      -6.992  19.449  65.076  1.00  0.00    -0.280 F  
HETATM   26  C   UNL     1      -9.179  18.942  68.785  1.00  0.00    -0.359 A  
HETATM   27  F   UNL     1      -5.582  18.442  66.397  1.00  0.00    -0.151 F  
HETATM   28  C   UNL     1      -8.682  16.999  66.871  1.00  0.00    -0.251 A  
HETATM   29  N   UNL     1      -6.708  21.295  68.021  1.00  0.00    -0.212 NA 
HETATM   30  C   UNL     1      -9.945  17.767  68.767  1.00  0.00    -0.367 A  
HETATM   31  C   UNL     1      -8.149  19.140  67.851  1.00  0.00    -0.323 A  
ENDBRANCH   6  20
TORSDOF 3
ENDMDL
MODEL       80
REMARK 921   NORMALIZED FREE ENERGY PREDICTED BY IDOCK:   -5.45 KCAL/MOL
REMARK 922        TOTAL FREE ENERGY PREDICTED BY IDOCK:   -7.02 KCAL/MOL
REMARK 923 INTER-LIGAND FREE ENERGY PREDICTED BY IDOCK:   -6.45 KCAL/MOL
REMARK 924 INTRA-LIGAND FREE ENERGY PREDICTED BY IDOCK:   -0.57 KCAL/MOL
REMARK 927      BINDING AFFINITY PREDICTED BY RF-SCORE:    0.00 PKD
ROOT
HETATM    1  C   UNL     1      -8.628  10.897  67.003  1.00  0.00    -0.136 C  
HETATM    2  C   UNL     1      -9.087  10.732  68.461  1.00  0.00    -0.170 C  
HETATM    3  C   UNL     1     -10.476  11.317  68.727  1.00  0.00    -0.208 C  
HETATM    4  O   UNL     1      -8.136  11.320  69.351  1.00  0.00    -0.369 OA 
HETATM    5  C   UNL     1      -9.124   9.206  68.756  1.00  0.00    -0.136 C  
HETATM    6  N   UNL     1      -9.384   8.859  70.077  1.00  0.00    -0.166 N  
HETATM    7  H   UNL     1      -8.419  11.219  70.251  1.00  0.00     0.000 HD 
HETATM    8  H   UNL     1      -9.508   9.610  70.755  1.00  0.00     0.000 HD 
HETATM    9  O   UNL     1      -9.013   8.386  67.845  1.00  0.00    -0.136 OA 
ENDROOT
BRANCH   3  10
HETATM   10  S   UNL     1     -10.622  13.016  68.220  1.00  0.00    -0.252 S  
HETATM   11  O   UNL     1     -11.452  13.090  67.037  1.00  0.00    -0.299 OA 
HETATM   12  O   UNL     1      -9.286  13.593  68.234  1.00  0.00    -0.200 OA 
BRANCH  10  13
HETATM   13  C   UNL     1     -11.555  13.775  69.527  1.00  0.00    -0.297 A  
HETATM   14  C   UNL     1     -11.601  15.173  69.586  1.00  0.00    -0.335 A  
HETATM   15  C   UNL     1     -12.227  12.991  70.469  1.00  0.00    -0.392 A  
HETATM   16  F   UNL     1     -13.794  15.609  72.437  1.00  0.00    -0.498 F  
HETATM   17  C   UNL     1     -12.364  15.791  70.574  1.00  0.00    -0.388 A  
HETATM   18  C   UNL     1     -12.981  13.620  71.462  1.00  0.00    -0.443 A  
HETATM   19  C   UNL     1     -13.052  15.011  71.497  1.00  0.00    -0.374 A  
ENDBRANCH  10  13
ENDBRANCH   3  10
BRANCH   6  20
HETATM   20  C   UNL     1      -9.486   7.523  70.537  1.00  0.00    -0.164 A  
HETATM   21  C   UNL     1      -7.190   4.666  71.614  1.00  0.00    -0.067 C  
HETATM   22  C   UNL     1      -8.449   5.424  71.266  1.00  0.00    -0.126 A  
HETATM   23  C   UNL     1      -9.854   3.405  71.542  1.00  0.00    -0.142 C  
HETATM   24  F   UNL     1      -6.067   5.435  71.591  1.00  0.00    -0.024 F  
HETATM   25  F   UNL     1      -7.238   4.128  72.862  1.00  0.00    -0.058 F  
HETATM   26  C   UNL     1     -10.847   5.556  70.930  1.00  0.00    -0.246 A  
HETATM   27  F   UNL     1      -6.951   3.637  70.758  1.00  0.00    -0.031 F  
HETATM   28  C   UNL     1      -8.362   6.784  70.921  1.00  0.00    -0.128 A  
HETATM   29  N   UNL     1      -9.980   2.273  71.764  1.00  0.00    -0.155 NA 
HETATM   30  C   UNL     1     -10.740   6.913  70.591  1.00  0.00    -0.267 A  
HETATM   31  C   UNL     1      -9.705   4.805  71.252  1.00  0.00    -0.245 A  
ENDBRANCH   6  20
TORSDOF 3
ENDMDL
MODEL       81
REMARK 921   NORMALIZED FREE ENERGY PREDICTED BY IDOCK:   -5.44 KCAL/MOL
REMARK 922        TOTAL FREE ENERGY PREDICTED BY IDOCK:   -7.02 KCAL/MOL
REMARK 923 INTER-LIGAND FREE ENERGY PREDICTED BY IDOCK:   -7.02 KCAL/MOL
REMARK 924 INTRA-LIGAND FREE ENERGY PREDICTED BY IDOCK:   -0.00 KCAL/MOL
REMARK 927      BINDING AFFINITY PREDICTED BY RF-SCORE:    0.00 PKD
ROOT
HETATM    1  C   UNL     1     -10.267   4.885  70.306  1.00  0.00    -0.299 C  
HETATM    2  C   UNL     1      -9.786   6.276  69.862  1.00  0.00    -0.166 C  
HETATM    3  C   UNL     1      -9.658   6.415  68.343  1.00  0.00    -0.125 C  
HETATM    4  O   UNL     1      -8.539   6.593  70.483  1.00  0.00    -0.139 OA 
HETATM    5  C   UNL     1     -10.838   7.304  70.369  1.00  0.00    -0.246 C  
HETATM    6  N   UNL     1     -10.505   8.640  70.183  1.00  0.00    -0.211 N  
HETATM    7  H   UNL     1      -8.242   7.452  70.209  1.00  0.00     0.000 HD 
HETATM    8  H   UNL     1      -9.604   8.856  69.757  1.00  0.00     0.000 HD 
HETATM    9  O   UNL     1     -11.918   6.926  70.820  1.00  0.00    -0.363 OA 
ENDROOT
BRANCH   3  10
HETATM   10  S   UNL     1      -8.645   5.147  67.614  1.00  0.00    -0.103 S  
HETATM   11  O   UNL     1      -9.475   4.012  67.272  1.00  0.00    -0.171 OA 
HETATM   12  O   UNL     1      -7.470   4.987  68.457  1.00  0.00    -0.072 OA 
BRANCH  10  13
HETATM   13  C   UNL     1      -8.116   5.854  66.073  1.00  0.00    -0.115 A  
HETATM   14  C   UNL     1      -7.584   5.001  65.099  1.00  0.00    -0.081 A  
HETATM   15  C   UNL     1      -8.231   7.228  65.845  1.00  0.00    -0.132 A  
HETATM   16  F   UNL     1      -6.988   7.387  62.437  1.00  0.00    -0.065 F  
HETATM   17  C   UNL     1      -7.204   5.526  63.865  1.00  0.00    -0.051 A  
HETATM   18  C   UNL     1      -7.840   7.746  64.608  1.00  0.00    -0.130 A  
HETATM   19  C   UNL     1      -7.342   6.889  63.628  1.00  0.00    -0.077 A  
ENDBRANCH  10  13
ENDBRANCH   3  10
BRANCH   6  20
HETATM   20  C   UNL     1     -11.342   9.722  70.551  1.00  0.00    -0.314 A  
HETATM   21  C   UNL     1     -11.732  13.446  69.794  1.00  0.00    -0.286 C  
HETATM   22  C   UNL     1     -11.962  12.091  70.419  1.00  0.00    -0.379 A  
HETATM   23  C   UNL     1     -13.646  12.997  71.991  1.00  0.00    -0.441 C  
HETATM   24  F   UNL     1     -10.808  13.436  68.794  1.00  0.00    -0.237 F  
HETATM   25  F   UNL     1     -12.863  13.959  69.240  1.00  0.00    -0.161 F  
HETATM   26  C   UNL     1     -13.071  10.618  71.995  1.00  0.00    -0.501 A  
HETATM   27  F   UNL     1     -11.292  14.364  70.695  1.00  0.00    -0.293 F  
HETATM   28  C   UNL     1     -11.211  10.989  69.973  1.00  0.00    -0.303 A  
HETATM   29  N   UNL     1     -14.253  13.879  72.438  1.00  0.00    -0.679 NA 
HETATM   30  C   UNL     1     -12.313   9.531  71.534  1.00  0.00    -0.465 A  
HETATM   31  C   UNL     1     -12.887  11.901  71.453  1.00  0.00    -0.411 A  
ENDBRANCH   6  20
TORSDOF 3
ENDMDL
MODEL       82
REMARK 921   NORMALIZED FREE ENERGY PREDICTED BY IDOCK:   -5.43 KCAL/MOL
REMARK 922        TOTAL FREE ENERGY PREDICTED BY IDOCK:   -7.00 KCAL/MOL
REMARK 923 INTER-LIGAND FREE ENERGY PREDICTED BY IDOCK:   -6.48 KCAL/MOL
REMARK 924 INTRA-LIGAND FREE ENERGY PREDICTED BY IDOCK:   -0.51 KCAL/MOL
REMARK 927      BINDING AFFINITY PREDICTED BY RF-SCORE:    0.00 PKD
ROOT
HETATM    1  C   UNL     1      -8.894   7.468  66.024  1.00  0.00    -0.179 C  
HETATM    2  C   UNL     1      -9.761   8.149  67.096  1.00  0.00    -0.199 C  
HETATM    3  C   UNL     1      -9.327   7.816  68.525  1.00  0.00    -0.147 C  
HETATM    4  O   UNL     1     -11.136   7.806  66.915  1.00  0.00    -0.414 OA 
HETATM    5  C   UNL     1      -9.628   9.684  66.880  1.00  0.00    -0.167 C  
HETATM    6  N   UNL     1     -10.454  10.472  67.672  1.00  0.00    -0.217 N  
HETATM    7  H   UNL     1     -11.671   8.227  67.577  1.00  0.00     0.000 HD 
HETATM    8  H   UNL     1     -11.095  10.003  68.312  1.00  0.00     0.000 HD 
HETATM    9  O   UNL     1      -8.778  10.140  66.116  1.00  0.00    -0.138 OA 
ENDROOT
BRANCH   3  10
HETATM   10  S   UNL     1      -9.227   6.065  68.829  1.00  0.00    -0.123 S  
HETATM   11  O   UNL     1      -7.851   5.638  68.703  1.00  0.00    -0.094 OA 
HETATM   12  O   UNL     1     -10.282   5.426  68.056  1.00  0.00    -0.173 OA 
BRANCH  10  13
HETATM   13  C   UNL     1      -9.640   5.905  70.549  1.00  0.00    -0.172 A  
HETATM   14  C   UNL     1     -10.987   5.986  70.920  1.00  0.00    -0.355 A  
HETATM   15  C   UNL     1      -8.639   5.702  71.504  1.00  0.00    -0.132 A  
HETATM   16  F   UNL     1     -10.691   5.417  74.486  1.00  0.00    -0.285 F  
HETATM   17  C   UNL     1     -11.339   5.818  72.258  1.00  0.00    -0.334 A  
HETATM   18  C   UNL     1      -9.002   5.544  72.843  1.00  0.00    -0.123 A  
HETATM   19  C   UNL     1     -10.347   5.591  73.204  1.00  0.00    -0.204 A  
ENDBRANCH  10  13
ENDBRANCH   3  10
BRANCH   6  20
HETATM   20  C   UNL     1     -10.460  11.889  67.643  1.00  0.00    -0.208 A  
HETATM   21  C   UNL     1      -8.207  14.796  68.673  1.00  0.00    -0.159 C  
HETATM   22  C   UNL     1      -9.407  14.045  68.150  1.00  0.00    -0.201 A  
HETATM   23  C   UNL     1     -10.712  16.129  67.876  1.00  0.00    -0.321 C  
HETATM   24  F   UNL     1      -7.152  13.993  68.983  1.00  0.00    -0.099 F  
HETATM   25  F   UNL     1      -7.728  15.697  67.774  1.00  0.00    -0.122 F  
HETATM   26  C   UNL     1     -11.667  13.958  67.276  1.00  0.00    -0.418 A  
HETATM   27  F   UNL     1      -8.485  15.493  69.807  1.00  0.00    -0.248 F  
HETATM   28  C   UNL     1      -9.360  12.642  68.069  1.00  0.00    -0.209 A  
HETATM   29  N   UNL     1     -10.829  17.280  67.974  1.00  0.00    -0.357 NA 
HETATM   30  C   UNL     1     -11.600  12.559  67.200  1.00  0.00    -0.437 A  
HETATM   31  C   UNL     1     -10.582  14.702  67.765  1.00  0.00    -0.251 A  
ENDBRANCH   6  20
TORSDOF 3
ENDMDL
MODEL       83
REMARK 921   NORMALIZED FREE ENERGY PREDICTED BY IDOCK:   -5.42 KCAL/MOL
REMARK 922        TOTAL FREE ENERGY PREDICTED BY IDOCK:   -6.99 KCAL/MOL
REMARK 923 INTER-LIGAND FREE ENERGY PREDICTED BY IDOCK:   -6.73 KCAL/MOL
REMARK 924 INTRA-LIGAND FREE ENERGY PREDICTED BY IDOCK:   -0.25 KCAL/MOL
REMARK 927      BINDING AFFINITY PREDICTED BY RF-SCORE:    0.00 PKD
ROOT
HETATM    1  C   UNL     1     -12.653  14.985  70.268  1.00  0.00    -0.363 C  
HETATM    2  C   UNL     1     -11.822  14.200  69.240  1.00  0.00    -0.338 C  
HETATM    3  C   UNL     1     -10.430  14.793  69.010  1.00  0.00    -0.249 C  
HETATM    4  O   UNL     1     -12.522  14.111  67.998  1.00  0.00    -0.528 OA 
HETATM    5  C   UNL     1     -11.662  12.755  69.794  1.00  0.00    -0.282 C  
HETATM    6  N   UNL     1     -11.053  11.850  68.933  1.00  0.00    -0.233 N  
HETATM    7  H   UNL     1     -12.008  13.626  67.364  1.00  0.00     0.000 HD 
HETATM    8  H   UNL     1     -10.777  12.178  68.008  1.00  0.00     0.000 HD 
HETATM    9  O   UNL     1     -11.985  12.486  70.951  1.00  0.00    -0.184 OA 
ENDROOT
BRANCH   3  10
HETATM   10  S   UNL     1     -10.474  16.519  68.582  1.00  0.00    -0.327 S  
HETATM   11  O   UNL     1     -10.549  17.308  69.792  1.00  0.00    -0.142 OA 
HETATM   12  O   UNL     1     -11.457  16.682  67.521  1.00  0.00     0.075 OA 
BRANCH  10  13
HETATM   13  C   UNL     1      -8.869  16.830  67.888  1.00  0.00    -0.218 A  
HETATM   14  C   UNL     1      -8.793  17.294  66.570  1.00  0.00    -0.290 A  
HETATM   15  C   UNL     1      -7.713  16.615  68.645  1.00  0.00    -0.224 A  
HETATM   16  F   UNL     1      -5.205  17.695  66.252  1.00  0.00    -0.158 F  
HETATM   17  C   UNL     1      -7.547  17.588  66.019  1.00  0.00    -0.256 A  
HETATM   18  C   UNL     1      -6.469  16.905  68.081  1.00  0.00    -0.148 A  
HETATM   19  C   UNL     1      -6.399  17.399  66.780  1.00  0.00    -0.202 A  
ENDBRANCH  10  13
ENDBRANCH   3  10
BRANCH   6  20
HETATM   20  C   UNL     1     -10.793  10.497  69.264  1.00  0.00    -0.243 A  
HETATM   21  C   UNL     1     -12.416   7.652  71.229  1.00  0.00    -0.298 C  
HETATM   22  C   UNL     1     -11.406   8.417  70.410  1.00  0.00    -0.178 A  
HETATM   23  C   UNL     1      -9.762   6.570  70.537  1.00  0.00    -0.172 C  
HETATM   24  F   UNL     1     -13.578   8.330  71.434  1.00  0.00    -0.345 F  
HETATM   25  F   UNL     1     -12.777   6.479  70.644  1.00  0.00    -0.338 F  
HETATM   26  C   UNL     1      -9.254   8.625  69.310  1.00  0.00    -0.150 A  
HETATM   27  F   UNL     1     -11.949   7.338  72.467  1.00  0.00    -0.285 F  
HETATM   28  C   UNL     1     -11.711   9.720  69.980  1.00  0.00    -0.131 A  
HETATM   29  N   UNL     1      -9.434   5.522  70.911  1.00  0.00    -0.162 NA 
HETATM   30  C   UNL     1      -9.578   9.923  68.889  1.00  0.00    -0.172 A  
HETATM   31  C   UNL     1     -10.156   7.875  70.083  1.00  0.00    -0.194 A  
ENDBRANCH   6  20
TORSDOF 3
ENDMDL
MODEL       84
REMARK 921   NORMALIZED FREE ENERGY PREDICTED BY IDOCK:   -5.42 KCAL/MOL
REMARK 922        TOTAL FREE ENERGY PREDICTED BY IDOCK:   -6.98 KCAL/MOL
REMARK 923 INTER-LIGAND FREE ENERGY PREDICTED BY IDOCK:   -6.92 KCAL/MOL
REMARK 924 INTRA-LIGAND FREE ENERGY PREDICTED BY IDOCK:   -0.06 KCAL/MOL
REMARK 927      BINDING AFFINITY PREDICTED BY RF-SCORE:    0.00 PKD
ROOT
HETATM    1  C   UNL     1     -11.324   6.711  71.523  1.00  0.00    -0.326 C  
HETATM    2  C   UNL     1     -10.696   8.105  71.370  1.00  0.00    -0.232 C  
HETATM    3  C   UNL     1      -9.245   8.170  71.853  1.00  0.00    -0.182 C  
HETATM    4  O   UNL     1     -11.479   9.082  72.058  1.00  0.00    -0.365 OA 
HETATM    5  C   UNL     1     -10.733   8.457  69.855  1.00  0.00    -0.227 C  
HETATM    6  N   UNL     1     -10.331   9.747  69.532  1.00  0.00    -0.214 N  
HETATM    7  H   UNL     1     -11.091   9.944  71.964  1.00  0.00     0.000 HD 
HETATM    8  H   UNL     1     -10.066  10.372  70.292  1.00  0.00     0.000 HD 
HETATM    9  O   UNL     1     -11.019   7.601  69.018  1.00  0.00    -0.096 OA 
ENDROOT
BRANCH   3  10
HETATM   10  S   UNL     1      -9.042   7.579  73.519  1.00  0.00    -0.259 S  
HETATM   11  O   UNL     1     -10.334   7.207  74.052  1.00  0.00    -0.349 OA 
HETATM   12  O   UNL     1      -8.188   8.527  74.219  1.00  0.00    -0.310 OA 
BRANCH  10  13
HETATM   13  C   UNL     1      -8.132   6.066  73.328  1.00  0.00    -0.115 A  
HETATM   14  C   UNL     1      -7.828   5.324  74.476  1.00  0.00    -0.098 A  
HETATM   15  C   UNL     1      -7.733   5.631  72.061  1.00  0.00    -0.102 A  
HETATM   16  F   UNL     1      -6.144   2.493  72.964  1.00  0.00    -0.007 F  
HETATM   17  C   UNL     1      -7.154   4.111  74.347  1.00  0.00    -0.069 A  
HETATM   18  C   UNL     1      -7.050   4.418  71.943  1.00  0.00    -0.055 A  
HETATM   19  C   UNL     1      -6.779   3.665  73.084  1.00  0.00    -0.038 A  
ENDBRANCH  10  13
ENDBRANCH   3  10
BRANCH   6  20
HETATM   20  C   UNL     1     -10.268  10.246  68.207  1.00  0.00    -0.159 A  
HETATM   21  C   UNL     1     -11.790  13.059  66.117  1.00  0.00    -0.409 C  
HETATM   22  C   UNL     1     -10.985  11.834  66.481  1.00  0.00    -0.342 A  
HETATM   23  C   UNL     1     -10.325  11.450  64.127  1.00  0.00    -0.344 C  
HETATM   24  F   UNL     1     -12.387  13.656  67.184  1.00  0.00    -0.408 F  
HETATM   25  F   UNL     1     -11.028  14.024  65.536  1.00  0.00    -0.292 F  
HETATM   26  C   UNL     1      -9.545   9.968  65.910  1.00  0.00    -0.283 A  
HETATM   27  F   UNL     1     -12.792  12.778  65.242  1.00  0.00    -0.547 F  
HETATM   28  C   UNL     1     -10.952  11.404  67.819  1.00  0.00    -0.301 A  
HETATM   29  N   UNL     1     -10.361  11.725  63.000  1.00  0.00    -0.290 NA 
HETATM   30  C   UNL     1      -9.523   9.556  67.251  1.00  0.00    -0.170 A  
HETATM   31  C   UNL     1     -10.287  11.094  65.519  1.00  0.00    -0.326 A  
ENDBRANCH   6  20
TORSDOF 3
ENDMDL
MODEL       85
REMARK 921   NORMALIZED FREE ENERGY PREDICTED BY IDOCK:   -5.39 KCAL/MOL
REMARK 922        TOTAL FREE ENERGY PREDICTED BY IDOCK:   -6.95 KCAL/MOL
REMARK 923 INTER-LIGAND FREE ENERGY PREDICTED BY IDOCK:   -6.75 KCAL/MOL
REMARK 924 INTRA-LIGAND FREE ENERGY PREDICTED BY IDOCK:   -0.19 KCAL/MOL
REMARK 927      BINDING AFFINITY PREDICTED BY RF-SCORE:    0.00 PKD
ROOT
HETATM    1  C   UNL     1     -12.019  13.471  66.726  1.00  0.00    -0.453 C  
HETATM    2  C   UNL     1     -10.555  13.165  67.083  1.00  0.00    -0.257 C  
HETATM    3  C   UNL     1     -10.137  13.723  68.445  1.00  0.00    -0.241 C  
HETATM    4  O   UNL     1      -9.681  13.660  66.068  1.00  0.00    -0.357 OA 
HETATM    5  C   UNL     1     -10.409  11.616  67.114  1.00  0.00    -0.217 C  
HETATM    6  N   UNL     1      -9.114  11.142  67.284  1.00  0.00    -0.149 N  
HETATM    7  H   UNL     1      -8.777  13.471  66.288  1.00  0.00     0.000 HD 
HETATM    8  H   UNL     1      -8.359  11.823  67.355  1.00  0.00     0.000 HD 
HETATM    9  O   UNL     1     -11.402  10.890  67.074  1.00  0.00    -0.364 OA 
ENDROOT
BRANCH   3  10
HETATM   10  S   UNL     1     -10.464  15.464  68.610  1.00  0.00    -0.245 S  
HETATM   11  O   UNL     1     -11.216  15.918  67.461  1.00  0.00    -0.279 OA 
HETATM   12  O   UNL     1      -9.216  16.110  68.991  1.00  0.00    -0.230 OA 
BRANCH  10  13
HETATM   13  C   UNL     1     -11.571  15.563  69.995  1.00  0.00    -0.341 A  
HETATM   14  C   UNL     1     -11.083  16.079  71.201  1.00  0.00    -0.188 A  
HETATM   15  C   UNL     1     -12.897  15.134  69.878  1.00  0.00    -0.038 A  
HETATM   16  F   UNL     1     -14.098  15.943  73.207  1.00  0.00    -0.564 F  
HETATM   17  C   UNL     1     -11.945  16.209  72.289  1.00  0.00    -0.637 A  
HETATM   18  C   UNL     1     -13.750  15.259  70.976  1.00  0.00    -0.452 A  
HETATM   19  C   UNL     1     -13.270  15.805  72.164  1.00  0.00    -0.428 A  
ENDBRANCH  10  13
ENDBRANCH   3  10
BRANCH   6  20
HETATM   20  C   UNL     1      -8.780   9.767  67.367  1.00  0.00    -0.132 A  
HETATM   21  C   UNL     1      -8.020   6.846  65.027  1.00  0.00    -0.125 C  
HETATM   22  C   UNL     1      -8.272   7.619  66.298  1.00  0.00    -0.120 A  
HETATM   23  C   UNL     1      -8.163   5.569  67.680  1.00  0.00    -0.101 C  
HETATM   24  F   UNL     1      -7.990   7.625  63.910  1.00  0.00    -0.120 F  
HETATM   25  F   UNL     1      -6.828   6.191  65.047  1.00  0.00    -0.045 F  
HETATM   26  C   UNL     1      -8.551   7.758  68.703  1.00  0.00    -0.129 A  
HETATM   27  F   UNL     1      -8.974   5.905  64.795  1.00  0.00    -0.069 F  
HETATM   28  C   UNL     1      -8.488   9.007  66.229  1.00  0.00    -0.132 A  
HETATM   29  N   UNL     1      -8.048   4.420  67.792  1.00  0.00    -0.095 NA 
HETATM   30  C   UNL     1      -8.762   9.142  68.614  1.00  0.00    -0.129 A  
HETATM   31  C   UNL     1      -8.322   6.992  67.549  1.00  0.00    -0.119 A  
ENDBRANCH   6  20
TORSDOF 3
ENDMDL
MODEL       86
REMARK 921   NORMALIZED FREE ENERGY PREDICTED BY IDOCK:   -5.37 KCAL/MOL
REMARK 922        TOTAL FREE ENERGY PREDICTED BY IDOCK:   -6.93 KCAL/MOL
REMARK 923 INTER-LIGAND FREE ENERGY PREDICTED BY IDOCK:   -6.65 KCAL/MOL
REMARK 924 INTRA-LIGAND FREE ENERGY PREDICTED BY IDOCK:   -0.28 KCAL/MOL
REMARK 927      BINDING AFFINITY PREDICTED BY RF-SCORE:    0.00 PKD
ROOT
HETATM    1  C   UNL     1     -10.408  10.557  65.766  1.00  0.00    -0.270 C  
HETATM    2  C   UNL     1     -10.030  10.631  67.254  1.00  0.00    -0.188 C  
HETATM    3  C   UNL     1     -10.961  11.531  68.070  1.00  0.00    -0.231 C  
HETATM    4  O   UNL     1      -8.679  11.072  67.403  1.00  0.00    -0.131 OA 
HETATM    5  C   UNL     1     -10.115   9.184  67.819  1.00  0.00    -0.203 C  
HETATM    6  N   UNL     1      -9.672   9.026  69.125  1.00  0.00    -0.164 N  
HETATM    7  H   UNL     1      -8.445  11.119  68.322  1.00  0.00     0.000 HD 
HETATM    8  H   UNL     1      -9.306   9.845  69.611  1.00  0.00     0.000 HD 
HETATM    9  O   UNL     1     -10.627   8.281  67.157  1.00  0.00    -0.317 OA 
ENDROOT
BRANCH   3  10
HETATM   10  S   UNL     1     -11.118  13.167  67.387  1.00  0.00    -0.285 S  
HETATM   11  O   UNL     1     -12.324  13.237  66.592  1.00  0.00    -0.338 OA 
HETATM   12  O   UNL     1      -9.827  13.531  66.822  1.00  0.00    -0.251 OA 
BRANCH  10  13
HETATM   13  C   UNL     1     -11.401  14.198  68.806  1.00  0.00    -0.278 A  
HETATM   14  C   UNL     1     -12.094  13.655  69.894  1.00  0.00    -0.406 A  
HETATM   15  C   UNL     1     -10.940  15.517  68.829  1.00  0.00    -0.270 A  
HETATM   16  F   UNL     1     -11.986  16.470  72.173  1.00  0.00    -0.524 F  
HETATM   17  C   UNL     1     -12.288  14.430  71.036  1.00  0.00    -0.427 A  
HETATM   18  C   UNL     1     -11.148  16.288  69.974  1.00  0.00    -0.351 A  
HETATM   19  C   UNL     1     -11.808  15.734  71.069  1.00  0.00    -0.420 A  
ENDBRANCH  10  13
ENDBRANCH   3  10
BRANCH   6  20
HETATM   20  C   UNL     1      -9.696   7.793  69.824  1.00  0.00    -0.176 A  
HETATM   21  C   UNL     1      -9.153   4.077  69.125  1.00  0.00    -0.136 C  
HETATM   22  C   UNL     1      -9.486   5.350  69.865  1.00  0.00    -0.210 A  
HETATM   23  C   UNL     1     -10.166   4.105  71.894  1.00  0.00    -0.110 C  
HETATM   24  F   UNL     1      -8.699   4.286  67.859  1.00  0.00    -0.099 F  
HETATM   25  F   UNL     1      -8.182   3.356  69.747  1.00  0.00    -0.054 F  
HETATM   26  C   UNL     1     -10.242   6.550  71.833  1.00  0.00    -0.214 A  
HETATM   27  F   UNL     1     -10.227   3.253  69.002  1.00  0.00     0.154 F  
HETATM   28  C   UNL     1      -9.351   6.586  69.208  1.00  0.00    -0.141 A  
HETATM   29  N   UNL     1     -10.350   3.114  72.467  1.00  0.00    -0.141 NA 
HETATM   30  C   UNL     1     -10.097   7.773  71.160  1.00  0.00    -0.206 A  
HETATM   31  C   UNL     1      -9.954   5.338  71.185  1.00  0.00    -0.265 A  
ENDBRANCH   6  20
TORSDOF 3
ENDMDL
MODEL       87
REMARK 921   NORMALIZED FREE ENERGY PREDICTED BY IDOCK:   -5.36 KCAL/MOL
REMARK 922        TOTAL FREE ENERGY PREDICTED BY IDOCK:   -6.92 KCAL/MOL
REMARK 923 INTER-LIGAND FREE ENERGY PREDICTED BY IDOCK:   -6.40 KCAL/MOL
REMARK 924 INTRA-LIGAND FREE ENERGY PREDICTED BY IDOCK:   -0.51 KCAL/MOL
REMARK 927      BINDING AFFINITY PREDICTED BY RF-SCORE:    0.00 PKD
ROOT
HETATM    1  C   UNL     1     -12.147  14.515  65.686  1.00  0.00    -0.295 C  
HETATM    2  C   UNL     1     -10.629  14.291  65.770  1.00  0.00    -0.309 C  
HETATM    3  C   UNL     1      -9.929  15.246  66.738  1.00  0.00    -0.242 C  
HETATM    4  O   UNL     1     -10.038  14.398  64.473  1.00  0.00    -0.605 OA 
HETATM    5  C   UNL     1     -10.411  12.832  66.265  1.00  0.00    -0.257 C  
HETATM    6  N   UNL     1      -9.093  12.394  66.271  1.00  0.00    -0.393 N  
HETATM    7  H   UNL     1      -9.100  14.259  64.524  1.00  0.00     0.000 HD 
HETATM    8  H   UNL     1      -8.373  13.034  65.937  1.00  0.00     0.000 HD 
HETATM    9  O   UNL     1     -11.353  12.168  66.697  1.00  0.00    -0.311 OA 
ENDROOT
BRANCH   3  10
HETATM   10  S   UNL     1     -10.285  16.957  66.403  1.00  0.00    -0.313 S  
HETATM   11  O   UNL     1     -11.274  17.431  67.346  1.00  0.00    -0.019 OA 
HETATM   12  O   UNL     1     -10.497  17.087  64.969  1.00  0.00    -0.660 OA 
BRANCH  10  13
HETATM   13  C   UNL     1      -8.773  17.797  66.807  1.00  0.00    -0.256 A  
HETATM   14  C   UNL     1      -8.842  18.934  67.620  1.00  0.00    -0.312 A  
HETATM   15  C   UNL     1      -7.548  17.329  66.323  1.00  0.00    -0.360 A  
HETATM   16  F   UNL     1      -5.315  19.723  67.895  1.00  0.00    -0.183 F  
HETATM   17  C   UNL     1      -7.665  19.584  67.989  1.00  0.00    -0.334 A  
HETATM   18  C   UNL     1      -6.375  17.992  66.691  1.00  0.00    -0.228 A  
HETATM   19  C   UNL     1      -6.444  19.103  67.528  1.00  0.00    -0.193 A  
ENDBRANCH  10  13
ENDBRANCH   3  10
BRANCH   6  20
HETATM   20  C   UNL     1      -8.689  11.110  66.714  1.00  0.00    -0.157 A  
HETATM   21  C   UNL     1      -6.533   9.560  69.460  1.00  0.00    -0.044 C  
HETATM   22  C   UNL     1      -7.414   9.674  68.240  1.00  0.00    -0.077 A  
HETATM   23  C   UNL     1      -7.210   7.257  67.748  1.00  0.00    -0.091 C  
HETATM   24  F   UNL     1      -6.347  10.741  70.111  1.00  0.00    -0.087 F  
HETATM   25  F   UNL     1      -7.044   8.707  70.389  1.00  0.00    -0.037 F  
HETATM   26  C   UNL     1      -8.563   8.720  66.329  1.00  0.00    -0.144 A  
HETATM   27  F   UNL     1      -5.289   9.103  69.160  1.00  0.00    -0.035 F  
HETATM   28  C   UNL     1      -7.913  10.934  67.865  1.00  0.00    -0.111 A  
HETATM   29  N   UNL     1      -6.782   6.203  67.976  1.00  0.00    -0.062 NA 
HETATM   30  C   UNL     1      -9.053   9.986  65.972  1.00  0.00    -0.189 A  
HETATM   31  C   UNL     1      -7.732   8.562  67.449  1.00  0.00    -0.098 A  
ENDBRANCH   6  20
TORSDOF 3
ENDMDL
MODEL       88
REMARK 921   NORMALIZED FREE ENERGY PREDICTED BY IDOCK:   -5.36 KCAL/MOL
REMARK 922        TOTAL FREE ENERGY PREDICTED BY IDOCK:   -6.91 KCAL/MOL
REMARK 923 INTER-LIGAND FREE ENERGY PREDICTED BY IDOCK:   -7.17 KCAL/MOL
REMARK 924 INTRA-LIGAND FREE ENERGY PREDICTED BY IDOCK:    0.26 KCAL/MOL
REMARK 927      BINDING AFFINITY PREDICTED BY RF-SCORE:    0.00 PKD
ROOT
HETATM    1  C   UNL     1     -10.757   5.730  69.939  1.00  0.00    -0.412 C  
HETATM    2  C   UNL     1     -11.263   7.067  70.507  1.00  0.00    -0.295 C  
HETATM    3  C   UNL     1     -10.619   7.437  71.845  1.00  0.00    -0.203 C  
HETATM    4  O   UNL     1     -12.685   7.041  70.646  1.00  0.00    -0.600 OA 
HETATM    5  C   UNL     1     -10.913   8.166  69.464  1.00  0.00    -0.047 C  
HETATM    6  N   UNL     1     -11.418   9.431  69.737  1.00  0.00    -0.440 N  
HETATM    7  H   UNL     1     -12.998   7.866  70.997  1.00  0.00     0.000 HD 
HETATM    8  H   UNL     1     -11.990   9.549  70.573  1.00  0.00     0.000 HD 
HETATM    9  O   UNL     1     -10.166   7.919  68.517  1.00  0.00    -0.197 OA 
ENDROOT
BRANCH   3  10
HETATM   10  S   UNL     1     -10.764   6.150  73.064  1.00  0.00    -0.261 S  
HETATM   11  O   UNL     1     -12.000   5.429  72.851  1.00  0.00    -0.225 OA 
HETATM   12  O   UNL     1     -10.456   6.738  74.360  1.00  0.00    -0.282 OA 
BRANCH  10  13
HETATM   13  C   UNL     1      -9.456   5.021  72.654  1.00  0.00    -0.140 A  
HETATM   14  C   UNL     1      -9.729   3.648  72.687  1.00  0.00    -0.199 A  
HETATM   15  C   UNL     1      -8.188   5.497  72.308  1.00  0.00    -0.111 A  
HETATM   16  F   UNL     1      -6.527   2.347  71.596  1.00  0.00    -0.016 F  
HETATM   17  C   UNL     1      -8.732   2.744  72.325  1.00  0.00    -0.096 A  
HETATM   18  C   UNL     1      -7.193   4.582  71.955  1.00  0.00    -0.066 A  
HETATM   19  C   UNL     1      -7.478   3.218  71.956  1.00  0.00    -0.052 A  
ENDBRANCH  10  13
ENDBRANCH   3  10
BRANCH   6  20
HETATM   20  C   UNL     1     -11.185  10.568  68.924  1.00  0.00    -0.266 A  
HETATM   21  C   UNL     1     -11.210  14.376  69.227  1.00  0.00    -0.275 C  
HETATM   22  C   UNL     1     -11.105  13.000  68.616  1.00  0.00    -0.305 A  
HETATM   23  C   UNL     1     -10.850  13.928  66.335  1.00  0.00    -0.291 C  
HETATM   24  F   UNL     1     -11.373  14.362  70.578  1.00  0.00    -0.294 F  
HETATM   25  F   UNL     1     -10.101  15.129  69.000  1.00  0.00    -0.207 F  
HETATM   26  C   UNL     1     -10.820  11.512  66.722  1.00  0.00    -0.330 A  
HETATM   27  F   UNL     1     -12.264  15.082  68.736  1.00  0.00    -0.307 F  
HETATM   28  C   UNL     1     -11.220  11.868  69.442  1.00  0.00    -0.278 A  
HETATM   29  N   UNL     1     -10.804  14.823  65.598  1.00  0.00    -0.322 NA 
HETATM   30  C   UNL     1     -10.935  10.395  67.563  1.00  0.00    -0.358 A  
HETATM   31  C   UNL     1     -10.921  12.813  67.240  1.00  0.00    -0.294 A  
ENDBRANCH   6  20
TORSDOF 3
ENDMDL
MODEL       89
REMARK 921   NORMALIZED FREE ENERGY PREDICTED BY IDOCK:   -5.34 KCAL/MOL
REMARK 922        TOTAL FREE ENERGY PREDICTED BY IDOCK:   -6.89 KCAL/MOL
REMARK 923 INTER-LIGAND FREE ENERGY PREDICTED BY IDOCK:   -6.22 KCAL/MOL
REMARK 924 INTRA-LIGAND FREE ENERGY PREDICTED BY IDOCK:   -0.67 KCAL/MOL
REMARK 927      BINDING AFFINITY PREDICTED BY RF-SCORE:    0.00 PKD
ROOT
HETATM    1  C   UNL     1     -11.029  11.163  64.568  1.00  0.00    -0.255 C  
HETATM    2  C   UNL     1     -10.562  11.747  65.911  1.00  0.00    -0.271 C  
HETATM    3  C   UNL     1      -9.330  11.041  66.480  1.00  0.00    -0.180 C  
HETATM    4  O   UNL     1     -11.625  11.710  66.865  1.00  0.00    -0.507 OA 
HETATM    5  C   UNL     1     -10.209  13.241  65.660  1.00  0.00    -0.289 C  
HETATM    6  N   UNL     1      -9.896  13.980  66.794  1.00  0.00    -0.265 N  
HETATM    7  H   UNL     1     -11.336  12.071  67.695  1.00  0.00     0.000 HD 
HETATM    8  H   UNL     1      -9.939  13.511  67.699  1.00  0.00     0.000 HD 
HETATM    9  O   UNL     1     -10.136  13.685  64.514  1.00  0.00    -0.349 OA 
ENDROOT
BRANCH   3  10
HETATM   10  S   UNL     1      -9.538   9.279  66.609  1.00  0.00    -0.224 S  
HETATM   11  O   UNL     1      -9.071   8.654  65.390  1.00  0.00    -0.179 OA 
HETATM   12  O   UNL     1     -10.882   9.032  67.108  1.00  0.00    -0.210 OA 
BRANCH  10  13
HETATM   13  C   UNL     1      -8.391   8.803  67.879  1.00  0.00    -0.118 A  
HETATM   14  C   UNL     1      -8.341   7.457  68.259  1.00  0.00    -0.125 A  
HETATM   15  C   UNL     1      -7.561   9.754  68.480  1.00  0.00    -0.080 A  
HETATM   16  F   UNL     1      -5.680   7.597  70.715  1.00  0.00    -0.029 F  
HETATM   17  C   UNL     1      -7.418   7.051  69.221  1.00  0.00    -0.094 A  
HETATM   18  C   UNL     1      -6.645   9.339  69.449  1.00  0.00    -0.044 A  
HETATM   19  C   UNL     1      -6.574   7.993  69.801  1.00  0.00    -0.037 A  
ENDBRANCH  10  13
ENDBRANCH   3  10
BRANCH   6  20
HETATM   20  C   UNL     1      -9.520  15.346  66.769  1.00  0.00    -0.241 A  
HETATM   21  C   UNL     1      -6.339  17.457  66.872  1.00  0.00    -0.182 C  
HETATM   22  C   UNL     1      -7.804  17.096  66.841  1.00  0.00    -0.250 A  
HETATM   23  C   UNL     1      -8.490  19.462  67.078  1.00  0.00    -0.287 C  
HETATM   24  F   UNL     1      -5.510  16.383  66.761  1.00  0.00    -0.144 F  
HETATM   25  F   UNL     1      -5.990  18.294  65.858  1.00  0.00    -0.180 F  
HETATM   26  C   UNL     1     -10.157  17.681  66.885  1.00  0.00    -0.331 A  
HETATM   27  F   UNL     1      -5.983  18.080  68.026  1.00  0.00    -0.155 F  
HETATM   28  C   UNL     1      -8.179  15.744  66.748  1.00  0.00    -0.302 A  
HETATM   29  N   UNL     1      -8.241  20.587  67.213  1.00  0.00    -0.337 NA 
HETATM   30  C   UNL     1     -10.511  16.327  66.789  1.00  0.00    -0.287 A  
HETATM   31  C   UNL     1      -8.808  18.069  66.927  1.00  0.00    -0.266 A  
ENDBRANCH   6  20
TORSDOF 3
ENDMDL
MODEL       90
REMARK 921   NORMALIZED FREE ENERGY PREDICTED BY IDOCK:   -5.34 KCAL/MOL
REMARK 922        TOTAL FREE ENERGY PREDICTED BY IDOCK:   -6.89 KCAL/MOL
REMARK 923 INTER-LIGAND FREE ENERGY PREDICTED BY IDOCK:   -6.67 KCAL/MOL
REMARK 924 INTRA-LIGAND FREE ENERGY PREDICTED BY IDOCK:   -0.23 KCAL/MOL
REMARK 927      BINDING AFFINITY PREDICTED BY RF-SCORE:    0.00 PKD
ROOT
HETATM    1  C   UNL     1      -9.813   8.364  71.895  1.00  0.00    -0.328 C  
HETATM    2  C   UNL     1     -10.616   7.256  71.195  1.00  0.00    -0.222 C  
HETATM    3  C   UNL     1     -11.908   7.763  70.549  1.00  0.00    -0.045 C  
HETATM    4  O   UNL     1     -10.916   6.204  72.114  1.00  0.00    -0.237 OA 
HETATM    5  C   UNL     1      -9.702   6.664  70.085  1.00  0.00    -0.164 C  
HETATM    6  N   UNL     1     -10.206   5.548  69.429  1.00  0.00    -0.234 N  
HETATM    7  H   UNL     1     -11.412   5.519  71.682  1.00  0.00     0.000 HD 
HETATM    8  H   UNL     1     -11.112   5.185  69.726  1.00  0.00     0.000 HD 
HETATM    9  O   UNL     1      -8.650   7.221  69.774  1.00  0.00    -0.138 OA 
ENDROOT
BRANCH   3  10
HETATM   10  S   UNL     1     -12.945   8.659  71.683  1.00  0.00    -0.341 S  
HETATM   11  O   UNL     1     -12.414   8.525  73.022  1.00  0.00    -0.223 OA 
HETATM   12  O   UNL     1     -14.325   8.305  71.387  1.00  0.00    -0.412 OA 
BRANCH  10  13
HETATM   13  C   UNL     1     -12.711  10.359  71.226  1.00  0.00    -0.432 A  
HETATM   14  C   UNL     1     -13.267  11.350  72.044  1.00  0.00    -0.432 A  
HETATM   15  C   UNL     1     -11.986  10.694  70.078  1.00  0.00    -0.408 A  
HETATM   16  F   UNL     1     -12.107  14.316  70.314  1.00  0.00    -0.308 F  
HETATM   17  C   UNL     1     -13.058  12.692  71.731  1.00  0.00    -0.461 A  
HETATM   18  C   UNL     1     -11.790  12.042  69.769  1.00  0.00    -0.401 A  
HETATM   19  C   UNL     1     -12.317  13.025  70.603  1.00  0.00    -0.310 A  
ENDBRANCH  10  13
ENDBRANCH   3  10
BRANCH   6  20
HETATM   20  C   UNL     1      -9.538   4.884  68.371  1.00  0.00    -0.146 A  
HETATM   21  C   UNL     1     -10.184   3.870  64.745  1.00  0.00    -0.188 C  
HETATM   22  C   UNL     1      -9.494   4.008  66.080  1.00  0.00    -0.192 A  
HETATM   23  C   UNL     1      -7.625   2.548  65.372  1.00  0.00    -0.076 C  
HETATM   24  F   UNL     1     -11.354   4.562  64.661  1.00  0.00    -0.270 F  
HETATM   25  F   UNL     1      -9.418   4.323  63.717  1.00  0.00    -0.148 F  
HETATM   26  C   UNL     1      -7.666   3.547  67.606  1.00  0.00    -0.077 A  
HETATM   27  F   UNL     1     -10.497   2.580  64.454  1.00  0.00    -0.029 F  
HETATM   28  C   UNL     1     -10.103   4.766  67.096  1.00  0.00    -0.210 A  
HETATM   29  N   UNL     1      -7.103   1.866  64.592  1.00  0.00    -0.046 NA 
HETATM   30  C   UNL     1      -8.288   4.309  68.606  1.00  0.00    -0.092 A  
HETATM   31  C   UNL     1      -8.271   3.380  66.350  1.00  0.00    -0.097 A  
ENDBRANCH   6  20
TORSDOF 3
ENDMDL
MODEL       91
REMARK 921   NORMALIZED FREE ENERGY PREDICTED BY IDOCK:   -5.32 KCAL/MOL
REMARK 922        TOTAL FREE ENERGY PREDICTED BY IDOCK:   -6.87 KCAL/MOL
REMARK 923 INTER-LIGAND FREE ENERGY PREDICTED BY IDOCK:   -6.38 KCAL/MOL
REMARK 924 INTRA-LIGAND FREE ENERGY PREDICTED BY IDOCK:   -0.48 KCAL/MOL
REMARK 927      BINDING AFFINITY PREDICTED BY RF-SCORE:    0.00 PKD
ROOT
HETATM    1  C   UNL     1      -9.727   8.965  65.783  1.00  0.00    -0.193 C  
HETATM    2  C   UNL     1      -8.884   8.729  67.047  1.00  0.00    -0.127 C  
HETATM    3  C   UNL     1      -8.818   9.952  67.966  1.00  0.00    -0.125 C  
HETATM    4  O   UNL     1      -7.563   8.317  66.694  1.00  0.00    -0.087 OA 
HETATM    5  C   UNL     1      -9.549   7.557  67.825  1.00  0.00    -0.142 C  
HETATM    6  N   UNL     1      -8.847   7.103  68.935  1.00  0.00    -0.131 N  
HETATM    7  H   UNL     1      -7.042   8.172  67.475  1.00  0.00     0.000 HD 
HETATM    8  H   UNL     1      -7.952   7.542  69.149  1.00  0.00     0.000 HD 
HETATM    9  O   UNL     1     -10.663   7.142  67.505  1.00  0.00    -0.254 OA 
ENDROOT
BRANCH   3  10
HETATM   10  S   UNL     1      -8.275  11.422  67.124  1.00  0.00    -0.163 S  
HETATM   11  O   UNL     1      -7.608  11.049  65.896  1.00  0.00    -0.103 OA 
HETATM   12  O   UNL     1      -7.615  12.270  68.106  1.00  0.00    -0.108 OA 
BRANCH  10  13
HETATM   13  C   UNL     1      -9.785  12.223  66.642  1.00  0.00    -0.222 A  
HETATM   14  C   UNL     1     -10.747  12.476  67.628  1.00  0.00    -0.242 A  
HETATM   15  C   UNL     1     -10.003  12.588  65.311  1.00  0.00    -0.226 A  
HETATM   16  F   UNL     1     -13.249  14.183  65.637  1.00  0.00    -0.568 F  
HETATM   17  C   UNL     1     -11.921  13.144  67.282  1.00  0.00    -0.389 A  
HETATM   18  C   UNL     1     -11.186  13.249  64.973  1.00  0.00    -0.325 A  
HETATM   19  C   UNL     1     -12.126  13.530  65.962  1.00  0.00    -0.445 A  
ENDBRANCH  10  13
ENDBRANCH   3  10
BRANCH   6  20
HETATM   20  C   UNL     1      -9.301   6.065  69.786  1.00  0.00    -0.149 A  
HETATM   21  C   UNL     1     -11.193   5.669  73.081  1.00  0.00    -0.236 C  
HETATM   22  C   UNL     1     -10.417   5.312  71.836  1.00  0.00    -0.282 A  
HETATM   23  C   UNL     1     -10.292   2.926  72.482  1.00  0.00    -0.114 C  
HETATM   24  F   UNL     1     -11.513   6.989  73.165  1.00  0.00    -0.249 F  
HETATM   25  F   UNL     1     -12.374   5.001  73.164  1.00  0.00    -0.325 F  
HETATM   26  C   UNL     1      -9.299   3.718  70.390  1.00  0.00    -0.235 A  
HETATM   27  F   UNL     1     -10.507   5.382  74.219  1.00  0.00    -0.243 F  
HETATM   28  C   UNL     1     -10.065   6.327  70.929  1.00  0.00    -0.227 A  
HETATM   29  N   UNL     1     -10.504   2.058  73.221  1.00  0.00    -0.116 NA 
HETATM   30  C   UNL     1      -8.960   4.744  69.496  1.00  0.00    -0.135 A  
HETATM   31  C   UNL     1     -10.011   3.999  71.568  1.00  0.00    -0.220 A  
ENDBRANCH   6  20
TORSDOF 3
ENDMDL
MODEL       92
REMARK 921   NORMALIZED FREE ENERGY PREDICTED BY IDOCK:   -5.27 KCAL/MOL
REMARK 922        TOTAL FREE ENERGY PREDICTED BY IDOCK:   -6.81 KCAL/MOL
REMARK 923 INTER-LIGAND FREE ENERGY PREDICTED BY IDOCK:   -6.55 KCAL/MOL
REMARK 924 INTRA-LIGAND FREE ENERGY PREDICTED BY IDOCK:   -0.27 KCAL/MOL
REMARK 927      BINDING AFFINITY PREDICTED BY RF-SCORE:    0.00 PKD
ROOT
HETATM    1  C   UNL     1      -7.474   7.460  66.712  1.00  0.00    -0.096 C  
HETATM    2  C   UNL     1      -8.891   7.905  66.315  1.00  0.00    -0.159 C  
HETATM    3  C   UNL     1      -9.984   6.959  66.817  1.00  0.00    -0.182 C  
HETATM    4  O   UNL     1      -8.988   8.049  64.897  1.00  0.00    -0.381 OA 
HETATM    5  C   UNL     1      -9.119   9.309  66.945  1.00  0.00    -0.131 C  
HETATM    6  N   UNL     1     -10.301   9.942  66.580  1.00  0.00    -0.224 N  
HETATM    7  H   UNL     1      -9.863   8.324  64.652  1.00  0.00     0.000 HD 
HETATM    8  H   UNL     1     -10.917   9.467  65.921  1.00  0.00     0.000 HD 
HETATM    9  O   UNL     1      -8.330   9.762  67.774  1.00  0.00    -0.113 OA 
ENDROOT
BRANCH   3  10
HETATM   10  S   UNL     1      -9.710   5.268  66.339  1.00  0.00    -0.183 S  
HETATM   11  O   UNL     1      -8.436   5.165  65.660  1.00  0.00    -0.124 OA 
HETATM   12  O   UNL     1     -10.931   4.786  65.711  1.00  0.00    -0.255 OA 
BRANCH  10  13
HETATM   13  C   UNL     1      -9.517   4.412  67.883  1.00  0.00    -0.161 A  
HETATM   14  C   UNL     1      -9.648   5.143  69.069  1.00  0.00    -0.204 A  
HETATM   15  C   UNL     1      -9.243   3.041  67.907  1.00  0.00    -0.247 A  
HETATM   16  F   UNL     1      -9.214   2.487  71.495  1.00  0.00    -0.125 F  
HETATM   17  C   UNL     1      -9.546   4.485  70.293  1.00  0.00    -0.263 A  
HETATM   18  C   UNL     1      -9.134   2.392  69.139  1.00  0.00    -0.186 A  
HETATM   19  C   UNL     1      -9.298   3.117  70.317  1.00  0.00    -0.165 A  
ENDBRANCH  10  13
ENDBRANCH   3  10
BRANCH   6  20
HETATM   20  C   UNL     1     -10.702  11.210  67.070  1.00  0.00    -0.268 A  
HETATM   21  C   UNL     1      -9.986  14.905  66.415  1.00  0.00    -0.275 C  
HETATM   22  C   UNL     1     -10.553  13.658  67.049  1.00  0.00    -0.274 A  
HETATM   23  C   UNL     1     -11.657  14.958  68.843  1.00  0.00    -0.315 C  
HETATM   24  F   UNL     1      -9.243  14.661  65.300  1.00  0.00    -0.078 F  
HETATM   25  F   UNL     1     -10.956  15.774  66.023  1.00  0.00    -0.319 F  
HETATM   26  C   UNL     1     -11.866  12.522  68.742  1.00  0.00    -0.347 A  
HETATM   27  F   UNL     1      -9.171  15.591  67.259  1.00  0.00    -0.196 F  
HETATM   28  C   UNL     1     -10.250  12.402  66.494  1.00  0.00    -0.244 A  
HETATM   29  N   UNL     1     -11.895  15.960  69.377  1.00  0.00    -0.351 NA 
HETATM   30  C   UNL     1     -11.554  11.279  68.172  1.00  0.00    -0.359 A  
HETATM   31  C   UNL     1     -11.356  13.710  68.196  1.00  0.00    -0.321 A  
ENDBRANCH   6  20
TORSDOF 3
ENDMDL
MODEL       93
REMARK 921   NORMALIZED FREE ENERGY PREDICTED BY IDOCK:   -5.26 KCAL/MOL
REMARK 922        TOTAL FREE ENERGY PREDICTED BY IDOCK:   -6.80 KCAL/MOL
REMARK 923 INTER-LIGAND FREE ENERGY PREDICTED BY IDOCK:   -6.39 KCAL/MOL
REMARK 924 INTRA-LIGAND FREE ENERGY PREDICTED BY IDOCK:   -0.41 KCAL/MOL
REMARK 927      BINDING AFFINITY PREDICTED BY RF-SCORE:    0.00 PKD
ROOT
HETATM    1  C   UNL     1      -8.471   7.631  65.875  1.00  0.00    -0.150 C  
HETATM    2  C   UNL     1      -9.098   8.523  66.959  1.00  0.00    -0.143 C  
HETATM    3  C   UNL     1      -8.543   8.252  68.360  1.00  0.00    -0.133 C  
HETATM    4  O   UNL     1     -10.519   8.376  66.964  1.00  0.00    -0.307 OA 
HETATM    5  C   UNL     1      -8.780   9.997  66.575  1.00  0.00    -0.132 C  
HETATM    6  N   UNL     1      -9.387  10.964  67.366  1.00  0.00    -0.154 N  
HETATM    7  H   UNL     1     -10.906   8.927  67.634  1.00  0.00     0.000 HD 
HETATM    8  H   UNL     1     -10.004  10.653  68.116  1.00  0.00     0.000 HD 
HETATM    9  O   UNL     1      -7.975  10.253  65.680  1.00  0.00    -0.138 OA 
ENDROOT
BRANCH   3  10
HETATM   10  S   UNL     1      -8.652   6.539  68.828  1.00  0.00    -0.120 S  
HETATM   11  O   UNL     1      -7.317   5.993  68.947  1.00  0.00    -0.080 OA 
HETATM   12  O   UNL     1      -9.642   5.911  67.967  1.00  0.00    -0.113 OA 
BRANCH  10  13
HETATM   13  C   UNL     1      -9.315   6.586  70.475  1.00  0.00    -0.162 A  
HETATM   14  C   UNL     1      -8.428   6.766  71.543  1.00  0.00    -0.119 A  
HETATM   15  C   UNL     1     -10.689   6.447  70.693  1.00  0.00    -0.310 A  
HETATM   16  F   UNL     1     -10.777   6.834  74.302  1.00  0.00    -0.344 F  
HETATM   17  C   UNL     1      -8.930   6.852  72.841  1.00  0.00    -0.144 A  
HETATM   18  C   UNL     1     -11.180   6.525  71.997  1.00  0.00    -0.312 A  
HETATM   19  C   UNL     1     -10.299   6.738  73.055  1.00  0.00    -0.228 A  
ENDBRANCH  10  13
ENDBRANCH   3  10
BRANCH   6  20
HETATM   20  C   UNL     1      -9.199  12.358  67.194  1.00  0.00    -0.199 A  
HETATM   21  C   UNL     1     -10.984  15.323  65.576  1.00  0.00    -0.359 C  
HETATM   22  C   UNL     1      -9.928  14.522  66.299  1.00  0.00    -0.320 A  
HETATM   23  C   UNL     1      -8.383  16.454  66.382  1.00  0.00    -0.328 C  
HETATM   24  F   UNL     1     -12.111  14.613  65.297  1.00  0.00    -0.361 F  
HETATM   25  F   UNL     1     -11.399  16.400  66.295  1.00  0.00     0.005 F  
HETATM   26  C   UNL     1      -7.759  14.300  67.362  1.00  0.00    -0.194 A  
HETATM   27  F   UNL     1     -10.544  15.802  64.382  1.00  0.00    -0.324 F  
HETATM   28  C   UNL     1     -10.162  13.163  66.575  1.00  0.00    -0.277 A  
HETATM   29  N   UNL     1      -8.112  17.554  66.131  1.00  0.00    -0.483 NA 
HETATM   30  C   UNL     1      -8.012  12.947  67.630  1.00  0.00    -0.167 A  
HETATM   31  C   UNL     1      -8.705  15.086  66.683  1.00  0.00    -0.289 A  
ENDBRANCH   6  20
TORSDOF 3
ENDMDL
MODEL       94
REMARK 921   NORMALIZED FREE ENERGY PREDICTED BY IDOCK:   -5.26 KCAL/MOL
REMARK 922        TOTAL FREE ENERGY PREDICTED BY IDOCK:   -6.80 KCAL/MOL
REMARK 923 INTER-LIGAND FREE ENERGY PREDICTED BY IDOCK:   -7.05 KCAL/MOL
REMARK 924 INTRA-LIGAND FREE ENERGY PREDICTED BY IDOCK:    0.26 KCAL/MOL
REMARK 927      BINDING AFFINITY PREDICTED BY RF-SCORE:    0.00 PKD
ROOT
HETATM    1  C   UNL     1     -10.129   9.501  68.174  1.00  0.00    -0.214 C  
HETATM    2  C   UNL     1     -10.876  10.652  68.868  1.00  0.00    -0.231 C  
HETATM    3  C   UNL     1     -10.835  10.564  70.396  1.00  0.00    -0.101 C  
HETATM    4  O   UNL     1     -12.232  10.706  68.422  1.00  0.00    -0.822 OA 
HETATM    5  C   UNL     1     -10.184  11.974  68.427  1.00  0.00    -0.209 C  
HETATM    6  N   UNL     1     -10.808  13.142  68.845  1.00  0.00    -0.333 N  
HETATM    7  H   UNL     1     -12.693  11.416  68.851  1.00  0.00     0.000 HD 
HETATM    8  H   UNL     1     -11.671  13.060  69.382  1.00  0.00     0.000 HD 
HETATM    9  O   UNL     1      -9.111  11.951  67.824  1.00  0.00    -0.168 OA 
ENDROOT
BRANCH   3  10
HETATM   10  S   UNL     1     -11.402   8.995  71.015  1.00  0.00    -0.319 S  
HETATM   11  O   UNL     1     -11.569   8.079  69.907  1.00  0.00     0.041 OA 
HETATM   12  O   UNL     1     -12.495   9.258  71.938  1.00  0.00    -0.342 OA 
BRANCH  10  13
HETATM   13  C   UNL     1     -10.027   8.384  71.958  1.00  0.00    -0.284 A  
HETATM   14  C   UNL     1     -10.287   7.769  73.189  1.00  0.00    -0.403 A  
HETATM   15  C   UNL     1      -8.721   8.516  71.479  1.00  0.00    -0.246 A  
HETATM   16  F   UNL     1      -6.919   6.831  74.143  1.00  0.00    -0.087 F  
HETATM   17  C   UNL     1      -9.228   7.242  73.926  1.00  0.00    -0.290 A  
HETATM   18  C   UNL     1      -7.666   7.992  72.229  1.00  0.00    -0.140 A  
HETATM   19  C   UNL     1      -7.931   7.350  73.437  1.00  0.00    -0.110 A  
ENDBRANCH  10  13
ENDBRANCH   3  10
BRANCH   6  20
HETATM   20  C   UNL     1     -10.317  14.443  68.570  1.00  0.00    -0.248 A  
HETATM   21  C   UNL     1      -6.998  16.333  68.609  1.00  0.00    -0.148 C  
HETATM   22  C   UNL     1      -8.477  16.060  68.473  1.00  0.00    -0.189 A  
HETATM   23  C   UNL     1      -8.981  18.455  68.099  1.00  0.00    -0.309 C  
HETATM   24  F   UNL     1      -6.256  15.216  68.841  1.00  0.00    -0.090 F  
HETATM   25  F   UNL     1      -6.470  16.896  67.489  1.00  0.00    -0.127 F  
HETATM   26  C   UNL     1     -10.762  16.777  68.090  1.00  0.00    -0.361 A  
HETATM   27  F   UNL     1      -6.720  17.181  69.635  1.00  0.00    -0.238 F  
HETATM   28  C   UNL     1      -8.953  14.747  68.631  1.00  0.00    -0.185 A  
HETATM   29  N   UNL     1      -8.653  19.564  68.014  1.00  0.00    -0.318 NA 
HETATM   30  C   UNL     1     -11.218  15.459  68.249  1.00  0.00    -0.325 A  
HETATM   31  C   UNL     1      -9.398  17.084  68.217  1.00  0.00    -0.255 A  
ENDBRANCH   6  20
TORSDOF 3
ENDMDL
MODEL       95
REMARK 921   NORMALIZED FREE ENERGY PREDICTED BY IDOCK:   -5.25 KCAL/MOL
REMARK 922        TOTAL FREE ENERGY PREDICTED BY IDOCK:   -6.79 KCAL/MOL
REMARK 923 INTER-LIGAND FREE ENERGY PREDICTED BY IDOCK:   -6.15 KCAL/MOL
REMARK 924 INTRA-LIGAND FREE ENERGY PREDICTED BY IDOCK:   -0.64 KCAL/MOL
REMARK 927      BINDING AFFINITY PREDICTED BY RF-SCORE:    0.00 PKD
ROOT
HETATM    1  C   UNL     1      -9.697   8.379  72.451  1.00  0.00    -0.376 C  
HETATM    2  C   UNL     1      -8.972   8.637  71.120  1.00  0.00    -0.201 C  
HETATM    3  C   UNL     1      -8.781   7.372  70.280  1.00  0.00    -0.146 C  
HETATM    4  O   UNL     1      -7.707   9.258  71.355  1.00  0.00    -0.334 OA 
HETATM    5  C   UNL     1      -9.844   9.642  70.314  1.00  0.00    -0.266 C  
HETATM    6  N   UNL     1      -9.281  10.108  69.133  1.00  0.00    -0.186 N  
HETATM    7  H   UNL     1      -7.259   9.417  70.533  1.00  0.00     0.000 HD 
HETATM    8  H   UNL     1      -8.345   9.786  68.887  1.00  0.00     0.000 HD 
HETATM    9  O   UNL     1     -10.986   9.918  70.682  1.00  0.00    -0.296 OA 
ENDROOT
BRANCH   3  10
HETATM   10  S   UNL     1      -7.981   6.060  71.177  1.00  0.00    -0.118 S  
HETATM   11  O   UNL     1      -8.979   5.299  71.898  1.00  0.00    -0.133 OA 
HETATM   12  O   UNL     1      -6.837   6.635  71.868  1.00  0.00    -0.065 OA 
BRANCH  10  13
HETATM   13  C   UNL     1      -7.364   4.985  69.905  1.00  0.00    -0.059 A  
HETATM   14  C   UNL     1      -7.247   3.619  70.188  1.00  0.00    -0.041 A  
HETATM   15  C   UNL     1      -7.007   5.496  68.654  1.00  0.00    -0.060 A  
HETATM   16  F   UNL     1      -6.068   2.413  66.980  1.00  0.00    -0.021 F  
HETATM   17  C   UNL     1      -6.808   2.749  69.191  1.00  0.00    -0.037 A  
HETATM   18  C   UNL     1      -6.560   4.618  67.664  1.00  0.00    -0.047 A  
HETATM   19  C   UNL     1      -6.477   3.254  67.939  1.00  0.00    -0.037 A  
ENDBRANCH  10  13
ENDBRANCH   3  10
BRANCH   6  20
HETATM   20  C   UNL     1      -9.930  11.005  68.248  1.00  0.00    -0.179 A  
HETATM   21  C   UNL     1     -10.854  14.707  68.069  1.00  0.00    -0.257 C  
HETATM   22  C   UNL     1     -10.755  13.248  67.697  1.00  0.00    -0.250 A  
HETATM   23  C   UNL     1     -12.222  13.553  65.727  1.00  0.00    -0.461 C  
HETATM   24  F   UNL     1     -10.146  15.035  69.185  1.00  0.00    -0.214 F  
HETATM   25  F   UNL     1     -10.388  15.525  67.088  1.00  0.00    -0.252 F  
HETATM   26  C   UNL     1     -11.273  11.362  66.262  1.00  0.00    -0.228 A  
HETATM   27  F   UNL     1     -12.134  15.093  68.318  1.00  0.00    -0.325 F  
HETATM   28  C   UNL     1     -10.013  12.376  68.513  1.00  0.00    -0.175 A  
HETATM   29  N   UNL     1     -12.894  14.212  65.048  1.00  0.00    -0.713 NA 
HETATM   30  C   UNL     1     -10.526  10.509  67.088  1.00  0.00    -0.302 A  
HETATM   31  C   UNL     1     -11.404  12.726  66.571  1.00  0.00    -0.369 A  
ENDBRANCH   6  20
TORSDOF 3
ENDMDL
MODEL       96
REMARK 921   NORMALIZED FREE ENERGY PREDICTED BY IDOCK:   -5.23 KCAL/MOL
REMARK 922        TOTAL FREE ENERGY PREDICTED BY IDOCK:   -6.77 KCAL/MOL
REMARK 923 INTER-LIGAND FREE ENERGY PREDICTED BY IDOCK:   -6.59 KCAL/MOL
REMARK 924 INTRA-LIGAND FREE ENERGY PREDICTED BY IDOCK:   -0.18 KCAL/MOL
REMARK 927      BINDING AFFINITY PREDICTED BY RF-SCORE:    0.00 PKD
ROOT
HETATM    1  C   UNL     1      -6.896  11.885  66.983  1.00  0.00    -0.122 C  
HETATM    2  C   UNL     1      -7.649  11.922  68.323  1.00  0.00    -0.116 C  
HETATM    3  C   UNL     1      -9.061  12.500  68.207  1.00  0.00    -0.183 C  
HETATM    4  O   UNL     1      -6.902  12.660  69.292  1.00  0.00    -0.205 OA 
HETATM    5  C   UNL     1      -7.751  10.454  68.828  1.00  0.00    -0.104 C  
HETATM    6  N   UNL     1      -8.281  10.297  70.103  1.00  0.00    -0.315 N  
HETATM    7  H   UNL     1      -7.366  12.683  70.120  1.00  0.00     0.000 HD 
HETATM    8  H   UNL     1      -8.541  11.136  70.621  1.00  0.00     0.000 HD 
HETATM    9  O   UNL     1      -7.455   9.514  68.091  1.00  0.00    -0.078 OA 
ENDROOT
BRANCH   3  10
HETATM   10  S   UNL     1      -9.093  14.102  67.434  1.00  0.00    -0.208 S  
HETATM   11  O   UNL     1      -7.765  14.429  66.961  1.00  0.00    -0.104 OA 
HETATM   12  O   UNL     1      -9.813  15.003  68.322  1.00  0.00    -0.211 OA 
BRANCH  10  13
HETATM   13  C   UNL     1     -10.088  13.858  65.983  1.00  0.00    -0.313 A  
HETATM   14  C   UNL     1     -10.122  12.582  65.408  1.00  0.00    -0.284 A  
HETATM   15  C   UNL     1     -10.817  14.917  65.434  1.00  0.00    -0.379 A  
HETATM   16  F   UNL     1     -12.462  13.176  62.705  1.00  0.00    -0.437 F  
HETATM   17  C   UNL     1     -10.931  12.355  64.296  1.00  0.00    -0.396 A  
HETATM   18  C   UNL     1     -11.618  14.681  64.315  1.00  0.00    -0.227 A  
HETATM   19  C   UNL     1     -11.676  13.402  63.765  1.00  0.00    -0.376 A  
ENDBRANCH  10  13
ENDBRANCH   3  10
BRANCH   6  20
HETATM   20  C   UNL     1      -8.481   9.040  70.726  1.00  0.00    -0.200 A  
HETATM   21  C   UNL     1     -10.995   6.165  70.662  1.00  0.00    -0.311 C  
HETATM   22  C   UNL     1      -9.805   7.003  71.062  1.00  0.00    -0.185 A  
HETATM   23  C   UNL     1      -9.222   5.466  72.911  1.00  0.00    -0.134 C  
HETATM   24  F   UNL     1     -11.681   6.663  69.597  1.00  0.00    -0.378 F  
HETATM   25  F   UNL     1     -10.642   4.900  70.309  1.00  0.00    -0.322 F  
HETATM   26  C   UNL     1      -7.870   7.453  72.453  1.00  0.00    -0.106 A  
HETATM   27  F   UNL     1     -11.905   6.046  71.665  1.00  0.00    -0.345 F  
HETATM   28  C   UNL     1      -9.537   8.196  70.366  1.00  0.00    -0.171 A  
HETATM   29  N   UNL     1      -9.427   4.523  73.556  1.00  0.00    -0.117 NA 
HETATM   30  C   UNL     1      -7.617   8.637  71.745  1.00  0.00    -0.125 A  
HETATM   31  C   UNL     1      -8.969   6.643  72.126  1.00  0.00    -0.138 A  
ENDBRANCH   6  20
TORSDOF 3
ENDMDL
MODEL       97
REMARK 921   NORMALIZED FREE ENERGY PREDICTED BY IDOCK:   -5.22 KCAL/MOL
REMARK 922        TOTAL FREE ENERGY PREDICTED BY IDOCK:   -6.75 KCAL/MOL
REMARK 923 INTER-LIGAND FREE ENERGY PREDICTED BY IDOCK:   -6.53 KCAL/MOL
REMARK 924 INTRA-LIGAND FREE ENERGY PREDICTED BY IDOCK:   -0.23 KCAL/MOL
REMARK 927      BINDING AFFINITY PREDICTED BY RF-SCORE:    0.00 PKD
ROOT
HETATM    1  C   UNL     1      -6.589  10.136  70.133  1.00  0.00    -0.128 C  
HETATM    2  C   UNL     1      -7.268   9.957  68.765  1.00  0.00    -0.076 C  
HETATM    3  C   UNL     1      -8.342   8.867  68.763  1.00  0.00    -0.123 C  
HETATM    4  O   UNL     1      -6.293   9.678  67.759  1.00  0.00    -0.053 OA 
HETATM    5  C   UNL     1      -7.936  11.316  68.408  1.00  0.00    -0.140 C  
HETATM    6  N   UNL     1      -8.486  11.394  67.135  1.00  0.00    -0.147 N  
HETATM    7  H   UNL     1      -6.712   9.567  66.914  1.00  0.00     0.000 HD 
HETATM    8  H   UNL     1      -8.399  10.582  66.523  1.00  0.00     0.000 HD 
HETATM    9  O   UNL     1      -8.030  12.210  69.248  1.00  0.00     0.242 OA 
ENDROOT
BRANCH   3  10
HETATM   10  S   UNL     1      -7.746   7.304  69.368  1.00  0.00    -0.108 S  
HETATM   11  O   UNL     1      -8.340   7.036  70.659  1.00  0.00    -0.124 OA 
HETATM   12  O   UNL     1      -6.301   7.288  69.191  1.00  0.00    -0.034 OA 
BRANCH  10  13
HETATM   13  C   UNL     1      -8.443   6.116  68.247  1.00  0.00    -0.113 A  
HETATM   14  C   UNL     1      -8.467   6.425  66.882  1.00  0.00    -0.110 A  
HETATM   15  C   UNL     1      -8.954   4.904  68.722  1.00  0.00    -0.132 A  
HETATM   16  F   UNL     1      -9.921   3.373  65.575  1.00  0.00    -0.132 F  
HETATM   17  C   UNL     1      -8.968   5.489  65.978  1.00  0.00    -0.154 A  
HETATM   18  C   UNL     1      -9.462   3.977  67.809  1.00  0.00    -0.228 A  
HETATM   19  C   UNL     1      -9.453   4.274  66.448  1.00  0.00    -0.183 A  
ENDBRANCH  10  13
ENDBRANCH   3  10
BRANCH   6  20
HETATM   20  C   UNL     1      -9.161  12.534  66.634  1.00  0.00    -0.223 A  
HETATM   21  C   UNL     1     -12.334  13.371  64.678  1.00  0.00    -0.382 C  
HETATM   22  C   UNL     1     -11.020  13.551  65.399  1.00  0.00    -0.300 A  
HETATM   23  C   UNL     1     -10.929  15.959  64.832  1.00  0.00    -0.411 C  
HETATM   24  F   UNL     1     -12.813  12.098  64.727  1.00  0.00    -0.491 F  
HETATM   25  F   UNL     1     -13.320  14.153  65.194  1.00  0.00    -0.344 F  
HETATM   26  C   UNL     1      -9.162  14.912  66.161  1.00  0.00    -0.268 A  
HETATM   27  F   UNL     1     -12.246  13.682  63.357  1.00  0.00    -0.543 F  
HETATM   28  C   UNL     1     -10.404  12.439  65.999  1.00  0.00    -0.275 A  
HETATM   29  N   UNL     1     -11.362  16.900  64.308  1.00  0.00    -1.103 NA 
HETATM   30  C   UNL     1      -8.565  13.790  66.755  1.00  0.00    -0.058 A  
HETATM   31  C   UNL     1     -10.379  14.795  65.470  1.00  0.00    -0.387 A  
ENDBRANCH   6  20
TORSDOF 3
ENDMDL
MODEL       98
REMARK 921   NORMALIZED FREE ENERGY PREDICTED BY IDOCK:   -5.22 KCAL/MOL
REMARK 922        TOTAL FREE ENERGY PREDICTED BY IDOCK:   -6.75 KCAL/MOL
REMARK 923 INTER-LIGAND FREE ENERGY PREDICTED BY IDOCK:   -6.82 KCAL/MOL
REMARK 924 INTRA-LIGAND FREE ENERGY PREDICTED BY IDOCK:    0.08 KCAL/MOL
REMARK 927      BINDING AFFINITY PREDICTED BY RF-SCORE:    0.00 PKD
ROOT
HETATM    1  C   UNL     1      -9.935   9.033  71.695  1.00  0.00    -0.383 C  
HETATM    2  C   UNL     1     -10.674   8.708  70.386  1.00  0.00    -0.224 C  
HETATM    3  C   UNL     1     -11.685   9.783  69.981  1.00  0.00    -0.074 C  
HETATM    4  O   UNL     1     -11.327   7.442  70.486  1.00  0.00    -0.275 OA 
HETATM    5  C   UNL     1      -9.595   8.593  69.271  1.00  0.00    -0.166 C  
HETATM    6  N   UNL     1     -10.059   8.164  68.034  1.00  0.00    -0.189 N  
HETATM    7  H   UNL     1     -11.784   7.240  69.678  1.00  0.00     0.000 HD 
HETATM    8  H   UNL     1     -11.049   7.936  67.945  1.00  0.00     0.000 HD 
HETATM    9  O   UNL     1      -8.435   8.948  69.480  1.00  0.00    -0.121 OA 
ENDROOT
BRANCH   3  10
HETATM   10  S   UNL     1     -12.849  10.162  71.272  1.00  0.00    -0.440 S  
HETATM   11  O   UNL     1     -12.300   9.745  72.545  1.00  0.00    -0.016 OA 
HETATM   12  O   UNL     1     -14.156   9.698  70.834  1.00  0.00    -0.035 OA 
BRANCH  10  13
HETATM   13  C   UNL     1     -12.885  11.937  71.308  1.00  0.00    -0.290 A  
HETATM   14  C   UNL     1     -13.608  12.566  72.329  1.00  0.00    -0.443 A  
HETATM   15  C   UNL     1     -12.207  12.682  70.340  1.00  0.00    -0.368 A  
HETATM   16  F   UNL     1     -12.917  16.035  71.540  1.00  0.00    -0.505 F  
HETATM   17  C   UNL     1     -13.615  13.958  72.405  1.00  0.00    -0.676 A  
HETATM   18  C   UNL     1     -12.227  14.077  70.419  1.00  0.00    -0.433 A  
HETATM   19  C   UNL     1     -12.919  14.699  71.456  1.00  0.00    -0.339 A  
ENDBRANCH  10  13
ENDBRANCH   3  10
BRANCH   6  20
HETATM   20  C   UNL     1      -9.238   8.024  66.887  1.00  0.00    -0.154 A  
HETATM   21  C   UNL     1      -8.706   9.718  63.505  1.00  0.00    -0.222 C  
HETATM   22  C   UNL     1      -8.563   8.731  64.638  1.00  0.00    -0.140 A  
HETATM   23  C   UNL     1      -7.016   7.309  63.330  1.00  0.00    -0.059 C  
HETATM   24  F   UNL     1      -9.533  10.761  63.792  1.00  0.00    -0.209 F  
HETATM   25  F   UNL     1      -7.519  10.279  63.154  1.00  0.00    -0.139 F  
HETATM   26  C   UNL     1      -7.636   6.717  65.622  1.00  0.00    -0.090 A  
HETATM   27  F   UNL     1      -9.211   9.145  62.380  1.00  0.00    -0.254 F  
HETATM   28  C   UNL     1      -9.290   8.933  65.825  1.00  0.00    -0.286 A  
HETATM   29  N   UNL     1      -6.436   7.061  62.356  1.00  0.00    -0.051 NA 
HETATM   30  C   UNL     1      -8.368   6.937  66.799  1.00  0.00    -0.116 A  
HETATM   31  C   UNL     1      -7.743   7.600  64.536  1.00  0.00    -0.126 A  
ENDBRANCH   6  20
TORSDOF 3
ENDMDL
MODEL       99
REMARK 921   NORMALIZED FREE ENERGY PREDICTED BY IDOCK:   -5.19 KCAL/MOL
REMARK 922        TOTAL FREE ENERGY PREDICTED BY IDOCK:   -6.72 KCAL/MOL
REMARK 923 INTER-LIGAND FREE ENERGY PREDICTED BY IDOCK:   -6.29 KCAL/MOL
REMARK 924 INTRA-LIGAND FREE ENERGY PREDICTED BY IDOCK:   -0.43 KCAL/MOL
REMARK 927      BINDING AFFINITY PREDICTED BY RF-SCORE:    0.00 PKD
ROOT
HETATM    1  C   UNL     1      -8.857  11.079  66.206  1.00  0.00    -0.187 C  
HETATM    2  C   UNL     1      -8.977  10.692  67.689  1.00  0.00    -0.139 C  
HETATM    3  C   UNL     1     -10.397  10.842  68.240  1.00  0.00    -0.173 C  
HETATM    4  O   UNL     1      -8.069  11.461  68.479  1.00  0.00    -0.137 OA 
HETATM    5  C   UNL     1      -8.553   9.200  67.806  1.00  0.00    -0.121 C  
HETATM    6  N   UNL     1      -8.462   8.704  69.101  1.00  0.00    -0.123 N  
HETATM    7  H   UNL     1      -8.142  11.222  69.395  1.00  0.00     0.000 HD 
HETATM    8  H   UNL     1      -8.654   9.342  69.873  1.00  0.00     0.000 HD 
HETATM    9  O   UNL     1      -8.399   8.510  66.798  1.00  0.00    -0.106 OA 
ENDROOT
BRANCH   3  10
HETATM   10  S   UNL     1     -11.080  12.461  67.965  1.00  0.00    -0.265 S  
HETATM   11  O   UNL     1     -12.098  12.381  66.940  1.00  0.00    -0.564 OA 
HETATM   12  O   UNL     1      -9.967  13.390  67.841  1.00  0.00    -0.223 OA 
BRANCH  10  13
HETATM   13  C   UNL     1     -11.931  12.831  69.479  1.00  0.00    -0.276 A  
HETATM   14  C   UNL     1     -12.255  11.771  70.335  1.00  0.00    -0.416 A  
HETATM   15  C   UNL     1     -12.267  14.148  69.803  1.00  0.00    -0.397 A  
HETATM   16  F   UNL     1     -13.785  13.609  73.058  1.00  0.00    -0.531 F  
HETATM   17  C   UNL     1     -12.883  12.040  71.550  1.00  0.00    -0.403 A  
HETATM   18  C   UNL     1     -12.903  14.407  71.019  1.00  0.00    -0.423 A  
HETATM   19  C   UNL     1     -13.194  13.354  71.884  1.00  0.00    -0.431 A  
ENDBRANCH  10  13
ENDBRANCH   3  10
BRANCH   6  20
HETATM   20  C   UNL     1      -8.120   7.365  69.412  1.00  0.00    -0.129 A  
HETATM   21  C   UNL     1      -9.646   4.340  71.177  1.00  0.00    -0.179 C  
HETATM   22  C   UNL     1      -8.645   5.207  70.453  1.00  0.00    -0.122 A  
HETATM   23  C   UNL     1      -6.874   3.488  70.647  1.00  0.00    -0.033 C  
HETATM   24  F   UNL     1     -10.869   4.921  71.317  1.00  0.00    -0.218 F  
HETATM   25  F   UNL     1      -9.872   3.163  70.535  1.00  0.00    -0.240 F  
HETATM   26  C   UNL     1      -6.445   5.615  69.516  1.00  0.00    -0.041 A  
HETATM   27  F   UNL     1      -9.242   4.023  72.436  1.00  0.00    -0.121 F  
HETATM   28  C   UNL     1      -9.021   6.497  70.039  1.00  0.00    -0.144 A  
HETATM   29  N   UNL     1      -6.491   2.457  71.014  1.00  0.00    -0.023 NA 
HETATM   30  C   UNL     1      -6.840   6.898  69.108  1.00  0.00    -0.068 A  
HETATM   31  C   UNL     1      -7.336   4.774  70.201  1.00  0.00    -0.054 A  
ENDBRANCH   6  20
TORSDOF 3
ENDMDL
MODEL      100
REMARK 921   NORMALIZED FREE ENERGY PREDICTED BY IDOCK:   -5.19 KCAL/MOL
REMARK 922        TOTAL FREE ENERGY PREDICTED BY IDOCK:   -6.72 KCAL/MOL
REMARK 923 INTER-LIGAND FREE ENERGY PREDICTED BY IDOCK:   -6.06 KCAL/MOL
REMARK 924 INTRA-LIGAND FREE ENERGY PREDICTED BY IDOCK:   -0.65 KCAL/MOL
REMARK 927      BINDING AFFINITY PREDICTED BY RF-SCORE:    0.00 PKD
ROOT
HETATM    1  C   UNL     1      -6.736   6.595  64.926  1.00  0.00    -0.049 C  
HETATM    2  C   UNL     1      -8.130   6.725  65.560  1.00  0.00    -0.128 C  
HETATM    3  C   UNL     1      -8.232   6.060  66.935  1.00  0.00    -0.105 C  
HETATM    4  O   UNL     1      -9.125   6.187  64.688  1.00  0.00    -0.244 OA 
HETATM    5  C   UNL     1      -8.418   8.245  65.720  1.00  0.00    -0.151 C  
HETATM    6  N   UNL     1      -9.698   8.569  66.152  1.00  0.00    -0.409 N  
HETATM    7  H   UNL     1      -9.987   6.267  65.080  1.00  0.00     0.000 HD 
HETATM    8  H   UNL     1     -10.357   7.807  66.311  1.00  0.00     0.000 HD 
HETATM    9  O   UNL     1      -7.525   9.075  65.550  1.00  0.00    -0.085 OA 
ENDROOT
BRANCH   3  10
HETATM   10  S   UNL     1      -7.713   4.359  66.923  1.00  0.00    -0.094 S  
HETATM   11  O   UNL     1      -6.271   4.301  67.032  1.00  0.00    -0.033 OA 
HETATM   12  O   UNL     1      -8.407   3.697  65.829  1.00  0.00    -0.103 OA 
BRANCH  10  13
HETATM   13  C   UNL     1      -8.350   3.705  68.446  1.00  0.00    -0.082 A  
HETATM   14  C   UNL     1      -9.051   4.567  69.298  1.00  0.00    -0.167 A  
HETATM   15  C   UNL     1      -8.154   2.362  68.781  1.00  0.00    -0.066 A  
HETATM   16  F   UNL     1      -9.966   2.245  71.926  1.00  0.00    -0.198 F  
HETATM   17  C   UNL     1      -9.600   4.066  70.477  1.00  0.00    -0.261 A  
HETATM   18  C   UNL     1      -8.700   1.872  69.969  1.00  0.00    -0.108 A  
HETATM   19  C   UNL     1      -9.426   2.725  70.798  1.00  0.00    -0.149 A  
ENDBRANCH  10  13
ENDBRANCH   3  10
BRANCH   6  20
HETATM   20  C   UNL     1     -10.143   9.894  66.384  1.00  0.00    -0.240 A  
HETATM   21  C   UNL     1     -11.655  12.806  64.428  1.00  0.00    -0.361 C  
HETATM   22  C   UNL     1     -11.071  12.014  65.573  1.00  0.00    -0.361 A  
HETATM   23  C   UNL     1     -11.096  13.983  67.073  1.00  0.00    -0.304 C  
HETATM   24  F   UNL     1     -11.836  12.074  63.295  1.00  0.00    -0.501 F  
HETATM   25  F   UNL     1     -12.876  13.324  64.727  1.00  0.00    -0.416 F  
HETATM   26  C   UNL     1     -10.290  11.811  67.860  1.00  0.00    -0.209 A  
HETATM   27  F   UNL     1     -10.868  13.855  64.069  1.00  0.00    -0.319 F  
HETATM   28  C   UNL     1     -10.737  10.663  65.377  1.00  0.00    -0.106 A  
HETATM   29  N   UNL     1     -11.299  15.107  67.276  1.00  0.00    -0.330 NA 
HETATM   30  C   UNL     1      -9.965  10.463  67.645  1.00  0.00    -0.205 A  
HETATM   31  C   UNL     1     -10.827  12.593  66.825  1.00  0.00    -0.279 A  
ENDBRANCH   6  20
TORSDOF 3
ENDMDL
MODEL      101
REMARK 921   NORMALIZED FREE ENERGY PREDICTED BY IDOCK:   -5.18 KCAL/MOL
REMARK 922        TOTAL FREE ENERGY PREDICTED BY IDOCK:   -6.70 KCAL/MOL
REMARK 923 INTER-LIGAND FREE ENERGY PREDICTED BY IDOCK:   -6.92 KCAL/MOL
REMARK 924 INTRA-LIGAND FREE ENERGY PREDICTED BY IDOCK:    0.22 KCAL/MOL
REMARK 927      BINDING AFFINITY PREDICTED BY RF-SCORE:    0.00 PKD
ROOT
HETATM    1  C   UNL     1     -10.330   7.574  67.498  1.00  0.00    -0.321 C  
HETATM    2  C   UNL     1     -10.742   7.776  68.965  1.00  0.00    -0.103 C  
HETATM    3  C   UNL     1      -9.603   7.516  69.954  1.00  0.00    -0.160 C  
HETATM    4  O   UNL     1     -11.860   6.946  69.286  1.00  0.00    -0.507 OA 
HETATM    5  C   UNL     1     -11.200   9.255  69.110  1.00  0.00     0.131 C  
HETATM    6  N   UNL     1     -11.746   9.594  70.343  1.00  0.00    -0.386 N  
HETATM    7  H   UNL     1     -12.115   7.069  70.192  1.00  0.00     0.000 HD 
HETATM    8  H   UNL     1     -11.829   8.862  71.048  1.00  0.00     0.000 HD 
HETATM    9  O   UNL     1     -11.000  10.066  68.207  1.00  0.00    -0.248 OA 
ENDROOT
BRANCH   3  10
HETATM   10  S   UNL     1      -8.846   5.921  69.736  1.00  0.00    -0.129 S  
HETATM   11  O   UNL     1      -9.840   4.984  69.260  1.00  0.00    -0.163 OA 
HETATM   12  O   UNL     1      -8.066   5.640  70.932  1.00  0.00    -0.113 OA 
BRANCH  10  13
HETATM   13  C   UNL     1      -7.713   6.165  68.392  1.00  0.00    -0.103 A  
HETATM   14  C   UNL     1      -7.676   5.206  67.371  1.00  0.00    -0.092 A  
HETATM   15  C   UNL     1      -6.880   7.287  68.357  1.00  0.00    -0.073 A  
HETATM   16  F   UNL     1      -5.213   6.715  65.183  1.00  0.00    -0.021 F  
HETATM   17  C   UNL     1      -6.827   5.399  66.283  1.00  0.00    -0.059 A  
HETATM   18  C   UNL     1      -6.027   7.466  67.267  1.00  0.00    -0.045 A  
HETATM   19  C   UNL     1      -6.017   6.528  66.237  1.00  0.00    -0.025 A  
ENDBRANCH  10  13
ENDBRANCH   3  10
BRANCH   6  20
HETATM   20  C   UNL     1     -12.193  10.895  70.678  1.00  0.00    -0.376 A  
HETATM   21  C   UNL     1     -11.500  14.520  69.691  1.00  0.00    -0.288 C  
HETATM   22  C   UNL     1     -12.082  13.331  70.417  1.00  0.00    -0.401 A  
HETATM   23  C   UNL     1     -13.305  14.781  72.007  1.00  0.00    -0.363 C  
HETATM   24  F   UNL     1     -10.693  14.181  68.649  1.00  0.00    -0.226 F  
HETATM   25  F   UNL     1     -12.461  15.324  69.162  1.00  0.00    -0.243 F  
HETATM   26  C   UNL     1     -13.470  12.343  72.144  1.00  0.00    -0.481 A  
HETATM   27  F   UNL     1     -10.744  15.305  70.504  1.00  0.00    -0.295 F  
HETATM   28  C   UNL     1     -11.729  12.033  70.009  1.00  0.00    -0.346 A  
HETATM   29  N   UNL     1     -13.588  15.827  72.423  1.00  0.00    -0.489 NA 
HETATM   30  C   UNL     1     -13.107  11.056  71.720  1.00  0.00    -0.554 A  
HETATM   31  C   UNL     1     -12.948  13.482  71.508  1.00  0.00    -0.440 A  
ENDBRANCH   6  20
TORSDOF 3
ENDMDL
MODEL      102
REMARK 921   NORMALIZED FREE ENERGY PREDICTED BY IDOCK:   -5.16 KCAL/MOL
REMARK 922        TOTAL FREE ENERGY PREDICTED BY IDOCK:   -6.69 KCAL/MOL
REMARK 923 INTER-LIGAND FREE ENERGY PREDICTED BY IDOCK:   -6.22 KCAL/MOL
REMARK 924 INTRA-LIGAND FREE ENERGY PREDICTED BY IDOCK:   -0.46 KCAL/MOL
REMARK 927      BINDING AFFINITY PREDICTED BY RF-SCORE:    0.00 PKD
ROOT
HETATM    1  C   UNL     1      -9.895  10.414  70.393  1.00  0.00     0.446 C  
HETATM    2  C   UNL     1     -10.657   9.782  69.217  1.00  0.00    -0.221 C  
HETATM    3  C   UNL     1     -10.520  10.573  67.914  1.00  0.00    -0.210 C  
HETATM    4  O   UNL     1     -12.039   9.626  69.546  1.00  0.00    -0.274 OA 
HETATM    5  C   UNL     1     -10.064   8.360  69.002  1.00  0.00    -0.203 C  
HETATM    6  N   UNL     1     -10.722   7.574  68.064  1.00  0.00    -0.412 N  
HETATM    7  H   UNL     1     -12.510   9.236  68.819  1.00  0.00     0.000 HD 
HETATM    8  H   UNL     1     -11.545   7.962  67.605  1.00  0.00     0.000 HD 
HETATM    9  O   UNL     1      -9.030   8.018  69.575  1.00  0.00    -0.146 OA 
ENDROOT
BRANCH   3  10
HETATM   10  S   UNL     1     -10.966  12.286  68.092  1.00  0.00    -0.248 S  
HETATM   11  O   UNL     1      -9.787  13.051  68.434  1.00  0.00    -0.228 OA 
HETATM   12  O   UNL     1     -12.161  12.343  68.921  1.00  0.00    -0.265 OA 
BRANCH  10  13
HETATM   13  C   UNL     1     -11.420  12.784  66.449  1.00  0.00    -0.357 A  
HETATM   14  C   UNL     1     -10.898  12.063  65.368  1.00  0.00    -0.336 A  
HETATM   15  C   UNL     1     -12.277  13.869  66.246  1.00  0.00    -0.498 A  
HETATM   16  F   UNL     1     -12.518  13.788  62.624  1.00  0.00    -0.190 F  
HETATM   17  C   UNL     1     -11.275  12.407  64.071  1.00  0.00    -0.458 A  
HETATM   18  C   UNL     1     -12.642  14.211  64.942  1.00  0.00    -0.362 A  
HETATM   19  C   UNL     1     -12.148  13.470  63.871  1.00  0.00    -0.438 A  
ENDBRANCH  10  13
ENDBRANCH   3  10
BRANCH   6  20
HETATM   20  C   UNL     1     -10.317   6.264  67.708  1.00  0.00    -0.195 A  
HETATM   21  C   UNL     1      -9.409   2.968  69.414  1.00  0.00    -0.137 C  
HETATM   22  C   UNL     1      -9.629   3.992  68.326  1.00  0.00    -0.188 A  
HETATM   23  C   UNL     1      -8.735   2.476  66.586  1.00  0.00    -0.123 C  
HETATM   24  F   UNL     1      -9.788   3.395  70.650  1.00  0.00    -0.242 F  
HETATM   25  F   UNL     1     -10.106   1.821  69.193  1.00  0.00    -0.029 F  
HETATM   26  C   UNL     1      -9.546   4.713  66.012  1.00  0.00    -0.189 A  
HETATM   27  F   UNL     1      -8.103   2.611  69.531  1.00  0.00    -0.045 F  
HETATM   28  C   UNL     1     -10.142   5.257  68.664  1.00  0.00    -0.238 A  
HETATM   29  N   UNL     1      -8.258   1.472  66.257  1.00  0.00    -0.076 NA 
HETATM   30  C   UNL     1     -10.061   5.968  66.369  1.00  0.00    -0.142 A  
HETATM   31  C   UNL     1      -9.313   3.730  66.987  1.00  0.00    -0.219 A  
ENDBRANCH   6  20
TORSDOF 3
ENDMDL
MODEL      103
REMARK 921   NORMALIZED FREE ENERGY PREDICTED BY IDOCK:   -5.15 KCAL/MOL
REMARK 922        TOTAL FREE ENERGY PREDICTED BY IDOCK:   -6.67 KCAL/MOL
REMARK 923 INTER-LIGAND FREE ENERGY PREDICTED BY IDOCK:   -6.32 KCAL/MOL
REMARK 924 INTRA-LIGAND FREE ENERGY PREDICTED BY IDOCK:   -0.35 KCAL/MOL
REMARK 927      BINDING AFFINITY PREDICTED BY RF-SCORE:    0.00 PKD
ROOT
HETATM    1  C   UNL     1     -11.487  13.224  68.494  1.00  0.00    -0.347 C  
HETATM    2  C   UNL     1     -11.147  12.549  67.155  1.00  0.00    -0.276 C  
HETATM    3  C   UNL     1     -10.258  13.408  66.254  1.00  0.00    -0.298 C  
HETATM    4  O   UNL     1     -12.344  12.196  66.459  1.00  0.00    -0.474 OA 
HETATM    5  C   UNL     1     -10.393  11.230  67.489  1.00  0.00    -0.194 C  
HETATM    6  N   UNL     1     -10.123  10.405  66.404  1.00  0.00    -0.220 N  
HETATM    7  H   UNL     1     -12.135  11.779  65.632  1.00  0.00     0.000 HD 
HETATM    8  H   UNL     1     -10.449  10.701  65.484  1.00  0.00     0.000 HD 
HETATM    9  O   UNL     1     -10.000  11.004  68.633  1.00  0.00    -0.185 OA 
ENDROOT
BRANCH   3  10
HETATM   10  S   UNL     1     -10.918  15.036  65.977  1.00  0.00    -0.328 S  
HETATM   11  O   UNL     1     -12.246  15.114  66.546  1.00  0.00     0.109 OA 
HETATM   12  O   UNL     1     -10.682  15.373  64.581  1.00  0.00    -0.367 OA 
BRANCH  10  13
HETATM   13  C   UNL     1      -9.892  16.090  66.972  1.00  0.00    -0.236 A  
HETATM   14  C   UNL     1      -8.515  15.839  67.003  1.00  0.00    -0.251 A  
HETATM   15  C   UNL     1     -10.450  17.143  67.703  1.00  0.00    -0.355 A  
HETATM   16  F   UNL     1      -7.431  18.555  69.144  1.00  0.00    -0.301 F  
HETATM   17  C   UNL     1      -7.683  16.680  67.741  1.00  0.00    -0.176 A  
HETATM   18  C   UNL     1      -9.609  17.974  68.446  1.00  0.00    -0.338 A  
HETATM   19  C   UNL     1      -8.236  17.742  68.448  1.00  0.00    -0.298 A  
ENDBRANCH  10  13
ENDBRANCH   3  10
BRANCH   6  20
HETATM   20  C   UNL     1      -9.422   9.178  66.500  1.00  0.00    -0.208 A  
HETATM   21  C   UNL     1     -10.179   5.440  66.710  1.00  0.00    -0.241 C  
HETATM   22  C   UNL     1      -9.400   6.733  66.688  1.00  0.00    -0.197 A  
HETATM   23  C   UNL     1      -7.270   5.570  67.173  1.00  0.00    -0.075 C  
HETATM   24  F   UNL     1     -11.509   5.600  66.471  1.00  0.00    -0.117 F  
HETATM   25  F   UNL     1      -9.743   4.557  65.771  1.00  0.00    -0.146 F  
HETATM   26  C   UNL     1      -7.336   7.995  66.859  1.00  0.00    -0.090 A  
HETATM   27  F   UNL     1     -10.092   4.803  67.908  1.00  0.00    -0.203 F  
HETATM   28  C   UNL     1     -10.082   7.944  66.476  1.00  0.00    -0.246 A  
HETATM   29  N   UNL     1      -6.664   4.608  67.408  1.00  0.00    -0.050 NA 
HETATM   30  C   UNL     1      -8.034   9.193  66.644  1.00  0.00    -0.104 A  
HETATM   31  C   UNL     1      -8.016   6.767  66.898  1.00  0.00    -0.109 A  
ENDBRANCH   6  20
TORSDOF 3
ENDMDL
MODEL      104
REMARK 921   NORMALIZED FREE ENERGY PREDICTED BY IDOCK:   -5.15 KCAL/MOL
REMARK 922        TOTAL FREE ENERGY PREDICTED BY IDOCK:   -6.67 KCAL/MOL
REMARK 923 INTER-LIGAND FREE ENERGY PREDICTED BY IDOCK:   -6.84 KCAL/MOL
REMARK 924 INTRA-LIGAND FREE ENERGY PREDICTED BY IDOCK:    0.17 KCAL/MOL
REMARK 927      BINDING AFFINITY PREDICTED BY RF-SCORE:    0.00 PKD
ROOT
HETATM    1  C   UNL     1     -11.571   8.406  72.097  1.00  0.00    -0.442 C  
HETATM    2  C   UNL     1     -10.336   8.625  71.207  1.00  0.00    -0.239 C  
HETATM    3  C   UNL     1     -10.097   7.485  70.215  1.00  0.00    -0.194 C  
HETATM    4  O   UNL     1      -9.172   8.818  72.012  1.00  0.00    -0.268 OA 
HETATM    5  C   UNL     1     -10.578   9.938  70.409  1.00  0.00    -0.302 C  
HETATM    6  N   UNL     1      -9.503  10.380  69.647  1.00  0.00    -0.401 N  
HETATM    7  H   UNL     1      -8.409   8.953  71.463  1.00  0.00     0.000 HD 
HETATM    8  H   UNL     1      -8.639   9.840  69.677  1.00  0.00     0.000 HD 
HETATM    9  O   UNL     1     -11.684  10.477  70.406  1.00  0.00    -0.289 OA 
ENDROOT
BRANCH   3  10
HETATM   10  S   UNL     1     -10.022   5.889  70.997  1.00  0.00    -0.196 S  
HETATM   11  O   UNL     1     -11.350   5.507  71.426  1.00  0.00    -0.109 OA 
HETATM   12  O   UNL     1      -8.911   5.914  71.937  1.00  0.00    -0.138 OA 
BRANCH  10  13
HETATM   13  C   UNL     1      -9.592   4.783  69.676  1.00  0.00    -0.183 A  
HETATM   14  C   UNL     1      -9.301   3.451  69.992  1.00  0.00    -0.242 A  
HETATM   15  C   UNL     1      -9.549   5.237  68.354  1.00  0.00    -0.176 A  
HETATM   16  F   UNL     1      -8.715   2.132  66.668  1.00  0.00    -0.097 F  
HETATM   17  C   UNL     1      -9.005   2.554  68.967  1.00  0.00    -0.170 A  
HETATM   18  C   UNL     1      -9.243   4.333  67.335  1.00  0.00    -0.171 A  
HETATM   19  C   UNL     1      -8.987   3.000  67.650  1.00  0.00    -0.161 A  
ENDBRANCH  10  13
ENDBRANCH   3  10
BRANCH   6  20
HETATM   20  C   UNL     1      -9.537  11.537  68.830  1.00  0.00    -0.102 A  
HETATM   21  C   UNL     1     -11.891  14.443  68.052  1.00  0.00    -0.325 C  
HETATM   22  C   UNL     1     -10.690  13.531  67.987  1.00  0.00    -0.263 A  
HETATM   23  C   UNL     1      -9.730  14.772  66.073  1.00  0.00    -0.321 C  
HETATM   24  F   UNL     1     -12.770  14.119  69.039  1.00  0.00    -0.231 F  
HETATM   25  F   UNL     1     -11.545  15.738  68.282  1.00  0.00    -0.342 F  
HETATM   26  C   UNL     1      -8.568  12.844  67.033  1.00  0.00    -0.171 A  
HETATM   27  F   UNL     1     -12.611  14.434  66.899  1.00  0.00    -0.417 F  
HETATM   28  C   UNL     1     -10.599  12.447  68.878  1.00  0.00    -0.160 A  
HETATM   29  N   UNL     1      -9.779  15.615  65.277  1.00  0.00    -0.323 NA 
HETATM   30  C   UNL     1      -8.495  11.770  67.932  1.00  0.00    -0.154 A  
HETATM   31  C   UNL     1      -9.670  13.716  67.046  1.00  0.00    -0.251 A  
ENDBRANCH   6  20
TORSDOF 3
ENDMDL
MODEL      105
REMARK 921   NORMALIZED FREE ENERGY PREDICTED BY IDOCK:   -5.12 KCAL/MOL
REMARK 922        TOTAL FREE ENERGY PREDICTED BY IDOCK:   -6.64 KCAL/MOL
REMARK 923 INTER-LIGAND FREE ENERGY PREDICTED BY IDOCK:   -6.09 KCAL/MOL
REMARK 924 INTRA-LIGAND FREE ENERGY PREDICTED BY IDOCK:   -0.54 KCAL/MOL
REMARK 927      BINDING AFFINITY PREDICTED BY RF-SCORE:    0.00 PKD
ROOT
HETATM    1  C   UNL     1     -12.157  13.438  65.760  1.00  0.00    -0.481 C  
HETATM    2  C   UNL     1     -10.626  13.423  65.621  1.00  0.00    -0.282 C  
HETATM    3  C   UNL     1      -9.917  14.301  66.655  1.00  0.00    -0.275 C  
HETATM    4  O   UNL     1     -10.242  13.821  64.304  1.00  0.00    -0.698 OA 
HETATM    5  C   UNL     1     -10.166  11.951  65.819  1.00  0.00    -0.242 C  
HETATM    6  N   UNL     1      -8.816  11.711  65.590  1.00  0.00    -0.405 N  
HETATM    7  H   UNL     1      -9.297  13.813  64.218  1.00  0.00     0.000 HD 
HETATM    8  H   UNL     1      -8.234  12.493  65.293  1.00  0.00     0.000 HD 
HETATM    9  O   UNL     1     -10.950  11.098  66.234  1.00  0.00    -0.251 OA 
ENDROOT
BRANCH   3  10
HETATM   10  S   UNL     1     -10.521  15.975  66.674  1.00  0.00    -0.289 S  
HETATM   11  O   UNL     1     -11.593  16.082  67.641  1.00  0.00    -0.106 OA 
HETATM   12  O   UNL     1     -10.717  16.386  65.292  1.00  0.00    -0.501 OA 
BRANCH  10  13
HETATM   13  C   UNL     1      -9.165  16.912  67.334  1.00  0.00    -0.222 A  
HETATM   14  C   UNL     1      -7.963  16.246  67.599  1.00  0.00    -0.160 A  
HETATM   15  C   UNL     1      -9.301  18.282  67.581  1.00  0.00    -0.271 A  
HETATM   16  F   UNL     1      -5.942  19.029  68.740  1.00  0.00    -0.206 F  
HETATM   17  C   UNL     1      -6.871  16.969  68.075  1.00  0.00    -0.166 A  
HETATM   18  C   UNL     1      -8.203  18.996  68.066  1.00  0.00    -0.334 A  
HETATM   19  C   UNL     1      -6.998  18.336  68.296  1.00  0.00    -0.237 A  
ENDBRANCH  10  13
ENDBRANCH   3  10
BRANCH   6  20
HETATM   20  C   UNL     1      -8.201  10.444  65.745  1.00  0.00    -0.156 A  
HETATM   21  C   UNL     1      -7.272   8.021  68.548  1.00  0.00    -0.085 C  
HETATM   22  C   UNL     1      -7.392   8.617  67.166  1.00  0.00    -0.088 A  
HETATM   23  C   UNL     1      -6.005   6.825  66.170  1.00  0.00    -0.034 C  
HETATM   24  F   UNL     1      -7.933   8.727  69.506  1.00  0.00    -0.087 F  
HETATM   25  F   UNL     1      -7.775   6.759  68.613  1.00  0.00    -0.101 F  
HETATM   26  C   UNL     1      -6.940   8.612  64.783  1.00  0.00    -0.073 A  
HETATM   27  F   UNL     1      -5.982   7.944  68.970  1.00  0.00    -0.033 F  
HETATM   28  C   UNL     1      -8.103   9.817  66.992  1.00  0.00    -0.113 A  
HETATM   29  N   UNL     1      -5.360   5.865  66.262  1.00  0.00    -0.009 NA 
HETATM   30  C   UNL     1      -7.655   9.808  64.630  1.00  0.00    -0.134 A  
HETATM   31  C   UNL     1      -6.791   8.022  66.049  1.00  0.00    -0.057 A  
ENDBRANCH   6  20
TORSDOF 3
ENDMDL
MODEL      106
REMARK 921   NORMALIZED FREE ENERGY PREDICTED BY IDOCK:   -5.12 KCAL/MOL
REMARK 922        TOTAL FREE ENERGY PREDICTED BY IDOCK:   -6.64 KCAL/MOL
REMARK 923 INTER-LIGAND FREE ENERGY PREDICTED BY IDOCK:   -6.53 KCAL/MOL
REMARK 924 INTRA-LIGAND FREE ENERGY PREDICTED BY IDOCK:   -0.11 KCAL/MOL
REMARK 927      BINDING AFFINITY PREDICTED BY RF-SCORE:    0.00 PKD
ROOT
HETATM    1  C   UNL     1     -10.437  12.040  69.289  1.00  0.00     0.090 C  
HETATM    2  C   UNL     1     -11.025  11.158  68.176  1.00  0.00    -0.238 C  
HETATM    3  C   UNL     1     -11.026  11.836  66.804  1.00  0.00    -0.288 C  
HETATM    4  O   UNL     1     -12.351  10.749  68.514  1.00  0.00    -0.825 OA 
HETATM    5  C   UNL     1     -10.145   9.877  68.098  1.00  0.00    -0.165 C  
HETATM    6  N   UNL     1     -10.605   8.888  67.237  1.00  0.00    -0.349 N  
HETATM    7  H   UNL     1     -12.715  10.204  67.826  1.00  0.00     0.000 HD 
HETATM    8  H   UNL     1     -11.480   9.053  66.741  1.00  0.00     0.000 HD 
HETATM    9  O   UNL     1      -9.076   9.812  68.704  1.00  0.00    -0.126 OA 
ENDROOT
BRANCH   3  10
HETATM   10  S   UNL     1     -11.821  13.428  66.818  1.00  0.00    -0.404 S  
HETATM   11  O   UNL     1     -12.364  13.676  68.136  1.00  0.00    -0.233 OA 
HETATM   12  O   UNL     1     -12.663  13.507  65.635  1.00  0.00    -0.480 OA 
BRANCH  10  13
HETATM   13  C   UNL     1     -10.483  14.577  66.611  1.00  0.00    -0.274 A  
HETATM   14  C   UNL     1      -9.269  14.308  67.255  1.00  0.00    -0.218 A  
HETATM   15  C   UNL     1     -10.643  15.721  65.823  1.00  0.00    -0.369 A  
HETATM   16  F   UNL     1      -7.300  17.115  66.083  1.00  0.00    -0.278 F  
HETATM   17  C   UNL     1      -8.191  15.171  67.072  1.00  0.00    -0.262 A  
HETATM   18  C   UNL     1      -9.559  16.584  65.652  1.00  0.00    -0.063 A  
HETATM   19  C   UNL     1      -8.342  16.295  66.267  1.00  0.00    -0.308 A  
ENDBRANCH  10  13
ENDBRANCH   3  10
BRANCH   6  20
HETATM   20  C   UNL     1      -9.929   7.664  67.007  1.00  0.00    -0.240 A  
HETATM   21  C   UNL     1      -9.337   4.329  68.773  1.00  0.00    -0.153 C  
HETATM   22  C   UNL     1      -9.250   5.424  67.738  1.00  0.00    -0.115 A  
HETATM   23  C   UNL     1      -7.566   4.175  66.421  1.00  0.00    -0.089 C  
HETATM   24  F   UNL     1     -10.216   4.597  69.778  1.00  0.00    -0.296 F  
HETATM   25  F   UNL     1      -9.742   3.145  68.242  1.00  0.00    -0.242 F  
HETATM   26  C   UNL     1      -8.371   6.364  65.682  1.00  0.00    -0.147 A  
HETATM   27  F   UNL     1      -8.144   4.093  69.380  1.00  0.00    -0.059 F  
HETATM   28  C   UNL     1     -10.011   6.594  67.905  1.00  0.00    -0.152 A  
HETATM   29  N   UNL     1      -6.874   3.258  66.260  1.00  0.00    -0.052 NA 
HETATM   30  C   UNL     1      -9.140   7.523  65.866  1.00  0.00    -0.086 A  
HETATM   31  C   UNL     1      -8.410   5.321  66.622  1.00  0.00    -0.108 A  
ENDBRANCH   6  20
TORSDOF 3
ENDMDL
MODEL      107
REMARK 921   NORMALIZED FREE ENERGY PREDICTED BY IDOCK:   -5.12 KCAL/MOL
REMARK 922        TOTAL FREE ENERGY PREDICTED BY IDOCK:   -6.63 KCAL/MOL
REMARK 923 INTER-LIGAND FREE ENERGY PREDICTED BY IDOCK:   -6.11 KCAL/MOL
REMARK 924 INTRA-LIGAND FREE ENERGY PREDICTED BY IDOCK:   -0.52 KCAL/MOL
REMARK 927      BINDING AFFINITY PREDICTED BY RF-SCORE:    0.00 PKD
ROOT
HETATM    1  C   UNL     1     -10.990  12.738  68.820  1.00  0.00    -0.289 C  
HETATM    2  C   UNL     1     -10.962  11.987  67.478  1.00  0.00    -0.253 C  
HETATM    3  C   UNL     1     -10.049  12.641  66.439  1.00  0.00    -0.253 C  
HETATM    4  O   UNL     1     -12.284  11.862  66.951  1.00  0.00    -0.493 OA 
HETATM    5  C   UNL     1     -10.436  10.552  67.771  1.00  0.00    -0.224 C  
HETATM    6  N   UNL     1     -10.471   9.672  66.697  1.00  0.00    -0.197 N  
HETATM    7  H   UNL     1     -12.267  11.398  66.123  1.00  0.00     0.000 HD 
HETATM    8  H   UNL     1     -10.851  10.009  65.813  1.00  0.00     0.000 HD 
HETATM    9  O   UNL     1      -9.948  10.274  68.867  1.00  0.00    -0.181 OA 
ENDROOT
BRANCH   3  10
HETATM   10  S   UNL     1     -10.417  14.362  66.177  1.00  0.00    -0.302 S  
HETATM   11  O   UNL     1     -11.745  14.646  66.678  1.00  0.00    -0.372 OA 
HETATM   12  O   UNL     1     -10.050  14.685  64.807  1.00  0.00    -0.325 OA 
BRANCH  10  13
HETATM   13  C   UNL     1      -9.290  15.210  67.257  1.00  0.00    -0.203 A  
HETATM   14  C   UNL     1      -9.743  16.354  67.924  1.00  0.00    -0.235 A  
HETATM   15  C   UNL     1      -7.985  14.741  67.433  1.00  0.00    -0.220 A  
HETATM   16  F   UNL     1      -6.792  17.156  69.868  1.00  0.00    -0.167 F  
HETATM   17  C   UNL     1      -8.892  17.010  68.811  1.00  0.00    -0.244 A  
HETATM   18  C   UNL     1      -7.137  15.411  68.317  1.00  0.00    -0.117 A  
HETATM   19  C   UNL     1      -7.602  16.530  69.005  1.00  0.00    -0.233 A  
ENDBRANCH  10  13
ENDBRANCH   3  10
BRANCH   6  20
HETATM   20  C   UNL     1     -10.010   8.334  66.756  1.00  0.00    -0.285 A  
HETATM   21  C   UNL     1      -6.869   6.333  65.909  1.00  0.00    -0.057 C  
HETATM   22  C   UNL     1      -8.277   6.646  66.352  1.00  0.00    -0.117 A  
HETATM   23  C   UNL     1      -8.834   4.248  66.603  1.00  0.00    -0.116 C  
HETATM   24  F   UNL     1      -6.123   7.439  65.638  1.00  0.00    -0.035 F  
HETATM   25  F   UNL     1      -6.171   5.644  66.851  1.00  0.00    -0.029 F  
HETATM   26  C   UNL     1     -10.486   5.983  67.104  1.00  0.00    -0.327 A  
HETATM   27  F   UNL     1      -6.837   5.579  64.778  1.00  0.00    -0.043 F  
HETATM   28  C   UNL     1      -8.701   7.986  66.405  1.00  0.00    -0.169 A  
HETATM   29  N   UNL     1      -8.559   3.123  66.524  1.00  0.00    -0.113 NA 
HETATM   30  C   UNL     1     -10.889   7.325  67.153  1.00  0.00    -0.378 A  
HETATM   31  C   UNL     1      -9.189   5.638  66.689  1.00  0.00    -0.138 A  
ENDBRANCH   6  20
TORSDOF 3
ENDMDL
MODEL      108
REMARK 921   NORMALIZED FREE ENERGY PREDICTED BY IDOCK:   -5.11 KCAL/MOL
REMARK 922        TOTAL FREE ENERGY PREDICTED BY IDOCK:   -6.62 KCAL/MOL
REMARK 923 INTER-LIGAND FREE ENERGY PREDICTED BY IDOCK:   -6.76 KCAL/MOL
REMARK 924 INTRA-LIGAND FREE ENERGY PREDICTED BY IDOCK:    0.14 KCAL/MOL
REMARK 927      BINDING AFFINITY PREDICTED BY RF-SCORE:    0.00 PKD
ROOT
HETATM    1  C   UNL     1      -8.579  16.010  69.223  1.00  0.00    -0.224 C  
HETATM    2  C   UNL     1      -9.689  15.657  68.221  1.00  0.00    -0.201 C  
HETATM    3  C   UNL     1      -9.957  16.766  67.200  1.00  0.00    -0.274 C  
HETATM    4  O   UNL     1     -10.897  15.333  68.910  1.00  0.00    -0.229 OA 
HETATM    5  C   UNL     1      -9.227  14.382  67.460  1.00  0.00    -0.200 C  
HETATM    6  N   UNL     1     -10.167  13.825  66.601  1.00  0.00    -0.271 N  
HETATM    7  H   UNL     1     -11.584  15.115  68.291  1.00  0.00     0.000 HD 
HETATM    8  H   UNL     1     -11.084  14.265  66.544  1.00  0.00     0.000 HD 
HETATM    9  O   UNL     1      -8.072  13.970  67.568  1.00  0.00    -0.161 OA 
ENDROOT
BRANCH   3  10
HETATM   10  S   UNL     1     -10.284  18.342  67.959  1.00  0.00    -0.393 S  
HETATM   11  O   UNL     1     -10.562  18.144  69.365  1.00  0.00     0.080 OA 
HETATM   12  O   UNL     1     -11.223  19.053  67.104  1.00  0.00    -0.223 OA 
BRANCH  10  13
HETATM   13  C   UNL     1      -8.725  19.189  67.878  1.00  0.00    -0.305 A  
HETATM   14  C   UNL     1      -8.344  19.763  66.659  1.00  0.00    -0.360 A  
HETATM   15  C   UNL     1      -7.905  19.278  69.006  1.00  0.00    -0.314 A  
HETATM   16  F   UNL     1      -5.198  21.275  67.636  1.00  0.00    -0.237 F  
HETATM   17  C   UNL     1      -7.146  20.472  66.582  1.00  0.00    -0.313 A  
HETATM   18  C   UNL     1      -6.702  19.983  68.916  1.00  0.00    -0.333 A  
HETATM   19  C   UNL     1      -6.342  20.582  67.711  1.00  0.00    -0.277 A  
ENDBRANCH  10  13
ENDBRANCH   3  10
BRANCH   6  20
HETATM   20  C   UNL     1      -9.926  12.681  65.801  1.00  0.00    -0.256 A  
HETATM   21  C   UNL     1      -7.962   9.408  65.974  1.00  0.00    -0.110 C  
HETATM   22  C   UNL     1      -8.831  10.517  65.432  1.00  0.00    -0.203 A  
HETATM   23  C   UNL     1      -8.940   9.466  63.194  1.00  0.00    -0.141 C  
HETATM   24  F   UNL     1      -7.622   9.573  67.282  1.00  0.00    -0.089 F  
HETATM   25  F   UNL     1      -8.569   8.194  65.905  1.00  0.00    -0.119 F  
HETATM   26  C   UNL     1     -10.108  11.566  63.656  1.00  0.00    -0.427 A  
HETATM   27  F   UNL     1      -6.788   9.293  65.299  1.00  0.00    -0.076 F  
HETATM   28  C   UNL     1      -9.169  11.599  66.264  1.00  0.00    -0.225 A  
HETATM   29  N   UNL     1      -8.648   8.629  62.445  1.00  0.00    -0.196 NA 
HETATM   30  C   UNL     1     -10.436  12.635  64.503  1.00  0.00    -0.379 A  
HETATM   31  C   UNL     1      -9.295  10.515  64.110  1.00  0.00    -0.309 A  
ENDBRANCH   6  20
TORSDOF 3
ENDMDL
MODEL      109
REMARK 921   NORMALIZED FREE ENERGY PREDICTED BY IDOCK:   -5.10 KCAL/MOL
REMARK 922        TOTAL FREE ENERGY PREDICTED BY IDOCK:   -6.62 KCAL/MOL
REMARK 923 INTER-LIGAND FREE ENERGY PREDICTED BY IDOCK:   -6.52 KCAL/MOL
REMARK 924 INTRA-LIGAND FREE ENERGY PREDICTED BY IDOCK:   -0.10 KCAL/MOL
REMARK 927      BINDING AFFINITY PREDICTED BY RF-SCORE:    0.00 PKD
ROOT
HETATM    1  C   UNL     1      -8.794   7.555  67.769  1.00  0.00    -0.132 C  
HETATM    2  C   UNL     1     -10.075   8.328  68.124  1.00  0.00    -0.200 C  
HETATM    3  C   UNL     1     -10.579   8.043  69.541  1.00  0.00    -0.214 C  
HETATM    4  O   UNL     1     -11.106   8.042  67.177  1.00  0.00    -0.447 OA 
HETATM    5  C   UNL     1      -9.739   9.842  68.009  1.00  0.00    -0.140 C  
HETATM    6  N   UNL     1     -10.818  10.706  68.159  1.00  0.00    -0.224 N  
HETATM    7  H   UNL     1     -11.898   8.519  67.396  1.00  0.00     0.000 HD 
HETATM    8  H   UNL     1     -11.741  10.300  68.308  1.00  0.00     0.000 HD 
HETATM    9  O   UNL     1      -8.575  10.220  67.881  1.00  0.00    -0.118 OA 
ENDROOT
BRANCH   3  10
HETATM   10  S   UNL     1     -10.792   6.307  69.865  1.00  0.00    -0.372 S  
HETATM   11  O   UNL     1     -10.565   5.564  68.645  1.00  0.00    -0.196 OA 
HETATM   12  O   UNL     1     -12.028   6.151  70.617  1.00  0.00    -0.147 OA 
BRANCH  10  13
HETATM   13  C   UNL     1      -9.443   5.904  70.947  1.00  0.00    -0.165 A  
HETATM   14  C   UNL     1      -9.459   4.664  71.596  1.00  0.00    -0.210 A  
HETATM   15  C   UNL     1      -8.394   6.807  71.142  1.00  0.00    -0.124 A  
HETATM   16  F   UNL     1      -6.301   4.841  73.365  1.00  0.00    -0.038 F  
HETATM   17  C   UNL     1      -8.389   4.306  72.414  1.00  0.00    -0.104 A  
HETATM   18  C   UNL     1      -7.330   6.443  71.971  1.00  0.00    -0.092 A  
HETATM   19  C   UNL     1      -7.333   5.194  72.588  1.00  0.00    -0.094 A  
ENDBRANCH  10  13
ENDBRANCH   3  10
BRANCH   6  20
HETATM   20  C   UNL     1     -10.711  12.118  68.116  1.00  0.00    -0.211 A  
HETATM   21  C   UNL     1     -11.604  15.138  70.279  1.00  0.00    -0.289 C  
HETATM   22  C   UNL     1     -11.110  14.327  69.106  1.00  0.00    -0.291 A  
HETATM   23  C   UNL     1     -10.707  16.357  67.749  1.00  0.00    -0.328 C  
HETATM   24  F   UNL     1     -11.969  14.381  71.350  1.00  0.00    -0.368 F  
HETATM   25  F   UNL     1     -10.662  16.001  70.745  1.00  0.00    -0.280 F  
HETATM   26  C   UNL     1     -10.218  14.131  66.859  1.00  0.00    -0.267 A  
HETATM   27  F   UNL     1     -12.694  15.888  69.968  1.00  0.00    -0.368 F  
HETATM   28  C   UNL     1     -11.106  12.923  69.191  1.00  0.00    -0.245 A  
HETATM   29  N   UNL     1     -10.741  17.507  67.601  1.00  0.00    -0.345 NA 
HETATM   30  C   UNL     1     -10.219  12.732  66.964  1.00  0.00    -0.245 A  
HETATM   31  C   UNL     1     -10.677  14.930  67.919  1.00  0.00    -0.265 A  
ENDBRANCH   6  20
TORSDOF 3
ENDMDL
MODEL      110
REMARK 921   NORMALIZED FREE ENERGY PREDICTED BY IDOCK:   -5.09 KCAL/MOL
REMARK 922        TOTAL FREE ENERGY PREDICTED BY IDOCK:   -6.60 KCAL/MOL
REMARK 923 INTER-LIGAND FREE ENERGY PREDICTED BY IDOCK:   -6.12 KCAL/MOL
REMARK 924 INTRA-LIGAND FREE ENERGY PREDICTED BY IDOCK:   -0.48 KCAL/MOL
REMARK 927      BINDING AFFINITY PREDICTED BY RF-SCORE:    0.00 PKD
ROOT
HETATM    1  C   UNL     1     -12.590  11.470  70.692  1.00  0.00    -0.337 C  
HETATM    2  C   UNL     1     -11.625  11.019  69.583  1.00  0.00    -0.318 C  
HETATM    3  C   UNL     1     -10.696  12.135  69.101  1.00  0.00    -0.061 C  
HETATM    4  O   UNL     1     -12.354  10.484  68.477  1.00  0.00    -0.765 OA 
HETATM    5  C   UNL     1     -10.759   9.870  70.174  1.00  0.00    -0.308 C  
HETATM    6  N   UNL     1      -9.915   9.234  69.271  1.00  0.00    -0.174 N  
HETATM    7  H   UNL     1     -11.758  10.206  67.792  1.00  0.00     0.000 HD 
HETATM    8  H   UNL     1      -9.934   9.540  68.299  1.00  0.00     0.000 HD 
HETATM    9  O   UNL     1     -10.779   9.623  71.379  1.00  0.00    -0.327 OA 
ENDROOT
BRANCH   3  10
HETATM   10  S   UNL     1     -11.573  13.600  68.601  1.00  0.00    -0.353 S  
HETATM   11  O   UNL     1     -11.997  14.326  69.779  1.00  0.00    -0.298 OA 
HETATM   12  O   UNL     1     -12.531  13.210  67.579  1.00  0.00    -0.106 OA 
BRANCH  10  13
HETATM   13  C   UNL     1     -10.328  14.602  67.826  1.00  0.00    -0.237 A  
HETATM   14  C   UNL     1      -9.124  14.811  68.509  1.00  0.00    -0.187 A  
HETATM   15  C   UNL     1     -10.551  15.164  66.566  1.00  0.00    -0.304 A  
HETATM   16  F   UNL     1      -7.349  16.798  66.052  1.00  0.00    -0.291 F  
HETATM   17  C   UNL     1      -8.115  15.556  67.901  1.00  0.00    -0.147 A  
HETATM   18  C   UNL     1      -9.536  15.917  65.970  1.00  0.00    -0.385 A  
HETATM   19  C   UNL     1      -8.326  16.095  66.637  1.00  0.00    -0.286 A  
ENDBRANCH  10  13
ENDBRANCH   3  10
BRANCH   6  20
HETATM   20  C   UNL     1      -9.029   8.186  69.622  1.00  0.00    -0.154 A  
HETATM   21  C   UNL     1      -9.185   4.626  71.000  1.00  0.00    -0.138 C  
HETATM   22  C   UNL     1      -8.618   5.934  70.502  1.00  0.00    -0.136 A  
HETATM   23  C   UNL     1      -6.300   5.233  71.013  1.00  0.00    -0.027 C  
HETATM   24  F   UNL     1     -10.541   4.548  70.905  1.00  0.00    -0.198 F  
HETATM   25  F   UNL     1      -8.709   3.558  70.306  1.00  0.00    -0.083 F  
HETATM   26  C   UNL     1      -6.764   7.422  70.024  1.00  0.00    -0.047 A  
HETATM   27  F   UNL     1      -8.893   4.399  72.308  1.00  0.00    -0.107 F  
HETATM   28  C   UNL     1      -9.493   6.935  70.044  1.00  0.00    -0.158 A  
HETATM   29  N   UNL     1      -5.535   4.467  71.431  1.00  0.00    -0.010 NA 
HETATM   30  C   UNL     1      -7.653   8.407  69.569  1.00  0.00    -0.090 A  
HETATM   31  C   UNL     1      -7.242   6.193  70.507  1.00  0.00    -0.083 A  
ENDBRANCH   6  20
TORSDOF 3
ENDMDL
MODEL      111
REMARK 921   NORMALIZED FREE ENERGY PREDICTED BY IDOCK:   -5.06 KCAL/MOL
REMARK 922        TOTAL FREE ENERGY PREDICTED BY IDOCK:   -6.57 KCAL/MOL
REMARK 923 INTER-LIGAND FREE ENERGY PREDICTED BY IDOCK:   -6.04 KCAL/MOL
REMARK 924 INTRA-LIGAND FREE ENERGY PREDICTED BY IDOCK:   -0.52 KCAL/MOL
REMARK 927      BINDING AFFINITY PREDICTED BY RF-SCORE:    0.00 PKD
ROOT
HETATM    1  C   UNL     1      -9.170   9.710  70.100  1.00  0.00    -0.287 C  
HETATM    2  C   UNL     1     -10.015   9.408  68.851  1.00  0.00    -0.179 C  
HETATM    3  C   UNL     1      -9.975  10.529  67.810  1.00  0.00    -0.171 C  
HETATM    4  O   UNL     1     -11.368   9.137  69.220  1.00  0.00    -0.436 OA 
HETATM    5  C   UNL     1      -9.435   8.114  68.212  1.00  0.00    -0.141 C  
HETATM    6  N   UNL     1     -10.158   7.601  67.142  1.00  0.00    -0.225 N  
HETATM    7  H   UNL     1     -11.890   8.951  68.448  1.00  0.00     0.000 HD 
HETATM    8  H   UNL     1     -11.013   8.082  66.866  1.00  0.00     0.000 HD 
HETATM    9  O   UNL     1      -8.361   7.651  68.595  1.00  0.00    -0.127 OA 
ENDROOT
BRANCH   3  10
HETATM   10  S   UNL     1     -10.411  12.117  68.485  1.00  0.00    -0.200 S  
HETATM   11  O   UNL     1      -9.211  12.787  68.938  1.00  0.00     0.096 OA 
HETATM   12  O   UNL     1     -11.540  11.917  69.381  1.00  0.00    -0.279 OA 
BRANCH  10  13
HETATM   13  C   UNL     1     -10.988  13.036  67.079  1.00  0.00    -0.265 A  
HETATM   14  C   UNL     1     -12.028  12.495  66.313  1.00  0.00    -0.410 A  
HETATM   15  C   UNL     1     -10.416  14.268  66.751  1.00  0.00    -0.273 A  
HETATM   16  F   UNL     1     -12.468  15.153  63.889  1.00  0.00    -0.451 F  
HETATM   17  C   UNL     1     -12.528  13.219  65.232  1.00  0.00    -0.543 A  
HETATM   18  C   UNL     1     -10.918  14.982  65.661  1.00  0.00    -0.357 A  
HETATM   19  C   UNL     1     -11.975  14.456  64.921  1.00  0.00    -0.426 A  
ENDBRANCH  10  13
ENDBRANCH   3  10
BRANCH   6  20
HETATM   20  C   UNL     1      -9.777   6.449  66.411  1.00  0.00    -0.089 A  
HETATM   21  C   UNL     1      -7.033   5.355  63.989  1.00  0.00    -0.048 C  
HETATM   22  C   UNL     1      -8.284   5.311  64.832  1.00  0.00    -0.136 A  
HETATM   23  C   UNL     1      -8.914   3.085  63.952  1.00  0.00    -0.097 C  
HETATM   24  F   UNL     1      -6.302   6.491  64.156  1.00  0.00    -0.034 F  
HETATM   25  F   UNL     1      -6.184   4.330  64.269  1.00  0.00    -0.023 F  
HETATM   26  C   UNL     1     -10.303   4.220  65.617  1.00  0.00    -0.196 A  
HETATM   27  F   UNL     1      -7.302   5.281  62.658  1.00  0.00    -0.041 F  
HETATM   28  C   UNL     1      -8.603   6.410  65.649  1.00  0.00    -0.138 A  
HETATM   29  N   UNL     1      -8.732   2.175  63.255  1.00  0.00    -0.084 NA 
HETATM   30  C   UNL     1     -10.603   5.325  66.428  1.00  0.00    -0.338 A  
HETATM   31  C   UNL     1      -9.156   4.215  64.807  1.00  0.00    -0.145 A  
ENDBRANCH   6  20
TORSDOF 3
ENDMDL
MODEL      112
REMARK 921   NORMALIZED FREE ENERGY PREDICTED BY IDOCK:   -5.03 KCAL/MOL
REMARK 922        TOTAL FREE ENERGY PREDICTED BY IDOCK:   -6.53 KCAL/MOL
REMARK 923 INTER-LIGAND FREE ENERGY PREDICTED BY IDOCK:   -7.05 KCAL/MOL
REMARK 924 INTRA-LIGAND FREE ENERGY PREDICTED BY IDOCK:    0.51 KCAL/MOL
REMARK 927      BINDING AFFINITY PREDICTED BY RF-SCORE:    0.00 PKD
ROOT
HETATM    1  C   UNL     1     -10.512   5.192  71.716  1.00  0.00    -0.268 C  
HETATM    2  C   UNL     1     -10.019   6.364  70.851  1.00  0.00    -0.185 C  
HETATM    3  C   UNL     1     -10.021   6.052  69.353  1.00  0.00    -0.174 C  
HETATM    4  O   UNL     1      -8.711   6.766  71.260  1.00  0.00    -0.128 OA 
HETATM    5  C   UNL     1     -10.981   7.558  71.113  1.00  0.00    -0.246 C  
HETATM    6  N   UNL     1     -10.613   8.761  70.522  1.00  0.00    -0.207 N  
HETATM    7  H   UNL     1      -8.406   7.490  70.726  1.00  0.00     0.000 HD 
HETATM    8  H   UNL     1      -9.746   8.787  69.986  1.00  0.00     0.000 HD 
HETATM    9  O   UNL     1     -12.031   7.395  71.733  1.00  0.00    -0.282 OA 
ENDROOT
BRANCH   3  10
HETATM   10  S   UNL     1      -9.127   4.567  68.953  1.00  0.00    -0.133 S  
HETATM   11  O   UNL     1      -9.668   3.464  69.718  1.00  0.00    -0.153 OA 
HETATM   12  O   UNL     1      -7.707   4.884  69.001  1.00  0.00    -0.071 OA 
BRANCH  10  13
HETATM   13  C   UNL     1      -9.556   4.251  67.259  1.00  0.00    -0.189 A  
HETATM   14  C   UNL     1     -10.568   5.022  66.675  1.00  0.00    -0.256 A  
HETATM   15  C   UNL     1      -8.896   3.257  66.531  1.00  0.00    -0.147 A  
HETATM   16  F   UNL     1     -10.523   3.674  63.312  1.00  0.00    -0.167 F  
HETATM   17  C   UNL     1     -10.892   4.824  65.334  1.00  0.00    -0.043 A  
HETATM   18  C   UNL     1      -9.233   3.060  65.190  1.00  0.00    -0.149 A  
HETATM   19  C   UNL     1     -10.217   3.852  64.603  1.00  0.00    -0.207 A  
ENDBRANCH  10  13
ENDBRANCH   3  10
BRANCH   6  20
HETATM   20  C   UNL     1     -11.372   9.953  70.619  1.00  0.00    -0.339 A  
HETATM   21  C   UNL     1     -11.447  13.449  69.082  1.00  0.00    -0.300 C  
HETATM   22  C   UNL     1     -11.800  12.279  69.967  1.00  0.00    -0.372 A  
HETATM   23  C   UNL     1     -13.447  13.615  71.242  1.00  0.00    -0.126 C  
HETATM   24  F   UNL     1     -10.501  13.161  68.146  1.00  0.00    -0.220 F  
HETATM   25  F   UNL     1     -12.520  13.913  68.386  1.00  0.00    -0.354 F  
HETATM   26  C   UNL     1     -13.061  11.257  71.769  1.00  0.00    -0.527 A  
HETATM   27  F   UNL     1     -10.959  14.504  69.787  1.00  0.00    -0.252 F  
HETATM   28  C   UNL     1     -11.127  11.056  69.794  1.00  0.00    -0.303 A  
HETATM   29  N   UNL     1     -13.994  14.613  71.467  1.00  0.00    -0.421 NA 
HETATM   30  C   UNL     1     -12.380  10.045  71.579  1.00  0.00    -0.513 A  
HETATM   31  C   UNL     1     -12.763  12.379  70.978  1.00  0.00    -0.315 A  
ENDBRANCH   6  20
TORSDOF 3
ENDMDL
MODEL      113
REMARK 921   NORMALIZED FREE ENERGY PREDICTED BY IDOCK:   -5.00 KCAL/MOL
REMARK 922        TOTAL FREE ENERGY PREDICTED BY IDOCK:   -6.49 KCAL/MOL
REMARK 923 INTER-LIGAND FREE ENERGY PREDICTED BY IDOCK:   -6.59 KCAL/MOL
REMARK 924 INTRA-LIGAND FREE ENERGY PREDICTED BY IDOCK:    0.10 KCAL/MOL
REMARK 927      BINDING AFFINITY PREDICTED BY RF-SCORE:    0.00 PKD
ROOT
HETATM    1  C   UNL     1     -11.788  11.899  70.548  1.00  0.00    -0.253 C  
HETATM    2  C   UNL     1     -11.716  10.844  69.432  1.00  0.00    -0.325 C  
HETATM    3  C   UNL     1     -10.758  11.225  68.301  1.00  0.00    -0.194 C  
HETATM    4  O   UNL     1     -13.018  10.594  68.899  1.00  0.00    -0.133 OA 
HETATM    5  C   UNL     1     -11.216   9.524  70.085  1.00  0.00    -0.234 C  
HETATM    6  N   UNL     1     -11.218   8.409  69.257  1.00  0.00    -0.410 N  
HETATM    7  H   UNL     1     -12.974   9.942  68.209  1.00  0.00     0.000 HD 
HETATM    8  H   UNL     1     -11.561   8.520  68.303  1.00  0.00     0.000 HD 
HETATM    9  O   UNL     1     -10.773   9.520  71.234  1.00  0.00    -0.332 OA 
ENDROOT
BRANCH   3  10
HETATM   10  S   UNL     1     -11.099  12.830  67.615  1.00  0.00    -0.273 S  
HETATM   11  O   UNL     1     -12.281  13.376  68.246  1.00  0.00    -0.286 OA 
HETATM   12  O   UNL     1     -11.010  12.716  66.167  1.00  0.00    -0.271 OA 
BRANCH  10  13
HETATM   13  C   UNL     1      -9.739  13.830  68.166  1.00  0.00    -0.227 A  
HETATM   14  C   UNL     1      -9.975  15.184  68.434  1.00  0.00    -0.222 A  
HETATM   15  C   UNL     1      -8.467  13.274  68.328  1.00  0.00    -0.160 A  
HETATM   16  F   UNL     1      -6.680  16.182  69.567  1.00  0.00    -0.169 F  
HETATM   17  C   UNL     1      -8.934  15.978  68.911  1.00  0.00    -0.239 A  
HETATM   18  C   UNL     1      -7.428  14.080  68.798  1.00  0.00    -0.124 A  
HETATM   19  C   UNL     1      -7.674  15.418  69.096  1.00  0.00    -0.207 A  
ENDBRANCH  10  13
ENDBRANCH   3  10
BRANCH   6  20
HETATM   20  C   UNL     1     -10.773   7.125  69.658  1.00  0.00    -0.239 A  
HETATM   21  C   UNL     1     -10.563   5.015  72.835  1.00  0.00    -0.228 C  
HETATM   22  C   UNL     1     -10.397   5.435  71.395  1.00  0.00    -0.294 A  
HETATM   23  C   UNL     1      -9.066   3.418  70.860  1.00  0.00    -0.114 C  
HETATM   24  F   UNL     1     -11.290   5.893  73.579  1.00  0.00    -0.228 F  
HETATM   25  F   UNL     1     -11.200   3.820  72.956  1.00  0.00    -0.246 F  
HETATM   26  C   UNL     1      -9.574   5.083  69.141  1.00  0.00    -0.220 A  
HETATM   27  F   UNL     1      -9.372   4.884  73.477  1.00  0.00    -0.124 F  
HETATM   28  C   UNL     1     -10.941   6.658  70.966  1.00  0.00    -0.305 A  
HETATM   29  N   UNL     1      -8.548   2.426  71.170  1.00  0.00    -0.058 NA 
HETATM   30  C   UNL     1     -10.126   6.306  68.732  1.00  0.00    -0.191 A  
HETATM   31  C   UNL     1      -9.692   4.652  70.472  1.00  0.00    -0.284 A  
ENDBRANCH   6  20
TORSDOF 3
ENDMDL
MODEL      114
REMARK 921   NORMALIZED FREE ENERGY PREDICTED BY IDOCK:   -4.94 KCAL/MOL
REMARK 922        TOTAL FREE ENERGY PREDICTED BY IDOCK:   -6.42 KCAL/MOL
REMARK 923 INTER-LIGAND FREE ENERGY PREDICTED BY IDOCK:   -6.05 KCAL/MOL
REMARK 924 INTRA-LIGAND FREE ENERGY PREDICTED BY IDOCK:   -0.37 KCAL/MOL
REMARK 927      BINDING AFFINITY PREDICTED BY RF-SCORE:    0.00 PKD
ROOT
HETATM    1  C   UNL     1     -11.761  10.173  68.842  1.00  0.00     0.036 C  
HETATM    2  C   UNL     1     -10.458  10.966  68.651  1.00  0.00    -0.194 C  
HETATM    3  C   UNL     1      -9.735  10.634  67.343  1.00  0.00    -0.167 C  
HETATM    4  O   UNL     1      -9.579  10.752  69.756  1.00  0.00    -0.411 OA 
HETATM    5  C   UNL     1     -10.840  12.474  68.640  1.00  0.00    -0.248 C  
HETATM    6  N   UNL     1      -9.770  13.360  68.616  1.00  0.00    -0.390 N  
HETATM    7  H   UNL     1      -8.774  11.241  69.638  1.00  0.00     0.000 HD 
HETATM    8  H   UNL     1      -8.826  12.975  68.629  1.00  0.00     0.000 HD 
HETATM    9  O   UNL     1     -12.018  12.823  68.571  1.00  0.00    -0.308 OA 
ENDROOT
BRANCH   3  10
HETATM   10  S   UNL     1      -9.437   8.892  67.138  1.00  0.00    -0.167 S  
HETATM   11  O   UNL     1     -10.581   8.287  66.490  1.00  0.00    -0.193 OA 
HETATM   12  O   UNL     1      -8.939   8.381  68.406  1.00  0.00    -0.136 OA 
BRANCH  10  13
HETATM   13  C   UNL     1      -8.108   8.820  65.963  1.00  0.00    -0.112 A  
HETATM   14  C   UNL     1      -8.251   7.986  64.848  1.00  0.00    -0.137 A  
HETATM   15  C   UNL     1      -6.950   9.580  66.152  1.00  0.00    -0.091 A  
HETATM   16  F   UNL     1      -5.137   8.691  63.133  1.00  0.00    -0.058 F  
HETATM   17  C   UNL     1      -7.241   7.947  63.889  1.00  0.00    -0.088 A  
HETATM   18  C   UNL     1      -5.939   9.527  65.189  1.00  0.00    -0.070 A  
HETATM   19  C   UNL     1      -6.100   8.722  64.064  1.00  0.00    -0.072 A  
ENDBRANCH  10  13
ENDBRANCH   3  10
BRANCH   6  20
HETATM   20  C   UNL     1      -9.913  14.770  68.574  1.00  0.00    -0.228 A  
HETATM   21  C   UNL     1      -8.509  17.748  66.637  1.00  0.00    -0.258 C  
HETATM   22  C   UNL     1      -9.296  16.958  67.655  1.00  0.00    -0.233 A  
HETATM   23  C   UNL     1     -10.104  19.016  68.768  1.00  0.00    -0.363 C  
HETATM   24  F   UNL     1      -7.843  16.970  65.739  1.00  0.00    -0.321 F  
HETATM   25  F   UNL     1      -9.299  18.568  65.894  1.00  0.00    -0.247 F  
HETATM   26  C   UNL     1     -10.779  16.804  69.568  1.00  0.00    -0.273 A  
HETATM   27  F   UNL     1      -7.565  18.538  67.213  1.00  0.00    -0.215 F  
HETATM   28  C   UNL     1      -9.248  15.553  67.624  1.00  0.00    -0.190 A  
HETATM   29  N   UNL     1     -10.136  20.170  68.876  1.00  0.00    -0.283 NA 
HETATM   30  C   UNL     1     -10.720  15.403  69.519  1.00  0.00    -0.269 A  
HETATM   31  C   UNL     1     -10.057  17.584  68.650  1.00  0.00    -0.361 A  
ENDBRANCH   6  20
TORSDOF 3
ENDMDL
MODEL      115
REMARK 921   NORMALIZED FREE ENERGY PREDICTED BY IDOCK:   -4.92 KCAL/MOL
REMARK 922        TOTAL FREE ENERGY PREDICTED BY IDOCK:   -6.39 KCAL/MOL
REMARK 923 INTER-LIGAND FREE ENERGY PREDICTED BY IDOCK:   -7.10 KCAL/MOL
REMARK 924 INTRA-LIGAND FREE ENERGY PREDICTED BY IDOCK:    0.70 KCAL/MOL
REMARK 927      BINDING AFFINITY PREDICTED BY RF-SCORE:    0.00 PKD
ROOT
HETATM    1  C   UNL     1      -5.660  12.389  68.012  1.00  0.00    -0.073 C  
HETATM    2  C   UNL     1      -6.915  12.292  68.896  1.00  0.00    -0.098 C  
HETATM    3  C   UNL     1      -8.131  13.004  68.297  1.00  0.00    -0.151 C  
HETATM    4  O   UNL     1      -6.646  12.809  70.200  1.00  0.00    -0.365 OA 
HETATM    5  C   UNL     1      -7.248  10.781  69.049  1.00  0.00    -0.096 C  
HETATM    6  N   UNL     1      -8.277  10.483  69.934  1.00  0.00    -0.354 N  
HETATM    7  H   UNL     1      -7.420  12.750  70.746  1.00  0.00     0.000 HD 
HETATM    8  H   UNL     1      -8.722  11.255  70.431  1.00  0.00     0.000 HD 
HETATM    9  O   UNL     1      -6.679   9.938  68.356  1.00  0.00    -0.055 OA 
ENDROOT
BRANCH   3  10
HETATM   10  S   UNL     1      -7.801  14.699  67.871  1.00  0.00    -0.153 S  
HETATM   11  O   UNL     1      -6.566  14.770  67.120  1.00  0.00    -0.253 OA 
HETATM   12  O   UNL     1      -7.993  15.498  69.072  1.00  0.00    -0.169 OA 
BRANCH  10  13
HETATM   13  C   UNL     1      -9.097  15.114  66.730  1.00  0.00    -0.256 A  
HETATM   14  C   UNL     1      -9.405  16.466  66.536  1.00  0.00    -0.300 A  
HETATM   15  C   UNL     1      -9.789  14.111  66.045  1.00  0.00    -0.329 A  
HETATM   16  F   UNL     1     -11.992  16.166  64.016  1.00  0.00    -0.492 F  
HETATM   17  C   UNL     1     -10.387  16.818  65.613  1.00  0.00    -0.284 A  
HETATM   18  C   UNL     1     -10.778  14.474  65.127  1.00  0.00    -0.422 A  
HETATM   19  C   UNL     1     -11.058  15.822  64.912  1.00  0.00    -0.399 A  
ENDBRANCH  10  13
ENDBRANCH   3  10
BRANCH   6  20
HETATM   20  C   UNL     1      -8.746   9.170  70.188  1.00  0.00    -0.181 A  
HETATM   21  C   UNL     1     -11.466   7.431  72.231  1.00  0.00    -0.288 C  
HETATM   22  C   UNL     1     -10.272   7.624  71.327  1.00  0.00    -0.204 A  
HETATM   23  C   UNL     1      -9.850   5.189  71.204  1.00  0.00    -0.186 C  
HETATM   24  F   UNL     1     -12.073   8.596  72.590  1.00  0.00    -0.440 F  
HETATM   25  F   UNL     1     -12.437   6.676  71.652  1.00  0.00    -0.363 F  
HETATM   26  C   UNL     1      -8.432   6.774  69.995  1.00  0.00    -0.140 A  
HETATM   27  F   UNL     1     -11.138   6.811  73.396  1.00  0.00    -0.276 F  
HETATM   28  C   UNL     1      -9.875   8.927  70.978  1.00  0.00    -0.321 A  
HETATM   29  N   UNL     1     -10.097   4.095  71.503  1.00  0.00    -0.156 NA 
HETATM   30  C   UNL     1      -8.053   8.082  69.657  1.00  0.00    -0.119 A  
HETATM   31  C   UNL     1      -9.528   6.542  70.841  1.00  0.00    -0.179 A  
ENDBRANCH   6  20
TORSDOF 3
ENDMDL
MODEL      116
REMARK 921   NORMALIZED FREE ENERGY PREDICTED BY IDOCK:   -4.91 KCAL/MOL
REMARK 922        TOTAL FREE ENERGY PREDICTED BY IDOCK:   -6.39 KCAL/MOL
REMARK 923 INTER-LIGAND FREE ENERGY PREDICTED BY IDOCK:   -5.89 KCAL/MOL
REMARK 924 INTRA-LIGAND FREE ENERGY PREDICTED BY IDOCK:   -0.50 KCAL/MOL
REMARK 927      BINDING AFFINITY PREDICTED BY RF-SCORE:    0.00 PKD
ROOT
HETATM    1  C   UNL     1     -11.266   9.255  68.562  1.00  0.00     0.197 C  
HETATM    2  C   UNL     1     -10.536  10.353  69.353  1.00  0.00    -0.238 C  
HETATM    3  C   UNL     1      -9.029  10.113  69.470  1.00  0.00    -0.188 C  
HETATM    4  O   UNL     1     -11.106  10.490  70.656  1.00  0.00    -0.404 OA 
HETATM    5  C   UNL     1     -10.770  11.691  68.595  1.00  0.00    -0.212 C  
HETATM    6  N   UNL     1     -10.299  12.830  69.236  1.00  0.00    -0.384 N  
HETATM    7  H   UNL     1     -10.656  11.168  71.144  1.00  0.00     0.000 HD 
HETATM    8  H   UNL     1      -9.862  12.721  70.151  1.00  0.00     0.000 HD 
HETATM    9  O   UNL     1     -11.262  11.697  67.467  1.00  0.00    -0.254 OA 
ENDROOT
BRANCH   3  10
HETATM   10  S   UNL     1      -8.632   8.508  70.127  1.00  0.00    -0.138 S  
HETATM   11  O   UNL     1      -9.766   8.005  70.872  1.00  0.00    -0.164 OA 
HETATM   12  O   UNL     1      -7.316   8.599  70.740  1.00  0.00    -0.055 OA 
BRANCH  10  13
HETATM   13  C   UNL     1      -8.491   7.478  68.687  1.00  0.00    -0.129 A  
HETATM   14  C   UNL     1      -8.937   6.153  68.771  1.00  0.00    -0.123 A  
HETATM   15  C   UNL     1      -7.948   7.983  67.502  1.00  0.00    -0.122 A  
HETATM   16  F   UNL     1      -8.320   5.067  65.369  1.00  0.00    -0.113 F  
HETATM   17  C   UNL     1      -8.879   5.339  67.641  1.00  0.00    -0.105 A  
HETATM   18  C   UNL     1      -7.886   7.156  66.378  1.00  0.00    -0.109 A  
HETATM   19  C   UNL     1      -8.362   5.849  66.455  1.00  0.00    -0.112 A  
ENDBRANCH  10  13
ENDBRANCH   3  10
BRANCH   6  20
HETATM   20  C   UNL     1     -10.391  14.137  68.695  1.00  0.00    -0.243 A  
HETATM   21  C   UNL     1      -8.150  16.695  66.956  1.00  0.00    -0.195 C  
HETATM   22  C   UNL     1      -9.366  16.080  67.605  1.00  0.00    -0.214 A  
HETATM   23  C   UNL     1     -10.641  18.195  67.442  1.00  0.00    -0.388 C  
HETATM   24  F   UNL     1      -7.107  15.831  66.823  1.00  0.00    -0.230 F  
HETATM   25  F   UNL     1      -8.408  17.152  65.702  1.00  0.00    -0.189 F  
HETATM   26  C   UNL     1     -11.651  16.189  68.413  1.00  0.00    -0.228 A  
HETATM   27  F   UNL     1      -7.666  17.753  67.660  1.00  0.00    -0.197 F  
HETATM   28  C   UNL     1      -9.315  14.743  68.039  1.00  0.00    -0.196 A  
HETATM   29  N   UNL     1     -10.723  19.317  67.156  1.00  0.00    -0.475 NA 
HETATM   30  C   UNL     1     -11.580  14.853  68.837  1.00  0.00    -0.339 A  
HETATM   31  C   UNL     1     -10.543  16.810  67.813  1.00  0.00    -0.341 A  
ENDBRANCH   6  20
TORSDOF 3
ENDMDL
MODEL      117
REMARK 921   NORMALIZED FREE ENERGY PREDICTED BY IDOCK:   -4.83 KCAL/MOL
REMARK 922        TOTAL FREE ENERGY PREDICTED BY IDOCK:   -6.29 KCAL/MOL
REMARK 923 INTER-LIGAND FREE ENERGY PREDICTED BY IDOCK:   -6.90 KCAL/MOL
REMARK 924 INTRA-LIGAND FREE ENERGY PREDICTED BY IDOCK:    0.61 KCAL/MOL
REMARK 927      BINDING AFFINITY PREDICTED BY RF-SCORE:    0.00 PKD
ROOT
HETATM    1  C   UNL     1     -11.921  13.269  66.571  1.00  0.00    -0.448 C  
HETATM    2  C   UNL     1     -10.578  12.720  67.079  1.00  0.00    -0.240 C  
HETATM    3  C   UNL     1     -10.248  13.159  68.507  1.00  0.00    -0.215 C  
HETATM    4  O   UNL     1      -9.520  13.102  66.199  1.00  0.00    -0.396 OA 
HETATM    5  C   UNL     1     -10.679  11.168  67.045  1.00  0.00    -0.268 C  
HETATM    6  N   UNL     1      -9.504  10.487  67.340  1.00  0.00    -0.153 N  
HETATM    7  H   UNL     1      -8.690  12.763  66.512  1.00  0.00     0.000 HD 
HETATM    8  H   UNL     1      -8.667  11.035  67.533  1.00  0.00     0.000 HD 
HETATM    9  O   UNL     1     -11.760  10.613  66.852  1.00  0.00    -0.042 OA 
ENDROOT
BRANCH   3  10
HETATM   10  S   UNL     1     -10.319  14.923  68.724  1.00  0.00    -0.250 S  
HETATM   11  O   UNL     1     -10.944  15.520  67.564  1.00  0.00    -0.311 OA 
HETATM   12  O   UNL     1      -9.007  15.362  69.175  1.00  0.00    -0.211 OA 
BRANCH  10  13
HETATM   13  C   UNL     1     -11.458  15.144  70.068  1.00  0.00    -0.286 A  
HETATM   14  C   UNL     1     -11.120  16.047  71.084  1.00  0.00    -0.188 A  
HETATM   15  C   UNL     1     -12.661  14.433  70.106  1.00  0.00    -0.340 A  
HETATM   16  F   UNL     1     -14.091  15.811  73.146  1.00  0.00    -0.587 F  
HETATM   17  C   UNL     1     -12.018  16.271  72.126  1.00  0.00    -0.575 A  
HETATM   18  C   UNL     1     -13.550  14.659  71.159  1.00  0.00    -0.404 A  
HETATM   19  C   UNL     1     -13.226  15.582  72.150  1.00  0.00    -0.450 A  
ENDBRANCH  10  13
ENDBRANCH   3  10
BRANCH   6  20
HETATM   20  C   UNL     1      -9.401   9.074  67.389  1.00  0.00    -0.139 A  
HETATM   21  C   UNL     1      -6.896   6.409  68.492  1.00  0.00    -0.071 C  
HETATM   22  C   UNL     1      -8.138   7.037  67.907  1.00  0.00    -0.115 A  
HETATM   23  C   UNL     1      -9.003   4.845  67.148  1.00  0.00    -0.110 C  
HETATM   24  F   UNL     1      -6.051   7.308  69.069  1.00  0.00    -0.023 F  
HETATM   25  F   UNL     1      -7.183   5.502  69.464  1.00  0.00    -0.057 F  
HETATM   26  C   UNL     1     -10.273   6.901  66.764  1.00  0.00    -0.276 A  
HETATM   27  F   UNL     1      -6.157   5.755  67.558  1.00  0.00    -0.019 F  
HETATM   28  C   UNL     1      -8.297   8.433  67.962  1.00  0.00    -0.128 A  
HETATM   29  N   UNL     1      -8.899   3.696  67.023  1.00  0.00    -0.117 NA 
HETATM   30  C   UNL     1     -10.414   8.295  66.830  1.00  0.00    -0.365 A  
HETATM   31  C   UNL     1      -9.131   6.270  67.285  1.00  0.00    -0.116 A  
ENDBRANCH   6  20
TORSDOF 3
ENDMDL
MODEL      118
REMARK 921   NORMALIZED FREE ENERGY PREDICTED BY IDOCK:   -4.81 KCAL/MOL
REMARK 922        TOTAL FREE ENERGY PREDICTED BY IDOCK:   -6.27 KCAL/MOL
REMARK 923 INTER-LIGAND FREE ENERGY PREDICTED BY IDOCK:   -6.35 KCAL/MOL
REMARK 924 INTRA-LIGAND FREE ENERGY PREDICTED BY IDOCK:    0.08 KCAL/MOL
REMARK 927      BINDING AFFINITY PREDICTED BY RF-SCORE:    0.00 PKD
ROOT
HETATM    1  C   UNL     1      -7.587   7.133  71.168  1.00  0.00    -0.085 C  
HETATM    2  C   UNL     1      -8.498   7.532  69.996  1.00  0.00    -0.137 C  
HETATM    3  C   UNL     1      -9.532   6.460  69.643  1.00  0.00    -0.147 C  
HETATM    4  O   UNL     1      -7.716   7.849  68.843  1.00  0.00    -0.101 OA 
HETATM    5  C   UNL     1      -9.248   8.826  70.423  1.00  0.00    -0.180 C  
HETATM    6  N   UNL     1     -10.022   9.422  69.434  1.00  0.00    -0.175 N  
HETATM    7  H   UNL     1      -8.279   8.095  68.119  1.00  0.00     0.000 HD 
HETATM    8  H   UNL     1     -10.030   8.995  68.508  1.00  0.00     0.000 HD 
HETATM    9  O   UNL     1      -9.208   9.220  71.588  1.00  0.00    -0.313 OA 
ENDROOT
BRANCH   3  10
HETATM   10  S   UNL     1      -8.802   4.865  69.345  1.00  0.00    -0.093 S  
HETATM   11  O   UNL     1      -9.510   3.867  70.118  1.00  0.00    -0.158 OA 
HETATM   12  O   UNL     1      -7.360   5.015  69.460  1.00  0.00    -0.055 OA 
BRANCH  10  13
HETATM   13  C   UNL     1      -9.180   4.531  67.642  1.00  0.00    -0.137 A  
HETATM   14  C   UNL     1     -10.358   5.066  67.106  1.00  0.00    -0.217 A  
HETATM   15  C   UNL     1      -8.320   3.755  66.862  1.00  0.00    -0.100 A  
HETATM   16  F   UNL     1     -10.066   3.915  63.682  1.00  0.00    -0.155 F  
HETATM   17  C   UNL     1     -10.654   4.855  65.761  1.00  0.00    -0.229 A  
HETATM   18  C   UNL     1      -8.629   3.542  65.516  1.00  0.00    -0.114 A  
HETATM   19  C   UNL     1      -9.785   4.104  64.977  1.00  0.00    -0.194 A  
ENDBRANCH  10  13
ENDBRANCH   3  10
BRANCH   6  20
HETATM   20  C   UNL     1     -10.801  10.588  69.636  1.00  0.00    -0.274 A  
HETATM   21  C   UNL     1     -11.101  14.127  68.230  1.00  0.00    -0.254 C  
HETATM   22  C   UNL     1     -11.344  12.919  69.102  1.00  0.00    -0.329 A  
HETATM   23  C   UNL     1     -12.911  14.166  70.557  1.00  0.00    -0.247 C  
HETATM   24  F   UNL     1     -10.232  13.896  67.208  1.00  0.00    -0.240 F  
HETATM   25  F   UNL     1     -12.241  14.581  67.644  1.00  0.00    -0.383 F  
HETATM   26  C   UNL     1     -12.419  11.805  70.969  1.00  0.00    -0.411 A  
HETATM   27  F   UNL     1     -10.582  15.173  68.926  1.00  0.00    -0.215 F  
HETATM   28  C   UNL     1     -10.657  11.723  68.830  1.00  0.00    -0.211 A  
HETATM   29  N   UNL     1     -13.463  15.141  70.862  1.00  0.00    -0.408 NA 
HETATM   30  C   UNL     1     -11.725  10.621  70.681  1.00  0.00    -0.454 A  
HETATM   31  C   UNL     1     -12.220  12.960  70.194  1.00  0.00    -0.336 A  
ENDBRANCH   6  20
TORSDOF 3
ENDMDL
MODEL      119
REMARK 921   NORMALIZED FREE ENERGY PREDICTED BY IDOCK:   -4.81 KCAL/MOL
REMARK 922        TOTAL FREE ENERGY PREDICTED BY IDOCK:   -6.27 KCAL/MOL
REMARK 923 INTER-LIGAND FREE ENERGY PREDICTED BY IDOCK:   -6.33 KCAL/MOL
REMARK 924 INTRA-LIGAND FREE ENERGY PREDICTED BY IDOCK:    0.06 KCAL/MOL
REMARK 927      BINDING AFFINITY PREDICTED BY RF-SCORE:    0.00 PKD
ROOT
HETATM    1  C   UNL     1      -7.751   7.984  69.407  1.00  0.00    -0.104 C  
HETATM    2  C   UNL     1      -8.836   8.406  68.402  1.00  0.00    -0.140 C  
HETATM    3  C   UNL     1     -10.168   7.684  68.614  1.00  0.00    -0.199 C  
HETATM    4  O   UNL     1      -8.380   8.199  67.064  1.00  0.00    -0.113 OA 
HETATM    5  C   UNL     1      -9.061   9.933  68.591  1.00  0.00    -0.132 C  
HETATM    6  N   UNL     1      -9.913  10.529  67.669  1.00  0.00    -0.169 N  
HETATM    7  H   UNL     1      -9.050   8.459  66.443  1.00  0.00     0.000 HD 
HETATM    8  H   UNL     1     -10.308   9.944  66.932  1.00  0.00     0.000 HD 
HETATM    9  O   UNL     1      -8.573  10.527  69.552  1.00  0.00    -0.131 OA 
ENDROOT
BRANCH   3  10
HETATM   10  S   UNL     1     -10.001   5.912  68.638  1.00  0.00    -0.161 S  
HETATM   11  O   UNL     1      -8.612   5.563  68.432  1.00  0.00    -0.101 OA 
HETATM   12  O   UNL     1     -11.044   5.362  67.787  1.00  0.00     0.132 OA 
BRANCH  10  13
HETATM   13  C   UNL     1     -10.377   5.470  70.316  1.00  0.00    -0.279 A  
HETATM   14  C   UNL     1     -11.194   6.328  71.063  1.00  0.00    -0.372 A  
HETATM   15  C   UNL     1      -9.869   4.292  70.873  1.00  0.00    -0.259 A  
HETATM   16  F   UNL     1     -11.402   4.458  74.160  1.00  0.00    -0.254 F  
HETATM   17  C   UNL     1     -11.541   5.979  72.367  1.00  0.00    -0.349 A  
HETATM   18  C   UNL     1     -10.215   3.956  72.183  1.00  0.00    -0.196 A  
HETATM   19  C   UNL     1     -11.056   4.795  72.912  1.00  0.00    -0.224 A  
ENDBRANCH  10  13
ENDBRANCH   3  10
BRANCH   6  20
HETATM   20  C   UNL     1     -10.266  11.901  67.691  1.00  0.00    -0.201 A  
HETATM   21  C   UNL     1     -10.277  14.907  65.334  1.00  0.00    -0.379 C  
HETATM   22  C   UNL     1     -10.430  14.088  66.592  1.00  0.00    -0.272 A  
HETATM   23  C   UNL     1     -10.981  16.088  67.942  1.00  0.00    -0.327 C  
HETATM   24  F   UNL     1      -9.949  14.169  64.238  1.00  0.00    -0.258 F  
HETATM   25  F   UNL     1     -11.419  15.565  65.002  1.00  0.00    -0.346 F  
HETATM   26  C   UNL     1     -10.917  13.862  68.957  1.00  0.00    -0.281 A  
HETATM   27  F   UNL     1      -9.305  15.852  65.446  1.00  0.00    -0.298 F  
HETATM   28  C   UNL     1     -10.192  12.703  66.546  1.00  0.00    -0.255 A  
HETATM   29  N   UNL     1     -11.135  17.233  68.052  1.00  0.00    -0.194 NA 
HETATM   30  C   UNL     1     -10.678  12.482  68.890  1.00  0.00    -0.202 A  
HETATM   31  C   UNL     1     -10.779  14.670  67.817  1.00  0.00    -0.265 A  
ENDBRANCH   6  20
TORSDOF 3
ENDMDL
MODEL      120
REMARK 921   NORMALIZED FREE ENERGY PREDICTED BY IDOCK:   -4.78 KCAL/MOL
REMARK 922        TOTAL FREE ENERGY PREDICTED BY IDOCK:   -6.24 KCAL/MOL
REMARK 923 INTER-LIGAND FREE ENERGY PREDICTED BY IDOCK:   -6.51 KCAL/MOL
REMARK 924 INTRA-LIGAND FREE ENERGY PREDICTED BY IDOCK:    0.27 KCAL/MOL
REMARK 927      BINDING AFFINITY PREDICTED BY RF-SCORE:    0.00 PKD
ROOT
HETATM    1  C   UNL     1     -12.274  11.702  71.042  1.00  0.00    -0.336 C  
HETATM    2  C   UNL     1     -12.189  10.477  70.116  1.00  0.00    -0.280 C  
HETATM    3  C   UNL     1     -11.197  10.659  68.965  1.00  0.00    -0.265 C  
HETATM    4  O   UNL     1     -13.480  10.155  69.597  1.00  0.00    -0.064 OA 
HETATM    5  C   UNL     1     -11.722   9.278  70.990  1.00  0.00    -0.311 C  
HETATM    6  N   UNL     1     -11.719   8.042  70.356  1.00  0.00    -0.469 N  
HETATM    7  H   UNL     1     -13.428   9.399  69.025  1.00  0.00     0.000 HD 
HETATM    8  H   UNL     1     -12.036   7.999  69.387  1.00  0.00     0.000 HD 
HETATM    9  O   UNL     1     -11.308   9.458  72.135  1.00  0.00    -0.211 OA 
ENDROOT
BRANCH   3  10
HETATM   10  S   UNL     1     -11.500  12.133  68.016  1.00  0.00    -0.340 S  
HETATM   11  O   UNL     1     -12.298  13.049  68.802  1.00  0.00    -0.111 OA 
HETATM   12  O   UNL     1     -11.926  11.719  66.688  1.00  0.00    -0.561 OA 
BRANCH  10  13
HETATM   13  C   UNL     1      -9.896  12.881  67.864  1.00  0.00    -0.227 A  
HETATM   14  C   UNL     1      -8.795  12.209  68.406  1.00  0.00    -0.143 A  
HETATM   15  C   UNL     1      -9.744  14.111  67.217  1.00  0.00    -0.236 A  
HETATM   16  F   UNL     1      -6.138  14.478  67.445  1.00  0.00    -0.143 F  
HETATM   17  C   UNL     1      -7.521  12.754  68.260  1.00  0.00    -0.124 A  
HETATM   18  C   UNL     1      -8.464  14.654  67.083  1.00  0.00    -0.244 A  
HETATM   19  C   UNL     1      -7.366  13.965  67.594  1.00  0.00    -0.174 A  
ENDBRANCH  10  13
ENDBRANCH   3  10
BRANCH   6  20
HETATM   20  C   UNL     1     -11.301   6.837  70.973  1.00  0.00    -0.309 A  
HETATM   21  C   UNL     1      -9.007   3.872  70.238  1.00  0.00    -0.098 C  
HETATM   22  C   UNL     1     -10.009   4.752  70.945  1.00  0.00    -0.283 A  
HETATM   23  C   UNL     1     -10.391   3.062  72.712  1.00  0.00    -0.148 C  
HETATM   24  F   UNL     1      -8.483   4.435  69.115  1.00  0.00    -0.076 F  
HETATM   25  F   UNL     1      -7.941   3.567  71.025  1.00  0.00    -0.054 F  
HETATM   26  C   UNL     1     -11.563   5.210  72.750  1.00  0.00    -0.241 A  
HETATM   27  F   UNL     1      -9.546   2.689  69.841  1.00  0.00    -0.209 F  
HETATM   28  C   UNL     1     -10.340   6.003  70.392  1.00  0.00    -0.282 A  
HETATM   29  N   UNL     1     -10.200   2.019  73.183  1.00  0.00    -0.108 NA 
HETATM   30  C   UNL     1     -11.877   6.454  72.185  1.00  0.00    -0.361 A  
HETATM   31  C   UNL     1     -10.644   4.350  72.127  1.00  0.00    -0.101 A  
ENDBRANCH   6  20
TORSDOF 3
ENDMDL
MODEL      121
REMARK 921   NORMALIZED FREE ENERGY PREDICTED BY IDOCK:   -4.78 KCAL/MOL
REMARK 922        TOTAL FREE ENERGY PREDICTED BY IDOCK:   -6.24 KCAL/MOL
REMARK 923 INTER-LIGAND FREE ENERGY PREDICTED BY IDOCK:   -5.83 KCAL/MOL
REMARK 924 INTRA-LIGAND FREE ENERGY PREDICTED BY IDOCK:   -0.41 KCAL/MOL
REMARK 927      BINDING AFFINITY PREDICTED BY RF-SCORE:    0.00 PKD
ROOT
HETATM    1  C   UNL     1      -7.937  15.604  69.439  1.00  0.00    -0.226 C  
HETATM    2  C   UNL     1      -9.071  14.922  68.656  1.00  0.00    -0.185 C  
HETATM    3  C   UNL     1      -9.449  15.664  67.371  1.00  0.00    -0.215 C  
HETATM    4  O   UNL     1     -10.226  14.770  69.483  1.00  0.00    -0.352 OA 
HETATM    5  C   UNL     1      -8.573  13.498  68.279  1.00  0.00    -0.168 C  
HETATM    6  N   UNL     1      -9.518  12.672  67.683  1.00  0.00    -0.183 N  
HETATM    7  H   UNL     1     -10.926  14.350  69.000  1.00  0.00     0.000 HD 
HETATM    8  H   UNL     1     -10.461  13.038  67.554  1.00  0.00     0.000 HD 
HETATM    9  O   UNL     1      -7.392  13.184  68.434  1.00  0.00    -0.101 OA 
ENDROOT
BRANCH   3  10
HETATM   10  S   UNL     1      -9.830  17.380  67.648  1.00  0.00    -0.292 S  
HETATM   11  O   UNL     1      -9.816  17.647  69.071  1.00  0.00    -0.297 OA 
HETATM   12  O   UNL     1     -10.994  17.706  66.838  1.00  0.00    -0.110 OA 
BRANCH  10  13
HETATM   13  C   UNL     1      -8.435  18.244  66.970  1.00  0.00    -0.250 A  
HETATM   14  C   UNL     1      -7.475  17.508  66.267  1.00  0.00    -0.355 A  
HETATM   15  C   UNL     1      -8.305  19.626  67.136  1.00  0.00    -0.334 A  
HETATM   16  F   UNL     1      -5.246  20.182  65.260  1.00  0.00    -0.163 F  
HETATM   17  C   UNL     1      -6.395  18.170  65.687  1.00  0.00    -0.288 A  
HETATM   18  C   UNL     1      -7.215  20.280  66.558  1.00  0.00    -0.307 A  
HETATM   19  C   UNL     1      -6.279  19.548  65.830  1.00  0.00    -0.190 A  
ENDBRANCH  10  13
ENDBRANCH   3  10
BRANCH   6  20
HETATM   20  C   UNL     1      -9.249  11.352  67.244  1.00  0.00    -0.165 A  
HETATM   21  C   UNL     1      -8.206   9.541  64.046  1.00  0.00    -0.160 C  
HETATM   22  C   UNL     1      -8.641   9.767  65.474  1.00  0.00    -0.158 A  
HETATM   23  C   UNL     1      -8.836   7.337  65.900  1.00  0.00    -0.109 C  
HETATM   24  F   UNL     1      -7.963  10.692  63.361  1.00  0.00    -0.154 F  
HETATM   25  F   UNL     1      -7.057   8.818  63.964  1.00  0.00    -0.089 F  
HETATM   26  C   UNL     1      -9.316   8.966  67.661  1.00  0.00    -0.156 A  
HETATM   27  F   UNL     1      -9.138   8.869  63.320  1.00  0.00    -0.139 F  
HETATM   28  C   UNL     1      -8.796  11.082  65.948  1.00  0.00    -0.204 A  
HETATM   29  N   UNL     1      -8.780   6.232  65.548  1.00  0.00    -0.123 NA 
HETATM   30  C   UNL     1      -9.462  10.285  68.116  1.00  0.00    -0.155 A  
HETATM   31  C   UNL     1      -8.922   8.702  66.339  1.00  0.00    -0.197 A  
ENDBRANCH   6  20
TORSDOF 3
ENDMDL
MODEL      122
REMARK 921   NORMALIZED FREE ENERGY PREDICTED BY IDOCK:   -4.77 KCAL/MOL
REMARK 922        TOTAL FREE ENERGY PREDICTED BY IDOCK:   -6.22 KCAL/MOL
REMARK 923 INTER-LIGAND FREE ENERGY PREDICTED BY IDOCK:   -5.70 KCAL/MOL
REMARK 924 INTRA-LIGAND FREE ENERGY PREDICTED BY IDOCK:   -0.53 KCAL/MOL
REMARK 927      BINDING AFFINITY PREDICTED BY RF-SCORE:    0.00 PKD
ROOT
HETATM    1  C   UNL     1      -8.865   8.493  70.883  1.00  0.00    -0.203 C  
HETATM    2  C   UNL     1      -8.042   9.269  69.842  1.00  0.00    -0.124 C  
HETATM    3  C   UNL     1      -7.273   8.361  68.879  1.00  0.00    -0.078 C  
HETATM    4  O   UNL     1      -7.136  10.163  70.491  1.00  0.00    -0.266 OA 
HETATM    5  C   UNL     1      -9.043  10.131  69.021  1.00  0.00    -0.173 C  
HETATM    6  N   UNL     1      -8.468  11.015  68.117  1.00  0.00    -0.129 N  
HETATM    7  H   UNL     1      -6.627  10.643  69.849  1.00  0.00     0.000 HD 
HETATM    8  H   UNL     1      -7.451  11.056  68.066  1.00  0.00     0.000 HD 
HETATM    9  O   UNL     1     -10.257   9.956  69.128  1.00  0.00    -0.183 OA 
ENDROOT
BRANCH   3  10
HETATM   10  S   UNL     1      -6.249   7.171  69.717  1.00  0.00    -0.031 S  
HETATM   11  O   UNL     1      -5.931   7.665  71.039  1.00  0.00    -0.034 OA 
HETATM   12  O   UNL     1      -5.197   6.772  68.795  1.00  0.00    -0.014 OA 
BRANCH  10  13
HETATM   13  C   UNL     1      -7.321   5.776  69.956  1.00  0.00    -0.074 A  
HETATM   14  C   UNL     1      -7.257   5.089  71.174  1.00  0.00    -0.064 A  
HETATM   15  C   UNL     1      -8.206   5.378  68.949  1.00  0.00    -0.100 A  
HETATM   16  F   UNL     1      -9.853   2.618  70.639  1.00  0.00    -0.216 F  
HETATM   17  C   UNL     1      -8.120   4.018  71.402  1.00  0.00    -0.073 A  
HETATM   18  C   UNL     1      -9.061   4.299  69.184  1.00  0.00    -0.185 A  
HETATM   19  C   UNL     1      -9.017   3.639  70.411  1.00  0.00    -0.098 A  
ENDBRANCH  10  13
ENDBRANCH   3  10
BRANCH   6  20
HETATM   20  C   UNL     1      -9.212  11.863  67.259  1.00  0.00    -0.179 A  
HETATM   21  C   UNL     1     -11.037  15.216  67.402  1.00  0.00    -0.325 C  
HETATM   22  C   UNL     1     -10.516  13.903  66.869  1.00  0.00    -0.276 A  
HETATM   23  C   UNL     1     -11.754  14.167  64.742  1.00  0.00    -0.410 C  
HETATM   24  F   UNL     1     -10.584  15.516  68.650  1.00  0.00    -0.223 F  
HETATM   25  F   UNL     1     -10.681  16.270  66.621  1.00  0.00    -0.312 F  
HETATM   26  C   UNL     1     -10.342  12.209  65.143  1.00  0.00    -0.311 A  
HETATM   27  F   UNL     1     -12.394  15.239  67.487  1.00  0.00    -0.056 F  
HETATM   28  C   UNL     1      -9.681  13.113  67.678  1.00  0.00    -0.213 A  
HETATM   29  N   UNL     1     -12.484  14.748  64.052  1.00  0.00    -0.809 NA 
HETATM   30  C   UNL     1      -9.508  11.436  65.964  1.00  0.00    -0.245 A  
HETATM   31  C   UNL     1     -10.861  13.432  65.596  1.00  0.00    -0.292 A  
ENDBRANCH   6  20
TORSDOF 3
ENDMDL
MODEL      123
REMARK 921   NORMALIZED FREE ENERGY PREDICTED BY IDOCK:   -4.75 KCAL/MOL
REMARK 922        TOTAL FREE ENERGY PREDICTED BY IDOCK:   -6.20 KCAL/MOL
REMARK 923 INTER-LIGAND FREE ENERGY PREDICTED BY IDOCK:   -6.05 KCAL/MOL
REMARK 924 INTRA-LIGAND FREE ENERGY PREDICTED BY IDOCK:   -0.14 KCAL/MOL
REMARK 927      BINDING AFFINITY PREDICTED BY RF-SCORE:    0.00 PKD
ROOT
HETATM    1  C   UNL     1     -12.178  13.106  66.546  1.00  0.00    -0.358 C  
HETATM    2  C   UNL     1     -10.838  12.641  67.138  1.00  0.00    -0.253 C  
HETATM    3  C   UNL     1     -10.142  13.717  67.975  1.00  0.00    -0.250 C  
HETATM    4  O   UNL     1      -9.964  12.194  66.101  1.00  0.00    -0.223 OA 
HETATM    5  C   UNL     1     -11.145  11.420  68.052  1.00  0.00    -0.257 C  
HETATM    6  N   UNL     1     -10.033  10.770  68.573  1.00  0.00    -0.170 N  
HETATM    7  H   UNL     1      -9.136  11.906  66.467  1.00  0.00     0.000 HD 
HETATM    8  H   UNL     1      -9.109  11.113  68.310  1.00  0.00     0.000 HD 
HETATM    9  O   UNL     1     -12.304  11.129  68.345  1.00  0.00    -0.556 OA 
ENDROOT
BRANCH   3  10
HETATM   10  S   UNL     1      -9.932  15.250  67.097  1.00  0.00    -0.236 S  
HETATM   11  O   UNL     1     -11.054  16.118  67.380  1.00  0.00    -0.258 OA 
HETATM   12  O   UNL     1      -9.567  14.923  65.726  1.00  0.00    -0.326 OA 
BRANCH  10  13
HETATM   13  C   UNL     1      -8.520  15.998  67.872  1.00  0.00    -0.162 A  
HETATM   14  C   UNL     1      -8.095  17.250  67.410  1.00  0.00    -0.205 A  
HETATM   15  C   UNL     1      -7.855  15.350  68.916  1.00  0.00    -0.177 A  
HETATM   16  F   UNL     1      -5.345  17.856  69.692  1.00  0.00    -0.168 F  
HETATM   17  C   UNL     1      -7.017  17.877  68.033  1.00  0.00    -0.202 A  
HETATM   18  C   UNL     1      -6.771  15.983  69.528  1.00  0.00    -0.199 A  
HETATM   19  C   UNL     1      -6.371  17.243  69.089  1.00  0.00    -0.229 A  
ENDBRANCH  10  13
ENDBRANCH   3  10
BRANCH   6  20
HETATM   20  C   UNL     1     -10.105   9.657  69.447  1.00  0.00    -0.203 A  
HETATM   21  C   UNL     1      -8.084   8.093  72.287  1.00  0.00    -0.139 C  
HETATM   22  C   UNL     1      -9.165   8.286  71.251  1.00  0.00    -0.207 A  
HETATM   23  C   UNL     1     -10.189   6.094  71.772  1.00  0.00    -0.202 C  
HETATM   24  F   UNL     1      -7.212   9.135  72.366  1.00  0.00     0.024 F  
HETATM   25  F   UNL     1      -8.590   7.944  73.540  1.00  0.00    -0.194 F  
HETATM   26  C   UNL     1     -11.151   7.559  70.063  1.00  0.00    -0.219 A  
HETATM   27  F   UNL     1      -7.324   6.993  72.043  1.00  0.00    -0.078 F  
HETATM   28  C   UNL     1      -9.161   9.449  70.459  1.00  0.00    -0.314 A  
HETATM   29  N   UNL     1     -10.210   5.092  72.355  1.00  0.00    -0.194 NA 
HETATM   30  C   UNL     1     -11.131   8.726  69.285  1.00  0.00     0.096 A  
HETATM   31  C   UNL     1     -10.162   7.327  71.034  1.00  0.00    -0.198 A  
ENDBRANCH   6  20
TORSDOF 3
ENDMDL
MODEL      124
REMARK 921   NORMALIZED FREE ENERGY PREDICTED BY IDOCK:   -4.70 KCAL/MOL
REMARK 922        TOTAL FREE ENERGY PREDICTED BY IDOCK:   -6.14 KCAL/MOL
REMARK 923 INTER-LIGAND FREE ENERGY PREDICTED BY IDOCK:   -6.31 KCAL/MOL
REMARK 924 INTRA-LIGAND FREE ENERGY PREDICTED BY IDOCK:    0.17 KCAL/MOL
REMARK 927      BINDING AFFINITY PREDICTED BY RF-SCORE:    0.00 PKD
ROOT
HETATM    1  C   UNL     1      -6.656   9.697  68.954  1.00  0.00    -0.046 C  
HETATM    2  C   UNL     1      -8.172   9.860  68.756  1.00  0.00    -0.114 C  
HETATM    3  C   UNL     1      -8.963   9.785  70.064  1.00  0.00    -0.222 C  
HETATM    4  O   UNL     1      -8.661   8.882  67.837  1.00  0.00    -0.128 OA 
HETATM    5  C   UNL     1      -8.399  11.259  68.116  1.00  0.00    -0.143 C  
HETATM    6  N   UNL     1      -9.706  11.535  67.732  1.00  0.00    -0.171 N  
HETATM    7  H   UNL     1      -9.598   8.982  67.715  1.00  0.00     0.000 HD 
HETATM    8  H   UNL     1     -10.410  10.810  67.870  1.00  0.00     0.000 HD 
HETATM    9  O   UNL     1      -7.481  12.076  68.049  1.00  0.00    -0.097 OA 
ENDROOT
BRANCH   3  10
HETATM   10  S   UNL     1      -8.615   8.313  71.001  1.00  0.00    -0.157 S  
HETATM   11  O   UNL     1      -8.001   8.683  72.258  1.00  0.00    -0.301 OA 
HETATM   12  O   UNL     1      -7.970   7.365  70.105  1.00  0.00    -0.107 OA 
BRANCH  10  13
HETATM   13  C   UNL     1     -10.221   7.672  71.406  1.00  0.00    -0.185 A  
HETATM   14  C   UNL     1     -11.345   8.304  70.861  1.00  0.00    -0.292 A  
HETATM   15  C   UNL     1     -10.353   6.564  72.247  1.00  0.00    -0.212 A  
HETATM   16  F   UNL     1     -13.963   6.178  72.187  1.00  0.00    -0.238 F  
HETATM   17  C   UNL     1     -12.613   7.792  71.127  1.00  0.00    -0.221 A  
HETATM   18  C   UNL     1     -11.629   6.064  72.516  1.00  0.00    -0.315 A  
HETATM   19  C   UNL     1     -12.744   6.674  71.944  1.00  0.00    -0.212 A  
ENDBRANCH  10  13
ENDBRANCH   3  10
BRANCH   6  20
HETATM   20  C   UNL     1     -10.118  12.763  67.158  1.00  0.00    -0.234 A  
HETATM   21  C   UNL     1     -12.649  14.036  64.595  1.00  0.00    -0.248 C  
HETATM   22  C   UNL     1     -11.523  14.034  65.600  1.00  0.00    -0.319 A  
HETATM   23  C   UNL     1     -11.038  16.429  65.203  1.00  0.00    -0.170 C  
HETATM   24  F   UNL     1     -13.266  12.829  64.465  1.00  0.00    -0.332 F  
HETATM   25  F   UNL     1     -13.633  14.915  64.922  1.00  0.00     0.412 F  
HETATM   26  C   UNL     1      -9.747  15.136  66.832  1.00  0.00    -0.248 A  
HETATM   27  F   UNL     1     -12.229  14.372  63.347  1.00  0.00    -0.287 F  
HETATM   28  C   UNL     1     -11.187  12.838  66.258  1.00  0.00    -0.339 A  
HETATM   29  N   UNL     1     -11.232  17.430  64.651  1.00  0.00    -0.824 NA 
HETATM   30  C   UNL     1      -9.429  13.933  67.479  1.00  0.00    -0.216 A  
HETATM   31  C   UNL     1     -10.780  15.188  65.881  1.00  0.00    -0.341 A  
ENDBRANCH   6  20
TORSDOF 3
ENDMDL
MODEL      125
REMARK 921   NORMALIZED FREE ENERGY PREDICTED BY IDOCK:   -4.67 KCAL/MOL
REMARK 922        TOTAL FREE ENERGY PREDICTED BY IDOCK:   -6.11 KCAL/MOL
REMARK 923 INTER-LIGAND FREE ENERGY PREDICTED BY IDOCK:   -5.54 KCAL/MOL
REMARK 924 INTRA-LIGAND FREE ENERGY PREDICTED BY IDOCK:   -0.56 KCAL/MOL
REMARK 927      BINDING AFFINITY PREDICTED BY RF-SCORE:    0.00 PKD
ROOT
HETATM    1  C   UNL     1     -11.837  12.678  66.164  1.00  0.00    -0.477 C  
HETATM    2  C   UNL     1     -10.327  12.775  66.441  1.00  0.00    -0.258 C  
HETATM    3  C   UNL     1      -9.938  14.023  67.237  1.00  0.00    -0.242 C  
HETATM    4  O   UNL     1      -9.594  12.735  65.215  1.00  0.00    -0.469 OA 
HETATM    5  C   UNL     1      -9.934  11.516  67.264  1.00  0.00    -0.191 C  
HETATM    6  N   UNL     1      -8.573  11.353  67.493  1.00  0.00    -0.134 N  
HETATM    7  H   UNL     1      -8.662  12.796  65.386  1.00  0.00     0.000 HD 
HETATM    8  H   UNL     1      -7.934  12.042  67.098  1.00  0.00     0.000 HD 
HETATM    9  O   UNL     1     -10.799  10.780  67.739  1.00  0.00    -0.226 OA 
ENDROOT
BRANCH   3  10
HETATM   10  S   UNL     1     -10.531  15.529  66.500  1.00  0.00    -0.305 S  
HETATM   11  O   UNL     1     -11.898  15.757  66.917  1.00  0.00     0.289 OA 
HETATM   12  O   UNL     1     -10.176  15.496  65.089  1.00  0.00    -0.359 OA 
BRANCH  10  13
HETATM   13  C   UNL     1      -9.560  16.798  67.276  1.00  0.00    -0.234 A  
HETATM   14  C   UNL     1      -9.980  18.127  67.149  1.00  0.00    -0.341 A  
HETATM   15  C   UNL     1      -8.406  16.471  67.994  1.00  0.00    -0.180 A  
HETATM   16  F   UNL     1      -7.445  19.778  69.144  1.00  0.00    -0.378 F  
HETATM   17  C   UNL     1      -9.260  19.135  67.787  1.00  0.00    -0.347 A  
HETATM   18  C   UNL     1      -7.686  17.489  68.622  1.00  0.00    -0.275 A  
HETATM   19  C   UNL     1      -8.126  18.807  68.522  1.00  0.00    -0.346 A  
ENDBRANCH  10  13
ENDBRANCH   3  10
BRANCH   6  20
HETATM   20  C   UNL     1      -8.020  10.287  68.245  1.00  0.00    -0.106 A  
HETATM   21  C   UNL     1      -7.759   6.480  68.076  1.00  0.00    -0.105 C  
HETATM   22  C   UNL     1      -7.625   7.891  68.593  1.00  0.00    -0.101 A  
HETATM   23  C   UNL     1      -6.675   7.116  70.743  1.00  0.00    -0.052 C  
HETATM   24  F   UNL     1      -8.281   6.405  66.821  1.00  0.00    -0.106 F  
HETATM   25  F   UNL     1      -6.562   5.837  68.012  1.00  0.00    -0.044 F  
HETATM   26  C   UNL     1      -6.984   9.501  70.290  1.00  0.00    -0.099 A  
HETATM   27  F   UNL     1      -8.566   5.715  68.858  1.00  0.00    -0.101 F  
HETATM   28  C   UNL     1      -8.068   8.962  67.797  1.00  0.00    -0.106 A  
HETATM   29  N   UNL     1      -6.345   6.271  71.466  1.00  0.00    -0.044 NA 
HETATM   30  C   UNL     1      -7.429  10.556  69.480  1.00  0.00    -0.146 A  
HETATM   31  C   UNL     1      -7.095   8.169  69.859  1.00  0.00    -0.059 A  
ENDBRANCH   6  20
TORSDOF 3
ENDMDL
MODEL      126
REMARK 921   NORMALIZED FREE ENERGY PREDICTED BY IDOCK:   -4.60 KCAL/MOL
REMARK 922        TOTAL FREE ENERGY PREDICTED BY IDOCK:   -6.03 KCAL/MOL
REMARK 923 INTER-LIGAND FREE ENERGY PREDICTED BY IDOCK:   -5.74 KCAL/MOL
REMARK 924 INTRA-LIGAND FREE ENERGY PREDICTED BY IDOCK:   -0.28 KCAL/MOL
REMARK 927      BINDING AFFINITY PREDICTED BY RF-SCORE:    0.00 PKD
ROOT
HETATM    1  C   UNL     1      -9.323   8.607  65.712  1.00  0.00    -0.227 C  
HETATM    2  C   UNL     1      -8.658   8.700  67.095  1.00  0.00    -0.121 C  
HETATM    3  C   UNL     1      -8.850  10.061  67.768  1.00  0.00    -0.125 C  
HETATM    4  O   UNL     1      -7.264   8.400  66.998  1.00  0.00    -0.078 OA 
HETATM    5  C   UNL     1      -9.311   7.606  67.988  1.00  0.00    -0.140 C  
HETATM    6  N   UNL     1      -8.739   7.441  69.244  1.00  0.00    -0.137 N  
HETATM    7  H   UNL     1      -6.853   8.458  67.851  1.00  0.00     0.000 HD 
HETATM    8  H   UNL     1      -7.934   8.018  69.484  1.00  0.00     0.000 HD 
HETATM    9  O   UNL     1     -10.318   7.006  67.612  1.00  0.00    -0.175 OA 
ENDROOT
BRANCH   3  10
HETATM   10  S   UNL     1      -8.337  11.420  66.741  1.00  0.00    -0.164 S  
HETATM   11  O   UNL     1      -7.308  10.966  65.830  1.00  0.00    -0.102 OA 
HETATM   12  O   UNL     1      -8.113  12.565  67.610  1.00  0.00    -0.147 OA 
BRANCH  10  13
HETATM   13  C   UNL     1      -9.764  11.765  65.742  1.00  0.00    -0.237 A  
HETATM   14  C   UNL     1      -9.663  11.592  64.357  1.00  0.00    -0.229 A  
HETATM   15  C   UNL     1     -10.956  12.198  66.330  1.00  0.00    -0.327 A  
HETATM   16  F   UNL     1     -13.052  12.418  63.374  1.00  0.00    -0.418 F  
HETATM   17  C   UNL     1     -10.783  11.813  63.557  1.00  0.00    -0.501 A  
HETATM   18  C   UNL     1     -12.070  12.426  65.519  1.00  0.00    -0.417 A  
HETATM   19  C   UNL     1     -11.975  12.220  64.145  1.00  0.00    -0.432 A  
ENDBRANCH  10  13
ENDBRANCH   3  10
BRANCH   6  20
HETATM   20  C   UNL     1      -9.209   6.518  70.211  1.00  0.00    -0.155 A  
HETATM   21  C   UNL     1      -8.866   2.807  71.051  1.00  0.00    -0.081 C  
HETATM   22  C   UNL     1      -9.331   4.242  71.117  1.00  0.00    -0.218 A  
HETATM   23  C   UNL     1     -10.960   3.733  72.909  1.00  0.00    -0.006 C  
HETATM   24  F   UNL     1      -7.891   2.591  70.127  1.00  0.00    -0.043 F  
HETATM   25  F   UNL     1      -8.351   2.375  72.233  1.00  0.00    -0.052 F  
HETATM   26  C   UNL     1     -10.709   6.008  72.045  1.00  0.00    -0.281 A  
HETATM   27  F   UNL     1      -9.873   1.951  70.733  1.00  0.00    -0.199 F  
HETATM   28  C   UNL     1      -8.779   5.186  70.233  1.00  0.00    -0.132 A  
HETATM   29  N   UNL     1     -11.490   2.988  73.623  1.00  0.00    -0.162 NA 
HETATM   30  C   UNL     1     -10.145   6.936  71.157  1.00  0.00    -0.204 A  
HETATM   31  C   UNL     1     -10.318   4.660  72.018  1.00  0.00    -0.234 A  
ENDBRANCH   6  20
TORSDOF 3
ENDMDL
MODEL      127
REMARK 921   NORMALIZED FREE ENERGY PREDICTED BY IDOCK:   -4.60 KCAL/MOL
REMARK 922        TOTAL FREE ENERGY PREDICTED BY IDOCK:   -6.02 KCAL/MOL
REMARK 923 INTER-LIGAND FREE ENERGY PREDICTED BY IDOCK:   -5.93 KCAL/MOL
REMARK 924 INTRA-LIGAND FREE ENERGY PREDICTED BY IDOCK:   -0.09 KCAL/MOL
REMARK 927      BINDING AFFINITY PREDICTED BY RF-SCORE:    0.00 PKD
ROOT
HETATM    1  C   UNL     1      -9.162   7.785  71.439  1.00  0.00    -0.156 C  
HETATM    2  C   UNL     1     -10.048   6.795  70.665  1.00  0.00    -0.187 C  
HETATM    3  C   UNL     1     -11.395   7.389  70.246  1.00  0.00    -0.221 C  
HETATM    4  O   UNL     1     -10.260   5.610  71.434  1.00  0.00    -0.198 OA 
HETATM    5  C   UNL     1      -9.263   6.389  69.384  1.00  0.00    -0.143 C  
HETATM    6  N   UNL     1      -9.847   5.386  68.620  1.00  0.00    -0.138 N  
HETATM    7  H   UNL     1     -10.807   4.999  70.956  1.00  0.00     0.000 HD 
HETATM    8  H   UNL     1     -10.719   4.975  68.951  1.00  0.00     0.000 HD 
HETATM    9  O   UNL     1      -8.244   6.993  69.054  1.00  0.00    -0.122 OA 
ENDROOT
BRANCH   3  10
HETATM   10  S   UNL     1     -12.296   8.091  71.610  1.00  0.00    -0.323 S  
HETATM   11  O   UNL     1     -11.517   7.947  72.820  1.00  0.00    -0.390 OA 
HETATM   12  O   UNL     1     -13.661   7.593  71.536  1.00  0.00    -0.373 OA 
BRANCH  10  13
HETATM   13  C   UNL     1     -12.332   9.830  71.250  1.00  0.00    -0.371 A  
HETATM   14  C   UNL     1     -13.129  10.658  72.050  1.00  0.00    -0.501 A  
HETATM   15  C   UNL     1     -11.581  10.353  70.194  1.00  0.00    -0.392 A  
HETATM   16  F   UNL     1     -12.374  13.877  70.567  1.00  0.00    -0.352 F  
HETATM   17  C   UNL     1     -13.139  12.032  71.815  1.00  0.00    -0.460 A  
HETATM   18  C   UNL     1     -11.604  11.730  69.961  1.00  0.00    -0.318 A  
HETATM   19  C   UNL     1     -12.372  12.555  70.781  1.00  0.00    -0.286 A  
ENDBRANCH  10  13
ENDBRANCH   3  10
BRANCH   6  20
HETATM   20  C   UNL     1      -9.301   4.899  67.406  1.00  0.00    -0.132 A  
HETATM   21  C   UNL     1      -5.958   3.637  66.055  1.00  0.00    -0.023 C  
HETATM   22  C   UNL     1      -7.405   4.067  66.092  1.00  0.00    -0.072 A  
HETATM   23  C   UNL     1      -7.642   3.815  63.641  1.00  0.00    -0.059 C  
HETATM   24  F   UNL     1      -5.362   3.621  67.279  1.00  0.00    -0.010 F  
HETATM   25  F   UNL     1      -5.804   2.381  65.558  1.00  0.00    -0.015 F  
HETATM   26  C   UNL     1      -9.532   4.529  65.022  1.00  0.00    -0.156 A  
HETATM   27  F   UNL     1      -5.194   4.455  65.283  1.00  0.00    -0.008 F  
HETATM   28  C   UNL     1      -7.982   4.440  67.319  1.00  0.00    -0.100 A  
HETATM   29  N   UNL     1      -7.204   3.573  62.594  1.00  0.00    -0.043 NA 
HETATM   30  C   UNL     1     -10.090   4.895  66.255  1.00  0.00    -0.285 A  
HETATM   31  C   UNL     1      -8.188   4.131  64.933  1.00  0.00    -0.098 A  
ENDBRANCH   6  20
TORSDOF 3
ENDMDL
MODEL      128
REMARK 921   NORMALIZED FREE ENERGY PREDICTED BY IDOCK:   -4.59 KCAL/MOL
REMARK 922        TOTAL FREE ENERGY PREDICTED BY IDOCK:   -6.01 KCAL/MOL
REMARK 923 INTER-LIGAND FREE ENERGY PREDICTED BY IDOCK:   -5.82 KCAL/MOL
REMARK 924 INTRA-LIGAND FREE ENERGY PREDICTED BY IDOCK:   -0.19 KCAL/MOL
REMARK 927      BINDING AFFINITY PREDICTED BY RF-SCORE:    0.00 PKD
ROOT
HETATM    1  C   UNL     1      -5.384  14.727  69.307  1.00  0.00    -0.089 C  
HETATM    2  C   UNL     1      -6.878  14.575  68.974  1.00  0.00    -0.109 C  
HETATM    3  C   UNL     1      -7.312  15.397  67.759  1.00  0.00    -0.161 C  
HETATM    4  O   UNL     1      -7.677  14.925  70.106  1.00  0.00    -0.328 OA 
HETATM    5  C   UNL     1      -7.126  13.070  68.672  1.00  0.00    -0.103 C  
HETATM    6  N   UNL     1      -8.455  12.710  68.485  1.00  0.00    -0.326 N  
HETATM    7  H   UNL     1      -8.599  14.832  69.901  1.00  0.00     0.000 HD 
HETATM    8  H   UNL     1      -9.166  13.435  68.577  1.00  0.00     0.000 HD 
HETATM    9  O   UNL     1      -6.182  12.293  68.530  1.00  0.00    -0.053 OA 
ENDROOT
BRANCH   3  10
HETATM   10  S   UNL     1      -6.878  17.117  67.894  1.00  0.00    -0.160 S  
HETATM   11  O   UNL     1      -5.675  17.366  67.130  1.00  0.00    -0.119 OA 
HETATM   12  O   UNL     1      -6.960  17.480  69.301  1.00  0.00    -0.247 OA 
BRANCH  10  13
HETATM   13  C   UNL     1      -8.188  17.958  67.039  1.00  0.00    -0.226 A  
HETATM   14  C   UNL     1      -9.146  17.188  66.369  1.00  0.00    -0.285 A  
HETATM   15  C   UNL     1      -8.257  19.354  67.040  1.00  0.00    -0.297 A  
HETATM   16  F   UNL     1     -11.320  19.817  65.145  1.00  0.00    -0.326 F  
HETATM   17  C   UNL     1     -10.209  17.824  65.729  1.00  0.00    -0.144 A  
HETATM   18  C   UNL     1      -9.321  19.982  66.388  1.00  0.00    -0.481 A  
HETATM   19  C   UNL     1     -10.291  19.211  65.751  1.00  0.00    -0.276 A  
ENDBRANCH  10  13
ENDBRANCH   3  10
BRANCH   6  20
HETATM   20  C   UNL     1      -8.881  11.395  68.173  1.00  0.00    -0.162 A  
HETATM   21  C   UNL     1      -7.815   8.476  65.952  1.00  0.00    -0.099 C  
HETATM   22  C   UNL     1      -8.627   9.303  66.919  1.00  0.00    -0.132 A  
HETATM   23  C   UNL     1     -10.433   7.612  66.997  1.00  0.00    -0.349 C  
HETATM   24  F   UNL     1      -6.636   9.055  65.595  1.00  0.00    -0.064 F  
HETATM   25  F   UNL     1      -7.484   7.259  66.461  1.00  0.00    -0.079 F  
HETATM   26  C   UNL     1     -10.575   9.667  68.317  1.00  0.00    -0.268 A  
HETATM   27  F   UNL     1      -8.477   8.240  64.788  1.00  0.00    -0.155 F  
HETATM   28  C   UNL     1      -8.147  10.562  67.321  1.00  0.00    -0.115 A  
HETATM   29  N   UNL     1     -10.904   6.608  66.657  1.00  0.00    -0.213 NA 
HETATM   30  C   UNL     1     -10.078  10.919  68.708  1.00  0.00    -0.205 A  
HETATM   31  C   UNL     1      -9.862   8.864  67.412  1.00  0.00    -0.247 A  
ENDBRANCH   6  20
TORSDOF 3
ENDMDL
MODEL      129
REMARK 921   NORMALIZED FREE ENERGY PREDICTED BY IDOCK:   -4.57 KCAL/MOL
REMARK 922        TOTAL FREE ENERGY PREDICTED BY IDOCK:   -5.99 KCAL/MOL
REMARK 923 INTER-LIGAND FREE ENERGY PREDICTED BY IDOCK:   -5.56 KCAL/MOL
REMARK 924 INTRA-LIGAND FREE ENERGY PREDICTED BY IDOCK:   -0.43 KCAL/MOL
REMARK 927      BINDING AFFINITY PREDICTED BY RF-SCORE:    0.00 PKD
ROOT
HETATM    1  C   UNL     1      -5.319  14.186  68.612  1.00  0.00    -0.090 C  
HETATM    2  C   UNL     1      -6.693  13.603  68.980  1.00  0.00    -0.111 C  
HETATM    3  C   UNL     1      -7.748  13.812  67.892  1.00  0.00    -0.161 C  
HETATM    4  O   UNL     1      -7.154  14.157  70.214  1.00  0.00    -0.383 OA 
HETATM    5  C   UNL     1      -6.497  12.076  69.197  1.00  0.00    -0.099 C  
HETATM    6  N   UNL     1      -7.608  11.392  69.675  1.00  0.00    -0.333 N  
HETATM    7  H   UNL     1      -8.003  13.798  70.441  1.00  0.00     0.000 HD 
HETATM    8  H   UNL     1      -8.454  11.928  69.869  1.00  0.00     0.000 HD 
HETATM    9  O   UNL     1      -5.444  11.526  68.875  1.00  0.00    -0.043 OA 
ENDROOT
BRANCH   3  10
HETATM   10  S   UNL     1      -7.908  15.514  67.399  1.00  0.00    -0.204 S  
HETATM   11  O   UNL     1      -6.767  15.885  66.590  1.00  0.00    -0.197 OA 
HETATM   12  O   UNL     1      -8.266  16.281  68.582  1.00  0.00    -0.190 OA 
BRANCH  10  13
HETATM   13  C   UNL     1      -9.308  15.515  66.306  1.00  0.00    -0.320 A  
HETATM   14  C   UNL     1      -9.831  14.283  65.896  1.00  0.00    -0.322 A  
HETATM   15  C   UNL     1      -9.871  16.718  65.871  1.00  0.00    -0.276 A  
HETATM   16  F   UNL     1     -12.622  15.424  63.885  1.00  0.00    -0.407 F  
HETATM   17  C   UNL     1     -10.957  14.257  65.075  1.00  0.00    -0.394 A  
HETATM   18  C   UNL     1     -10.994  16.682  65.042  1.00  0.00    -0.172 A  
HETATM   19  C   UNL     1     -11.532  15.454  64.663  1.00  0.00    -0.337 A  
ENDBRANCH  10  13
ENDBRANCH   3  10
BRANCH   6  20
HETATM   20  C   UNL     1      -7.637   9.995  69.908  1.00  0.00    -0.170 A  
HETATM   21  C   UNL     1      -9.468   6.900  68.620  1.00  0.00    -0.134 C  
HETATM   22  C   UNL     1      -8.549   7.766  69.448  1.00  0.00    -0.135 A  
HETATM   23  C   UNL     1      -7.946   5.876  70.929  1.00  0.00    -0.111 C  
HETATM   24  F   UNL     1     -10.074   7.567  67.600  1.00  0.00    -0.175 F  
HETATM   25  F   UNL     1      -8.813   5.859  68.039  1.00  0.00    -0.112 F  
HETATM   26  C   UNL     1      -6.978   8.098  71.266  1.00  0.00    -0.056 A  
HETATM   27  F   UNL     1     -10.474   6.359  69.358  1.00  0.00    -0.193 F  
HETATM   28  C   UNL     1      -8.430   9.133  69.143  1.00  0.00    -0.132 A  
HETATM   29  N   UNL     1      -8.047   4.769  71.261  1.00  0.00    -0.098 NA 
HETATM   30  C   UNL     1      -6.871   9.460  70.944  1.00  0.00    -0.100 A  
HETATM   31  C   UNL     1      -7.826   7.253  70.533  1.00  0.00    -0.099 A  
ENDBRANCH   6  20
TORSDOF 3
ENDMDL
MODEL      130
REMARK 921   NORMALIZED FREE ENERGY PREDICTED BY IDOCK:   -4.55 KCAL/MOL
REMARK 922        TOTAL FREE ENERGY PREDICTED BY IDOCK:   -5.97 KCAL/MOL
REMARK 923 INTER-LIGAND FREE ENERGY PREDICTED BY IDOCK:   -5.34 KCAL/MOL
REMARK 924 INTRA-LIGAND FREE ENERGY PREDICTED BY IDOCK:   -0.63 KCAL/MOL
REMARK 927      BINDING AFFINITY PREDICTED BY RF-SCORE:    0.00 PKD
ROOT
HETATM    1  C   UNL     1      -6.861  11.724  69.291  1.00  0.00    -0.093 C  
HETATM    2  C   UNL     1      -8.052  11.244  68.445  1.00  0.00    -0.143 C  
HETATM    3  C   UNL     1      -8.291  12.098  67.198  1.00  0.00    -0.183 C  
HETATM    4  O   UNL     1      -9.239  11.201  69.238  1.00  0.00    -0.397 OA 
HETATM    5  C   UNL     1      -7.734   9.788  67.998  1.00  0.00    -0.083 C  
HETATM    6  N   UNL     1      -8.762   9.129  67.335  1.00  0.00    -0.115 N  
HETATM    7  H   UNL     1      -9.975  10.905  68.716  1.00  0.00     0.000 HD 
HETATM    8  H   UNL     1      -9.645   9.623  67.207  1.00  0.00     0.000 HD 
HETATM    9  O   UNL     1      -6.610   9.312  68.160  1.00  0.00    -0.058 OA 
ENDROOT
BRANCH   3  10
HETATM   10  S   UNL     1      -8.451  13.831  67.565  1.00  0.00    -0.209 S  
HETATM   11  O   UNL     1      -7.222  14.508  67.213  1.00  0.00    -0.177 OA 
HETATM   12  O   UNL     1      -9.010  13.945  68.904  1.00  0.00    -0.055 OA 
BRANCH  10  13
HETATM   13  C   UNL     1      -9.677  14.402  66.414  1.00  0.00    -0.302 A  
HETATM   14  C   UNL     1     -10.446  13.449  65.736  1.00  0.00    -0.291 A  
HETATM   15  C   UNL     1      -9.865  15.769  66.195  1.00  0.00    -0.341 A  
HETATM   16  F   UNL     1     -12.618  15.637  63.831  1.00  0.00    -0.371 F  
HETATM   17  C   UNL     1     -11.445  13.873  64.861  1.00  0.00    -0.354 A  
HETATM   18  C   UNL     1     -10.862  16.184  65.310  1.00  0.00    -0.349 A  
HETATM   19  C   UNL     1     -11.649  15.234  64.662  1.00  0.00    -0.333 A  
ENDBRANCH  10  13
ENDBRANCH   3  10
BRANCH   6  20
HETATM   20  C   UNL     1      -8.657   7.811  66.826  1.00  0.00    -0.132 A  
HETATM   21  C   UNL     1      -8.938   4.212  68.077  1.00  0.00    -0.121 C  
HETATM   22  C   UNL     1      -8.698   5.380  67.151  1.00  0.00    -0.107 A  
HETATM   23  C   UNL     1      -7.947   3.896  65.318  1.00  0.00    -0.097 C  
HETATM   24  F   UNL     1      -9.397   4.575  69.306  1.00  0.00    -0.145 F  
HETATM   25  F   UNL     1      -9.861   3.343  67.584  1.00  0.00    -0.239 F  
HETATM   26  C   UNL     1      -8.039   6.323  65.015  1.00  0.00    -0.136 A  
HETATM   27  F   UNL     1      -7.809   3.490  68.303  1.00  0.00    -0.065 F  
HETATM   28  C   UNL     1      -8.914   6.688  67.620  1.00  0.00    -0.111 A  
HETATM   29  N   UNL     1      -7.698   2.845  64.895  1.00  0.00    -0.076 NA 
HETATM   30  C   UNL     1      -8.263   7.619  65.501  1.00  0.00    -0.135 A  
HETATM   31  C   UNL     1      -8.239   5.203  65.840  1.00  0.00    -0.115 A  
ENDBRANCH   6  20
TORSDOF 3
ENDMDL
MODEL      131
REMARK 921   NORMALIZED FREE ENERGY PREDICTED BY IDOCK:   -4.54 KCAL/MOL
REMARK 922        TOTAL FREE ENERGY PREDICTED BY IDOCK:   -5.96 KCAL/MOL
REMARK 923 INTER-LIGAND FREE ENERGY PREDICTED BY IDOCK:   -5.97 KCAL/MOL
REMARK 924 INTRA-LIGAND FREE ENERGY PREDICTED BY IDOCK:    0.02 KCAL/MOL
REMARK 927      BINDING AFFINITY PREDICTED BY RF-SCORE:    0.00 PKD
ROOT
HETATM    1  C   UNL     1     -10.112   8.876  71.874  1.00  0.00    -0.393 C  
HETATM    2  C   UNL     1     -10.927   8.476  70.633  1.00  0.00    -0.239 C  
HETATM    3  C   UNL     1     -11.953   9.533  70.218  1.00  0.00     0.014 C  
HETATM    4  O   UNL     1     -11.582   7.225  70.850  1.00  0.00    -0.282 OA 
HETATM    5  C   UNL     1      -9.915   8.280  69.468  1.00  0.00    -0.187 C  
HETATM    6  N   UNL     1     -10.452   7.778  68.289  1.00  0.00    -0.291 N  
HETATM    7  H   UNL     1     -12.086   6.978  70.084  1.00  0.00     0.000 HD 
HETATM    8  H   UNL     1     -11.447   7.555  68.271  1.00  0.00     0.000 HD 
HETATM    9  O   UNL     1      -8.743   8.636  69.588  1.00  0.00    -0.128 OA 
ENDROOT
BRANCH   3  10
HETATM   10  S   UNL     1     -13.038  10.005  71.547  1.00  0.00    -0.444 S  
HETATM   11  O   UNL     1     -12.416   9.674  72.810  1.00  0.00     0.109 OA 
HETATM   12  O   UNL     1     -14.370   9.517  71.219  1.00  0.00     0.018 OA 
BRANCH  10  13
HETATM   13  C   UNL     1     -13.073  11.779  71.463  1.00  0.00    -0.287 A  
HETATM   14  C   UNL     1     -13.880  12.472  72.373  1.00  0.00    -0.171 A  
HETATM   15  C   UNL     1     -12.311  12.460  70.509  1.00  0.00    -0.346 A  
HETATM   16  F   UNL     1     -13.113  15.883  71.420  1.00  0.00    -0.504 F  
HETATM   17  C   UNL     1     -13.889  13.865  72.356  1.00  0.00    -0.668 A  
HETATM   18  C   UNL     1     -12.334  13.857  70.495  1.00  0.00    -0.439 A  
HETATM   19  C   UNL     1     -13.111  14.544  71.424  1.00  0.00    -0.353 A  
ENDBRANCH  10  13
ENDBRANCH   3  10
BRANCH   6  20
HETATM   20  C   UNL     1      -9.699   7.557  67.109  1.00  0.00    -0.173 A  
HETATM   21  C   UNL     1      -7.604   4.794  65.508  1.00  0.00    -0.085 C  
HETATM   22  C   UNL     1      -8.262   6.136  65.721  1.00  0.00    -0.138 A  
HETATM   23  C   UNL     1      -7.147   7.105  63.735  1.00  0.00    -0.068 C  
HETATM   24  F   UNL     1      -7.950   3.863  66.438  1.00  0.00    -0.093 F  
HETATM   25  F   UNL     1      -7.924   4.245  64.305  1.00  0.00    -0.083 F  
HETATM   26  C   UNL     1      -8.684   8.440  65.093  1.00  0.00    -0.118 A  
HETATM   27  F   UNL     1      -6.247   4.871  65.549  1.00  0.00    -0.030 F  
HETATM   28  C   UNL     1      -9.105   6.322  66.831  1.00  0.00    -0.132 A  
HETATM   29  N   UNL     1      -6.419   7.027  62.835  1.00  0.00    -0.047 NA 
HETATM   30  C   UNL     1      -9.523   8.605  66.205  1.00  0.00    -0.307 A  
HETATM   31  C   UNL     1      -8.040   7.215  64.856  1.00  0.00    -0.107 A  
ENDBRANCH   6  20
TORSDOF 3
ENDMDL
MODEL      132
REMARK 921   NORMALIZED FREE ENERGY PREDICTED BY IDOCK:   -4.52 KCAL/MOL
REMARK 922        TOTAL FREE ENERGY PREDICTED BY IDOCK:   -5.93 KCAL/MOL
REMARK 923 INTER-LIGAND FREE ENERGY PREDICTED BY IDOCK:   -6.27 KCAL/MOL
REMARK 924 INTRA-LIGAND FREE ENERGY PREDICTED BY IDOCK:    0.34 KCAL/MOL
REMARK 927      BINDING AFFINITY PREDICTED BY RF-SCORE:    0.00 PKD
ROOT
HETATM    1  C   UNL     1     -11.773  12.136  66.253  1.00  0.00    -0.389 C  
HETATM    2  C   UNL     1     -11.150  12.908  67.428  1.00  0.00    -0.273 C  
HETATM    3  C   UNL     1     -10.111  12.093  68.203  1.00  0.00    -0.206 C  
HETATM    4  O   UNL     1     -12.169  13.365  68.318  1.00  0.00    -0.286 OA 
HETATM    5  C   UNL     1     -10.453  14.163  66.829  1.00  0.00    -0.277 C  
HETATM    6  N   UNL     1      -9.947  15.065  67.757  1.00  0.00    -0.228 N  
HETATM    7  H   UNL     1     -11.785  13.842  69.044  1.00  0.00     0.000 HD 
HETATM    8  H   UNL     1     -10.082  14.861  68.747  1.00  0.00     0.000 HD 
HETATM    9  O   UNL     1     -10.300  14.276  65.613  1.00  0.00    -0.303 OA 
ENDROOT
BRANCH   3  10
HETATM   10  S   UNL     1     -10.735  10.521  68.755  1.00  0.00    -0.234 S  
HETATM   11  O   UNL     1     -12.138  10.420  68.416  1.00  0.00    -0.214 OA 
HETATM   12  O   UNL     1     -10.281  10.327  70.124  1.00  0.00    -0.230 OA 
BRANCH  10  13
HETATM   13  C   UNL     1      -9.892   9.342  67.729  1.00  0.00    -0.171 A  
HETATM   14  C   UNL     1      -9.903   9.538  66.343  1.00  0.00    -0.320 A  
HETATM   15  C   UNL     1      -9.236   8.246  68.297  1.00  0.00    -0.135 A  
HETATM   16  F   UNL     1      -7.862   6.733  65.295  1.00  0.00    -0.091 F  
HETATM   17  C   UNL     1      -9.211   8.651  65.521  1.00  0.00    -0.158 A  
HETATM   18  C   UNL     1      -8.552   7.358  67.464  1.00  0.00    -0.122 A  
HETATM   19  C   UNL     1      -8.537   7.576  66.088  1.00  0.00    -0.149 A  
ENDBRANCH  10  13
ENDBRANCH   3  10
BRANCH   6  20
HETATM   20  C   UNL     1      -9.254  16.251  67.409  1.00  0.00    -0.211 A  
HETATM   21  C   UNL     1      -6.243  18.278  68.599  1.00  0.00    -0.208 C  
HETATM   22  C   UNL     1      -7.466  17.881  67.808  1.00  0.00    -0.206 A  
HETATM   23  C   UNL     1      -7.463  20.014  66.552  1.00  0.00    -0.276 C  
HETATM   24  F   UNL     1      -5.841  17.333  69.493  1.00  0.00    -0.179 F  
HETATM   25  F   UNL     1      -5.165  18.511  67.804  1.00  0.00    -0.156 F  
HETATM   26  C   UNL     1      -9.153  18.298  66.116  1.00  0.00    -0.122 A  
HETATM   27  F   UNL     1      -6.441  19.411  69.324  1.00  0.00    -0.283 F  
HETATM   28  C   UNL     1      -8.088  16.648  68.072  1.00  0.00    -0.181 A  
HETATM   29  N   UNL     1      -7.026  21.065  66.330  1.00  0.00    -0.089 NA 
HETATM   30  C   UNL     1      -9.757  17.063  66.392  1.00  0.00    -0.310 A  
HETATM   31  C   UNL     1      -8.019  18.718  66.831  1.00  0.00    -0.262 A  
ENDBRANCH   6  20
TORSDOF 3
ENDMDL
MODEL      133
REMARK 921   NORMALIZED FREE ENERGY PREDICTED BY IDOCK:   -4.52 KCAL/MOL
REMARK 922        TOTAL FREE ENERGY PREDICTED BY IDOCK:   -5.92 KCAL/MOL
REMARK 923 INTER-LIGAND FREE ENERGY PREDICTED BY IDOCK:   -5.97 KCAL/MOL
REMARK 924 INTRA-LIGAND FREE ENERGY PREDICTED BY IDOCK:    0.05 KCAL/MOL
REMARK 927      BINDING AFFINITY PREDICTED BY RF-SCORE:    0.00 PKD
ROOT
HETATM    1  C   UNL     1     -12.842  11.207  71.801  1.00  0.00    -0.479 C  
HETATM    2  C   UNL     1     -12.101  10.924  70.484  1.00  0.00    -0.371 C  
HETATM    3  C   UNL     1     -11.162  12.057  70.064  1.00  0.00     0.175 C  
HETATM    4  O   UNL     1     -13.034  10.655  69.436  1.00  0.00    -0.563 OA 
HETATM    5  C   UNL     1     -11.258   9.635  70.704  1.00  0.00    -0.320 C  
HETATM    6  N   UNL     1     -10.621   9.138  69.574  1.00  0.00    -0.222 N  
HETATM    7  H   UNL     1     -12.576  10.481  68.622  1.00  0.00     0.000 HD 
HETATM    8  H   UNL     1     -10.762   9.626  68.690  1.00  0.00     0.000 HD 
HETATM    9  O   UNL     1     -11.116   9.162  71.831  1.00  0.00    -0.364 OA 
ENDROOT
BRANCH   3  10
HETATM   10  S   UNL     1     -11.974  13.639  69.991  1.00  0.00    -0.331 S  
HETATM   11  O   UNL     1     -11.317  14.553  70.899  1.00  0.00    -0.180 OA 
HETATM   12  O   UNL     1     -13.407  13.400  70.078  1.00  0.00     0.680 OA 
BRANCH  10  13
HETATM   13  C   UNL     1     -11.619  14.228  68.354  1.00  0.00    -0.320 A  
HETATM   14  C   UNL     1     -10.949  15.450  68.218  1.00  0.00    -0.288 A  
HETATM   15  C   UNL     1     -12.000  13.486  67.232  1.00  0.00    -0.408 A  
HETATM   16  F   UNL     1     -10.646  15.601  64.610  1.00  0.00    -0.421 F  
HETATM   17  C   UNL     1     -10.619  15.911  66.945  1.00  0.00    -0.309 A  
HETATM   18  C   UNL     1     -11.673  13.961  65.961  1.00  0.00    -0.381 A  
HETATM   19  C   UNL     1     -10.976  15.160  65.830  1.00  0.00    -0.339 A  
ENDBRANCH  10  13
ENDBRANCH   3  10
BRANCH   6  20
HETATM   20  C   UNL     1      -9.787   7.993  69.576  1.00  0.00    -0.181 A  
HETATM   21  C   UNL     1      -9.314   4.773  67.576  1.00  0.00    -0.138 C  
HETATM   22  C   UNL     1      -9.131   5.819  68.648  1.00  0.00    -0.116 A  
HETATM   23  C   UNL     1      -7.508   4.412  69.878  1.00  0.00    -0.050 C  
HETATM   24  F   UNL     1     -10.192   5.138  66.602  1.00  0.00    -0.170 F  
HETATM   25  F   UNL     1      -8.153   4.483  66.931  1.00  0.00    -0.099 F  
HETATM   26  C   UNL     1      -8.114   6.639  70.692  1.00  0.00    -0.112 A  
HETATM   27  F   UNL     1      -9.783   3.598  68.074  1.00  0.00    -0.234 F  
HETATM   28  C   UNL     1      -9.875   7.011  68.583  1.00  0.00    -0.148 A  
HETATM   29  N   UNL     1      -6.910   3.427  70.014  1.00  0.00    -0.034 NA 
HETATM   30  C   UNL     1      -8.864   7.822  70.608  1.00  0.00    -0.144 A  
HETATM   31  C   UNL     1      -8.256   5.630  69.725  1.00  0.00    -0.106 A  
ENDBRANCH   6  20
TORSDOF 3
ENDMDL
MODEL      134
REMARK 921   NORMALIZED FREE ENERGY PREDICTED BY IDOCK:   -4.51 KCAL/MOL
REMARK 922        TOTAL FREE ENERGY PREDICTED BY IDOCK:   -5.91 KCAL/MOL
REMARK 923 INTER-LIGAND FREE ENERGY PREDICTED BY IDOCK:   -5.25 KCAL/MOL
REMARK 924 INTRA-LIGAND FREE ENERGY PREDICTED BY IDOCK:   -0.66 KCAL/MOL
REMARK 927      BINDING AFFINITY PREDICTED BY RF-SCORE:    0.00 PKD
ROOT
HETATM    1  C   UNL     1     -12.544  14.915  69.287  1.00  0.00     0.094 C  
HETATM    2  C   UNL     1     -11.413  14.364  68.402  1.00  0.00    -0.301 C  
HETATM    3  C   UNL     1     -10.113  15.164  68.516  1.00  0.00    -0.228 C  
HETATM    4  O   UNL     1     -11.831  14.311  67.037  1.00  0.00    -0.394 OA 
HETATM    5  C   UNL     1     -11.142  12.905  68.867  1.00  0.00    -0.255 C  
HETATM    6  N   UNL     1     -10.241  12.189  68.089  1.00  0.00    -0.198 N  
HETATM    7  H   UNL     1     -11.133  13.972  66.491  1.00  0.00     0.000 HD 
HETATM    8  H   UNL     1      -9.842  12.648  67.270  1.00  0.00     0.000 HD 
HETATM    9  O   UNL     1     -11.640  12.473  69.906  1.00  0.00    -0.255 OA 
ENDROOT
BRANCH   3  10
HETATM   10  S   UNL     1     -10.342  16.904  68.219  1.00  0.00    -0.356 S  
HETATM   11  O   UNL     1     -10.578  17.575  69.479  1.00  0.00    -0.163 OA 
HETATM   12  O   UNL     1     -11.278  17.040  67.113  1.00  0.00     0.065 OA 
BRANCH  10  13
HETATM   13  C   UNL     1      -8.751  17.455  67.656  1.00  0.00    -0.221 A  
HETATM   14  C   UNL     1      -8.367  17.148  66.345  1.00  0.00    -0.315 A  
HETATM   15  C   UNL     1      -7.907  18.178  68.504  1.00  0.00    -0.308 A  
HETATM   16  F   UNL     1      -5.143  18.801  66.233  1.00  0.00    -0.143 F  
HETATM   17  C   UNL     1      -7.142  17.609  65.866  1.00  0.00    -0.250 A  
HETATM   18  C   UNL     1      -6.678  18.628  68.018  1.00  0.00    -0.230 A  
HETATM   19  C   UNL     1      -6.313  18.350  66.702  1.00  0.00    -0.178 A  
ENDBRANCH  10  13
ENDBRANCH   3  10
BRANCH   6  20
HETATM   20  C   UNL     1      -9.842  10.857  68.365  1.00  0.00    -0.177 A  
HETATM   21  C   UNL     1      -7.130   9.013  70.324  1.00  0.00    -0.055 C  
HETATM   22  C   UNL     1      -8.313   9.254  69.418  1.00  0.00    -0.127 A  
HETATM   23  C   UNL     1      -8.477   6.855  68.834  1.00  0.00    -0.125 C  
HETATM   24  F   UNL     1      -6.658  10.144  70.918  1.00  0.00    -0.109 F  
HETATM   25  F   UNL     1      -7.423   8.161  71.342  1.00  0.00    -0.059 F  
HETATM   26  C   UNL     1     -10.047   8.486  67.907  1.00  0.00    -0.258 A  
HETATM   27  F   UNL     1      -6.072   8.475  69.662  1.00  0.00    -0.031 F  
HETATM   28  C   UNL     1      -8.785  10.566  69.234  1.00  0.00    -0.135 A  
HETATM   29  N   UNL     1      -8.097   5.761  68.903  1.00  0.00    -0.101 NA 
HETATM   30  C   UNL     1     -10.504   9.801  67.738  1.00  0.00    -0.297 A  
HETATM   31  C   UNL     1      -8.944   8.210  68.731  1.00  0.00    -0.144 A  
ENDBRANCH   6  20
TORSDOF 3
ENDMDL
MODEL      135
REMARK 921   NORMALIZED FREE ENERGY PREDICTED BY IDOCK:   -4.45 KCAL/MOL
REMARK 922        TOTAL FREE ENERGY PREDICTED BY IDOCK:   -5.85 KCAL/MOL
REMARK 923 INTER-LIGAND FREE ENERGY PREDICTED BY IDOCK:   -5.68 KCAL/MOL
REMARK 924 INTRA-LIGAND FREE ENERGY PREDICTED BY IDOCK:   -0.16 KCAL/MOL
REMARK 927      BINDING AFFINITY PREDICTED BY RF-SCORE:    0.00 PKD
ROOT
HETATM    1  C   UNL     1     -12.623  11.608  71.057  1.00  0.00    -0.431 C  
HETATM    2  C   UNL     1     -11.786  11.023  69.907  1.00  0.00    -0.346 C  
HETATM    3  C   UNL     1     -10.724  11.991  69.381  1.00  0.00     0.076 C  
HETATM    4  O   UNL     1     -12.634  10.607  68.836  1.00  0.00    -0.742 OA 
HETATM    5  C   UNL     1     -11.073   9.756  70.461  1.00  0.00    -0.321 C  
HETATM    6  N   UNL     1     -10.374   9.006  69.524  1.00  0.00    -0.204 N  
HETATM    7  H   UNL     1     -12.117  10.246  68.125  1.00  0.00     0.000 HD 
HETATM    8  H   UNL     1     -10.391   9.315  68.552  1.00  0.00     0.000 HD 
HETATM    9  O   UNL     1     -11.077   9.511  71.667  1.00  0.00    -0.371 OA 
ENDROOT
BRANCH   3  10
HETATM   10  S   UNL     1     -11.395  13.572  68.917  1.00  0.00    -0.307 S  
HETATM   11  O   UNL     1     -11.776  14.296  70.111  1.00  0.00    -0.276 OA 
HETATM   12  O   UNL     1     -12.351  13.344  67.844  1.00  0.00    -0.203 OA 
BRANCH  10  13
HETATM   13  C   UNL     1     -10.008  14.444  68.233  1.00  0.00    -0.232 A  
HETATM   14  C   UNL     1      -8.859  13.713  67.907  1.00  0.00    -0.188 A  
HETATM   15  C   UNL     1     -10.067  15.825  68.027  1.00  0.00    -0.228 A  
HETATM   16  F   UNL     1      -6.802  16.360  66.529  1.00  0.00    -0.235 F  
HETATM   17  C   UNL     1      -7.774  14.368  67.327  1.00  0.00    -0.164 A  
HETATM   18  C   UNL     1      -8.971  16.473  67.453  1.00  0.00    -0.207 A  
HETATM   19  C   UNL     1      -7.842  15.738  67.098  1.00  0.00    -0.212 A  
ENDBRANCH  10  13
ENDBRANCH   3  10
BRANCH   6  20
HETATM   20  C   UNL     1      -9.639   7.836  69.837  1.00  0.00    -0.164 A  
HETATM   21  C   UNL     1      -6.259   6.256  69.014  1.00  0.00    -0.033 C  
HETATM   22  C   UNL     1      -7.645   6.430  69.588  1.00  0.00    -0.094 A  
HETATM   23  C   UNL     1      -7.654   4.134  70.511  1.00  0.00    -0.045 C  
HETATM   24  F   UNL     1      -5.797   7.357  68.361  1.00  0.00    -0.020 F  
HETATM   25  F   UNL     1      -5.333   5.985  69.972  1.00  0.00    -0.010 F  
HETATM   26  C   UNL     1      -9.568   5.626  70.828  1.00  0.00    -0.213 A  
HETATM   27  F   UNL     1      -6.195   5.239  68.115  1.00  0.00    -0.028 F  
HETATM   28  C   UNL     1      -8.332   7.638  69.376  1.00  0.00    -0.131 A  
HETATM   29  N   UNL     1      -7.159   3.097  70.670  1.00  0.00    -0.033 NA 
HETATM   30  C   UNL     1     -10.236   6.839  70.608  1.00  0.00    -0.216 A  
HETATM   31  C   UNL     1      -8.281   5.411  70.307  1.00  0.00    -0.101 A  
ENDBRANCH   6  20
TORSDOF 3
ENDMDL
MODEL      136
REMARK 921   NORMALIZED FREE ENERGY PREDICTED BY IDOCK:   -4.41 KCAL/MOL
REMARK 922        TOTAL FREE ENERGY PREDICTED BY IDOCK:   -5.80 KCAL/MOL
REMARK 923 INTER-LIGAND FREE ENERGY PREDICTED BY IDOCK:   -6.18 KCAL/MOL
REMARK 924 INTRA-LIGAND FREE ENERGY PREDICTED BY IDOCK:    0.37 KCAL/MOL
REMARK 927      BINDING AFFINITY PREDICTED BY RF-SCORE:    0.00 PKD
ROOT
HETATM    1  C   UNL     1      -7.174   7.295  67.382  1.00  0.00    -0.090 C  
HETATM    2  C   UNL     1      -8.306   7.581  66.383  1.00  0.00    -0.126 C  
HETATM    3  C   UNL     1      -9.634   6.927  66.771  1.00  0.00    -0.168 C  
HETATM    4  O   UNL     1      -7.928   7.166  65.070  1.00  0.00    -0.119 OA 
HETATM    5  C   UNL     1      -8.503   9.124  66.348  1.00  0.00    -0.123 C  
HETATM    6  N   UNL     1      -9.396   9.591  65.392  1.00  0.00    -0.247 N  
HETATM    7  H   UNL     1      -8.627   7.342  64.452  1.00  0.00     0.000 HD 
HETATM    8  H   UNL     1      -9.838   8.910  64.775  1.00  0.00     0.000 HD 
HETATM    9  O   UNL     1      -7.956   9.846  67.181  1.00  0.00    -0.108 OA 
ENDROOT
BRANCH   3  10
HETATM   10  S   UNL     1      -9.487   5.177  67.056  1.00  0.00    -0.148 S  
HETATM   11  O   UNL     1      -8.116   4.773  66.836  1.00  0.00    -0.106 OA 
HETATM   12  O   UNL     1     -10.581   4.525  66.351  1.00  0.00    -0.193 OA 
BRANCH  10  13
HETATM   13  C   UNL     1      -9.782   5.000  68.798  1.00  0.00    -0.161 A  
HETATM   14  C   UNL     1     -10.381   6.065  69.482  1.00  0.00    -0.295 A  
HETATM   15  C   UNL     1      -9.422   3.825  69.465  1.00  0.00    -0.257 A  
HETATM   16  F   UNL     1     -10.613   4.626  72.800  1.00  0.00    -0.226 F  
HETATM   17  C   UNL     1     -10.663   5.932  70.841  1.00  0.00    -0.338 A  
HETATM   18  C   UNL     1      -9.701   3.706  70.828  1.00  0.00    -0.222 A  
HETATM   19  C   UNL     1     -10.328   4.754  71.498  1.00  0.00    -0.133 A  
ENDBRANCH  10  13
ENDBRANCH   3  10
BRANCH   6  20
HETATM   20  C   UNL     1      -9.730  10.958  65.223  1.00  0.00    -0.246 A  
HETATM   21  C   UNL     1      -8.893  14.339  66.790  1.00  0.00    -0.182 C  
HETATM   22  C   UNL     1      -9.542  13.307  65.900  1.00  0.00    -0.122 A  
HETATM   23  C   UNL     1     -11.072  14.983  64.911  1.00  0.00    -0.415 C  
HETATM   24  F   UNL     1      -7.907  13.835  67.582  1.00  0.00    -0.124 F  
HETATM   25  F   UNL     1      -8.314  15.344  66.081  1.00  0.00    -0.271 F  
HETATM   26  C   UNL     1     -11.132  12.645  64.192  1.00  0.00    -0.428 A  
HETATM   27  F   UNL     1      -9.782  14.926  67.636  1.00  0.00    -0.207 F  
HETATM   28  C   UNL     1      -9.129  11.966  65.984  1.00  0.00    -0.120 A  
HETATM   29  N   UNL     1     -11.492  16.062  64.838  1.00  0.00    -0.190 NA 
HETATM   30  C   UNL     1     -10.703  11.313  64.289  1.00  0.00    -0.416 A  
HETATM   31  C   UNL     1     -10.567  13.641  65.005  1.00  0.00    -0.394 A  
ENDBRANCH   6  20
TORSDOF 3
ENDMDL
MODEL      137
REMARK 921   NORMALIZED FREE ENERGY PREDICTED BY IDOCK:   -4.38 KCAL/MOL
REMARK 922        TOTAL FREE ENERGY PREDICTED BY IDOCK:   -5.77 KCAL/MOL
REMARK 923 INTER-LIGAND FREE ENERGY PREDICTED BY IDOCK:   -5.94 KCAL/MOL
REMARK 924 INTRA-LIGAND FREE ENERGY PREDICTED BY IDOCK:    0.18 KCAL/MOL
REMARK 927      BINDING AFFINITY PREDICTED BY RF-SCORE:    0.00 PKD
ROOT
HETATM    1  C   UNL     1      -6.897  12.340  66.870  1.00  0.00     0.056 C  
HETATM    2  C   UNL     1      -8.179  11.821  67.542  1.00  0.00    -0.152 C  
HETATM    3  C   UNL     1      -9.459  12.367  66.904  1.00  0.00    -0.219 C  
HETATM    4  O   UNL     1      -8.167  12.124  68.938  1.00  0.00    -0.342 OA 
HETATM    5  C   UNL     1      -8.173  10.272  67.398  1.00  0.00    -0.114 C  
HETATM    6  N   UNL     1      -9.191   9.606  68.070  1.00  0.00    -0.126 N  
HETATM    7  H   UNL     1      -8.959  11.804  69.353  1.00  0.00     0.000 HD 
HETATM    8  H   UNL     1      -9.847  10.161  68.619  1.00  0.00     0.000 HD 
HETATM    9  O   UNL     1      -7.361   9.713  66.662  1.00  0.00    -0.089 OA 
ENDROOT
BRANCH   3  10
HETATM   10  S   UNL     1      -9.483  14.144  66.811  1.00  0.00    -0.286 S  
HETATM   11  O   UNL     1     -10.196  14.548  65.619  1.00  0.00    -0.317 OA 
HETATM   12  O   UNL     1      -8.130  14.614  67.069  1.00  0.00    -0.201 OA 
BRANCH  10  13
HETATM   13  C   UNL     1     -10.499  14.631  68.184  1.00  0.00    -0.237 A  
HETATM   14  C   UNL     1     -10.389  15.943  68.659  1.00  0.00    -0.229 A  
HETATM   15  C   UNL     1     -11.386  13.723  68.770  1.00  0.00    -0.318 A  
HETATM   16  F   UNL     1     -12.902  15.877  71.269  1.00  0.00    -0.472 F  
HETATM   17  C   UNL     1     -11.208  16.362  69.706  1.00  0.00    -0.252 A  
HETATM   18  C   UNL     1     -12.196  14.150  69.824  1.00  0.00    -0.397 A  
HETATM   19  C   UNL     1     -12.108  15.466  70.273  1.00  0.00    -0.369 A  
ENDBRANCH  10  13
ENDBRANCH   3  10
BRANCH   6  20
HETATM   20  C   UNL     1      -9.372   8.201  68.038  1.00  0.00    -0.135 A  
HETATM   21  C   UNL     1      -9.153   5.217  70.413  1.00  0.00    -0.134 C  
HETATM   22  C   UNL     1      -9.331   6.011  69.141  1.00  0.00    -0.136 A  
HETATM   23  C   UNL     1      -9.554   3.958  67.777  1.00  0.00    -0.145 C  
HETATM   24  F   UNL     1      -8.983   5.990  71.520  1.00  0.00    -0.139 F  
HETATM   25  F   UNL     1     -10.225   4.424  70.682  1.00  0.00    -0.286 F  
HETATM   26  C   UNL     1      -9.703   6.175  66.750  1.00  0.00    -0.191 A  
HETATM   27  F   UNL     1      -8.069   4.398  70.364  1.00  0.00    -0.062 F  
HETATM   28  C   UNL     1      -9.268   7.415  69.191  1.00  0.00    -0.147 A  
HETATM   29  N   UNL     1      -9.559   2.803  67.666  1.00  0.00    -0.098 NA 
HETATM   30  C   UNL     1      -9.639   7.574  66.820  1.00  0.00    -0.265 A  
HETATM   31  C   UNL     1      -9.534   5.390  67.903  1.00  0.00    -0.137 A  
ENDBRANCH   6  20
TORSDOF 3
ENDMDL
MODEL      138
REMARK 921   NORMALIZED FREE ENERGY PREDICTED BY IDOCK:   -4.37 KCAL/MOL
REMARK 922        TOTAL FREE ENERGY PREDICTED BY IDOCK:   -5.76 KCAL/MOL
REMARK 923 INTER-LIGAND FREE ENERGY PREDICTED BY IDOCK:   -5.34 KCAL/MOL
REMARK 924 INTRA-LIGAND FREE ENERGY PREDICTED BY IDOCK:   -0.42 KCAL/MOL
REMARK 927      BINDING AFFINITY PREDICTED BY RF-SCORE:    0.00 PKD
ROOT
HETATM    1  C   UNL     1     -10.566  14.997  69.369  1.00  0.00    -0.262 C  
HETATM    2  C   UNL     1     -10.229  14.658  67.907  1.00  0.00    -0.226 C  
HETATM    3  C   UNL     1      -9.138  15.553  67.316  1.00  0.00    -0.203 C  
HETATM    4  O   UNL     1     -11.403  14.726  67.097  1.00  0.00    -0.337 OA 
HETATM    5  C   UNL     1      -9.730  13.184  67.886  1.00  0.00    -0.221 C  
HETATM    6  N   UNL     1      -9.507  12.648  66.624  1.00  0.00    -0.240 N  
HETATM    7  H   UNL     1     -11.195  14.517  66.195  1.00  0.00     0.000 HD 
HETATM    8  H   UNL     1      -9.701  13.234  65.812  1.00  0.00     0.000 HD 
HETATM    9  O   UNL     1      -9.477  12.591  68.934  1.00  0.00     0.051 OA 
ENDROOT
BRANCH   3  10
HETATM   10  S   UNL     1      -9.499  17.287  67.483  1.00  0.00    -0.248 S  
HETATM   11  O   UNL     1      -9.320  17.680  68.864  1.00  0.00    -0.246 OA 
HETATM   12  O   UNL     1     -10.753  17.542  66.789  1.00  0.00    -0.244 OA 
BRANCH  10  13
HETATM   13  C   UNL     1      -8.201  18.085  66.570  1.00  0.00    -0.271 A  
HETATM   14  C   UNL     1      -7.040  17.355  66.290  1.00  0.00    -0.330 A  
HETATM   15  C   UNL     1      -8.341  19.409  66.145  1.00  0.00    -0.310 A  
HETATM   16  F   UNL     1      -5.206  19.811  64.357  1.00  0.00    -0.162 F  
HETATM   17  C   UNL     1      -6.027  17.944  65.536  1.00  0.00    -0.134 A  
HETATM   18  C   UNL     1      -7.316  19.994  65.398  1.00  0.00    -0.194 A  
HETATM   19  C   UNL     1      -6.176  19.253  65.091  1.00  0.00    -0.277 A  
ENDBRANCH  10  13
ENDBRANCH   3  10
BRANCH   6  20
HETATM   20  C   UNL     1      -9.024  11.335  66.397  1.00  0.00    -0.188 A  
HETATM   21  C   UNL     1     -10.051   7.728  67.122  1.00  0.00    -0.258 C  
HETATM   22  C   UNL     1      -9.232   8.904  66.650  1.00  0.00    -0.215 A  
HETATM   23  C   UNL     1      -7.330   7.450  66.022  1.00  0.00    -0.075 C  
HETATM   24  F   UNL     1     -11.281   8.073  67.593  1.00  0.00    -0.118 F  
HETATM   25  F   UNL     1     -10.280   6.825  66.131  1.00  0.00    -0.122 F  
HETATM   26  C   UNL     1      -7.228   9.872  65.685  1.00  0.00    -0.113 A  
HETATM   27  F   UNL     1      -9.446   7.047  68.132  1.00  0.00    -0.127 F  
HETATM   28  C   UNL     1      -9.758  10.203  66.767  1.00  0.00    -0.235 A  
HETATM   29  N   UNL     1      -6.822   6.410  65.952  1.00  0.00    -0.055 NA 
HETATM   30  C   UNL     1      -7.772  11.159  65.808  1.00  0.00     0.121 A  
HETATM   31  C   UNL     1      -7.946   8.745  66.118  1.00  0.00    -0.103 A  
ENDBRANCH   6  20
TORSDOF 3
ENDMDL
MODEL      139
REMARK 921   NORMALIZED FREE ENERGY PREDICTED BY IDOCK:   -4.30 KCAL/MOL
REMARK 922        TOTAL FREE ENERGY PREDICTED BY IDOCK:   -5.67 KCAL/MOL
REMARK 923 INTER-LIGAND FREE ENERGY PREDICTED BY IDOCK:   -5.42 KCAL/MOL
REMARK 924 INTRA-LIGAND FREE ENERGY PREDICTED BY IDOCK:   -0.25 KCAL/MOL
REMARK 927      BINDING AFFINITY PREDICTED BY RF-SCORE:    0.00 PKD
ROOT
HETATM    1  C   UNL     1      -8.178  11.954  66.714  1.00  0.00    -0.129 C  
HETATM    2  C   UNL     1      -7.445  11.373  67.935  1.00  0.00    -0.095 C  
HETATM    3  C   UNL     1      -7.206  12.402  69.042  1.00  0.00    -0.008 C  
HETATM    4  O   UNL     1      -6.202  10.791  67.538  1.00  0.00    -0.052 OA 
HETATM    5  C   UNL     1      -8.338  10.231  68.501  1.00  0.00    -0.116 C  
HETATM    6  N   UNL     1      -7.775   9.488  69.531  1.00  0.00    -0.090 N  
HETATM    7  H   UNL     1      -5.749  10.433  68.292  1.00  0.00     0.000 HD 
HETATM    8  H   UNL     1      -6.827   9.719  69.827  1.00  0.00     0.000 HD 
HETATM    9  O   UNL     1      -9.492  10.079  68.100  1.00  0.00    -0.138 OA 
ENDROOT
BRANCH   3  10
HETATM   10  S   UNL     1      -6.378  13.866  68.460  1.00  0.00    -0.104 S  
HETATM   11  O   UNL     1      -5.708  13.569  67.212  1.00  0.00    -0.346 OA 
HETATM   12  O   UNL     1      -5.647  14.431  69.585  1.00  0.00    -0.092 OA 
BRANCH  10  13
HETATM   13  C   UNL     1      -7.703  14.977  68.058  1.00  0.00    -0.123 A  
HETATM   14  C   UNL     1      -8.875  14.917  68.821  1.00  0.00    -0.183 A  
HETATM   15  C   UNL     1      -7.574  15.887  67.005  1.00  0.00    -0.264 A  
HETATM   16  F   UNL     1     -10.766  17.596  67.278  1.00  0.00    -0.345 F  
HETATM   17  C   UNL     1      -9.912  15.810  68.554  1.00  0.00    -0.208 A  
HETATM   18  C   UNL     1      -8.621  16.771  66.739  1.00  0.00    -0.264 A  
HETATM   19  C   UNL     1      -9.773  16.732  67.523  1.00  0.00    -0.252 A  
ENDBRANCH  10  13
ENDBRANCH   3  10
BRANCH   6  20
HETATM   20  C   UNL     1      -8.440   8.427  70.195  1.00  0.00    -0.126 A  
HETATM   21  C   UNL     1     -11.655   7.836  72.170  1.00  0.00    -0.317 C  
HETATM   22  C   UNL     1     -10.315   7.576  71.527  1.00  0.00    -0.216 A  
HETATM   23  C   UNL     1     -10.186   5.300  72.491  1.00  0.00    -0.191 C  
HETATM   24  F   UNL     1     -12.162   9.069  71.895  1.00  0.00    -0.354 F  
HETATM   25  F   UNL     1     -12.605   6.952  71.764  1.00  0.00    -0.353 F  
HETATM   26  C   UNL     1      -8.401   6.163  71.057  1.00  0.00    -0.124 A  
HETATM   27  F   UNL     1     -11.604   7.752  73.526  1.00  0.00    -0.247 F  
HETATM   28  C   UNL     1      -9.705   8.591  70.769  1.00  0.00    -0.221 A  
HETATM   29  N   UNL     1     -10.614   4.447  73.151  1.00  0.00    -0.186 NA 
HETATM   30  C   UNL     1      -7.810   7.187  70.302  1.00  0.00    -0.104 A  
HETATM   31  C   UNL     1      -9.642   6.358  71.684  1.00  0.00    -0.171 A  
ENDBRANCH   6  20
TORSDOF 3
ENDMDL
MODEL      140
REMARK 921   NORMALIZED FREE ENERGY PREDICTED BY IDOCK:   -4.27 KCAL/MOL
REMARK 922        TOTAL FREE ENERGY PREDICTED BY IDOCK:   -5.64 KCAL/MOL
REMARK 923 INTER-LIGAND FREE ENERGY PREDICTED BY IDOCK:   -5.43 KCAL/MOL
REMARK 924 INTRA-LIGAND FREE ENERGY PREDICTED BY IDOCK:   -0.21 KCAL/MOL
REMARK 927      BINDING AFFINITY PREDICTED BY RF-SCORE:    0.00 PKD
ROOT
HETATM    1  C   UNL     1     -10.952   6.794  67.553  1.00  0.00    -0.375 C  
HETATM    2  C   UNL     1     -10.579   7.702  68.736  1.00  0.00    -0.145 C  
HETATM    3  C   UNL     1      -9.145   7.494  69.230  1.00  0.00    -0.138 C  
HETATM    4  O   UNL     1     -11.495   7.512  69.816  1.00  0.00    -0.468 OA 
HETATM    5  C   UNL     1     -10.729   9.171  68.248  1.00  0.00    -0.122 C  
HETATM    6  N   UNL     1     -10.568  10.145  69.225  1.00  0.00    -0.215 N  
HETATM    7  H   UNL     1     -11.265   8.072  70.548  1.00  0.00     0.000 HD 
HETATM    8  H   UNL     1     -10.388   9.840  70.181  1.00  0.00     0.000 HD 
HETATM    9  O   UNL     1     -10.893   9.422  67.054  1.00  0.00    -0.187 OA 
ENDROOT
BRANCH   3  10
HETATM   10  S   UNL     1      -8.785   5.794  69.614  1.00  0.00    -0.123 S  
HETATM   11  O   UNL     1     -10.019   5.040  69.638  1.00  0.00    -0.201 OA 
HETATM   12  O   UNL     1      -7.881   5.786  70.755  1.00  0.00    -0.097 OA 
BRANCH  10  13
HETATM   13  C   UNL     1      -7.881   5.217  68.199  1.00  0.00    -0.087 A  
HETATM   14  C   UNL     1      -7.735   6.079  67.106  1.00  0.00    -0.101 A  
HETATM   15  C   UNL     1      -7.329   3.932  68.183  1.00  0.00    -0.059 A  
HETATM   16  F   UNL     1      -5.697   4.009  64.940  1.00  0.00    -0.012 F  
HETATM   17  C   UNL     1      -6.991   5.665  66.003  1.00  0.00    -0.063 A  
HETATM   18  C   UNL     1      -6.593   3.524  67.069  1.00  0.00    -0.038 A  
HETATM   19  C   UNL     1      -6.422   4.397  65.997  1.00  0.00    -0.040 A  
ENDBRANCH  10  13
ENDBRANCH   3  10
BRANCH   6  20
HETATM   20  C   UNL     1     -10.638  11.538  68.973  1.00  0.00    -0.173 A  
HETATM   21  C   UNL     1      -8.395  14.343  67.671  1.00  0.00    -0.179 C  
HETATM   22  C   UNL     1      -9.598  13.638  68.250  1.00  0.00    -0.215 A  
HETATM   23  C   UNL     1     -10.799  15.773  68.604  1.00  0.00    -0.278 C  
HETATM   24  F   UNL     1      -7.394  13.498  67.301  1.00  0.00    -0.165 F  
HETATM   25  F   UNL     1      -8.701  15.058  66.556  1.00  0.00    -0.270 F  
HETATM   26  C   UNL     1     -11.831  13.636  69.197  1.00  0.00    -0.394 A  
HETATM   27  F   UNL     1      -7.835  15.217  68.549  1.00  0.00    -0.118 F  
HETATM   28  C   UNL     1      -9.575  12.239  68.394  1.00  0.00    -0.183 A  
HETATM   29  N   UNL     1     -10.853  16.932  68.562  1.00  0.00    -0.354 NA 
HETATM   30  C   UNL     1     -11.790  12.240  69.330  1.00  0.00    -0.370 A  
HETATM   31  C   UNL     1     -10.734  14.339  68.674  1.00  0.00    -0.256 A  
ENDBRANCH   6  20
TORSDOF 3
ENDMDL
MODEL      141
REMARK 921   NORMALIZED FREE ENERGY PREDICTED BY IDOCK:   -4.27 KCAL/MOL
REMARK 922        TOTAL FREE ENERGY PREDICTED BY IDOCK:   -5.64 KCAL/MOL
REMARK 923 INTER-LIGAND FREE ENERGY PREDICTED BY IDOCK:   -5.11 KCAL/MOL
REMARK 924 INTRA-LIGAND FREE ENERGY PREDICTED BY IDOCK:   -0.53 KCAL/MOL
REMARK 927      BINDING AFFINITY PREDICTED BY RF-SCORE:    0.00 PKD
ROOT
HETATM    1  C   UNL     1      -6.491  12.028  69.360  1.00  0.00    -0.115 C  
HETATM    2  C   UNL     1      -7.664  11.371  68.614  1.00  0.00    -0.137 C  
HETATM    3  C   UNL     1      -8.013  12.074  67.300  1.00  0.00    -0.174 C  
HETATM    4  O   UNL     1      -8.818  11.313  69.454  1.00  0.00    -0.368 OA 
HETATM    5  C   UNL     1      -7.240   9.908  68.298  1.00  0.00    -0.078 C  
HETATM    6  N   UNL     1      -8.230   9.106  67.744  1.00  0.00    -0.109 N  
HETATM    7  H   UNL     1      -9.543  10.908  68.993  1.00  0.00     0.000 HD 
HETATM    8  H   UNL     1      -9.155   9.512  67.604  1.00  0.00     0.000 HD 
HETATM    9  O   UNL     1      -6.076   9.542  68.460  1.00  0.00    -0.044 OA 
ENDROOT
BRANCH   3  10
HETATM   10  S   UNL     1      -8.306  13.817  67.503  1.00  0.00    -0.203 S  
HETATM   11  O   UNL     1      -7.172  14.553  66.990  1.00  0.00    -0.079 OA 
HETATM   12  O   UNL     1      -8.780  14.026  68.863  1.00  0.00    -0.079 OA 
BRANCH  10  13
HETATM   13  C   UNL     1      -9.656  14.156  66.399  1.00  0.00    -0.293 A  
HETATM   14  C   UNL     1     -10.543  13.117  66.096  1.00  0.00    -0.288 A  
HETATM   15  C   UNL     1      -9.822  15.431  65.851  1.00  0.00    -0.387 A  
HETATM   16  F   UNL     1     -12.873  14.888  63.958  1.00  0.00    -0.319 F  
HETATM   17  C   UNL     1     -11.635  13.371  65.268  1.00  0.00    -0.329 A  
HETATM   18  C   UNL     1     -10.915  15.673  65.016  1.00  0.00    -0.445 A  
HETATM   19  C   UNL     1     -11.816  14.646  64.743  1.00  0.00    -0.440 A  
ENDBRANCH  10  13
ENDBRANCH   3  10
BRANCH   6  20
HETATM   20  C   UNL     1      -8.031   7.756  67.362  1.00  0.00    -0.119 A  
HETATM   21  C   UNL     1      -7.901   5.659  64.171  1.00  0.00    -0.112 C  
HETATM   22  C   UNL     1      -7.897   6.016  65.638  1.00  0.00    -0.103 A  
HETATM   23  C   UNL     1      -7.813   3.637  66.316  1.00  0.00    -0.089 C  
HETATM   24  F   UNL     1      -7.944   6.740  63.346  1.00  0.00    -0.112 F  
HETATM   25  F   UNL     1      -6.791   4.963  63.805  1.00  0.00    -0.042 F  
HETATM   26  C   UNL     1      -7.830   5.423  67.989  1.00  0.00    -0.092 A  
HETATM   27  F   UNL     1      -8.969   4.890  63.829  1.00  0.00    -0.145 F  
HETATM   28  C   UNL     1      -7.977   7.368  66.019  1.00  0.00    -0.115 A  
HETATM   29  N   UNL     1      -7.802   2.505  66.063  1.00  0.00    -0.080 NA 
HETATM   30  C   UNL     1      -7.908   6.777  68.348  1.00  0.00    -0.114 A  
HETATM   31  C   UNL     1      -7.841   5.038  66.638  1.00  0.00    -0.100 A  
ENDBRANCH   6  20
TORSDOF 3
ENDMDL
MODEL      142
REMARK 921   NORMALIZED FREE ENERGY PREDICTED BY IDOCK:   -4.20 KCAL/MOL
REMARK 922        TOTAL FREE ENERGY PREDICTED BY IDOCK:   -5.55 KCAL/MOL
REMARK 923 INTER-LIGAND FREE ENERGY PREDICTED BY IDOCK:   -5.43 KCAL/MOL
REMARK 924 INTRA-LIGAND FREE ENERGY PREDICTED BY IDOCK:   -0.12 KCAL/MOL
REMARK 927      BINDING AFFINITY PREDICTED BY RF-SCORE:    0.00 PKD
ROOT
HETATM    1  C   UNL     1      -9.783   9.992  70.368  1.00  0.00    -0.023 C  
HETATM    2  C   UNL     1     -10.678   9.413  69.260  1.00  0.00    -0.211 C  
HETATM    3  C   UNL     1     -10.757  10.306  68.019  1.00  0.00    -0.255 C  
HETATM    4  O   UNL     1     -11.993   9.164  69.761  1.00  0.00    -0.264 OA 
HETATM    5  C   UNL     1     -10.066   8.043  68.850  1.00  0.00    -0.201 C  
HETATM    6  N   UNL     1     -10.818   7.298  67.950  1.00  0.00    -0.450 N  
HETATM    7  H   UNL     1     -12.546   8.807  69.077  1.00  0.00     0.000 HD 
HETATM    8  H   UNL     1     -11.712   7.678  67.642  1.00  0.00     0.000 HD 
HETATM    9  O   UNL     1      -8.949   7.711  69.245  1.00  0.00    -0.136 OA 
ENDROOT
BRANCH   3  10
HETATM   10  S   UNL     1     -11.240  11.976  68.396  1.00  0.00    -0.288 S  
HETATM   11  O   UNL     1     -11.449  12.100  69.823  1.00  0.00    -0.260 OA 
HETATM   12  O   UNL     1     -12.281  12.355  67.453  1.00  0.00    -0.459 OA 
BRANCH  10  13
HETATM   13  C   UNL     1      -9.793  12.936  68.023  1.00  0.00    -0.223 A  
HETATM   14  C   UNL     1      -9.771  14.282  68.407  1.00  0.00    -0.225 A  
HETATM   15  C   UNL     1      -8.706  12.355  67.364  1.00  0.00    -0.183 A  
HETATM   16  F   UNL     1      -6.438  15.191  67.314  1.00  0.00    -0.189 F  
HETATM   17  C   UNL     1      -8.629  15.043  68.165  1.00  0.00    -0.156 A  
HETATM   18  C   UNL     1      -7.569  13.129  67.119  1.00  0.00    -0.008 A  
HETATM   19  C   UNL     1      -7.538  14.459  67.532  1.00  0.00    -0.193 A  
ENDBRANCH  10  13
ENDBRANCH   3  10
BRANCH   6  20
HETATM   20  C   UNL     1     -10.416   6.040  67.436  1.00  0.00    -0.246 A  
HETATM   21  C   UNL     1      -9.181   2.664  68.728  1.00  0.00    -0.166 C  
HETATM   22  C   UNL     1      -9.576   3.761  67.768  1.00  0.00    -0.193 A  
HETATM   23  C   UNL     1      -8.860   2.431  65.806  1.00  0.00    -0.128 C  
HETATM   24  F   UNL     1      -9.413   2.973  70.033  1.00  0.00    -0.200 F  
HETATM   25  F   UNL     1      -9.860   1.508  68.500  1.00  0.00    -0.235 F  
HETATM   26  C   UNL     1      -9.816   4.667  65.531  1.00  0.00    -0.198 A  
HETATM   27  F   UNL     1      -7.859   2.358  68.650  1.00  0.00    -0.052 F  
HETATM   28  C   UNL     1     -10.085   4.970  68.273  1.00  0.00    -0.170 A  
HETATM   29  N   UNL     1      -8.394   1.479  65.336  1.00  0.00    -0.078 NA 
HETATM   30  C   UNL     1     -10.325   5.865  66.055  1.00  0.00     0.146 A  
HETATM   31  C   UNL     1      -9.425   3.621  66.382  1.00  0.00    -0.184 A  
ENDBRANCH   6  20
TORSDOF 3
ENDMDL
MODEL      143
REMARK 921   NORMALIZED FREE ENERGY PREDICTED BY IDOCK:   -4.19 KCAL/MOL
REMARK 922        TOTAL FREE ENERGY PREDICTED BY IDOCK:   -5.54 KCAL/MOL
REMARK 923 INTER-LIGAND FREE ENERGY PREDICTED BY IDOCK:   -5.05 KCAL/MOL
REMARK 924 INTRA-LIGAND FREE ENERGY PREDICTED BY IDOCK:   -0.50 KCAL/MOL
REMARK 927      BINDING AFFINITY PREDICTED BY RF-SCORE:    0.00 PKD
ROOT
HETATM    1  C   UNL     1      -8.183  11.962  66.750  1.00  0.00    -0.129 C  
HETATM    2  C   UNL     1      -7.494  11.427  68.016  1.00  0.00    -0.100 C  
HETATM    3  C   UNL     1      -7.260  12.505  69.077  1.00  0.00     0.002 C  
HETATM    4  O   UNL     1      -6.255  10.800  67.681  1.00  0.00    -0.051 OA 
HETATM    5  C   UNL     1      -8.426  10.334  68.614  1.00  0.00    -0.127 C  
HETATM    6  N   UNL     1      -7.906   9.632  69.694  1.00  0.00    -0.112 N  
HETATM    7  H   UNL     1      -5.830  10.470  68.463  1.00  0.00     0.000 HD 
HETATM    8  H   UNL     1      -6.961   9.857  70.003  1.00  0.00     0.000 HD 
HETATM    9  O   UNL     1      -9.573  10.187  68.192  1.00  0.00    -0.138 OA 
ENDROOT
BRANCH   3  10
HETATM   10  S   UNL     1      -6.385  13.920  68.446  1.00  0.00    -0.118 S  
HETATM   11  O   UNL     1      -5.707  13.553  67.222  1.00  0.00    -0.346 OA 
HETATM   12  O   UNL     1      -5.656  14.515  69.555  1.00  0.00    -0.090 OA 
BRANCH  10  13
HETATM   13  C   UNL     1      -7.675  15.047  67.976  1.00  0.00    -0.123 A  
HETATM   14  C   UNL     1      -8.857  15.054  68.726  1.00  0.00    -0.192 A  
HETATM   15  C   UNL     1      -7.508  15.904  66.884  1.00  0.00    -0.233 A  
HETATM   16  F   UNL     1     -10.656  17.708  67.037  1.00  0.00    -0.333 F  
HETATM   17  C   UNL     1      -9.866  15.960  68.405  1.00  0.00    -0.214 A  
HETATM   18  C   UNL     1      -8.528  16.803  66.565  1.00  0.00    -0.318 A  
HETATM   19  C   UNL     1      -9.689  16.830  67.334  1.00  0.00    -0.245 A  
ENDBRANCH  10  13
ENDBRANCH   3  10
BRANCH   6  20
HETATM   20  C   UNL     1      -8.611   8.620  70.392  1.00  0.00    -0.153 A  
HETATM   21  C   UNL     1      -9.707   4.997  69.874  1.00  0.00    -0.196 C  
HETATM   22  C   UNL     1      -9.548   6.356  70.511  1.00  0.00    -0.179 A  
HETATM   23  C   UNL     1     -11.062   5.765  72.378  1.00  0.00    -0.281 C  
HETATM   24  F   UNL     1      -8.995   4.847  68.724  1.00  0.00    -0.101 F  
HETATM   25  F   UNL     1      -9.296   3.991  70.692  1.00  0.00    -0.154 F  
HETATM   26  C   UNL     1     -10.004   7.968  72.265  1.00  0.00    -0.304 A  
HETATM   27  F   UNL     1     -10.998   4.726  69.547  1.00  0.00     0.040 F  
HETATM   28  C   UNL     1      -8.752   7.326  69.877  1.00  0.00    -0.141 A  
HETATM   29  N   UNL     1     -11.775   5.025  72.916  1.00  0.00    -0.204 NA 
HETATM   30  C   UNL     1      -9.204   8.921  71.618  1.00  0.00    -0.302 A  
HETATM   31  C   UNL     1     -10.192   6.693  71.709  1.00  0.00    -0.206 A  
ENDBRANCH   6  20
TORSDOF 3
ENDMDL
MODEL      144
REMARK 921   NORMALIZED FREE ENERGY PREDICTED BY IDOCK:   -4.13 KCAL/MOL
REMARK 922        TOTAL FREE ENERGY PREDICTED BY IDOCK:   -5.47 KCAL/MOL
REMARK 923 INTER-LIGAND FREE ENERGY PREDICTED BY IDOCK:   -5.24 KCAL/MOL
REMARK 924 INTRA-LIGAND FREE ENERGY PREDICTED BY IDOCK:   -0.23 KCAL/MOL
REMARK 927      BINDING AFFINITY PREDICTED BY RF-SCORE:    0.00 PKD
ROOT
HETATM    1  C   UNL     1      -9.044   9.888  67.004  1.00  0.00    -0.156 C  
HETATM    2  C   UNL     1      -9.503  10.783  68.167  1.00  0.00    -0.158 C  
HETATM    3  C   UNL     1      -9.119  10.231  69.541  1.00  0.00    -0.167 C  
HETATM    4  O   UNL     1     -10.914  10.992  68.106  1.00  0.00    -0.208 OA 
HETATM    5  C   UNL     1      -8.815  12.165  67.976  1.00  0.00    -0.181 C  
HETATM    6  N   UNL     1      -9.218  13.160  68.858  1.00  0.00    -0.373 N  
HETATM    7  H   UNL     1     -11.198  11.545  68.825  1.00  0.00     0.000 HD 
HETATM    8  H   UNL     1      -9.937  12.930  69.544  1.00  0.00     0.000 HD 
HETATM    9  O   UNL     1      -7.917  12.311  67.146  1.00  0.00    -0.169 OA 
ENDROOT
BRANCH   3  10
HETATM   10  S   UNL     1      -9.667   8.557  69.794  1.00  0.00    -0.182 S  
HETATM   11  O   UNL     1     -10.810   8.298  68.945  1.00  0.00    -0.116 OA 
HETATM   12  O   UNL     1      -9.734   8.330  71.229  1.00  0.00    -0.161 OA 
BRANCH  10  13
HETATM   13  C   UNL     1      -8.339   7.569  69.149  1.00  0.00    -0.135 A  
HETATM   14  C   UNL     1      -8.652   6.341  68.554  1.00  0.00    -0.114 A  
HETATM   15  C   UNL     1      -7.016   8.013  69.235  1.00  0.00    -0.056 A  
HETATM   16  F   UNL     1      -5.344   5.284  67.519  1.00  0.00    -0.009 F  
HETATM   17  C   UNL     1      -7.632   5.570  68.000  1.00  0.00    -0.081 A  
HETATM   18  C   UNL     1      -6.000   7.228  68.685  1.00  0.00    -0.026 A  
HETATM   19  C   UNL     1      -6.319   6.022  68.064  1.00  0.00    -0.044 A  
ENDBRANCH  10  13
ENDBRANCH   3  10
BRANCH   6  20
HETATM   20  C   UNL     1      -8.689  14.474  68.863  1.00  0.00    -0.105 A  
HETATM   21  C   UNL     1      -9.867  18.053  68.234  1.00  0.00    -0.355 C  
HETATM   22  C   UNL     1      -8.952  16.890  68.531  1.00  0.00    -0.254 A  
HETATM   23  C   UNL     1      -6.946  18.341  68.520  1.00  0.00    -0.254 C  
HETATM   24  F   UNL     1     -11.179  17.705  68.142  1.00  0.00    -0.285 F  
HETATM   25  F   UNL     1      -9.810  19.015  69.193  1.00  0.00    -0.404 F  
HETATM   26  C   UNL     1      -6.761  15.941  68.962  1.00  0.00    -0.151 A  
HETATM   27  F   UNL     1      -9.563  18.663  67.057  1.00  0.00    -0.280 F  
HETATM   28  C   UNL     1      -9.494  15.597  68.642  1.00  0.00    -0.204 A  
HETATM   29  N   UNL     1      -6.437  19.374  68.384  1.00  0.00    -0.238 NA 
HETATM   30  C   UNL     1      -7.322  14.659  69.071  1.00  0.00    -0.134 A  
HETATM   31  C   UNL     1      -7.568  17.054  68.676  1.00  0.00    -0.238 A  
ENDBRANCH   6  20
TORSDOF 3
ENDMDL
MODEL      145
REMARK 921   NORMALIZED FREE ENERGY PREDICTED BY IDOCK:   -4.08 KCAL/MOL
REMARK 922        TOTAL FREE ENERGY PREDICTED BY IDOCK:   -5.41 KCAL/MOL
REMARK 923 INTER-LIGAND FREE ENERGY PREDICTED BY IDOCK:   -5.37 KCAL/MOL
REMARK 924 INTRA-LIGAND FREE ENERGY PREDICTED BY IDOCK:   -0.04 KCAL/MOL
REMARK 927      BINDING AFFINITY PREDICTED BY RF-SCORE:    0.00 PKD
ROOT
HETATM    1  C   UNL     1      -9.196   7.305  67.383  1.00  0.00    -0.140 C  
HETATM    2  C   UNL     1      -9.895   8.517  68.019  1.00  0.00    -0.169 C  
HETATM    3  C   UNL     1     -10.164   8.342  69.516  1.00  0.00    -0.207 C  
HETATM    4  O   UNL     1     -11.119   8.799  67.338  1.00  0.00    -0.418 OA 
HETATM    5  C   UNL     1      -8.955   9.740  67.821  1.00  0.00    -0.128 C  
HETATM    6  N   UNL     1      -9.480  10.966  68.211  1.00  0.00    -0.161 N  
HETATM    7  H   UNL     1     -11.551   9.548  67.731  1.00  0.00     0.000 HD 
HETATM    8  H   UNL     1     -10.434  10.987  68.572  1.00  0.00     0.000 HD 
HETATM    9  O   UNL     1      -7.800   9.587  67.425  1.00  0.00    -0.101 OA 
ENDROOT
BRANCH   3  10
HETATM   10  S   UNL     1     -11.051   6.847  69.891  1.00  0.00    -0.282 S  
HETATM   11  O   UNL     1     -11.457   6.212  68.656  1.00  0.00    -0.223 OA 
HETATM   12  O   UNL     1     -12.026   7.164  70.925  1.00  0.00    -0.326 OA 
BRANCH  10  13
HETATM   13  C   UNL     1      -9.821   5.787  70.611  1.00  0.00    -0.187 A  
HETATM   14  C   UNL     1      -8.782   6.376  71.341  1.00  0.00    -0.131 A  
HETATM   15  C   UNL     1      -9.894   4.401  70.448  1.00  0.00    -0.286 A  
HETATM   16  F   UNL     1      -7.008   3.403  72.413  1.00  0.00    -0.032 F  
HETATM   17  C   UNL     1      -7.830   5.562  71.953  1.00  0.00    -0.109 A  
HETATM   18  C   UNL     1      -8.930   3.594  71.058  1.00  0.00    -0.159 A  
HETATM   19  C   UNL     1      -7.917   4.181  71.813  1.00  0.00    -0.083 A  
ENDBRANCH  10  13
ENDBRANCH   3  10
BRANCH   6  20
HETATM   20  C   UNL     1      -8.770  12.190  68.136  1.00  0.00    -0.185 A  
HETATM   21  C   UNL     1      -9.207  15.685  66.658  1.00  0.00    -0.266 C  
HETATM   22  C   UNL     1      -8.575  14.509  67.361  1.00  0.00    -0.213 A  
HETATM   23  C   UNL     1      -6.421  15.700  67.622  1.00  0.00    -0.165 C  
HETATM   24  F   UNL     1     -10.502  15.473  66.295  1.00  0.00    -0.272 F  
HETATM   25  F   UNL     1      -9.223  16.803  67.431  1.00  0.00    -0.211 F  
HETATM   26  C   UNL     1      -6.714  13.427  68.479  1.00  0.00    -0.096 A  
HETATM   27  F   UNL     1      -8.553  16.017  65.513  1.00  0.00    -0.167 F  
HETATM   28  C   UNL     1      -9.320  13.330  67.540  1.00  0.00    -0.218 A  
HETATM   29  N   UNL     1      -5.740  16.624  67.453  1.00  0.00    -0.141 NA 
HETATM   30  C   UNL     1      -7.475  12.261  68.649  1.00  0.00    -0.100 A  
HETATM   31  C   UNL     1      -7.253  14.545  67.822  1.00  0.00    -0.192 A  
ENDBRANCH   6  20
TORSDOF 3
ENDMDL
MODEL      146
REMARK 921   NORMALIZED FREE ENERGY PREDICTED BY IDOCK:   -4.01 KCAL/MOL
REMARK 922        TOTAL FREE ENERGY PREDICTED BY IDOCK:   -5.33 KCAL/MOL
REMARK 923 INTER-LIGAND FREE ENERGY PREDICTED BY IDOCK:   -5.35 KCAL/MOL
REMARK 924 INTRA-LIGAND FREE ENERGY PREDICTED BY IDOCK:    0.02 KCAL/MOL
REMARK 927      BINDING AFFINITY PREDICTED BY RF-SCORE:    0.00 PKD
ROOT
HETATM    1  C   UNL     1     -12.534  14.909  69.287  1.00  0.00    -0.023 C  
HETATM    2  C   UNL     1     -11.368  14.384  68.433  1.00  0.00    -0.287 C  
HETATM    3  C   UNL     1     -10.092  15.217  68.576  1.00  0.00    -0.228 C  
HETATM    4  O   UNL     1     -11.750  14.314  67.058  1.00  0.00    -0.366 OA 
HETATM    5  C   UNL     1     -11.072  12.934  68.912  1.00  0.00    -0.255 C  
HETATM    6  N   UNL     1     -10.134  12.237  68.160  1.00  0.00    -0.206 N  
HETATM    7  H   UNL     1     -11.030  13.990  66.531  1.00  0.00     0.000 HD 
HETATM    8  H   UNL     1      -9.726  12.703  67.350  1.00  0.00     0.000 HD 
HETATM    9  O   UNL     1     -11.586  12.494  69.940  1.00  0.00    -0.255 OA 
ENDROOT
BRANCH   3  10
HETATM   10  S   UNL     1     -10.357  16.949  68.265  1.00  0.00    -0.356 S  
HETATM   11  O   UNL     1     -10.651  17.617  69.514  1.00  0.00    -0.099 OA 
HETATM   12  O   UNL     1     -11.259  17.056  67.128  1.00  0.00     0.065 OA 
BRANCH  10  13
HETATM   13  C   UNL     1      -8.763  17.540  67.752  1.00  0.00    -0.230 A  
HETATM   14  C   UNL     1      -8.514  17.675  66.381  1.00  0.00    -0.279 A  
HETATM   15  C   UNL     1      -7.786  17.863  68.698  1.00  0.00    -0.293 A  
HETATM   16  F   UNL     1      -5.151  19.022  66.484  1.00  0.00    -0.136 F  
HETATM   17  C   UNL     1      -7.287  18.180  65.955  1.00  0.00    -0.290 A  
HETATM   18  C   UNL     1      -6.556  18.360  68.261  1.00  0.00    -0.224 A  
HETATM   19  C   UNL     1      -6.324  18.525  66.897  1.00  0.00    -0.178 A  
ENDBRANCH  10  13
ENDBRANCH   3  10
BRANCH   6  20
HETATM   20  C   UNL     1      -9.709  10.917  68.453  1.00  0.00    -0.176 A  
HETATM   21  C   UNL     1      -8.463   7.818  66.599  1.00  0.00    -0.129 C  
HETATM   22  C   UNL     1      -8.918   8.712  67.727  1.00  0.00    -0.140 A  
HETATM   23  C   UNL     1      -8.817   6.858  69.365  1.00  0.00    -0.136 C  
HETATM   24  F   UNL     1      -8.362   8.458  65.402  1.00  0.00    -0.122 F  
HETATM   25  F   UNL     1      -7.235   7.280  66.829  1.00  0.00    -0.074 F  
HETATM   26  C   UNL     1      -9.485   9.109  70.052  1.00  0.00    -0.218 A  
HETATM   27  F   UNL     1      -9.309   6.775  66.391  1.00  0.00    -0.165 F  
HETATM   28  C   UNL     1      -9.230  10.056  67.459  1.00  0.00    -0.151 A  
HETATM   29  N   UNL     1      -8.628   5.745  69.634  1.00  0.00    -0.115 NA 
HETATM   30  C   UNL     1      -9.789  10.449  69.764  1.00  0.00    -0.134 A  
HETATM   31  C   UNL     1      -9.066   8.235  69.036  1.00  0.00    -0.147 A  
ENDBRANCH   6  20
TORSDOF 3
ENDMDL
MODEL      147
REMARK 921   NORMALIZED FREE ENERGY PREDICTED BY IDOCK:   -3.99 KCAL/MOL
REMARK 922        TOTAL FREE ENERGY PREDICTED BY IDOCK:   -5.30 KCAL/MOL
REMARK 923 INTER-LIGAND FREE ENERGY PREDICTED BY IDOCK:   -5.70 KCAL/MOL
REMARK 924 INTRA-LIGAND FREE ENERGY PREDICTED BY IDOCK:    0.40 KCAL/MOL
REMARK 927      BINDING AFFINITY PREDICTED BY RF-SCORE:    0.00 PKD
ROOT
HETATM    1  C   UNL     1      -6.941  12.648  67.171  1.00  0.00    -0.031 C  
HETATM    2  C   UNL     1      -8.197  12.062  67.836  1.00  0.00    -0.153 C  
HETATM    3  C   UNL     1      -9.474  12.293  67.026  1.00  0.00    -0.204 C  
HETATM    4  O   UNL     1      -8.356  12.593  69.153  1.00  0.00    -0.259 OA 
HETATM    5  C   UNL     1      -7.966  10.530  67.974  1.00  0.00    -0.106 C  
HETATM    6  N   UNL     1      -8.941   9.840  68.684  1.00  0.00    -0.127 N  
HETATM    7  H   UNL     1      -9.132  12.232  69.564  1.00  0.00     0.000 HD 
HETATM    8  H   UNL     1      -9.715  10.374  69.079  1.00  0.00     0.000 HD 
HETATM    9  O   UNL     1      -7.019   9.984  67.407  1.00  0.00    -0.081 OA 
ENDROOT
BRANCH   3  10
HETATM   10  S   UNL     1      -9.733  14.005  66.614  1.00  0.00    -0.297 S  
HETATM   11  O   UNL     1     -10.717  14.096  65.558  1.00  0.00    -0.298 OA 
HETATM   12  O   UNL     1      -8.423  14.623  66.470  1.00  0.00    -0.111 OA 
BRANCH  10  13
HETATM   13  C   UNL     1     -10.499  14.684  68.064  1.00  0.00    -0.236 A  
HETATM   14  C   UNL     1     -11.472  13.921  68.721  1.00  0.00    -0.327 A  
HETATM   15  C   UNL     1     -10.136  15.950  68.534  1.00  0.00    -0.217 A  
HETATM   16  F   UNL     1     -12.229  16.124  71.497  1.00  0.00    -0.432 F  
HETATM   17  C   UNL     1     -12.055  14.413  69.887  1.00  0.00    -0.398 A  
HETATM   18  C   UNL     1     -10.733  16.438  69.699  1.00  0.00    -0.337 A  
HETATM   19  C   UNL     1     -11.676  15.661  70.369  1.00  0.00    -0.357 A  
ENDBRANCH  10  13
ENDBRANCH   3  10
BRANCH   6  20
HETATM   20  C   UNL     1      -8.924   8.439  68.893  1.00  0.00    -0.146 A  
HETATM   21  C   UNL     1      -9.336   5.223  66.872  1.00  0.00    -0.127 C  
HETATM   22  C   UNL     1      -9.146   6.145  68.052  1.00  0.00    -0.114 A  
HETATM   23  C   UNL     1      -9.243   4.266  69.659  1.00  0.00    -0.135 C  
HETATM   24  F   UNL     1      -9.348   5.867  65.673  1.00  0.00    -0.161 F  
HETATM   25  F   UNL     1      -8.347   4.294  66.777  1.00  0.00    -0.101 F  
HETATM   26  C   UNL     1      -8.905   6.564  70.429  1.00  0.00    -0.151 A  
HETATM   27  F   UNL     1     -10.507   4.536  66.935  1.00  0.00    -0.230 F  
HETATM   28  C   UNL     1      -9.046   7.531  67.835  1.00  0.00    -0.130 A  
HETATM   29  N   UNL     1      -9.376   3.139  69.903  1.00  0.00    -0.157 NA 
HETATM   30  C   UNL     1      -8.805   7.943  70.191  1.00  0.00    -0.144 A  
HETATM   31  C   UNL     1      -9.092   5.665  69.366  1.00  0.00    -0.134 A  
ENDBRANCH   6  20
TORSDOF 3
ENDMDL
MODEL      148
REMARK 921   NORMALIZED FREE ENERGY PREDICTED BY IDOCK:   -3.98 KCAL/MOL
REMARK 922        TOTAL FREE ENERGY PREDICTED BY IDOCK:   -5.30 KCAL/MOL
REMARK 923 INTER-LIGAND FREE ENERGY PREDICTED BY IDOCK:   -4.83 KCAL/MOL
REMARK 924 INTRA-LIGAND FREE ENERGY PREDICTED BY IDOCK:   -0.47 KCAL/MOL
REMARK 927      BINDING AFFINITY PREDICTED BY RF-SCORE:    0.00 PKD
ROOT
HETATM    1  C   UNL     1      -7.501   9.417  66.215  1.00  0.00    -0.096 C  
HETATM    2  C   UNL     1      -7.906   9.691  67.673  1.00  0.00    -0.095 C  
HETATM    3  C   UNL     1      -9.117  10.619  67.799  1.00  0.00    -0.143 C  
HETATM    4  O   UNL     1      -6.804  10.232  68.402  1.00  0.00    -0.060 OA 
HETATM    5  C   UNL     1      -8.263   8.318  68.312  1.00  0.00    -0.128 C  
HETATM    6  N   UNL     1      -8.522   8.343  69.676  1.00  0.00    -0.125 N  
HETATM    7  H   UNL     1      -7.054  10.401  69.302  1.00  0.00     0.000 HD 
HETATM    8  H   UNL     1      -8.442   9.236  70.163  1.00  0.00     0.000 HD 
HETATM    9  O   UNL     1      -8.383   7.312  67.613  1.00  0.00    -0.116 OA 
ENDROOT
BRANCH   3  10
HETATM   10  S   UNL     1      -8.913  12.149  66.915  1.00  0.00    -0.203 S  
HETATM   11  O   UNL     1      -9.509  12.023  65.603  1.00  0.00    -0.221 OA 
HETATM   12  O   UNL     1      -7.526  12.562  67.069  1.00  0.00    -0.114 OA 
BRANCH  10  13
HETATM   13  C   UNL     1      -9.926  13.300  67.810  1.00  0.00    -0.223 A  
HETATM   14  C   UNL     1     -11.302  13.051  67.891  1.00  0.00    -0.327 A  
HETATM   15  C   UNL     1      -9.359  14.424  68.417  1.00  0.00    -0.206 A  
HETATM   16  F   UNL     1     -12.322  15.841  69.967  1.00  0.00    -0.367 F  
HETATM   17  C   UNL     1     -12.111  13.916  68.626  1.00  0.00    -0.337 A  
HETATM   18  C   UNL     1     -10.180  15.289  69.144  1.00  0.00    -0.242 A  
HETATM   19  C   UNL     1     -11.543  15.021  69.251  1.00  0.00    -0.315 A  
ENDBRANCH  10  13
ENDBRANCH   3  10
BRANCH   6  20
HETATM   20  C   UNL     1      -8.891   7.203  70.432  1.00  0.00    -0.151 A  
HETATM   21  C   UNL     1      -7.630   3.658  71.095  1.00  0.00    -0.044 C  
HETATM   22  C   UNL     1      -8.512   4.883  71.131  1.00  0.00    -0.122 A  
HETATM   23  C   UNL     1     -10.264   3.700  72.418  1.00  0.00    -0.145 C  
HETATM   24  F   UNL     1      -6.455   3.852  70.435  1.00  0.00    -0.027 F  
HETATM   25  F   UNL     1      -7.284   3.232  72.339  1.00  0.00    -0.040 F  
HETATM   26  C   UNL     1     -10.533   6.050  71.791  1.00  0.00    -0.268 A  
HETATM   27  F   UNL     1      -8.230   2.606  70.478  1.00  0.00    -0.048 F  
HETATM   28  C   UNL     1      -8.092   6.055  70.478  1.00  0.00    -0.112 A  
HETATM   29  N   UNL     1     -10.687   2.746  72.925  1.00  0.00    -0.132 NA 
HETATM   30  C   UNL     1     -10.095   7.210  71.136  1.00  0.00    -0.193 A  
HETATM   31  C   UNL     1      -9.754   4.881  71.778  1.00  0.00    -0.223 A  
ENDBRANCH   6  20
TORSDOF 3
ENDMDL
MODEL      149
REMARK 921   NORMALIZED FREE ENERGY PREDICTED BY IDOCK:   -3.96 KCAL/MOL
REMARK 922        TOTAL FREE ENERGY PREDICTED BY IDOCK:   -5.28 KCAL/MOL
REMARK 923 INTER-LIGAND FREE ENERGY PREDICTED BY IDOCK:   -5.33 KCAL/MOL
REMARK 924 INTRA-LIGAND FREE ENERGY PREDICTED BY IDOCK:    0.05 KCAL/MOL
REMARK 927      BINDING AFFINITY PREDICTED BY RF-SCORE:    0.00 PKD
ROOT
HETATM    1  C   UNL     1      -8.997   6.855  68.542  1.00  0.00    -0.122 C  
HETATM    2  C   UNL     1     -10.083   7.932  68.696  1.00  0.00    -0.197 C  
HETATM    3  C   UNL     1     -10.616   8.052  70.125  1.00  0.00    -0.237 C  
HETATM    4  O   UNL     1     -11.164   7.680  67.796  1.00  0.00    -0.461 OA 
HETATM    5  C   UNL     1      -9.440   9.288  68.288  1.00  0.00    -0.138 C  
HETATM    6  N   UNL     1     -10.312  10.368  68.229  1.00  0.00    -0.162 N  
HETATM    7  H   UNL     1     -11.835   8.345  67.891  1.00  0.00     0.000 HD 
HETATM    8  H   UNL     1     -11.297  10.202  68.430  1.00  0.00     0.000 HD 
HETATM    9  O   UNL     1      -8.224   9.381  68.121  1.00  0.00    -0.116 OA 
ENDROOT
BRANCH   3  10
HETATM   10  S   UNL     1     -11.183   6.501  70.787  1.00  0.00    -0.343 S  
HETATM   11  O   UNL     1     -11.209   5.514  69.730  1.00  0.00    -0.152 OA 
HETATM   12  O   UNL     1     -12.370   6.773  71.585  1.00  0.00    -0.345 OA 
BRANCH  10  13
HETATM   13  C   UNL     1      -9.885   6.007  71.894  1.00  0.00    -0.161 A  
HETATM   14  C   UNL     1      -9.046   6.997  72.418  1.00  0.00    -0.147 A  
HETATM   15  C   UNL     1      -9.711   4.661  72.229  1.00  0.00    -0.213 A  
HETATM   16  F   UNL     1      -6.941   4.966  74.557  1.00  0.00    -0.067 F  
HETATM   17  C   UNL     1      -8.049   6.639  73.323  1.00  0.00    -0.111 A  
HETATM   18  C   UNL     1      -8.703   4.311  73.131  1.00  0.00    -0.100 A  
HETATM   19  C   UNL     1      -7.892   5.303  73.677  1.00  0.00    -0.103 A  
ENDBRANCH  10  13
ENDBRANCH   3  10
BRANCH   6  20
HETATM   20  C   UNL     1      -9.912  11.689  67.905  1.00  0.00    -0.182 A  
HETATM   21  C   UNL     1      -6.957  14.032  68.513  1.00  0.00    -0.103 C  
HETATM   22  C   UNL     1      -8.305  13.536  68.048  1.00  0.00    -0.168 A  
HETATM   23  C   UNL     1      -8.954  15.778  67.225  1.00  0.00    -0.196 C  
HETATM   24  F   UNL     1      -6.186  13.065  69.080  1.00  0.00    -0.077 F  
HETATM   25  F   UNL     1      -6.214  14.542  67.495  1.00  0.00    -0.166 F  
HETATM   26  C   UNL     1     -10.469  13.869  67.004  1.00  0.00    -0.278 A  
HETATM   27  F   UNL     1      -7.061  15.016  69.446  1.00  0.00    -0.131 F  
HETATM   28  C   UNL     1      -8.657  12.192  68.265  1.00  0.00    -0.175 A  
HETATM   29  N   UNL     1      -8.741  16.908  67.070  1.00  0.00    -0.201 NA 
HETATM   30  C   UNL     1     -10.801  12.525  67.228  1.00  0.00    -0.277 A  
HETATM   31  C   UNL     1      -9.232  14.382  67.427  1.00  0.00    -0.199 A  
ENDBRANCH   6  20
TORSDOF 3
ENDMDL
MODEL      150
REMARK 921   NORMALIZED FREE ENERGY PREDICTED BY IDOCK:   -3.96 KCAL/MOL
REMARK 922        TOTAL FREE ENERGY PREDICTED BY IDOCK:   -5.27 KCAL/MOL
REMARK 923 INTER-LIGAND FREE ENERGY PREDICTED BY IDOCK:   -6.52 KCAL/MOL
REMARK 924 INTRA-LIGAND FREE ENERGY PREDICTED BY IDOCK:    1.25 KCAL/MOL
REMARK 927      BINDING AFFINITY PREDICTED BY RF-SCORE:    0.00 PKD
ROOT
HETATM    1  C   UNL     1      -9.599   6.163  66.177  1.00  0.00    -0.071 C  
HETATM    2  C   UNL     1     -10.070   7.118  67.286  1.00  0.00    -0.215 C  
HETATM    3  C   UNL     1      -9.188   7.073  68.536  1.00  0.00    -0.137 C  
HETATM    4  O   UNL     1     -11.425   6.838  67.640  1.00  0.00    -0.650 OA 
HETATM    5  C   UNL     1     -10.026   8.557  66.696  1.00  0.00    -0.293 C  
HETATM    6  N   UNL     1     -10.552   9.552  67.511  1.00  0.00    -0.275 N  
HETATM    7  H   UNL     1     -11.716   7.428  68.325  1.00  0.00     0.000 HD 
HETATM    8  H   UNL     1     -10.944   9.278  68.411  1.00  0.00     0.000 HD 
HETATM    9  O   UNL     1      -9.478   8.777  65.617  1.00  0.00    -0.200 OA 
ENDROOT
BRANCH   3  10
HETATM   10  S   UNL     1      -8.981   5.428  69.181  1.00  0.00    -0.105 S  
HETATM   11  O   UNL     1     -10.272   4.776  69.243  1.00  0.00    -0.189 OA 
HETATM   12  O   UNL     1      -8.134   5.523  70.359  1.00  0.00    -0.099 OA 
BRANCH  10  13
HETATM   13  C   UNL     1      -8.063   4.584  67.916  1.00  0.00    -0.092 A  
HETATM   14  C   UNL     1      -8.168   3.191  67.837  1.00  0.00    -0.087 A  
HETATM   15  C   UNL     1      -7.257   5.299  67.026  1.00  0.00    -0.078 A  
HETATM   16  F   UNL     1      -6.074   2.568  64.945  1.00  0.00    -0.016 F  
HETATM   17  C   UNL     1      -7.492   2.511  66.825  1.00  0.00    -0.070 A  
HETATM   18  C   UNL     1      -6.577   4.608  66.021  1.00  0.00    -0.045 A  
HETATM   19  C   UNL     1      -6.711   3.224  65.923  1.00  0.00    -0.044 A  
ENDBRANCH  10  13
ENDBRANCH   3  10
BRANCH   6  20
HETATM   20  C   UNL     1     -10.577  10.925  67.164  1.00  0.00    -0.255 A  
HETATM   21  C   UNL     1     -12.372  13.243  64.714  1.00  0.00    -0.402 C  
HETATM   22  C   UNL     1     -11.418  12.771  65.785  1.00  0.00    -0.388 A  
HETATM   23  C   UNL     1     -10.320  14.985  65.917  1.00  0.00    -0.313 C  
HETATM   24  F   UNL     1     -13.241  12.282  64.296  1.00  0.00    -0.483 F  
HETATM   25  F   UNL     1     -13.146  14.280  65.131  1.00  0.00    -0.429 F  
HETATM   26  C   UNL     1      -9.602  13.137  67.351  1.00  0.00    -0.219 A  
HETATM   27  F   UNL     1     -11.725  13.668  63.596  1.00  0.00    -0.411 F  
HETATM   28  C   UNL     1     -11.471  11.433  66.214  1.00  0.00    -0.028 A  
HETATM   29  N   UNL     1     -10.193  16.083  65.563  1.00  0.00    -0.458 NA 
HETATM   30  C   UNL     1      -9.672  11.799  67.767  1.00  0.00    -0.185 A  
HETATM   31  C   UNL     1     -10.460  13.622  66.351  1.00  0.00    -0.288 A  
ENDBRANCH   6  20
TORSDOF 3
ENDMDL
MODEL      151
REMARK 921   NORMALIZED FREE ENERGY PREDICTED BY IDOCK:   -3.92 KCAL/MOL
REMARK 922        TOTAL FREE ENERGY PREDICTED BY IDOCK:   -5.22 KCAL/MOL
REMARK 923 INTER-LIGAND FREE ENERGY PREDICTED BY IDOCK:   -4.75 KCAL/MOL
REMARK 924 INTRA-LIGAND FREE ENERGY PREDICTED BY IDOCK:   -0.47 KCAL/MOL
REMARK 927      BINDING AFFINITY PREDICTED BY RF-SCORE:    0.00 PKD
ROOT
HETATM    1  C   UNL     1      -6.212   7.488  68.405  1.00  0.00    -0.036 C  
HETATM    2  C   UNL     1      -6.829   8.086  67.130  1.00  0.00    -0.073 C  
HETATM    3  C   UNL     1      -7.943   7.221  66.536  1.00  0.00    -0.115 C  
HETATM    4  O   UNL     1      -5.818   8.314  66.148  1.00  0.00    -0.039 OA 
HETATM    5  C   UNL     1      -7.426   9.468  67.519  1.00  0.00    -0.091 C  
HETATM    6  N   UNL     1      -7.910  10.229  66.462  1.00  0.00    -0.112 N  
HETATM    7  H   UNL     1      -6.199   8.683  65.360  1.00  0.00     0.000 HD 
HETATM    8  H   UNL     1      -7.824   9.849  65.519  1.00  0.00     0.000 HD 
HETATM    9  O   UNL     1      -7.527   9.799  68.700  1.00  0.00    -0.074 OA 
ENDROOT
BRANCH   3  10
HETATM   10  S   UNL     1      -7.437   5.539  66.250  1.00  0.00    -0.087 S  
HETATM   11  O   UNL     1      -7.648   4.767  67.455  1.00  0.00    -0.081 OA 
HETATM   12  O   UNL     1      -6.133   5.578  65.605  1.00  0.00    -0.027 OA 
BRANCH  10  13
HETATM   13  C   UNL     1      -8.612   4.934  65.064  1.00  0.00    -0.147 A  
HETATM   14  C   UNL     1      -9.664   4.130  65.521  1.00  0.00    -0.202 A  
HETATM   15  C   UNL     1      -8.486   5.255  63.709  1.00  0.00    -0.096 A  
HETATM   16  F   UNL     1     -11.443   3.598  62.409  1.00  0.00    -0.000 F  
HETATM   17  C   UNL     1     -10.624   3.681  64.616  1.00  0.00    -0.045 A  
HETATM   18  C   UNL     1      -9.448   4.793  62.809  1.00  0.00     0.060 A  
HETATM   19  C   UNL     1     -10.512   4.021  63.272  1.00  0.00    -0.120 A  
ENDBRANCH  10  13
ENDBRANCH   3  10
BRANCH   6  20
HETATM   20  C   UNL     1      -8.516  11.500  66.615  1.00  0.00    -0.172 A  
HETATM   21  C   UNL     1     -11.799  13.247  65.742  1.00  0.00    -0.387 C  
HETATM   22  C   UNL     1     -10.394  13.035  66.251  1.00  0.00    -0.291 A  
HETATM   23  C   UNL     1     -10.116  15.440  66.766  1.00  0.00    -0.262 C  
HETATM   24  F   UNL     1     -12.403  12.104  65.315  1.00  0.00    -0.451 F  
HETATM   25  F   UNL     1     -12.622  13.762  66.694  1.00  0.00    -0.426 F  
HETATM   26  C   UNL     1      -8.319  13.840  67.216  1.00  0.00    -0.186 A  
HETATM   27  F   UNL     1     -11.844  14.104  64.687  1.00  0.00    -0.353 F  
HETATM   28  C   UNL     1      -9.831  11.747  66.207  1.00  0.00    -0.245 A  
HETATM   29  N   UNL     1     -10.506  16.532  66.775  1.00  0.00    -0.292 NA 
HETATM   30  C   UNL     1      -7.777  12.548  67.166  1.00  0.00    -0.109 A  
HETATM   31  C   UNL     1      -9.619  14.092  66.745  1.00  0.00    -0.293 A  
ENDBRANCH   6  20
TORSDOF 3
ENDMDL
MODEL      152
REMARK 921   NORMALIZED FREE ENERGY PREDICTED BY IDOCK:   -3.81 KCAL/MOL
REMARK 922        TOTAL FREE ENERGY PREDICTED BY IDOCK:   -5.10 KCAL/MOL
REMARK 923 INTER-LIGAND FREE ENERGY PREDICTED BY IDOCK:   -5.11 KCAL/MOL
REMARK 924 INTRA-LIGAND FREE ENERGY PREDICTED BY IDOCK:    0.01 KCAL/MOL
REMARK 927      BINDING AFFINITY PREDICTED BY RF-SCORE:    0.00 PKD
ROOT
HETATM    1  C   UNL     1      -7.107   8.175  70.572  1.00  0.00    -0.041 C  
HETATM    2  C   UNL     1      -7.893   8.456  69.280  1.00  0.00    -0.104 C  
HETATM    3  C   UNL     1      -9.293   7.838  69.278  1.00  0.00    -0.148 C  
HETATM    4  O   UNL     1      -7.160   7.998  68.143  1.00  0.00    -0.084 OA 
HETATM    5  C   UNL     1      -8.030  10.001  69.159  1.00  0.00    -0.116 C  
HETATM    6  N   UNL     1      -8.595  10.459  67.975  1.00  0.00    -0.122 N  
HETATM    7  H   UNL     1      -7.645   8.172  67.345  1.00  0.00     0.000 HD 
HETATM    8  H   UNL     1      -8.856   9.770  67.270  1.00  0.00     0.000 HD 
HETATM    9  O   UNL     1      -7.730  10.734  70.101  1.00  0.00     0.052 OA 
ENDROOT
BRANCH   3  10
HETATM   10  S   UNL     1      -9.281   6.094  69.629  1.00  0.00    -0.143 S  
HETATM   11  O   UNL     1     -10.470   5.751  70.378  1.00  0.00    -0.232 OA 
HETATM   12  O   UNL     1      -7.958   5.757  70.133  1.00  0.00    -0.096 OA 
BRANCH  10  13
HETATM   13  C   UNL     1      -9.465   5.334  68.034  1.00  0.00    -0.122 A  
HETATM   14  C   UNL     1      -8.400   4.577  67.532  1.00  0.00    -0.100 A  
HETATM   15  C   UNL     1     -10.646   5.492  67.303  1.00  0.00    -0.294 A  
HETATM   16  F   UNL     1      -9.854   3.441  64.413  1.00  0.00    -0.146 F  
HETATM   17  C   UNL     1      -8.537   3.934  66.303  1.00  0.00    -0.112 A  
HETATM   18  C   UNL     1     -10.770   4.851  66.069  1.00  0.00    -0.247 A  
HETATM   19  C   UNL     1      -9.722   4.071  65.588  1.00  0.00    -0.192 A  
ENDBRANCH  10  13
ENDBRANCH   3  10
BRANCH   6  20
HETATM   20  C   UNL     1      -8.830  11.827  67.689  1.00  0.00    -0.162 A  
HETATM   21  C   UNL     1     -11.766  14.264  67.502  1.00  0.00    -0.384 C  
HETATM   22  C   UNL     1     -10.359  13.723  67.409  1.00  0.00    -0.252 A  
HETATM   23  C   UNL     1      -9.508  15.838  66.445  1.00  0.00    -0.297 C  
HETATM   24  F   UNL     1     -12.658  13.376  68.020  1.00  0.00    -0.181 F  
HETATM   25  F   UNL     1     -11.845  15.366  68.295  1.00  0.00    -0.348 F  
HETATM   26  C   UNL     1      -8.008  13.950  66.857  1.00  0.00     0.190 A  
HETATM   27  F   UNL     1     -12.264  14.623  66.290  1.00  0.00    -0.369 F  
HETATM   28  C   UNL     1     -10.102  12.399  67.804  1.00  0.00    -0.203 A  
HETATM   29  N   UNL     1      -9.672  16.918  66.052  1.00  0.00    -0.461 NA 
HETATM   30  C   UNL     1      -7.771  12.626  67.258  1.00  0.00    -0.140 A  
HETATM   31  C   UNL     1      -9.301  14.496  66.915  1.00  0.00    -0.258 A  
ENDBRANCH   6  20
TORSDOF 3
ENDMDL
MODEL      153
REMARK 921   NORMALIZED FREE ENERGY PREDICTED BY IDOCK:   -3.76 KCAL/MOL
REMARK 922        TOTAL FREE ENERGY PREDICTED BY IDOCK:   -5.03 KCAL/MOL
REMARK 923 INTER-LIGAND FREE ENERGY PREDICTED BY IDOCK:   -4.76 KCAL/MOL
REMARK 924 INTRA-LIGAND FREE ENERGY PREDICTED BY IDOCK:   -0.28 KCAL/MOL
REMARK 927      BINDING AFFINITY PREDICTED BY RF-SCORE:    0.00 PKD
ROOT
HETATM    1  C   UNL     1      -8.327   7.829  70.547  1.00  0.00    -0.125 C  
HETATM    2  C   UNL     1      -8.618   8.243  69.095  1.00  0.00    -0.138 C  
HETATM    3  C   UNL     1      -9.714   7.402  68.436  1.00  0.00    -0.153 C  
HETATM    4  O   UNL     1      -7.424   8.182  68.312  1.00  0.00    -0.093 OA 
HETATM    5  C   UNL     1      -9.081   9.727  69.129  1.00  0.00    -0.165 C  
HETATM    6  N   UNL     1      -9.259  10.326  67.888  1.00  0.00    -0.137 N  
HETATM    7  H   UNL     1      -7.604   8.437  67.415  1.00  0.00     0.000 HD 
HETATM    8  H   UNL     1      -9.057   9.773  67.055  1.00  0.00     0.000 HD 
HETATM    9  O   UNL     1      -9.347  10.278  70.197  1.00  0.00    -0.039 OA 
ENDROOT
BRANCH   3  10
HETATM   10  S   UNL     1      -9.398   5.654  68.531  1.00  0.00    -0.126 S  
HETATM   11  O   UNL     1     -10.535   4.998  69.139  1.00  0.00    -0.165 OA 
HETATM   12  O   UNL     1      -8.058   5.480  69.071  1.00  0.00    -0.093 OA 
BRANCH  10  13
HETATM   13  C   UNL     1      -9.373   5.130  66.834  1.00  0.00    -0.128 A  
HETATM   14  C   UNL     1      -8.143   5.095  66.167  1.00  0.00    -0.108 A  
HETATM   15  C   UNL     1     -10.556   4.762  66.187  1.00  0.00    -0.282 A  
HETATM   16  F   UNL     1      -9.210   3.809  62.952  1.00  0.00    -0.093 F  
HETATM   17  C   UNL     1      -8.092   4.644  64.850  1.00  0.00    -0.102 A  
HETATM   18  C   UNL     1     -10.496   4.320  64.863  1.00  0.00    -0.176 A  
HETATM   19  C   UNL     1      -9.265   4.254  64.213  1.00  0.00    -0.151 A  
ENDBRANCH  10  13
ENDBRANCH   3  10
BRANCH   6  20
HETATM   20  C   UNL     1      -9.704  11.659  67.710  1.00  0.00    -0.173 A  
HETATM   21  C   UNL     1      -8.225  15.135  67.138  1.00  0.00    -0.221 C  
HETATM   22  C   UNL     1      -9.242  14.045  67.377  1.00  0.00    -0.216 A  
HETATM   23  C   UNL     1     -11.090  15.680  67.570  1.00  0.00    -0.289 C  
HETATM   24  F   UNL     1      -6.958  14.669  66.961  1.00  0.00    -0.167 F  
HETATM   25  F   UNL     1      -8.503  15.868  66.027  1.00  0.00    -0.341 F  
HETATM   26  C   UNL     1     -11.508  13.278  67.776  1.00  0.00    -0.354 A  
HETATM   27  F   UNL     1      -8.154  16.013  68.173  1.00  0.00    -0.140 F  
HETATM   28  C   UNL     1      -8.816  12.706  67.438  1.00  0.00    -0.189 A  
HETATM   29  N   UNL     1     -11.490  16.769  67.586  1.00  0.00     0.168 NA 
HETATM   30  C   UNL     1     -11.064  11.948  67.831  1.00  0.00    -0.297 A  
HETATM   31  C   UNL     1     -10.600  14.329  67.566  1.00  0.00    -0.261 A  
ENDBRANCH   6  20
TORSDOF 3
ENDMDL
MODEL      154
REMARK 921   NORMALIZED FREE ENERGY PREDICTED BY IDOCK:   -3.75 KCAL/MOL
REMARK 922        TOTAL FREE ENERGY PREDICTED BY IDOCK:   -5.02 KCAL/MOL
REMARK 923 INTER-LIGAND FREE ENERGY PREDICTED BY IDOCK:   -4.53 KCAL/MOL
REMARK 924 INTRA-LIGAND FREE ENERGY PREDICTED BY IDOCK:   -0.49 KCAL/MOL
REMARK 927      BINDING AFFINITY PREDICTED BY RF-SCORE:    0.00 PKD
ROOT
HETATM    1  C   UNL     1      -8.648   7.084  65.688  1.00  0.00    -0.121 C  
HETATM    2  C   UNL     1      -8.957   7.792  67.018  1.00  0.00    -0.129 C  
HETATM    3  C   UNL     1      -8.019   7.378  68.154  1.00  0.00    -0.123 C  
HETATM    4  O   UNL     1     -10.313   7.560  67.402  1.00  0.00    -0.221 OA 
HETATM    5  C   UNL     1      -8.795   9.319  66.769  1.00  0.00    -0.127 C  
HETATM    6  N   UNL     1      -9.170  10.139  67.826  1.00  0.00    -0.137 N  
HETATM    7  H   UNL     1     -10.504   7.996  68.223  1.00  0.00     0.000 HD 
HETATM    8  H   UNL     1      -9.539   9.698  68.668  1.00  0.00     0.000 HD 
HETATM    9  O   UNL     1      -8.285   9.735  65.729  1.00  0.00    -0.117 OA 
ENDROOT
BRANCH   3  10
HETATM   10  S   UNL     1      -7.951   5.616  68.391  1.00  0.00    -0.100 S  
HETATM   11  O   UNL     1      -6.811   5.084  67.677  1.00  0.00    -0.057 OA 
HETATM   12  O   UNL     1      -9.289   5.092  68.160  1.00  0.00    -0.116 OA 
BRANCH  10  13
HETATM   13  C   UNL     1      -7.584   5.429  70.118  1.00  0.00    -0.073 A  
HETATM   14  C   UNL     1      -6.548   4.563  70.488  1.00  0.00    -0.035 A  
HETATM   15  C   UNL     1      -8.315   6.133  71.081  1.00  0.00    -0.124 A  
HETATM   16  F   UNL     1      -6.587   5.037  74.080  1.00  0.00    -0.060 F  
HETATM   17  C   UNL     1      -6.212   4.435  71.834  1.00  0.00    -0.021 A  
HETATM   18  C   UNL     1      -7.976   5.990  72.428  1.00  0.00    -0.105 A  
HETATM   19  C   UNL     1      -6.922   5.154  72.789  1.00  0.00    -0.085 A  
ENDBRANCH  10  13
ENDBRANCH   3  10
BRANCH   6  20
HETATM   20  C   UNL     1      -9.070  11.552  67.803  1.00  0.00    -0.165 A  
HETATM   21  C   UNL     1     -11.371  14.599  67.670  1.00  0.00    -0.336 C  
HETATM   22  C   UNL     1     -10.109  13.771  67.692  1.00  0.00    -0.242 A  
HETATM   23  C   UNL     1      -8.683  15.765  67.350  1.00  0.00    -0.183 C  
HETATM   24  F   UNL     1     -12.506  13.866  67.837  1.00  0.00    -0.334 F  
HETATM   25  F   UNL     1     -11.393  15.535  68.656  1.00  0.00    -0.267 F  
HETATM   26  C   UNL     1      -7.697  13.538  67.586  1.00  0.00    -0.180 A  
HETATM   27  F   UNL     1     -11.532  15.268  66.498  1.00  0.00    -0.324 F  
HETATM   28  C   UNL     1     -10.201  12.375  67.831  1.00  0.00    -0.213 A  
HETATM   29  N   UNL     1      -8.548  16.904  67.175  1.00  0.00    -0.192 NA 
HETATM   30  C   UNL     1      -7.810  12.147  67.729  1.00  0.00    -0.148 A  
HETATM   31  C   UNL     1      -8.841  14.351  67.550  1.00  0.00    -0.197 A  
ENDBRANCH   6  20
TORSDOF 3
ENDMDL
MODEL      155
REMARK 921   NORMALIZED FREE ENERGY PREDICTED BY IDOCK:   -3.63 KCAL/MOL
REMARK 922        TOTAL FREE ENERGY PREDICTED BY IDOCK:   -4.89 KCAL/MOL
REMARK 923 INTER-LIGAND FREE ENERGY PREDICTED BY IDOCK:   -4.35 KCAL/MOL
REMARK 924 INTRA-LIGAND FREE ENERGY PREDICTED BY IDOCK:   -0.54 KCAL/MOL
REMARK 927      BINDING AFFINITY PREDICTED BY RF-SCORE:    0.00 PKD
ROOT
HETATM    1  C   UNL     1      -9.621   8.905  65.655  1.00  0.00    -0.175 C  
HETATM    2  C   UNL     1      -8.976   9.130  67.033  1.00  0.00    -0.123 C  
HETATM    3  C   UNL     1      -9.237  10.527  67.601  1.00  0.00    -0.145 C  
HETATM    4  O   UNL     1      -7.570   8.888  66.970  1.00  0.00    -0.093 OA 
HETATM    5  C   UNL     1      -9.590   8.077  68.000  1.00  0.00    -0.152 C  
HETATM    6  N   UNL     1      -9.026   8.030  69.269  1.00  0.00    -0.148 N  
HETATM    7  H   UNL     1      -7.171   9.027  67.820  1.00  0.00     0.000 HD 
HETATM    8  H   UNL     1      -8.250   8.660  69.472  1.00  0.00     0.000 HD 
HETATM    9  O   UNL     1     -10.564   7.405  67.661  1.00  0.00    -0.233 OA 
ENDROOT
BRANCH   3  10
HETATM   10  S   UNL     1      -8.774  11.828  66.481  1.00  0.00    -0.138 S  
HETATM   11  O   UNL     1      -9.935  12.238  65.721  1.00  0.00    -0.248 OA 
HETATM   12  O   UNL     1      -7.550  11.415  65.811  1.00  0.00     0.147 OA 
BRANCH  10  13
HETATM   13  C   UNL     1      -8.376  13.191  67.547  1.00  0.00    -0.185 A  
HETATM   14  C   UNL     1      -7.038  13.594  67.640  1.00  0.00    -0.179 A  
HETATM   15  C   UNL     1      -9.378  13.842  68.274  1.00  0.00    -0.209 A  
HETATM   16  F   UNL     1      -7.388  16.413  69.891  1.00  0.00    -0.118 F  
HETATM   17  C   UNL     1      -6.708  14.690  68.436  1.00  0.00    -0.100 A  
HETATM   18  C   UNL     1      -9.035  14.933  69.075  1.00  0.00    -0.174 A  
HETATM   19  C   UNL     1      -7.708  15.353  69.139  1.00  0.00    -0.207 A  
ENDBRANCH  10  13
ENDBRANCH   3  10
BRANCH   6  20
HETATM   20  C   UNL     1      -9.465   7.161  70.297  1.00  0.00    -0.162 A  
HETATM   21  C   UNL     1      -8.334   3.948  72.027  1.00  0.00    -0.098 C  
HETATM   22  C   UNL     1      -9.185   5.139  71.657  1.00  0.00    -0.174 A  
HETATM   23  C   UNL     1     -11.035   4.393  73.122  1.00  0.00    -0.247 C  
HETATM   24  F   UNL     1      -7.120   3.932  71.411  1.00  0.00    -0.029 F  
HETATM   25  F   UNL     1      -8.068   3.896  73.359  1.00  0.00    -0.082 F  
HETATM   26  C   UNL     1     -11.209   6.464  71.830  1.00  0.00    -0.325 A  
HETATM   27  F   UNL     1      -8.927   2.768  71.705  1.00  0.00    -0.097 F  
HETATM   28  C   UNL     1      -8.700   6.068  70.720  1.00  0.00    -0.135 A  
HETATM   29  N   UNL     1     -11.510   3.631  73.857  1.00  0.00     0.006 NA 
HETATM   30  C   UNL     1     -10.706   7.382  70.895  1.00  0.00    -0.248 A  
HETATM   31  C   UNL     1     -10.461   5.335  72.201  1.00  0.00    -0.278 A  
ENDBRANCH   6  20
TORSDOF 3
ENDMDL
MODEL      156
REMARK 921   NORMALIZED FREE ENERGY PREDICTED BY IDOCK:   -3.63 KCAL/MOL
REMARK 922        TOTAL FREE ENERGY PREDICTED BY IDOCK:   -4.89 KCAL/MOL
REMARK 923 INTER-LIGAND FREE ENERGY PREDICTED BY IDOCK:   -5.38 KCAL/MOL
REMARK 924 INTRA-LIGAND FREE ENERGY PREDICTED BY IDOCK:    0.50 KCAL/MOL
REMARK 927      BINDING AFFINITY PREDICTED BY RF-SCORE:    0.00 PKD
ROOT
HETATM    1  C   UNL     1     -10.612   8.503  66.727  1.00  0.00    -0.227 C  
HETATM    2  C   UNL     1      -9.598   7.368  66.945  1.00  0.00    -0.187 C  
HETATM    3  C   UNL     1      -8.165   7.868  67.142  1.00  0.00    -0.118 C  
HETATM    4  O   UNL     1      -9.643   6.445  65.855  1.00  0.00    -0.387 OA 
HETATM    5  C   UNL     1     -10.040   6.603  68.225  1.00  0.00    -0.159 C  
HETATM    6  N   UNL     1      -9.320   5.449  68.509  1.00  0.00    -0.114 N  
HETATM    7  H   UNL     1      -9.017   5.744  65.989  1.00  0.00     0.000 HD 
HETATM    8  H   UNL     1      -8.582   5.172  67.863  1.00  0.00     0.000 HD 
HETATM    9  O   UNL     1     -10.912   7.062  68.962  1.00  0.00    -0.200 OA 
ENDROOT
BRANCH   3  10
HETATM   10  S   UNL     1      -7.620   8.944  65.834  1.00  0.00    -0.094 S  
HETATM   11  O   UNL     1      -8.402   8.681  64.645  1.00  0.00    -0.159 OA 
HETATM   12  O   UNL     1      -6.166   8.889  65.800  1.00  0.00    -0.052 OA 
BRANCH  10  13
HETATM   13  C   UNL     1      -8.091  10.564  66.388  1.00  0.00    -0.135 A  
HETATM   14  C   UNL     1      -7.307  11.186  67.366  1.00  0.00    -0.108 A  
HETATM   15  C   UNL     1      -9.217  11.198  65.855  1.00  0.00    -0.225 A  
HETATM   16  F   UNL     1      -9.035  14.360  67.630  1.00  0.00    -0.169 F  
HETATM   17  C   UNL     1      -7.630  12.476  67.784  1.00  0.00    -0.138 A  
HETATM   18  C   UNL     1      -9.538  12.487  66.287  1.00  0.00    -0.246 A  
HETATM   19  C   UNL     1      -8.736  13.116  67.236  1.00  0.00    -0.210 A  
ENDBRANCH  10  13
ENDBRANCH   3  10
BRANCH   6  20
HETATM   20  C   UNL     1      -9.552   4.632  69.644  1.00  0.00    -0.192 A  
HETATM   21  C   UNL     1     -10.967   4.951  73.178  1.00  0.00    -0.306 C  
HETATM   22  C   UNL     1     -10.318   4.347  71.956  1.00  0.00    -0.189 A  
HETATM   23  C   UNL     1      -9.860   2.219  73.134  1.00  0.00    -0.105 C  
HETATM   24  F   UNL     1     -11.413   6.223  72.986  1.00  0.00    -0.258 F  
HETATM   25  F   UNL     1     -12.051   4.242  73.592  1.00  0.00    -0.212 F  
HETATM   26  C   UNL     1      -9.224   2.522  70.791  1.00  0.00    -0.201 A  
HETATM   27  F   UNL     1     -10.118   5.013  74.238  1.00  0.00    -0.165 F  
HETATM   28  C   UNL     1     -10.192   5.120  70.788  1.00  0.00    -0.308 A  
HETATM   29  N   UNL     1      -9.885   1.554  74.085  1.00  0.00    -0.072 NA 
HETATM   30  C   UNL     1      -9.110   3.309  69.635  1.00  0.00    -0.204 A  
HETATM   31  C   UNL     1      -9.811   3.041  71.956  1.00  0.00    -0.242 A  
ENDBRANCH   6  20
TORSDOF 3
ENDMDL
MODEL      157
REMARK 921   NORMALIZED FREE ENERGY PREDICTED BY IDOCK:   -3.62 KCAL/MOL
REMARK 922        TOTAL FREE ENERGY PREDICTED BY IDOCK:   -4.87 KCAL/MOL
REMARK 923 INTER-LIGAND FREE ENERGY PREDICTED BY IDOCK:   -5.63 KCAL/MOL
REMARK 924 INTRA-LIGAND FREE ENERGY PREDICTED BY IDOCK:    0.76 KCAL/MOL
REMARK 927      BINDING AFFINITY PREDICTED BY RF-SCORE:    0.00 PKD
ROOT
HETATM    1  C   UNL     1     -11.607   6.574  70.008  1.00  0.00    -0.455 C  
HETATM    2  C   UNL     1     -10.493   7.139  69.112  1.00  0.00    -0.211 C  
HETATM    3  C   UNL     1      -9.282   7.645  69.901  1.00  0.00    -0.147 C  
HETATM    4  O   UNL     1     -11.002   8.186  68.285  1.00  0.00    -0.438 OA 
HETATM    5  C   UNL     1     -10.031   5.985  68.177  1.00  0.00    -0.147 C  
HETATM    6  N   UNL     1      -9.118   6.342  67.193  1.00  0.00    -0.118 N  
HETATM    7  H   UNL     1     -10.314   8.535  67.732  1.00  0.00     0.000 HD 
HETATM    8  H   UNL     1      -8.833   7.320  67.135  1.00  0.00     0.000 HD 
HETATM    9  O   UNL     1     -10.402   4.828  68.377  1.00  0.00    -0.041 OA 
ENDROOT
BRANCH   3  10
HETATM   10  S   UNL     1      -9.719   8.820  71.163  1.00  0.00    -0.273 S  
HETATM   11  O   UNL     1      -8.511   9.341  71.766  1.00  0.00    -0.283 OA 
HETATM   12  O   UNL     1     -10.762   8.219  71.979  1.00  0.00    -0.252 OA 
BRANCH  10  13
HETATM   13  C   UNL     1     -10.442  10.168  70.262  1.00  0.00    -0.224 A  
HETATM   14  C   UNL     1      -9.708  10.737  69.214  1.00  0.00    -0.142 A  
HETATM   15  C   UNL     1     -11.714  10.645  70.594  1.00  0.00    -0.454 A  
HETATM   16  F   UNL     1     -12.092  13.203  68.045  1.00  0.00    -0.368 F  
HETATM   17  C   UNL     1     -10.273  11.766  68.463  1.00  0.00    -0.215 A  
HETATM   18  C   UNL     1     -12.268  11.683  69.841  1.00  0.00    -0.310 A  
HETATM   19  C   UNL     1     -11.548  12.223  68.777  1.00  0.00    -0.330 A  
ENDBRANCH  10  13
ENDBRANCH   3  10
BRANCH   6  20
HETATM   20  C   UNL     1      -8.559   5.429  66.265  1.00  0.00    -0.122 A  
HETATM   21  C   UNL     1      -9.731   2.889  63.664  1.00  0.00    -0.128 C  
HETATM   22  C   UNL     1      -8.812   3.697  64.547  1.00  0.00    -0.118 A  
HETATM   23  C   UNL     1      -6.819   2.442  63.784  1.00  0.00    -0.036 C  
HETATM   24  F   UNL     1     -11.039   3.256  63.756  1.00  0.00    -0.254 F  
HETATM   25  F   UNL     1      -9.413   3.000  62.346  1.00  0.00    -0.090 F  
HETATM   26  C   UNL     1      -6.615   4.260  65.409  1.00  0.00    -0.044 A  
HETATM   27  F   UNL     1      -9.698   1.562  63.959  1.00  0.00    -0.117 F  
HETATM   28  C   UNL     1      -9.355   4.687  65.386  1.00  0.00    -0.160 A  
HETATM   29  N   UNL     1      -6.322   1.603  63.156  1.00  0.00    -0.013 NA 
HETATM   30  C   UNL     1      -7.176   5.244  66.237  1.00  0.00    -0.073 A  
HETATM   31  C   UNL     1      -7.429   3.475  64.577  1.00  0.00    -0.072 A  
ENDBRANCH   6  20
TORSDOF 3
ENDMDL
MODEL      158
REMARK 921   NORMALIZED FREE ENERGY PREDICTED BY IDOCK:   -3.62 KCAL/MOL
REMARK 922        TOTAL FREE ENERGY PREDICTED BY IDOCK:   -4.87 KCAL/MOL
REMARK 923 INTER-LIGAND FREE ENERGY PREDICTED BY IDOCK:   -5.19 KCAL/MOL
REMARK 924 INTRA-LIGAND FREE ENERGY PREDICTED BY IDOCK:    0.32 KCAL/MOL
REMARK 927      BINDING AFFINITY PREDICTED BY RF-SCORE:    0.00 PKD
ROOT
HETATM    1  C   UNL     1     -10.964   7.201  69.203  1.00  0.00    -0.142 C  
HETATM    2  C   UNL     1      -9.814   8.128  69.630  1.00  0.00    -0.184 C  
HETATM    3  C   UNL     1      -8.430   7.558  69.311  1.00  0.00    -0.136 C  
HETATM    4  O   UNL     1      -9.905   8.425  71.024  1.00  0.00    -0.174 OA 
HETATM    5  C   UNL     1      -9.994   9.464  68.853  1.00  0.00    -0.179 C  
HETATM    6  N   UNL     1      -9.122  10.485  69.212  1.00  0.00    -0.315 N  
HETATM    7  H   UNL     1      -9.195   8.997  71.288  1.00  0.00     0.000 HD 
HETATM    8  H   UNL     1      -8.452  10.304  69.958  1.00  0.00     0.000 HD 
HETATM    9  O   UNL     1     -10.804   9.550  67.930  1.00  0.00    -0.245 OA 
ENDROOT
BRANCH   3  10
HETATM   10  S   UNL     1      -8.185   5.923  69.968  1.00  0.00    -0.123 S  
HETATM   11  O   UNL     1      -9.464   5.256  70.072  1.00  0.00    -0.143 OA 
HETATM   12  O   UNL     1      -7.307   6.042  71.122  1.00  0.00    -0.079 OA 
BRANCH  10  13
HETATM   13  C   UNL     1      -7.289   5.077  68.689  1.00  0.00    -0.062 A  
HETATM   14  C   UNL     1      -8.018   4.450  67.671  1.00  0.00    -0.092 A  
HETATM   15  C   UNL     1      -5.892   5.041  68.703  1.00  0.00    -0.021 A  
HETATM   16  F   UNL     1      -5.295   3.208  65.626  1.00  0.00    -0.008 F  
HETATM   17  C   UNL     1      -7.336   3.818  66.632  1.00  0.00    -0.069 A  
HETATM   18  C   UNL     1      -5.218   4.398  67.662  1.00  0.00    -0.011 A  
HETATM   19  C   UNL     1      -5.946   3.805  66.633  1.00  0.00    -0.024 A  
ENDBRANCH  10  13
ENDBRANCH   3  10
BRANCH   6  20
HETATM   20  C   UNL     1      -9.109  11.763  68.601  1.00  0.00    -0.071 A  
HETATM   21  C   UNL     1     -11.572  14.529  67.663  1.00  0.00    -0.378 C  
HETATM   22  C   UNL     1     -10.279  13.761  67.790  1.00  0.00    -0.241 A  
HETATM   23  C   UNL     1      -9.050  15.415  66.419  1.00  0.00    -0.314 C  
HETATM   24  F   UNL     1     -12.617  13.949  68.314  1.00  0.00    -0.254 F  
HETATM   25  F   UNL     1     -11.478  15.787  68.172  1.00  0.00    -0.330 F  
HETATM   26  C   UNL     1      -7.911  13.462  67.354  1.00  0.00    -0.170 A  
HETATM   27  F   UNL     1     -11.970  14.663  66.370  1.00  0.00    -0.381 F  
HETATM   28  C   UNL     1     -10.265  12.545  68.497  1.00  0.00    -0.210 A  
HETATM   29  N   UNL     1      -9.014  16.381  65.777  1.00  0.00    -0.444 NA 
HETATM   30  C   UNL     1      -7.918  12.253  68.066  1.00  0.00    -0.150 A  
HETATM   31  C   UNL     1      -9.090  14.209  67.200  1.00  0.00    -0.240 A  
ENDBRANCH   6  20
TORSDOF 3
ENDMDL
MODEL      159
REMARK 921   NORMALIZED FREE ENERGY PREDICTED BY IDOCK:   -3.27 KCAL/MOL
REMARK 922        TOTAL FREE ENERGY PREDICTED BY IDOCK:   -4.46 KCAL/MOL
REMARK 923 INTER-LIGAND FREE ENERGY PREDICTED BY IDOCK:   -4.21 KCAL/MOL
REMARK 924 INTRA-LIGAND FREE ENERGY PREDICTED BY IDOCK:   -0.25 KCAL/MOL
REMARK 927      BINDING AFFINITY PREDICTED BY RF-SCORE:    0.00 PKD
ROOT
HETATM    1  C   UNL     1     -11.317  13.380  67.000  1.00  0.00    -0.346 C  
HETATM    2  C   UNL     1      -9.988  13.298  66.232  1.00  0.00    -0.291 C  
HETATM    3  C   UNL     1      -8.892  14.187  66.824  1.00  0.00    -0.167 C  
HETATM    4  O   UNL     1     -10.187  13.626  64.856  1.00  0.00    -0.471 OA 
HETATM    5  C   UNL     1      -9.516  11.817  66.296  1.00  0.00    -0.224 C  
HETATM    6  N   UNL     1      -8.394  11.514  65.535  1.00  0.00    -0.354 N  
HETATM    7  H   UNL     1      -9.367  13.576  64.381  1.00  0.00     0.000 HD 
HETATM    8  H   UNL     1      -7.975  12.259  64.980  1.00  0.00     0.000 HD 
HETATM    9  O   UNL     1     -10.069  11.013  67.047  1.00  0.00    -0.186 OA 
ENDROOT
BRANCH   3  10
HETATM   10  S   UNL     1      -9.399  15.883  67.006  1.00  0.00    -0.224 S  
HETATM   11  O   UNL     1     -10.335  16.215  65.953  1.00  0.00    -0.330 OA 
HETATM   12  O   UNL     1      -8.200  16.678  67.218  1.00  0.00    -0.164 OA 
BRANCH  10  13
HETATM   13  C   UNL     1     -10.332  15.891  68.517  1.00  0.00    -0.232 A  
HETATM   14  C   UNL     1     -11.658  16.339  68.477  1.00  0.00    -0.188 A  
HETATM   15  C   UNL     1      -9.752  15.460  69.713  1.00  0.00    -0.219 A  
HETATM   16  F   UNL     1     -12.599  15.824  71.938  1.00  0.00    -0.387 F  
HETATM   17  C   UNL     1     -12.424  16.313  69.640  1.00  0.00     0.787 A  
HETATM   18  C   UNL     1     -10.526  15.446  70.876  1.00  0.00     0.139 A  
HETATM   19  C   UNL     1     -11.855  15.860  70.826  1.00  0.00    -0.391 A  
ENDBRANCH  10  13
ENDBRANCH   3  10
BRANCH   6  20
HETATM   20  C   UNL     1      -7.795  10.230  65.485  1.00  0.00    -0.152 A  
HETATM   21  C   UNL     1      -7.908   7.086  63.320  1.00  0.00    -0.110 C  
HETATM   22  C   UNL     1      -7.549   8.021  64.449  1.00  0.00    -0.116 A  
HETATM   23  C   UNL     1      -6.254   6.267  65.619  1.00  0.00    -0.037 C  
HETATM   24  F   UNL     1      -8.678   7.662  62.357  1.00  0.00    -0.095 F  
HETATM   25  F   UNL     1      -6.810   6.610  62.673  1.00  0.00    -0.039 F  
HETATM   26  C   UNL     1      -6.438   8.524  66.545  1.00  0.00    -0.059 A  
HETATM   27  F   UNL     1      -8.604   6.000  63.749  1.00  0.00    -0.060 F  
HETATM   28  C   UNL     1      -8.049   9.336  64.440  1.00  0.00    -0.142 A  
HETATM   29  N   UNL     1      -5.860   5.179  65.708  1.00  0.00    -0.018 NA 
HETATM   30  C   UNL     1      -6.945   9.832  66.517  1.00  0.00    -0.085 A  
HETATM   31  C   UNL     1      -6.751   7.612  65.524  1.00  0.00    -0.045 A  
ENDBRANCH   6  20
TORSDOF 3
ENDMDL
MODEL      160
REMARK 921   NORMALIZED FREE ENERGY PREDICTED BY IDOCK:   -3.20 KCAL/MOL
REMARK 922        TOTAL FREE ENERGY PREDICTED BY IDOCK:   -4.38 KCAL/MOL
REMARK 923 INTER-LIGAND FREE ENERGY PREDICTED BY IDOCK:   -4.77 KCAL/MOL
REMARK 924 INTRA-LIGAND FREE ENERGY PREDICTED BY IDOCK:    0.39 KCAL/MOL
REMARK 927      BINDING AFFINITY PREDICTED BY RF-SCORE:    0.00 PKD
ROOT
HETATM    1  C   UNL     1      -5.823  13.157  67.857  1.00  0.00    -0.132 C  
HETATM    2  C   UNL     1      -6.839  12.820  68.961  1.00  0.00    -0.081 C  
HETATM    3  C   UNL     1      -8.256  13.307  68.647  1.00  0.00    -0.014 C  
HETATM    4  O   UNL     1      -6.409  13.357  70.213  1.00  0.00    -0.342 OA 
HETATM    5  C   UNL     1      -6.864  11.271  69.099  1.00  0.00    -0.109 C  
HETATM    6  N   UNL     1      -7.626  10.777  70.150  1.00  0.00    -0.197 N  
HETATM    7  H   UNL     1      -7.036  13.149  70.895  1.00  0.00     0.000 HD 
HETATM    8  H   UNL     1      -8.091  11.447  70.762  1.00  0.00     0.000 HD 
HETATM    9  O   UNL     1      -6.306  10.557  68.266  1.00  0.00    -0.054 OA 
ENDROOT
BRANCH   3  10
HETATM   10  S   UNL     1      -8.321  15.040  68.252  1.00  0.00    -0.152 S  
HETATM   11  O   UNL     1      -7.112  15.415  67.552  1.00  0.00    -0.160 OA 
HETATM   12  O   UNL     1      -8.739  15.747  69.454  1.00  0.00    -0.252 OA 
BRANCH  10  13
HETATM   13  C   UNL     1      -9.637  15.160  67.065  1.00  0.00    -0.226 A  
HETATM   14  C   UNL     1      -9.434  15.947  65.926  1.00  0.00    -0.372 A  
HETATM   15  C   UNL     1     -10.842  14.482  67.269  1.00  0.00    -0.297 A  
HETATM   16  F   UNL     1     -12.577  15.388  64.210  1.00  0.00    -0.421 F  
HETATM   17  C   UNL     1     -10.434  16.020  64.958  1.00  0.00    -0.250 A  
HETATM   18  C   UNL     1     -11.842  14.568  66.297  1.00  0.00    -0.354 A  
HETATM   19  C   UNL     1     -11.624  15.326  65.148  1.00  0.00    -0.192 A  
ENDBRANCH  10  13
ENDBRANCH   3  10
BRANCH   6  20
HETATM   20  C   UNL     1      -7.796   9.397  70.423  1.00  0.00    -0.164 A  
HETATM   21  C   UNL     1      -6.969   6.885  73.180  1.00  0.00    -0.074 C  
HETATM   22  C   UNL     1      -7.464   7.443  71.867  1.00  0.00    -0.080 A  
HETATM   23  C   UNL     1      -7.999   5.187  71.002  1.00  0.00    -0.102 C  
HETATM   24  F   UNL     1      -6.537   7.839  74.050  1.00  0.00    -0.080 F  
HETATM   25  F   UNL     1      -7.933   6.194  73.845  1.00  0.00    -0.100 F  
HETATM   26  C   UNL     1      -8.418   7.185  69.652  1.00  0.00    -0.134 A  
HETATM   27  F   UNL     1      -5.923   6.032  73.019  1.00  0.00    -0.040 F  
HETATM   28  C   UNL     1      -7.403   8.829  71.640  1.00  0.00    -0.098 A  
HETATM   29  N   UNL     1      -8.022   4.032  71.111  1.00  0.00    -0.066 NA 
HETATM   30  C   UNL     1      -8.351   8.571  69.446  1.00  0.00    -0.119 A  
HETATM   31  C   UNL     1      -7.961   6.616  70.852  1.00  0.00    -0.110 A  
ENDBRANCH   6  20
TORSDOF 3
ENDMDL
MODEL      161
REMARK 921   NORMALIZED FREE ENERGY PREDICTED BY IDOCK:   -3.11 KCAL/MOL
REMARK 922        TOTAL FREE ENERGY PREDICTED BY IDOCK:   -4.27 KCAL/MOL
REMARK 923 INTER-LIGAND FREE ENERGY PREDICTED BY IDOCK:   -6.12 KCAL/MOL
REMARK 924 INTRA-LIGAND FREE ENERGY PREDICTED BY IDOCK:    1.86 KCAL/MOL
REMARK 927      BINDING AFFINITY PREDICTED BY RF-SCORE:    0.00 PKD
ROOT
HETATM    1  C   UNL     1     -10.116  16.542  66.906  1.00  0.00    -0.281 C  
HETATM    2  C   UNL     1      -9.157  15.460  66.384  1.00  0.00    -0.314 C  
HETATM    3  C   UNL     1      -7.716  15.649  66.863  1.00  0.00    -0.203 C  
HETATM    4  O   UNL     1      -9.191  15.411  64.957  1.00  0.00     0.032 OA 
HETATM    5  C   UNL     1      -9.682  14.094  66.913  1.00  0.00    -0.269 C  
HETATM    6  N   UNL     1      -9.021  12.972  66.429  1.00  0.00    -0.442 N  
HETATM    7  H   UNL     1      -8.598  14.743  64.635  1.00  0.00     0.000 HD 
HETATM    8  H   UNL     1      -8.266  13.112  65.757  1.00  0.00     0.000 HD 
HETATM    9  O   UNL     1     -10.567  14.049  67.767  1.00  0.00    -0.239 OA 
ENDROOT
BRANCH   3  10
HETATM   10  S   UNL     1      -7.074  17.269  66.506  1.00  0.00    -0.288 S  
HETATM   11  O   UNL     1      -7.169  17.516  65.083  1.00  0.00     0.333 OA 
HETATM   12  O   UNL     1      -5.804  17.401  67.204  1.00  0.00    -0.122 OA 
BRANCH  10  13
HETATM   13  C   UNL     1      -8.235  18.370  67.277  1.00  0.00    -0.245 A  
HETATM   14  C   UNL     1      -8.911  19.293  66.471  1.00  0.00    -0.373 A  
HETATM   15  C   UNL     1      -8.465  18.310  68.654  1.00  0.00    -0.301 A  
HETATM   16  F   UNL     1     -11.029  20.863  68.958  1.00  0.00    -0.048 F  
HETATM   17  C   UNL     1      -9.860  20.136  67.046  1.00  0.00    -0.595 A  
HETATM   18  C   UNL     1      -9.411  19.165  69.223  1.00  0.00    -0.162 A  
HETATM   19  C   UNL     1     -10.107  20.060  68.412  1.00  0.00    -0.386 A  
ENDBRANCH  10  13
ENDBRANCH   3  10
BRANCH   6  20
HETATM   20  C   UNL     1      -9.332  11.644  66.813  1.00  0.00    -0.186 A  
HETATM   21  C   UNL     1      -7.884   8.128  66.445  1.00  0.00    -0.093 C  
HETATM   22  C   UNL     1      -8.832   9.243  66.816  1.00  0.00    -0.142 A  
HETATM   23  C   UNL     1     -10.525   7.650  67.665  1.00  0.00    -0.244 C  
HETATM   24  F   UNL     1      -6.718   8.564  65.895  1.00  0.00    -0.055 F  
HETATM   25  F   UNL     1      -7.524   7.376  67.518  1.00  0.00    -0.089 F  
HETATM   26  C   UNL     1     -10.917  10.064  67.743  1.00  0.00    -0.310 A  
HETATM   27  F   UNL     1      -8.423   7.272  65.536  1.00  0.00    -0.130 F  
HETATM   28  C   UNL     1      -8.472  10.575  66.541  1.00  0.00    -0.139 A  
HETATM   29  N   UNL     1     -10.899   6.570  67.865  1.00  0.00    -0.287 NA 
HETATM   30  C   UNL     1     -10.540  11.386  67.462  1.00  0.00    -0.252 A  
HETATM   31  C   UNL     1     -10.076   8.991  67.408  1.00  0.00    -0.291 A  
ENDBRANCH   6  20
TORSDOF 3
ENDMDL
MODEL      162
REMARK 921   NORMALIZED FREE ENERGY PREDICTED BY IDOCK:   -2.96 KCAL/MOL
REMARK 922        TOTAL FREE ENERGY PREDICTED BY IDOCK:   -4.09 KCAL/MOL
REMARK 923 INTER-LIGAND FREE ENERGY PREDICTED BY IDOCK:   -3.78 KCAL/MOL
REMARK 924 INTRA-LIGAND FREE ENERGY PREDICTED BY IDOCK:   -0.31 KCAL/MOL
REMARK 927      BINDING AFFINITY PREDICTED BY RF-SCORE:    0.00 PKD
ROOT
HETATM    1  C   UNL     1      -7.553   4.986  66.265  1.00  0.00    -0.087 C  
HETATM    2  C   UNL     1      -8.636   5.634  67.144  1.00  0.00    -0.109 C  
HETATM    3  C   UNL     1      -8.586   5.172  68.602  1.00  0.00    -0.087 C  
HETATM    4  O   UNL     1      -9.933   5.382  66.601  1.00  0.00    -0.159 OA 
HETATM    5  C   UNL     1      -8.399   7.170  67.100  1.00  0.00    -0.118 C  
HETATM    6  N   UNL     1      -9.369   7.942  67.728  1.00  0.00    -0.140 N  
HETATM    7  H   UNL     1     -10.602   5.782  67.144  1.00  0.00     0.000 HD 
HETATM    8  H   UNL     1     -10.166   7.464  68.147  1.00  0.00     0.000 HD 
HETATM    9  O   UNL     1      -7.369   7.633  66.611  1.00  0.00    -0.084 OA 
ENDROOT
BRANCH   3  10
HETATM   10  S   UNL     1      -8.628   3.401  68.770  1.00  0.00    -0.091 S  
HETATM   11  O   UNL     1      -7.321   2.863  68.463  1.00  0.00    -0.048 OA 
HETATM   12  O   UNL     1      -9.815   2.923  68.077  1.00  0.00    -0.015 OA 
BRANCH  10  13
HETATM   13  C   UNL     1      -8.873   3.141  70.510  1.00  0.00    -0.085 A  
HETATM   14  C   UNL     1      -7.864   2.493  71.233  1.00  0.00    -0.043 A  
HETATM   15  C   UNL     1     -10.045   3.575  71.136  1.00  0.00     0.053 A  
HETATM   16  F   UNL     1      -9.301   2.614  74.558  1.00  0.00    -0.089 F  
HETATM   17  C   UNL     1      -8.013   2.318  72.608  1.00  0.00    -0.054 A  
HETATM   18  C   UNL     1     -10.189   3.387  72.512  1.00  0.00    -0.217 A  
HETATM   19  C   UNL     1      -9.168   2.772  73.235  1.00  0.00    -0.088 A  
ENDBRANCH  10  13
ENDBRANCH   3  10
BRANCH   6  20
HETATM   20  C   UNL     1      -9.316   9.355  67.820  1.00  0.00    -0.128 A  
HETATM   21  C   UNL     1     -11.350  12.389  66.700  1.00  0.00    -0.339 C  
HETATM   22  C   UNL     1     -10.236  11.570  67.306  1.00  0.00    -0.229 A  
HETATM   23  C   UNL     1      -8.893  13.589  67.803  1.00  0.00    -0.198 C  
HETATM   24  F   UNL     1     -12.395  11.641  66.251  1.00  0.00     0.084 F  
HETATM   25  F   UNL     1     -11.886  13.271  67.586  1.00  0.00    -0.335 F  
HETATM   26  C   UNL     1      -8.080  11.359  68.398  1.00  0.00    -0.145 A  
HETATM   27  F   UNL     1     -10.933  13.120  65.632  1.00  0.00    -0.280 F  
HETATM   28  C   UNL     1     -10.340  10.168  67.321  1.00  0.00    -0.291 A  
HETATM   29  N   UNL     1      -8.727  14.737  67.768  1.00  0.00    -0.166 NA 
HETATM   30  C   UNL     1      -8.204   9.961  68.404  1.00  0.00    -0.106 A  
HETATM   31  C   UNL     1      -9.084  12.165  67.836  1.00  0.00    -0.185 A  
ENDBRANCH   6  20
TORSDOF 3
ENDMDL
MODEL      163
REMARK 921   NORMALIZED FREE ENERGY PREDICTED BY IDOCK:   -2.62 KCAL/MOL
REMARK 922        TOTAL FREE ENERGY PREDICTED BY IDOCK:   -3.70 KCAL/MOL
REMARK 923 INTER-LIGAND FREE ENERGY PREDICTED BY IDOCK:   -3.66 KCAL/MOL
REMARK 924 INTRA-LIGAND FREE ENERGY PREDICTED BY IDOCK:   -0.04 KCAL/MOL
REMARK 927      BINDING AFFINITY PREDICTED BY RF-SCORE:    0.00 PKD
ROOT
HETATM    1  C   UNL     1      -7.567   4.979  66.264  1.00  0.00    -0.087 C  
HETATM    2  C   UNL     1      -8.723   5.504  67.132  1.00  0.00    -0.107 C  
HETATM    3  C   UNL     1      -8.639   5.045  68.590  1.00  0.00    -0.093 C  
HETATM    4  O   UNL     1      -9.979   5.116  66.575  1.00  0.00    -0.168 OA 
HETATM    5  C   UNL     1      -8.651   7.057  67.094  1.00  0.00    -0.121 C  
HETATM    6  N   UNL     1      -9.705   7.719  67.712  1.00  0.00    -0.148 N  
HETATM    7  H   UNL     1     -10.693   5.440  67.110  1.00  0.00     0.000 HD 
HETATM    8  H   UNL     1     -10.451   7.157  68.121  1.00  0.00     0.000 HD 
HETATM    9  O   UNL     1      -7.671   7.629  66.617  1.00  0.00    -0.094 OA 
ENDROOT
BRANCH   3  10
HETATM   10  S   UNL     1      -8.493   3.280  68.754  1.00  0.00    -0.076 S  
HETATM   11  O   UNL     1      -7.131   2.886  68.465  1.00  0.00    -0.048 OA 
HETATM   12  O   UNL     1      -9.612   2.680  68.043  1.00  0.00    -0.197 OA 
BRANCH  10  13
HETATM   13  C   UNL     1      -8.733   2.989  70.490  1.00  0.00    -0.072 A  
HETATM   14  C   UNL     1      -7.670   2.453  71.227  1.00  0.00    -0.040 A  
HETATM   15  C   UNL     1      -9.954   3.291  71.099  1.00  0.00    -0.027 A  
HETATM   16  F   UNL     1      -9.160   2.406  74.530  1.00  0.00    -0.073 F  
HETATM   17  C   UNL     1      -7.819   2.259  72.599  1.00  0.00    -0.053 A  
HETATM   18  C   UNL     1     -10.097   3.084  72.473  1.00  0.00    -0.232 A  
HETATM   19  C   UNL     1      -9.026   2.582  73.210  1.00  0.00    -0.077 A  
ENDBRANCH  10  13
ENDBRANCH   3  10
BRANCH   6  20
HETATM   20  C   UNL     1      -9.806   9.129  67.807  1.00  0.00    -0.174 A  
HETATM   21  C   UNL     1      -7.512  12.156  68.217  1.00  0.00    -0.107 C  
HETATM   22  C   UNL     1      -8.772  11.335  68.090  1.00  0.00    -0.155 A  
HETATM   23  C   UNL     1     -10.212  13.312  68.473  1.00  0.00    -0.220 C  
HETATM   24  F   UNL     1      -6.371  11.430  68.064  1.00  0.00    -0.052 F  
HETATM   25  F   UNL     1      -7.443  13.145  67.286  1.00  0.00    -0.148 F  
HETATM   26  C   UNL     1     -11.187  11.104  68.068  1.00  0.00    -0.359 A  
HETATM   27  F   UNL     1      -7.407  12.760  69.431  1.00  0.00     0.002 F  
HETATM   28  C   UNL     1      -8.674   9.949  67.878  1.00  0.00    -0.129 A  
HETATM   29  N   UNL     1     -10.355  14.440  68.703  1.00  0.00    -0.240 NA 
HETATM   30  C   UNL     1     -11.067   9.722  67.855  1.00  0.00    -0.161 A  
HETATM   31  C   UNL     1     -10.045  11.910  68.203  1.00  0.00    -0.200 A  
ENDBRANCH   6  20
TORSDOF 3
ENDMDL
MODEL      164
REMARK 921   NORMALIZED FREE ENERGY PREDICTED BY IDOCK:   -2.17 KCAL/MOL
REMARK 922        TOTAL FREE ENERGY PREDICTED BY IDOCK:   -3.17 KCAL/MOL
REMARK 923 INTER-LIGAND FREE ENERGY PREDICTED BY IDOCK:   -4.37 KCAL/MOL
REMARK 924 INTRA-LIGAND FREE ENERGY PREDICTED BY IDOCK:    1.20 KCAL/MOL
REMARK 927      BINDING AFFINITY PREDICTED BY RF-SCORE:    0.00 PKD
ROOT
HETATM    1  C   UNL     1      -8.714  14.614  69.698  1.00  0.00     0.318 C  
HETATM    2  C   UNL     1      -8.886  14.681  68.172  1.00  0.00    -0.173 C  
HETATM    3  C   UNL     1      -7.848  15.572  67.486  1.00  0.00    -0.168 C  
HETATM    4  O   UNL     1     -10.202  15.125  67.838  1.00  0.00    -0.229 OA 
HETATM    5  C   UNL     1      -8.731  13.230  67.633  1.00  0.00    -0.195 C  
HETATM    6  N   UNL     1      -8.993  13.064  66.279  1.00  0.00    -0.450 N  
HETATM    7  H   UNL     1     -10.308  15.167  66.896  1.00  0.00     0.000 HD 
HETATM    8  H   UNL     1      -9.285  13.881  65.743  1.00  0.00     0.000 HD 
HETATM    9  O   UNL     1      -8.318  12.329  68.364  1.00  0.00    -0.167 OA 
ENDROOT
BRANCH   3  10
HETATM   10  S   UNL     1      -7.778  17.211  68.173  1.00  0.00    -0.212 S  
HETATM   11  O   UNL     1      -6.464  17.769  67.941  1.00  0.00    -0.172 OA 
HETATM   12  O   UNL     1      -8.336  17.147  69.516  1.00  0.00     0.202 OA 
BRANCH  10  13
HETATM   13  C   UNL     1      -8.899  18.148  67.163  1.00  0.00    -0.259 A  
HETATM   14  C   UNL     1      -9.807  17.451  66.357  1.00  0.00    -0.311 A  
HETATM   15  C   UNL     1      -8.871  19.545  67.177  1.00  0.00    -0.357 A  
HETATM   16  F   UNL     1     -11.609  20.235  64.894  1.00  0.00    -0.010 F  
HETATM   17  C   UNL     1     -10.727  18.164  65.590  1.00  0.00    -0.045 A  
HETATM   18  C   UNL     1      -9.790  20.250  66.398  1.00  0.00    -0.502 A  
HETATM   19  C   UNL     1     -10.715  19.554  65.623  1.00  0.00    -0.325 A  
ENDBRANCH  10  13
ENDBRANCH   3  10
BRANCH   6  20
HETATM   20  C   UNL     1      -8.879  11.827  65.597  1.00  0.00     0.123 A  
HETATM   21  C   UNL     1      -6.488   8.853  65.412  1.00  0.00    -0.067 C  
HETATM   22  C   UNL     1      -7.661   9.755  65.110  1.00  0.00    -0.124 A  
HETATM   23  C   UNL     1      -8.405   8.319  63.236  1.00  0.00    -0.039 C  
HETATM   24  F   UNL     1      -5.727   9.280  66.457  1.00  0.00    -0.049 F  
HETATM   25  F   UNL     1      -6.876   7.590  65.733  1.00  0.00    -0.052 F  
HETATM   26  C   UNL     1      -9.647  10.338  63.845  1.00  0.00    -0.354 A  
HETATM   27  F   UNL     1      -5.638   8.740  64.357  1.00  0.00    -0.058 F  
HETATM   28  C   UNL     1      -7.842  10.927  65.866  1.00  0.00    -0.090 A  
HETATM   29  N   UNL     1      -8.275   7.397  62.545  1.00  0.00    -0.104 NA 
HETATM   30  C   UNL     1      -9.811  11.502  64.612  1.00  0.00    -0.283 A  
HETATM   31  C   UNL     1      -8.566   9.472  64.079  1.00  0.00    -0.222 A  
ENDBRANCH   6  20
TORSDOF 3
ENDMDL
MODEL      165
REMARK 921   NORMALIZED FREE ENERGY PREDICTED BY IDOCK:   -2.06 KCAL/MOL
REMARK 922        TOTAL FREE ENERGY PREDICTED BY IDOCK:   -3.04 KCAL/MOL
REMARK 923 INTER-LIGAND FREE ENERGY PREDICTED BY IDOCK:   -4.36 KCAL/MOL
REMARK 924 INTRA-LIGAND FREE ENERGY PREDICTED BY IDOCK:    1.32 KCAL/MOL
REMARK 927      BINDING AFFINITY PREDICTED BY RF-SCORE:    0.00 PKD
ROOT
HETATM    1  C   UNL     1     -10.585   4.410  66.980  1.00  0.00     0.508 C  
HETATM    2  C   UNL     1      -9.598   5.465  66.454  1.00  0.00    -0.159 C  
HETATM    3  C   UNL     1      -9.297   5.319  64.961  1.00  0.00     0.112 C  
HETATM    4  O   UNL     1      -8.381   5.422  67.200  1.00  0.00    -0.108 OA 
HETATM    5  C   UNL     1     -10.249   6.857  66.697  1.00  0.00    -0.145 C  
HETATM    6  N   UNL     1      -9.441   7.951  66.412  1.00  0.00    -0.282 N  
HETATM    7  H   UNL     1      -7.771   6.073  66.875  1.00  0.00     0.000 HD 
HETATM    8  H   UNL     1      -8.490   7.774  66.090  1.00  0.00     0.000 HD 
HETATM    9  O   UNL     1     -11.428   6.949  67.036  1.00  0.00    -0.154 OA 
ENDROOT
BRANCH   3  10
HETATM   10  S   UNL     1      -8.749   3.684  64.521  1.00  0.00    -0.108 S  
HETATM   11  O   UNL     1      -7.922   3.762  63.337  1.00  0.00    -0.080 OA 
HETATM   12  O   UNL     1      -9.910   2.807  64.565  1.00  0.00    -0.134 OA 
BRANCH  10  13
HETATM   13  C   UNL     1      -7.667   3.222  65.851  1.00  0.00    -0.081 A  
HETATM   14  C   UNL     1      -8.082   2.210  66.724  1.00  0.00    -0.078 A  
HETATM   15  C   UNL     1      -6.433   3.857  66.016  1.00  0.00    -0.037 A  
HETATM   16  F   UNL     1      -5.172   2.006  68.874  1.00  0.00    -0.009 F  
HETATM   17  C   UNL     1      -7.230   1.799  67.748  1.00  0.00    -0.046 A  
HETATM   18  C   UNL     1      -5.590   3.444  67.051  1.00  0.00    -0.022 A  
HETATM   19  C   UNL     1      -5.992   2.413  67.897  1.00  0.00    -0.024 A  
ENDBRANCH  10  13
ENDBRANCH   3  10
BRANCH   6  20
HETATM   20  C   UNL     1      -9.861   9.298  66.540  1.00  0.00    -0.263 A  
HETATM   21  C   UNL     1     -10.847  12.232  64.301  1.00  0.00    -0.348 C  
HETATM   22  C   UNL     1     -10.524  11.439  65.544  1.00  0.00    -0.322 A  
HETATM   23  C   UNL     1     -10.741  13.437  66.989  1.00  0.00    -0.268 C  
HETATM   24  F   UNL     1     -10.845  11.485  63.162  1.00  0.00    -0.389 F  
HETATM   25  F   UNL     1     -12.078  12.807  64.358  1.00  0.00    -0.384 F  
HETATM   26  C   UNL     1     -10.197  11.248  67.940  1.00  0.00    -0.201 A  
HETATM   27  F   UNL     1      -9.959  13.238  64.084  1.00  0.00    -0.388 F  
HETATM   28  C   UNL     1     -10.220  10.071  65.431  1.00  0.00    -0.226 A  
HETATM   29  N   UNL     1     -10.928  14.572  67.137  1.00  0.00    -0.296 NA 
HETATM   30  C   UNL     1      -9.898   9.884  67.806  1.00  0.00    -0.184 A  
HETATM   31  C   UNL     1     -10.493  12.032  66.813  1.00  0.00    -0.243 A  
ENDBRANCH   6  20
TORSDOF 3
ENDMDL
MODEL      166
REMARK 921   NORMALIZED FREE ENERGY PREDICTED BY IDOCK:   -1.19 KCAL/MOL
REMARK 922        TOTAL FREE ENERGY PREDICTED BY IDOCK:   -2.01 KCAL/MOL
REMARK 923 INTER-LIGAND FREE ENERGY PREDICTED BY IDOCK:   -3.14 KCAL/MOL
REMARK 924 INTRA-LIGAND FREE ENERGY PREDICTED BY IDOCK:    1.13 KCAL/MOL
REMARK 927      BINDING AFFINITY PREDICTED BY RF-SCORE:    0.00 PKD
ROOT
HETATM    1  C   UNL     1     -10.637   5.376  67.490  1.00  0.00    -0.204 C  
HETATM    2  C   UNL     1      -9.489   6.144  66.814  1.00  0.00    -0.146 C  
HETATM    3  C   UNL     1      -9.285   5.757  65.347  1.00  0.00     0.096 C  
HETATM    4  O   UNL     1      -8.272   5.957  67.538  1.00  0.00    -0.105 OA 
HETATM    5  C   UNL     1      -9.850   7.655  66.885  1.00  0.00    -0.234 C  
HETATM    6  N   UNL     1      -8.861   8.526  66.446  1.00  0.00    -0.141 N  
HETATM    7  H   UNL     1      -7.563   6.431  67.121  1.00  0.00     0.000 HD 
HETATM    8  H   UNL     1      -7.975   8.129  66.133  1.00  0.00     0.000 HD 
HETATM    9  O   UNL     1     -10.974   8.018  67.230  1.00  0.00    -0.175 OA 
ENDROOT
BRANCH   3  10
HETATM   10  S   UNL     1      -9.080   4.005  65.115  1.00  0.00    -0.149 S  
HETATM   11  O   UNL     1      -8.375   3.769  63.874  1.00  0.00    -0.089 OA 
HETATM   12  O   UNL     1     -10.366   3.375  65.375  1.00  0.00     0.196 OA 
BRANCH  10  13
HETATM   13  C   UNL     1      -7.967   3.527  66.414  1.00  0.00    -0.088 A  
HETATM   14  C   UNL     1      -8.466   2.743  67.461  1.00  0.00    -0.103 A  
HETATM   15  C   UNL     1      -6.628   3.927  66.386  1.00  0.00    -0.041 A  
HETATM   16  F   UNL     1      -5.434   2.273  69.390  1.00  0.00    -0.011 F  
HETATM   17  C   UNL     1      -7.602   2.318  68.468  1.00  0.00    -0.050 A  
HETATM   18  C   UNL     1      -5.772   3.503  67.404  1.00  0.00    -0.022 A  
HETATM   19  C   UNL     1      -6.264   2.694  68.427  1.00  0.00    -0.028 A  
ENDBRANCH  10  13
ENDBRANCH   3  10
BRANCH   6  20
HETATM   20  C   UNL     1      -9.009   9.935  66.405  1.00  0.00    -0.147 A  
HETATM   21  C   UNL     1      -8.137  12.982  68.538  1.00  0.00    -0.082 C  
HETATM   22  C   UNL     1      -8.707  12.150  67.415  1.00  0.00    -0.177 A  
HETATM   23  C   UNL     1      -9.828  14.110  66.402  1.00  0.00    -0.296 C  
HETATM   24  F   UNL     1      -7.383  12.268  69.418  1.00  0.00    -0.031 F  
HETATM   25  F   UNL     1      -7.328  13.977  68.086  1.00  0.00    -0.090 F  
HETATM   26  C   UNL     1      -9.996  11.895  65.376  1.00  0.00    -0.281 A  
HETATM   27  F   UNL     1      -9.106  13.580  69.282  1.00  0.00     0.185 F  
HETATM   28  C   UNL     1      -8.462  10.765  67.390  1.00  0.00    -0.119 A  
HETATM   29  N   UNL     1     -10.110  15.236  66.402  1.00  0.00    -0.262 NA 
HETATM   30  C   UNL     1      -9.739  10.516  65.368  1.00  0.00    -0.315 A  
HETATM   31  C   UNL     1      -9.497  12.711  66.404  1.00  0.00    -0.231 A  
ENDBRANCH   6  20
TORSDOF 3
ENDMDL
MODEL      167
REMARK 921   NORMALIZED FREE ENERGY PREDICTED BY IDOCK:   -1.08 KCAL/MOL
REMARK 922        TOTAL FREE ENERGY PREDICTED BY IDOCK:   -1.89 KCAL/MOL
REMARK 923 INTER-LIGAND FREE ENERGY PREDICTED BY IDOCK:   -1.71 KCAL/MOL
REMARK 924 INTRA-LIGAND FREE ENERGY PREDICTED BY IDOCK:   -0.18 KCAL/MOL
REMARK 927      BINDING AFFINITY PREDICTED BY RF-SCORE:    0.00 PKD
ROOT
HETATM    1  C   UNL     1     -11.500   7.410  70.186  1.00  0.00    -0.154 C  
HETATM    2  C   UNL     1     -10.672   7.802  68.951  1.00  0.00    -0.085 C  
HETATM    3  C   UNL     1      -9.724   8.976  69.207  1.00  0.00    -0.168 C  
HETATM    4  O   UNL     1     -11.532   8.106  67.851  1.00  0.00     0.149 OA 
HETATM    5  C   UNL     1      -9.828   6.557  68.556  1.00  0.00    -0.138 C  
HETATM    6  N   UNL     1      -9.112   6.673  67.370  1.00  0.00    -0.120 N  
HETATM    7  H   UNL     1     -11.021   8.348  67.089  1.00  0.00     0.000 HD 
HETATM    8  H   UNL     1      -9.203   7.537  66.837  1.00  0.00     0.000 HD 
HETATM    9  O   UNL     1      -9.751   5.586  69.307  1.00  0.00    -0.139 OA 
ENDROOT
BRANCH   3  10
HETATM   10  S   UNL     1     -10.552  10.402  69.876  1.00  0.00    -0.212 S  
HETATM   11  O   UNL     1      -9.865  10.832  71.075  1.00  0.00     1.886 OA 
HETATM   12  O   UNL     1     -11.978  10.112  69.895  1.00  0.00    -0.191 OA 
BRANCH  10  13
HETATM   13  C   UNL     1     -10.271  11.669  68.664  1.00  0.00    -0.206 A  
HETATM   14  C   UNL     1     -11.355  12.101  67.891  1.00  0.00    -0.361 A  
HETATM   15  C   UNL     1      -8.997  12.218  68.491  1.00  0.00    -0.070 A  
HETATM   16  F   UNL     1      -9.737  14.683  65.929  1.00  0.00    -0.295 F  
HETATM   17  C   UNL     1     -11.169  13.126  66.964  1.00  0.00    -0.325 A  
HETATM   18  C   UNL     1      -8.819  13.239  67.554  1.00  0.00    -0.206 A  
HETATM   19  C   UNL     1      -9.908  13.689  66.810  1.00  0.00    -0.271 A  
ENDBRANCH  10  13
ENDBRANCH   3  10
BRANCH   6  20
HETATM   20  C   UNL     1      -8.264   5.660  66.857  1.00  0.00    -0.105 A  
HETATM   21  C   UNL     1      -8.342   2.910  64.207  1.00  0.00    -0.083 C  
HETATM   22  C   UNL     1      -7.852   3.777  65.341  1.00  0.00    -0.089 A  
HETATM   23  C   UNL     1      -5.813   2.404  65.635  1.00  0.00    -0.018 C  
HETATM   24  F   UNL     1      -9.531   3.318  63.684  1.00  0.00    -0.105 F  
HETATM   25  F   UNL     1      -7.473   2.885  63.161  1.00  0.00    -0.048 F  
HETATM   26  C   UNL     1      -6.223   4.365  67.040  1.00  0.00    -0.036 A  
HETATM   27  F   UNL     1      -8.529   1.618  64.585  1.00  0.00    -0.078 F  
HETATM   28  C   UNL     1      -8.641   4.856  65.776  1.00  0.00    -0.128 A  
HETATM   29  N   UNL     1      -5.148   1.495  65.357  1.00  0.00    -0.004 NA 
HETATM   30  C   UNL     1      -7.024   5.438  67.457  1.00  0.00    -0.066 A  
HETATM   31  C   UNL     1      -6.640   3.523  65.996  1.00  0.00    -0.040 A  
ENDBRANCH   6  20
TORSDOF 3
ENDMDL
MODEL      168
REMARK 921   NORMALIZED FREE ENERGY PREDICTED BY IDOCK:   -0.30 KCAL/MOL
REMARK 922        TOTAL FREE ENERGY PREDICTED BY IDOCK:   -0.96 KCAL/MOL
REMARK 923 INTER-LIGAND FREE ENERGY PREDICTED BY IDOCK:   -3.66 KCAL/MOL
REMARK 924 INTRA-LIGAND FREE ENERGY PREDICTED BY IDOCK:    2.69 KCAL/MOL
REMARK 927      BINDING AFFINITY PREDICTED BY RF-SCORE:    0.00 PKD
ROOT
HETATM    1  C   UNL     1     -12.257   6.660  70.091  1.00  0.00     0.043 C  
HETATM    2  C   UNL     1     -10.821   7.019  69.674  1.00  0.00    -0.247 C  
HETATM    3  C   UNL     1      -9.786   6.733  70.765  1.00  0.00    -0.183 C  
HETATM    4  O   UNL     1     -10.746   8.390  69.283  1.00  0.00    -0.315 OA 
HETATM    5  C   UNL     1     -10.481   6.155  68.426  1.00  0.00    -0.231 C  
HETATM    6  N   UNL     1      -9.266   6.441  67.815  1.00  0.00    -0.114 N  
HETATM    7  H   UNL     1      -9.859   8.612  69.025  1.00  0.00     0.000 HD 
HETATM    8  H   UNL     1      -8.700   7.195  68.203  1.00  0.00     0.000 HD 
HETATM    9  O   UNL     1     -11.218   5.232  68.081  1.00  0.00     0.513 OA 
ENDROOT
BRANCH   3  10
HETATM   10  S   UNL     1     -10.189   7.497  72.320  1.00  0.00    -0.219 S  
HETATM   11  O   UNL     1      -8.995   8.089  72.883  1.00  0.00    -0.188 OA 
HETATM   12  O   UNL     1     -10.983   6.546  73.083  1.00  0.00    -0.258 OA 
BRANCH  10  13
HETATM   13  C   UNL     1     -11.247   8.851  71.871  1.00  0.00    -0.377 A  
HETATM   14  C   UNL     1     -10.692   9.920  71.157  1.00  0.00    -0.150 A  
HETATM   15  C   UNL     1     -12.600   8.845  72.224  1.00  0.00    -0.455 A  
HETATM   16  F   UNL     1     -13.648  11.961  70.683  1.00  0.00     0.346 F  
HETATM   17  C   UNL     1     -11.511  10.973  70.754  1.00  0.00    -0.002 A  
HETATM   18  C   UNL     1     -13.411   9.909  71.824  1.00  0.00    -0.501 A  
HETATM   19  C   UNL     1     -12.862  10.954  71.084  1.00  0.00    -0.409 A  
ENDBRANCH  10  13
ENDBRANCH   3  10
BRANCH   6  20
HETATM   20  C   UNL     1      -8.767   5.746  66.686  1.00  0.00    -0.119 A  
HETATM   21  C   UNL     1      -7.491   2.260  65.785  1.00  0.00    -0.067 C  
HETATM   22  C   UNL     1      -7.854   3.719  65.651  1.00  0.00    -0.093 A  
HETATM   23  C   UNL     1      -6.918   3.839  63.362  1.00  0.00    -0.044 C  
HETATM   24  F   UNL     1      -7.845   1.718  66.983  1.00  0.00    -0.062 F  
HETATM   25  F   UNL     1      -8.095   1.487  64.843  1.00  0.00    -0.068 F  
HETATM   26  C   UNL     1      -7.948   5.798  64.405  1.00  0.00    -0.126 A  
HETATM   27  F   UNL     1      -6.155   2.044  65.663  1.00  0.00    -0.019 F  
HETATM   28  C   UNL     1      -8.458   4.382  66.733  1.00  0.00    -0.105 A  
HETATM   29  N   UNL     1      -6.371   3.359  62.458  1.00  0.00    -0.017 NA 
HETATM   30  C   UNL     1      -8.552   6.441  65.496  1.00  0.00    -0.115 A  
HETATM   31  C   UNL     1      -7.582   4.444  64.484  1.00  0.00    -0.073 A  
ENDBRANCH   6  20
TORSDOF 3
ENDMDL
MODEL      169
REMARK 921   NORMALIZED FREE ENERGY PREDICTED BY IDOCK:    0.33 KCAL/MOL
REMARK 922        TOTAL FREE ENERGY PREDICTED BY IDOCK:   -0.23 KCAL/MOL
REMARK 923 INTER-LIGAND FREE ENERGY PREDICTED BY IDOCK:   -0.55 KCAL/MOL
REMARK 924 INTRA-LIGAND FREE ENERGY PREDICTED BY IDOCK:    0.32 KCAL/MOL
REMARK 927      BINDING AFFINITY PREDICTED BY RF-SCORE:    0.00 PKD
ROOT
HETATM    1  C   UNL     1     -11.448   7.111  71.955  1.00  0.00    -0.310 C  
HETATM    2  C   UNL     1     -10.081   7.272  71.271  1.00  0.00    -0.189 C  
HETATM    3  C   UNL     1      -9.907   6.367  70.049  1.00  0.00    -0.168 C  
HETATM    4  O   UNL     1      -9.026   7.034  72.204  1.00  0.00    -0.131 OA 
HETATM    5  C   UNL     1      -9.975   8.755  70.812  1.00  0.00    -0.213 C  
HETATM    6  N   UNL     1      -8.743   9.132  70.291  1.00  0.00    -0.180 N  
HETATM    7  H   UNL     1      -8.182   7.133  71.782  1.00  0.00     0.000 HD 
HETATM    8  H   UNL     1      -7.999   8.434  70.265  1.00  0.00     0.000 HD 
HETATM    9  O   UNL     1     -10.958   9.494  70.841  1.00  0.00    -0.281 OA 
ENDROOT
BRANCH   3  10
HETATM   10  S   UNL     1     -10.223   4.653  70.406  1.00  0.00    -0.032 S  
HETATM   11  O   UNL     1     -11.154   4.128  69.430  1.00  0.00     2.629 OA 
HETATM   12  O   UNL     1     -10.493   4.545  71.831  1.00  0.00    -0.166 OA 
BRANCH  10  13
HETATM   13  C   UNL     1      -8.669   3.855  70.085  1.00  0.00    -0.071 A  
HETATM   14  C   UNL     1      -8.600   2.462  70.204  1.00  0.00    -0.104 A  
HETATM   15  C   UNL     1      -7.546   4.604  69.723  1.00  0.00    -0.055 A  
HETATM   16  F   UNL     1      -5.150   1.919  69.238  1.00  0.00    -0.006 F  
HETATM   17  C   UNL     1      -7.404   1.809  69.913  1.00  0.00    -0.036 A  
HETATM   18  C   UNL     1      -6.349   3.941  69.442  1.00  0.00    -0.029 A  
HETATM   19  C   UNL     1      -6.294   2.552  69.528  1.00  0.00    -0.029 A  
ENDBRANCH  10  13
ENDBRANCH   3  10
BRANCH   6  20
HETATM   20  C   UNL     1      -8.458  10.428  69.794  1.00  0.00     0.028 A  
HETATM   21  C   UNL     1     -10.301  13.363  68.188  1.00  0.00    -0.247 C  
HETATM   22  C   UNL     1      -9.173  12.516  68.726  1.00  0.00     0.143 A  
HETATM   23  C   UNL     1      -7.466  14.143  67.972  1.00  0.00    -0.140 C  
HETATM   24  F   UNL     1     -11.534  12.822  68.392  1.00  0.00    -0.263 F  
HETATM   25  F   UNL     1     -10.343  14.595  68.762  1.00  0.00    -0.219 F  
HETATM   26  C   UNL     1      -6.822  12.095  69.148  1.00  0.00    -0.078 A  
HETATM   27  F   UNL     1     -10.204  13.564  66.847  1.00  0.00    -0.244 F  
HETATM   28  C   UNL     1      -9.465  11.279  69.326  1.00  0.00     0.176 A  
HETATM   29  N   UNL     1      -7.161  15.126  67.438  1.00  0.00    -0.203 NA 
HETATM   30  C   UNL     1      -7.134  10.865  69.745  1.00  0.00    -0.092 A  
HETATM   31  C   UNL     1      -7.835  12.915  68.623  1.00  0.00    -0.044 A  
ENDBRANCH   6  20
TORSDOF 3
ENDMDL
MODEL      170
REMARK 921   NORMALIZED FREE ENERGY PREDICTED BY IDOCK:    0.68 KCAL/MOL
REMARK 922        TOTAL FREE ENERGY PREDICTED BY IDOCK:    0.18 KCAL/MOL
REMARK 923 INTER-LIGAND FREE ENERGY PREDICTED BY IDOCK:   -3.29 KCAL/MOL
REMARK 924 INTRA-LIGAND FREE ENERGY PREDICTED BY IDOCK:    3.47 KCAL/MOL
REMARK 927      BINDING AFFINITY PREDICTED BY RF-SCORE:    0.00 PKD
ROOT
HETATM    1  C   UNL     1     -10.181  13.525  68.682  1.00  0.00    -0.193 C  
HETATM    2  C   UNL     1      -9.066  13.288  67.650  1.00  0.00    -0.204 C  
HETATM    3  C   UNL     1      -7.762  14.012  67.992  1.00  0.00    -0.149 C  
HETATM    4  O   UNL     1      -9.505  13.671  66.346  1.00  0.00    -0.314 OA 
HETATM    5  C   UNL     1      -8.792  11.757  67.621  1.00  0.00    -0.162 C  
HETATM    6  N   UNL     1      -7.905  11.328  66.641  1.00  0.00    -0.154 N  
HETATM    7  H   UNL     1      -8.817  13.525  65.709  1.00  0.00     0.000 HD 
HETATM    8  H   UNL     1      -7.518  12.025  66.006  1.00  0.00     0.000 HD 
HETATM    9  O   UNL     1      -9.276  11.015  68.476  1.00  0.00    -0.164 OA 
ENDROOT
BRANCH   3  10
HETATM   10  S   UNL     1      -7.990  15.755  68.269  1.00  0.00    -0.134 S  
HETATM   11  O   UNL     1      -8.169  16.419  66.996  1.00  0.00    -0.166 OA 
HETATM   12  O   UNL     1      -6.960  16.189  69.201  1.00  0.00    -0.175 OA 
BRANCH  10  13
HETATM   13  C   UNL     1      -9.555  15.856  69.103  1.00  0.00    -0.253 A  
HETATM   14  C   UNL     1      -9.579  15.693  70.493  1.00  0.00     0.887 A  
HETATM   15  C   UNL     1     -10.730  16.093  68.384  1.00  0.00    -0.298 A  
HETATM   16  F   UNL     1     -13.112  16.200  71.123  1.00  0.00    -0.437 F  
HETATM   17  C   UNL     1     -10.789  15.812  71.175  1.00  0.00    -0.041 A  
HETATM   18  C   UNL     1     -11.939  16.202  69.075  1.00  0.00    -0.060 A  
HETATM   19  C   UNL     1     -11.954  16.073  70.462  1.00  0.00    -0.243 A  
ENDBRANCH  10  13
ENDBRANCH   3  10
BRANCH   6  20
HETATM   20  C   UNL     1      -7.506   9.978  66.472  1.00  0.00    -0.105 A  
HETATM   21  C   UNL     1      -8.748   6.478  67.364  1.00  0.00    -0.117 C  
HETATM   22  C   UNL     1      -7.861   7.579  66.836  1.00  0.00    -0.111 A  
HETATM   23  C   UNL     1      -6.057   5.983  66.267  1.00  0.00    -0.032 C  
HETATM   24  F   UNL     1      -9.951   6.919  67.823  1.00  0.00    -0.138 F  
HETATM   25  F   UNL     1      -9.039   5.547  66.415  1.00  0.00    -0.128 F  
HETATM   26  C   UNL     1      -5.808   8.376  65.820  1.00  0.00    -0.044 A  
HETATM   27  F   UNL     1      -8.180   5.807  68.401  1.00  0.00    -0.104 F  
HETATM   28  C   UNL     1      -8.306   8.912  66.896  1.00  0.00    -0.112 A  
HETATM   29  N   UNL     1      -5.614   4.911  66.243  1.00  0.00    -0.017 NA 
HETATM   30  C   UNL     1      -6.271   9.699  65.888  1.00  0.00    -0.069 A  
HETATM   31  C   UNL     1      -6.591   7.317  66.307  1.00  0.00    -0.052 A  
ENDBRANCH   6  20
TORSDOF 3
ENDMDL
MODEL      171
REMARK 921   NORMALIZED FREE ENERGY PREDICTED BY IDOCK:    1.77 KCAL/MOL
REMARK 922        TOTAL FREE ENERGY PREDICTED BY IDOCK:    1.47 KCAL/MOL
REMARK 923 INTER-LIGAND FREE ENERGY PREDICTED BY IDOCK:   -0.55 KCAL/MOL
REMARK 924 INTRA-LIGAND FREE ENERGY PREDICTED BY IDOCK:    2.01 KCAL/MOL
REMARK 927      BINDING AFFINITY PREDICTED BY RF-SCORE:    0.00 PKD
ROOT
HETATM    1  C   UNL     1     -11.591  11.771  67.142  1.00  0.00    -0.342 C  
HETATM    2  C   UNL     1     -10.215  12.454  67.079  1.00  0.00    -0.220 C  
HETATM    3  C   UNL     1      -9.602  12.448  65.677  1.00  0.00    -0.109 C  
HETATM    4  O   UNL     1      -9.314  11.845  68.005  1.00  0.00    -0.180 OA 
HETATM    5  C   UNL     1     -10.420  13.930  67.526  1.00  0.00    -0.248 C  
HETATM    6  N   UNL     1      -9.258  14.678  67.668  1.00  0.00    -0.189 N  
HETATM    7  H   UNL     1      -8.464  12.267  67.965  1.00  0.00     0.000 HD 
HETATM    8  H   UNL     1      -8.365  14.215  67.495  1.00  0.00     0.000 HD 
HETATM    9  O   UNL     1     -11.552  14.397  67.653  1.00  0.00    -0.332 OA 
ENDROOT
BRANCH   3  10
HETATM   10  S   UNL     1      -9.518  10.820  64.965  1.00  0.00    -0.260 S  
HETATM   11  O   UNL     1      -8.919  10.905  63.651  1.00  0.00    -0.180 OA 
HETATM   12  O   UNL     1     -10.817  10.191  65.154  1.00  0.00     0.252 OA 
BRANCH  10  13
HETATM   13  C   UNL     1      -8.346   9.964  65.988  1.00  0.00    -0.122 A  
HETATM   14  C   UNL     1      -8.771   9.494  67.236  1.00  0.00    -0.132 A  
HETATM   15  C   UNL     1      -7.032   9.767  65.552  1.00  0.00    -0.099 A  
HETATM   16  F   UNL     1      -5.735   7.865  68.360  1.00  0.00    -0.028 F  
HETATM   17  C   UNL     1      -7.882   8.780  68.037  1.00  0.00    -0.102 A  
HETATM   18  C   UNL     1      -6.146   9.058  66.366  1.00  0.00    -0.063 A  
HETATM   19  C   UNL     1      -6.582   8.562  67.593  1.00  0.00    -0.062 A  
ENDBRANCH  10  13
ENDBRANCH   3  10
BRANCH   6  20
HETATM   20  C   UNL     1      -9.237  16.045  68.038  1.00  0.00    -0.193 A  
HETATM   21  C   UNL     1      -7.291  19.224  67.202  1.00  0.00    -0.208 C  
HETATM   22  C   UNL     1      -8.277  18.296  67.869  1.00  0.00    -0.261 A  
HETATM   23  C   UNL     1      -8.980  20.041  69.476  1.00  0.00     0.578 C  
HETATM   24  F   UNL     1      -6.612  18.650  66.171  1.00  0.00    -0.200 F  
HETATM   25  F   UNL     1      -7.891  20.325  66.676  1.00  0.00    -0.298 F  
HETATM   26  C   UNL     1      -9.987  17.811  69.520  1.00  0.00     0.160 A  
HETATM   27  F   UNL     1      -6.341  19.676  68.063  1.00  0.00    -0.225 F  
HETATM   28  C   UNL     1      -8.381  16.966  67.424  1.00  0.00    -0.201 A  
HETATM   29  N   UNL     1      -8.898  21.110  69.922  1.00  0.00     3.226 NA 
HETATM   30  C   UNL     1     -10.077  16.489  69.060  1.00  0.00    -0.279 A  
HETATM   31  C   UNL     1      -9.078  18.712  68.939  1.00  0.00    -0.225 A  
ENDBRANCH   6  20
TORSDOF 3
ENDMDL
MODEL      172
REMARK 921   NORMALIZED FREE ENERGY PREDICTED BY IDOCK:    2.34 KCAL/MOL
REMARK 922        TOTAL FREE ENERGY PREDICTED BY IDOCK:    2.13 KCAL/MOL
REMARK 923 INTER-LIGAND FREE ENERGY PREDICTED BY IDOCK:    2.35 KCAL/MOL
REMARK 924 INTRA-LIGAND FREE ENERGY PREDICTED BY IDOCK:   -0.22 KCAL/MOL
REMARK 927      BINDING AFFINITY PREDICTED BY RF-SCORE:    0.00 PKD
ROOT
HETATM    1  C   UNL     1      -9.762  10.375  63.312  1.00  0.00    -0.308 C  
HETATM    2  C   UNL     1      -9.349  10.545  64.783  1.00  0.00    -0.238 C  
HETATM    3  C   UNL     1     -10.336  11.388  65.594  1.00  0.00    -0.257 C  
HETATM    4  O   UNL     1      -8.042  11.114  64.870  1.00  0.00    -0.351 OA 
HETATM    5  C   UNL     1      -9.283   9.120  65.404  1.00  0.00    -0.202 C  
HETATM    6  N   UNL     1      -8.789   9.057  66.701  1.00  0.00    -0.129 N  
HETATM    7  H   UNL     1      -7.786  11.219  65.779  1.00  0.00     0.000 HD 
HETATM    8  H   UNL     1      -8.487   9.925  67.143  1.00  0.00     0.000 HD 
HETATM    9  O   UNL     1      -9.728   8.148  64.794  1.00  0.00     1.357 OA 
ENDROOT
BRANCH   3  10
HETATM   10  S   UNL     1     -10.664  12.973  64.855  1.00  0.00    -0.351 S  
HETATM   11  O   UNL     1     -11.705  12.829  63.861  1.00  0.00    -0.386 OA 
HETATM   12  O   UNL     1      -9.382  13.571  64.514  1.00  0.00     0.590 OA 
BRANCH  10  13
HETATM   13  C   UNL     1     -11.372  13.924  66.177  1.00  0.00    -0.320 A  
HETATM   14  C   UNL     1     -12.316  14.907  65.857  1.00  0.00     0.156 A  
HETATM   15  C   UNL     1     -10.993  13.692  67.503  1.00  0.00    -0.282 A  
HETATM   16  F   UNL     1     -13.152  16.079  69.183  1.00  0.00     0.378 F  
HETATM   17  C   UNL     1     -12.919  15.635  66.881  1.00  0.00     3.192 A  
HETATM   18  C   UNL     1     -11.596  14.433  68.521  1.00  0.00    -0.347 A  
HETATM   19  C   UNL     1     -12.561  15.387  68.202  1.00  0.00     1.061 A  
ENDBRANCH  10  13
ENDBRANCH   3  10
BRANCH   6  20
HETATM   20  C   UNL     1      -8.679   7.857  67.447  1.00  0.00    -0.128 A  
HETATM   21  C   UNL     1      -7.996   4.147  66.844  1.00  0.00    -0.097 C  
HETATM   22  C   UNL     1      -8.329   5.432  67.562  1.00  0.00    -0.103 A  
HETATM   23  C   UNL     1      -8.744   4.245  69.694  1.00  0.00    -0.074 C  
HETATM   24  F   UNL     1      -7.676   4.322  65.533  1.00  0.00    -0.081 F  
HETATM   25  F   UNL     1      -6.932   3.506  67.397  1.00  0.00    -0.050 F  
HETATM   26  C   UNL     1      -8.962   6.677  69.545  1.00  0.00    -0.138 A  
HETATM   27  F   UNL     1      -9.029   3.263  66.857  1.00  0.00    -0.119 F  
HETATM   28  C   UNL     1      -8.325   6.643  66.847  1.00  0.00    -0.114 A  
HETATM   29  N   UNL     1      -8.818   3.271  70.321  1.00  0.00    -0.073 NA 
HETATM   30  C   UNL     1      -8.951   7.875  68.815  1.00  0.00    -0.141 A  
HETATM   31  C   UNL     1      -8.669   5.454  68.921  1.00  0.00    -0.099 A  
ENDBRANCH   6  20
TORSDOF 3
ENDMDL
MODEL      173
REMARK 921   NORMALIZED FREE ENERGY PREDICTED BY IDOCK:    2.49 KCAL/MOL
REMARK 922        TOTAL FREE ENERGY PREDICTED BY IDOCK:    2.31 KCAL/MOL
REMARK 923 INTER-LIGAND FREE ENERGY PREDICTED BY IDOCK:   -2.97 KCAL/MOL
REMARK 924 INTRA-LIGAND FREE ENERGY PREDICTED BY IDOCK:    5.28 KCAL/MOL
REMARK 927      BINDING AFFINITY PREDICTED BY RF-SCORE:    0.00 PKD
ROOT
HETATM    1  C   UNL     1     -10.403   4.190  66.966  1.00  0.00     0.385 C  
HETATM    2  C   UNL     1      -9.738   5.413  66.314  1.00  0.00    -0.162 C  
HETATM    3  C   UNL     1     -10.100   5.581  64.836  1.00  0.00     1.102 C  
HETATM    4  O   UNL     1      -8.319   5.345  66.460  1.00  0.00    -0.108 OA 
HETATM    5  C   UNL     1     -10.230   6.667  67.092  1.00  0.00    -0.213 C  
HETATM    6  N   UNL     1      -9.626   7.866  66.735  1.00  0.00    -0.198 N  
HETATM    7  H   UNL     1      -7.908   6.100  66.057  1.00  0.00     0.000 HD 
HETATM    8  H   UNL     1      -8.900   7.844  66.019  1.00  0.00     0.000 HD 
HETATM    9  O   UNL     1     -11.153   6.582  67.901  1.00  0.00    -0.303 OA 
ENDROOT
BRANCH   3  10
HETATM   10  S   UNL     1      -9.784   4.117  63.875  1.00  0.00    -0.083 S  
HETATM   11  O   UNL     1      -9.218   4.499  62.599  1.00  0.00    -0.129 OA 
HETATM   12  O   UNL     1     -10.973   3.282  63.945  1.00  0.00    -0.252 OA 
BRANCH  10  13
HETATM   13  C   UNL     1      -8.486   3.293  64.763  1.00  0.00    -0.098 A  
HETATM   14  C   UNL     1      -7.281   3.040  64.097  1.00  0.00    -0.057 A  
HETATM   15  C   UNL     1      -8.669   2.908  66.095  1.00  0.00    -0.133 A  
HETATM   16  F   UNL     1      -5.390   1.506  66.782  1.00  0.00    -0.010 F  
HETATM   17  C   UNL     1      -6.232   2.435  64.787  1.00  0.00    -0.019 A  
HETATM   18  C   UNL     1      -7.615   2.295  66.775  1.00  0.00    -0.066 A  
HETATM   19  C   UNL     1      -6.405   2.075  66.119  1.00  0.00    -0.024 A  
ENDBRANCH  10  13
ENDBRANCH   3  10
BRANCH   6  20
HETATM   20  C   UNL     1      -9.957   9.119  67.308  1.00  0.00    -0.211 A  
HETATM   21  C   UNL     1     -12.152  10.514  70.106  1.00  0.00    -0.300 C  
HETATM   22  C   UNL     1     -11.210  10.469  68.927  1.00  0.00    -0.323 A  
HETATM   23  C   UNL     1     -11.200  12.936  68.720  1.00  0.00    -0.279 C  
HETATM   24  F   UNL     1     -12.467   9.285  70.599  1.00  0.00    -0.259 F  
HETATM   25  F   UNL     1     -11.636  11.208  71.155  1.00  0.00    -0.297 F  
HETATM   26  C   UNL     1      -9.877  11.540  67.207  1.00  0.00    -0.208 A  
HETATM   27  F   UNL     1     -13.338  11.103  69.798  1.00  0.00     0.126 F  
HETATM   28  C   UNL     1     -10.786   9.224  68.430  1.00  0.00    -0.125 A  
HETATM   29  N   UNL     1     -11.559  13.988  69.051  1.00  0.00    -0.283 NA 
HETATM   30  C   UNL     1      -9.464  10.288  66.727  1.00  0.00    -0.198 A  
HETATM   31  C   UNL     1     -10.761  11.635  68.294  1.00  0.00    -0.246 A  
ENDBRANCH   6  20
TORSDOF 3
ENDMDL
MODEL      174
REMARK 921   NORMALIZED FREE ENERGY PREDICTED BY IDOCK:    2.59 KCAL/MOL
REMARK 922        TOTAL FREE ENERGY PREDICTED BY IDOCK:    2.43 KCAL/MOL
REMARK 923 INTER-LIGAND FREE ENERGY PREDICTED BY IDOCK:    3.02 KCAL/MOL
REMARK 924 INTRA-LIGAND FREE ENERGY PREDICTED BY IDOCK:   -0.59 KCAL/MOL
REMARK 927      BINDING AFFINITY PREDICTED BY RF-SCORE:    0.00 PKD
ROOT
HETATM    1  C   UNL     1      -7.883   9.063  72.496  1.00  0.00     0.474 C  
HETATM    2  C   UNL     1      -7.600   9.130  70.986  1.00  0.00    -0.096 C  
HETATM    3  C   UNL     1      -8.755   8.602  70.132  1.00  0.00    -0.143 C  
HETATM    4  O   UNL     1      -6.402   8.417  70.673  1.00  0.00    -0.035 OA 
HETATM    5  C   UNL     1      -7.362  10.626  70.633  1.00  0.00     1.080 C  
HETATM    6  N   UNL     1      -6.952  10.874  69.329  1.00  0.00    -0.099 N  
HETATM    7  H   UNL     1      -6.227   8.458  69.740  1.00  0.00     0.000 HD 
HETATM    8  H   UNL     1      -6.816  10.076  68.709  1.00  0.00     0.000 HD 
HETATM    9  O   UNL     1      -7.613  11.511  71.450  1.00  0.00     4.829 OA 
ENDROOT
BRANCH   3  10
HETATM   10  S   UNL     1      -9.268   6.963  70.595  1.00  0.00    -0.158 S  
HETATM   11  O   UNL     1     -10.494   7.045  71.359  1.00  0.00    -0.209 OA 
HETATM   12  O   UNL     1      -8.101   6.273  71.125  1.00  0.00    -0.114 OA 
BRANCH  10  13
HETATM   13  C   UNL     1      -9.698   6.196  69.052  1.00  0.00    -0.135 A  
HETATM   14  C   UNL     1     -10.868   6.612  68.406  1.00  0.00    -0.320 A  
HETATM   15  C   UNL     1      -8.884   5.202  68.500  1.00  0.00    -0.109 A  
HETATM   16  F   UNL     1     -10.698   4.567  65.419  1.00  0.00    -0.284 F  
HETATM   17  C   UNL     1     -11.202   6.058  67.172  1.00  0.00    -0.089 A  
HETATM   18  C   UNL     1      -9.232   4.646  67.267  1.00  0.00    -0.143 A  
HETATM   19  C   UNL     1     -10.379   5.087  66.611  1.00  0.00    -0.270 A  
ENDBRANCH  10  13
ENDBRANCH   3  10
BRANCH   6  20
HETATM   20  C   UNL     1      -6.713  12.170  68.809  1.00  0.00    -0.088 A  
HETATM   21  C   UNL     1      -8.635  14.968  67.057  1.00  0.00    -0.239 C  
HETATM   22  C   UNL     1      -7.489  14.193  67.660  1.00  0.00    -0.192 A  
HETATM   23  C   UNL     1      -5.836  15.885  66.929  1.00  0.00     0.477 C  
HETATM   24  F   UNL     1      -9.847  14.371  67.229  1.00  0.00    -0.233 F  
HETATM   25  F   UNL     1      -8.761  16.210  67.597  1.00  0.00    -0.172 F  
HETATM   26  C   UNL     1      -5.138  13.902  68.182  1.00  0.00    -0.112 A  
HETATM   27  F   UNL     1      -8.495  15.141  65.716  1.00  0.00     0.044 F  
HETATM   28  C   UNL     1      -7.742  12.958  68.281  1.00  0.00    -0.137 A  
HETATM   29  N   UNL     1      -5.560  16.869  66.380  1.00  0.00    -0.341 NA 
HETATM   30  C   UNL     1      -5.412  12.673  68.799  1.00  0.00    -0.062 A  
HETATM   31  C   UNL     1      -6.168  14.656  67.597  1.00  0.00    -0.106 A  
ENDBRANCH   6  20
TORSDOF 3
ENDMDL
MODEL      175
REMARK 921   NORMALIZED FREE ENERGY PREDICTED BY IDOCK:    5.13 KCAL/MOL
REMARK 922        TOTAL FREE ENERGY PREDICTED BY IDOCK:    5.42 KCAL/MOL
REMARK 923 INTER-LIGAND FREE ENERGY PREDICTED BY IDOCK:    5.47 KCAL/MOL
REMARK 924 INTRA-LIGAND FREE ENERGY PREDICTED BY IDOCK:   -0.05 KCAL/MOL
REMARK 927      BINDING AFFINITY PREDICTED BY RF-SCORE:    0.00 PKD
ROOT
HETATM    1  C   UNL     1      -7.883   9.063  72.496  1.00  0.00     0.474 C  
HETATM    2  C   UNL     1      -7.600   9.130  70.986  1.00  0.00    -0.096 C  
HETATM    3  C   UNL     1      -8.755   8.602  70.132  1.00  0.00    -0.143 C  
HETATM    4  O   UNL     1      -6.402   8.417  70.673  1.00  0.00    -0.035 OA 
HETATM    5  C   UNL     1      -7.362  10.626  70.633  1.00  0.00     1.080 C  
HETATM    6  N   UNL     1      -6.952  10.874  69.329  1.00  0.00    -0.099 N  
HETATM    7  H   UNL     1      -6.227   8.458  69.740  1.00  0.00     0.000 HD 
HETATM    8  H   UNL     1      -6.816  10.076  68.709  1.00  0.00     0.000 HD 
HETATM    9  O   UNL     1      -7.613  11.511  71.450  1.00  0.00     4.829 OA 
ENDROOT
BRANCH   3  10
HETATM   10  S   UNL     1      -9.268   6.963  70.595  1.00  0.00    -0.158 S  
HETATM   11  O   UNL     1      -8.348   6.438  71.581  1.00  0.00    -0.123 OA 
HETATM   12  O   UNL     1      -9.548   6.229  69.370  1.00  0.00    -0.141 OA 
BRANCH  10  13
HETATM   13  C   UNL     1     -10.808   7.218  71.441  1.00  0.00    -0.230 A  
HETATM   14  C   UNL     1     -10.778   7.801  72.714  1.00  0.00    -0.417 A  
HETATM   15  C   UNL     1     -12.017   6.844  70.847  1.00  0.00    -0.430 A  
HETATM   16  F   UNL     1     -14.331   7.960  73.413  1.00  0.00     0.531 F  
HETATM   17  C   UNL     1     -11.977   8.053  73.378  1.00  0.00     1.267 A  
HETATM   18  C   UNL     1     -13.212   7.093  71.525  1.00  0.00    -0.419 A  
HETATM   19  C   UNL     1     -13.181   7.704  72.776  1.00  0.00     0.738 A  
ENDBRANCH  10  13
ENDBRANCH   3  10
BRANCH   6  20
HETATM   20  C   UNL     1      -6.713  12.170  68.809  1.00  0.00    -0.088 A  
HETATM   21  C   UNL     1      -8.635  14.968  67.057  1.00  0.00    -0.239 C  
HETATM   22  C   UNL     1      -7.489  14.193  67.660  1.00  0.00    -0.192 A  
HETATM   23  C   UNL     1      -5.836  15.885  66.929  1.00  0.00     0.477 C  
HETATM   24  F   UNL     1      -9.847  14.371  67.229  1.00  0.00    -0.233 F  
HETATM   25  F   UNL     1      -8.761  16.210  67.597  1.00  0.00    -0.172 F  
HETATM   26  C   UNL     1      -5.138  13.902  68.182  1.00  0.00    -0.112 A  
HETATM   27  F   UNL     1      -8.495  15.141  65.716  1.00  0.00     0.044 F  
HETATM   28  C   UNL     1      -7.742  12.958  68.281  1.00  0.00    -0.137 A  
HETATM   29  N   UNL     1      -5.560  16.869  66.380  1.00  0.00    -0.341 NA 
HETATM   30  C   UNL     1      -5.412  12.673  68.799  1.00  0.00    -0.062 A  
HETATM   31  C   UNL     1      -6.168  14.656  67.597  1.00  0.00    -0.106 A  
ENDBRANCH   6  20
TORSDOF 3
ENDMDL
MODEL      176
REMARK 921   NORMALIZED FREE ENERGY PREDICTED BY IDOCK:    6.07 KCAL/MOL
REMARK 922        TOTAL FREE ENERGY PREDICTED BY IDOCK:    6.51 KCAL/MOL
REMARK 923 INTER-LIGAND FREE ENERGY PREDICTED BY IDOCK:   -3.42 KCAL/MOL
REMARK 924 INTRA-LIGAND FREE ENERGY PREDICTED BY IDOCK:    9.93 KCAL/MOL
REMARK 927      BINDING AFFINITY PREDICTED BY RF-SCORE:    0.00 PKD
ROOT
HETATM    1  C   UNL     1     -11.542  12.572  65.693  1.00  0.00    -0.435 C  
HETATM    2  C   UNL     1     -10.235  12.027  66.292  1.00  0.00    -0.222 C  
HETATM    3  C   UNL     1     -10.272  11.911  67.817  1.00  0.00    -0.200 C  
HETATM    4  O   UNL     1      -9.130  12.840  65.895  1.00  0.00    -0.444 OA 
HETATM    5  C   UNL     1     -10.014  10.610  65.690  1.00  0.00    -0.268 C  
HETATM    6  N   UNL     1      -8.803  10.008  66.008  1.00  0.00    -0.142 N  
HETATM    7  H   UNL     1      -8.322  12.504  66.266  1.00  0.00     0.000 HD 
HETATM    8  H   UNL     1      -8.144  10.531  66.583  1.00  0.00     0.000 HD 
HETATM    9  O   UNL     1     -10.907  10.053  65.051  1.00  0.00     0.485 OA 
ENDROOT
BRANCH   3  10
HETATM   10  S   UNL     1     -10.735  13.432  68.617  1.00  0.00    -0.240 S  
HETATM   11  O   UNL     1      -9.656  13.862  69.481  1.00  0.00     0.443 OA 
HETATM   12  O   UNL     1     -12.084  13.262  69.134  1.00  0.00    -0.306 OA 
BRANCH  10  13
HETATM   13  C   UNL     1     -10.805  14.610  67.290  1.00  0.00    -0.305 A  
HETATM   14  C   UNL     1     -10.603  14.151  65.983  1.00  0.00    -0.297 A  
HETATM   15  C   UNL     1     -11.055  15.960  67.551  1.00  0.00    -0.235 A  
HETATM   16  F   UNL     1     -11.076  17.244  64.154  1.00  0.00     0.223 F  
HETATM   17  C   UNL     1     -10.698  15.049  64.921  1.00  0.00    -0.420 A  
HETATM   18  C   UNL     1     -11.140  16.853  66.480  1.00  0.00     0.337 A  
HETATM   19  C   UNL     1     -10.973  16.387  65.178  1.00  0.00    -0.232 A  
ENDBRANCH  10  13
ENDBRANCH   3  10
BRANCH   6  20
HETATM   20  C   UNL     1      -8.429   8.710  65.580  1.00  0.00    -0.165 A  
HETATM   21  C   UNL     1      -7.691   5.282  67.096  1.00  0.00    -0.096 C  
HETATM   22  C   UNL     1      -7.839   6.381  66.071  1.00  0.00    -0.103 A  
HETATM   23  C   UNL     1      -6.936   4.949  64.265  1.00  0.00    -0.049 C  
HETATM   24  F   UNL     1      -8.098   5.642  68.344  1.00  0.00    -0.098 F  
HETATM   25  F   UNL     1      -8.416   4.177  66.779  1.00  0.00    -0.103 F  
HETATM   26  C   UNL     1      -7.651   7.245  63.813  1.00  0.00    -0.110 A  
HETATM   27  F   UNL     1      -6.402   4.872  67.232  1.00  0.00    -0.035 F  
HETATM   28  C   UNL     1      -8.322   7.639  66.473  1.00  0.00    -0.129 A  
HETATM   29  N   UNL     1      -6.480   3.951  63.887  1.00  0.00    -0.036 NA 
HETATM   30  C   UNL     1      -8.137   8.492  64.233  1.00  0.00    -0.155 A  
HETATM   31  C   UNL     1      -7.486   6.193  64.729  1.00  0.00    -0.084 A  
ENDBRANCH   6  20
TORSDOF 3
ENDMDL
MODEL      177
REMARK 921   NORMALIZED FREE ENERGY PREDICTED BY IDOCK:   60.38 KCAL/MOL
REMARK 922        TOTAL FREE ENERGY PREDICTED BY IDOCK:   70.35 KCAL/MOL
REMARK 923 INTER-LIGAND FREE ENERGY PREDICTED BY IDOCK:   70.27 KCAL/MOL
REMARK 924 INTRA-LIGAND FREE ENERGY PREDICTED BY IDOCK:    0.09 KCAL/MOL
REMARK 927      BINDING AFFINITY PREDICTED BY RF-SCORE:    0.00 PKD
ROOT
HETATM    1  C   UNL     1     -13.097   7.125  72.217  1.00  0.00     0.087 C  
HETATM    2  C   UNL     1     -11.771   7.807  71.842  1.00  0.00    -0.292 C  
HETATM    3  C   UNL     1     -11.423   7.674  70.358  1.00  0.00    -0.174 C  
HETATM    4  O   UNL     1     -10.703   7.291  72.638  1.00  0.00    -0.236 OA 
HETATM    5  C   UNL     1     -11.924   9.317  72.184  1.00  0.00    -0.246 C  
HETATM    6  N   UNL     1     -10.772  10.081  72.043  1.00  0.00     1.212 N  
HETATM    7  H   UNL     1      -9.885   7.712  72.406  1.00  0.00     0.000 HD 
HETATM    8  H   UNL     1      -9.916   9.609  71.752  1.00  0.00     0.000 HD 
HETATM    9  O   UNL     1     -13.024   9.788  72.474  1.00  0.00    -0.299 OA 
ENDROOT
BRANCH   3  10
HETATM   10  S   UNL     1     -11.434   5.988  69.791  1.00  0.00     0.123 S  
HETATM   11  O   UNL     1     -12.380   5.857  68.705  1.00  0.00     3.064 OA 
HETATM   12  O   UNL     1     -11.520   5.132  70.965  1.00  0.00     0.469 OA 
BRANCH  10  13
HETATM   13  C   UNL     1      -9.825   5.766  69.074  1.00  0.00    -0.158 A  
HETATM   14  C   UNL     1      -9.328   4.463  68.946  1.00  0.00    -0.216 A  
HETATM   15  C   UNL     1      -9.077   6.868  68.649  1.00  0.00    -0.131 A  
HETATM   16  F   UNL     1      -6.169   5.154  67.311  1.00  0.00    -0.030 F  
HETATM   17  C   UNL     1      -8.087   4.260  68.345  1.00  0.00    -0.081 A  
HETATM   18  C   UNL     1      -7.831   6.655  68.056  1.00  0.00    -0.113 A  
HETATM   19  C   UNL     1      -7.355   5.355  67.899  1.00  0.00    -0.073 A  
ENDBRANCH  10  13
ENDBRANCH   3  10
BRANCH   6  20
HETATM   20  C   UNL     1     -10.715  11.477  72.278  1.00  0.00    10.134 A  
HETATM   21  C   UNL     1     -12.780  14.605  71.543  1.00  0.00    -0.338 C  
HETATM   22  C   UNL     1     -11.649  13.731  72.026  1.00  0.00     1.694 A  
HETATM   23  C   UNL     1     -10.288  15.691  72.684  1.00  0.00     3.357 C  
HETATM   24  F   UNL     1     -13.840  13.905  71.053  1.00  0.00    -0.262 F  
HETATM   25  F   UNL     1     -13.287  15.390  72.531  1.00  0.00    -0.385 F  
HETATM   26  C   UNL     1      -9.459  13.413  73.019  1.00  0.00    15.691 A  
HETATM   27  F   UNL     1     -12.397  15.443  70.543  1.00  0.00    -0.317 F  
HETATM   28  C   UNL     1     -11.754  12.334  71.899  1.00  0.00     2.820 A  
HETATM   29  N   UNL     1     -10.122  16.836  72.762  1.00  0.00     6.777 NA 
HETATM   30  C   UNL     1      -9.584  12.022  72.886  1.00  0.00    23.633 A  
HETATM   31  C   UNL     1     -10.479  14.270  72.576  1.00  0.00     4.555 A  
ENDBRANCH   6  20
TORSDOF 3
ENDMDL
MODEL      178
REMARK 921   NORMALIZED FREE ENERGY PREDICTED BY IDOCK:   73.31 KCAL/MOL
REMARK 922        TOTAL FREE ENERGY PREDICTED BY IDOCK:   85.56 KCAL/MOL
REMARK 923 INTER-LIGAND FREE ENERGY PREDICTED BY IDOCK:   85.05 KCAL/MOL
REMARK 924 INTRA-LIGAND FREE ENERGY PREDICTED BY IDOCK:    0.51 KCAL/MOL
REMARK 927      BINDING AFFINITY PREDICTED BY RF-SCORE:    0.00 PKD
ROOT
HETATM    1  C   UNL     1      -9.685  10.284  70.219  1.00  0.00     0.183 C  
HETATM    2  C   UNL     1      -8.708  10.334  69.033  1.00  0.00    -0.163 C  
HETATM    3  C   UNL     1      -9.326   9.851  67.720  1.00  0.00    -0.140 C  
HETATM    4  O   UNL     1      -7.534   9.573  69.324  1.00  0.00    -0.072 OA 
HETATM    5  C   UNL     1      -8.274  11.818  68.863  1.00  0.00     0.057 C  
HETATM    6  N   UNL     1      -7.278  12.045  67.922  1.00  0.00    -0.093 N  
HETATM    7  H   UNL     1      -6.930   9.604  68.592  1.00  0.00     0.000 HD 
HETATM    8  H   UNL     1      -6.889  11.241  67.431  1.00  0.00     0.000 HD 
HETATM    9  O   UNL     1      -8.855  12.716  69.473  1.00  0.00     1.103 OA 
ENDROOT
BRANCH   3  10
HETATM   10  S   UNL     1     -10.059   8.234  67.852  1.00  0.00    -0.212 S  
HETATM   11  O   UNL     1     -10.920   8.196  69.014  1.00  0.00    -0.057 OA 
HETATM   12  O   UNL     1      -8.995   7.257  67.676  1.00  0.00    -0.126 OA 
BRANCH  10  13
HETATM   13  C   UNL     1     -11.130   8.132  66.439  1.00  0.00     1.758 A  
HETATM   14  C   UNL     1     -11.281   6.892  65.808  1.00  0.00     3.574 A  
HETATM   15  C   UNL     1     -11.803   9.266  65.974  1.00  0.00     6.167 A  
HETATM   16  F   UNL     1     -13.685   7.781  63.246  1.00  0.00     9.794 F  
HETATM   17  C   UNL     1     -12.151   6.777  64.725  1.00  0.00    12.101 A  
HETATM   18  C   UNL     1     -12.666   9.142  64.882  1.00  0.00    17.832 A  
HETATM   19  C   UNL     1     -12.840   7.899  64.278  1.00  0.00    23.863 A  
ENDBRANCH  10  13
ENDBRANCH   3  10
BRANCH   6  20
HETATM   20  C   UNL     1      -6.770  13.329  67.603  1.00  0.00    -0.166 A  
HETATM   21  C   UNL     1      -6.780  16.867  69.043  1.00  0.00    -0.215 C  
HETATM   22  C   UNL     1      -6.528  15.720  68.096  1.00  0.00    -0.138 A  
HETATM   23  C   UNL     1      -5.546  17.219  66.389  1.00  0.00    -0.173 C  
HETATM   24  F   UNL     1      -7.357  16.489  70.217  1.00  0.00     0.415 F  
HETATM   25  F   UNL     1      -5.634  17.512  69.391  1.00  0.00    -0.169 F  
HETATM   26  C   UNL     1      -5.707  14.808  66.003  1.00  0.00     6.459 A  
HETATM   27  F   UNL     1      -7.606  17.807  68.511  1.00  0.00    -0.234 F  
HETATM   28  C   UNL     1      -6.928  14.422  68.462  1.00  0.00    -0.100 A  
HETATM   29  N   UNL     1      -5.246  18.274  66.010  1.00  0.00    -0.154 NA 
HETATM   30  C   UNL     1      -6.111  13.521  66.388  1.00  0.00     3.555 A  
HETATM   31  C   UNL     1      -5.928  15.911  66.845  1.00  0.00     0.402 A  
ENDBRANCH   6  20
TORSDOF 3
ENDMDL
