MODEL        1
REMARK 921   NORMALIZED FREE ENERGY PREDICTED BY IDOCK:   -5.09 KCAL/MOL
REMARK 922        TOTAL FREE ENERGY PREDICTED BY IDOCK:   -9.55 KCAL/MOL
REMARK 923 INTER-LIGAND FREE ENERGY PREDICTED BY IDOCK:   -8.95 KCAL/MOL
REMARK 924 INTRA-LIGAND FREE ENERGY PREDICTED BY IDOCK:   -0.59 KCAL/MOL
REMARK 927      BINDING AFFINITY PREDICTED BY RF-SCORE:    0.00 PKD
ROOT
HETATM    1  C   UNL     1     -12.516  15.771  74.515  1.00  0.00    -0.755 C  
HETATM    2  C   UNL     1     -13.175  15.827  73.154  1.00  0.00    -0.591 C  
ENDROOT
BRANCH   2   3
HETATM    3  O   UNL     1     -12.521  14.926  72.247  1.00  0.00    -0.321 OA 
BRANCH   3   4
HETATM    4  C   UNL     1     -13.238  13.824  71.884  1.00  0.00    -0.403 C  
HETATM    5  O   UNL     1     -14.240  13.414  72.456  1.00  0.00    -0.721 OA 
BRANCH   4   6
HETATM    6  C   UNL     1     -12.597  13.183  70.639  1.00  0.00    -0.211 C  
BRANCH   6   7
HETATM    7  N   UNL     1     -11.474  14.032  70.156  1.00  0.00    -0.469 NA 
HETATM    8  H   UNL     1     -10.638  13.465  70.008  1.00  0.00     0.000 HD 
BRANCH   7   9
HETATM    9  C   UNL     1     -11.779  14.816  68.956  1.00  0.00    -0.312 C  
BRANCH   9  10
HETATM   10  C   UNL     1     -11.455  14.074  67.640  1.00  0.00    -0.334 C  
BRANCH  10  11
HETATM   11  N   UNL     1     -10.446  14.729  66.791  1.00  0.00    -0.278 NA 
HETATM   12  H   UNL     1      -9.537  14.280  66.907  1.00  0.00     0.000 HD 
BRANCH  11  13
HETATM   13  C   UNL     1     -10.813  14.801  65.346  1.00  0.00    -0.363 C  
BRANCH  13  14
HETATM   14  C   UNL     1     -12.163  14.120  65.028  1.00  0.00    -0.441 C  
HETATM   15  H   UNL     1     -13.212  11.829  64.035  1.00  0.00     0.000 H  
HETATM   16  S   UNL     1     -11.998  12.441  64.321  1.00  0.00    -0.429 SA 
ENDBRANCH  13  14
BRANCH  13  17
HETATM   17  C   UNL     1     -10.843  16.277  64.891  1.00  0.00    -0.296 C  
HETATM   18  O   UNL     1     -11.575  16.737  64.021  1.00  0.00    -1.195 OA 
BRANCH  17  19
HETATM   19  O   UNL     1      -9.938  17.006  65.607  1.00  0.00    -0.554 OA 
BRANCH  19  20
HETATM   20  C   UNL     1     -10.360  18.318  66.000  1.00  0.00    -0.363 C  
HETATM   21  C   UNL     1      -9.639  18.760  67.256  1.00  0.00    -0.333 C  
ENDBRANCH  19  20
ENDBRANCH  17  19
ENDBRANCH  13  17
ENDBRANCH  11  13
ENDBRANCH  10  11
ENDBRANCH   9  10
ENDBRANCH   7   9
ENDBRANCH   6   7
BRANCH   6  22
HETATM   22  C   UNL     1     -12.244  11.714  70.950  1.00  0.00    -0.298 C  
HETATM   23  H   UNL     1     -10.865   9.583  69.981  1.00  0.00     0.000 H  
HETATM   24  S   UNL     1     -11.184  10.906  69.701  1.00  0.00    -0.290 SA 
ENDBRANCH   6  22
ENDBRANCH   4   6
ENDBRANCH   3   4
ENDBRANCH   2   3
TORSDOF 13
ENDMDL
MODEL        2
REMARK 921   NORMALIZED FREE ENERGY PREDICTED BY IDOCK:   -4.98 KCAL/MOL
REMARK 922        TOTAL FREE ENERGY PREDICTED BY IDOCK:   -9.37 KCAL/MOL
REMARK 923 INTER-LIGAND FREE ENERGY PREDICTED BY IDOCK:   -8.66 KCAL/MOL
REMARK 924 INTRA-LIGAND FREE ENERGY PREDICTED BY IDOCK:   -0.71 KCAL/MOL
REMARK 927      BINDING AFFINITY PREDICTED BY RF-SCORE:    0.00 PKD
ROOT
HETATM    1  C   UNL     1     -12.156  12.837  63.441  1.00  0.00    -0.619 C  
HETATM    2  C   UNL     1     -12.262  13.947  64.465  1.00  0.00    -0.417 C  
ENDROOT
BRANCH   2   3
HETATM    3  O   UNL     1     -10.982  14.568  64.659  1.00  0.00    -0.382 OA 
BRANCH   3   4
HETATM    4  C   UNL     1     -11.008  15.894  64.975  1.00  0.00    -0.412 C  
HETATM    5  O   UNL     1     -11.440  16.784  64.254  1.00  0.00    -1.125 OA 
BRANCH   4   6
HETATM    6  C   UNL     1     -10.419  16.097  66.385  1.00  0.00    -0.301 C  
BRANCH   6   7
HETATM    7  N   UNL     1      -9.904  14.801  66.906  1.00  0.00    -0.238 NA 
HETATM    8  H   UNL     1      -8.888  14.832  66.992  1.00  0.00     0.000 HD 
BRANCH   7   9
HETATM    9  C   UNL     1     -10.512  14.372  68.170  1.00  0.00    -0.237 C  
BRANCH   9  10
HETATM   10  C   UNL     1     -11.715  15.242  68.597  1.00  0.00    -0.346 C  
BRANCH  10  11
HETATM   11  N   UNL     1     -12.727  14.545  69.408  1.00  0.00    -0.507 NA 
HETATM   12  H   UNL     1     -12.896  13.608  69.040  1.00  0.00     0.000 HD 
BRANCH  11  13
HETATM   13  C   UNL     1     -12.409  14.483  70.865  1.00  0.00    -0.345 C  
BRANCH  13  14
HETATM   14  C   UNL     1     -13.107  15.589  71.687  1.00  0.00    -0.481 C  
HETATM   15  H   UNL     1     -12.885  16.993  73.993  1.00  0.00     0.000 H  
HETATM   16  S   UNL     1     -12.257  15.997  73.254  1.00  0.00    -0.546 SA 
ENDBRANCH  13  14
BRANCH  13  17
HETATM   17  C   UNL     1     -12.786  13.092  71.421  1.00  0.00    -0.292 C  
HETATM   18  O   UNL     1     -13.616  12.879  72.298  1.00  0.00    -0.560 OA 
BRANCH  17  19
HETATM   19  O   UNL     1     -12.066  12.122  70.783  1.00  0.00    -0.347 OA 
BRANCH  19  20
HETATM   20  C   UNL     1     -12.656  10.816  70.761  1.00  0.00    -0.383 C  
HETATM   21  C   UNL     1     -11.675   9.775  71.258  1.00  0.00    -0.472 C  
ENDBRANCH  19  20
ENDBRANCH  17  19
ENDBRANCH  13  17
ENDBRANCH  11  13
ENDBRANCH  10  11
ENDBRANCH   9  10
ENDBRANCH   7   9
ENDBRANCH   6   7
BRANCH   6  22
HETATM   22  C   UNL     1      -9.404  17.258  66.347  1.00  0.00    -0.258 C  
HETATM   23  H   UNL     1      -9.168  19.922  66.821  1.00  0.00     0.000 H  
HETATM   24  S   UNL     1     -10.083  18.876  66.855  1.00  0.00    -0.393 SA 
ENDBRANCH   6  22
ENDBRANCH   4   6
ENDBRANCH   3   4
ENDBRANCH   2   3
TORSDOF 13
ENDMDL
MODEL        3
REMARK 921   NORMALIZED FREE ENERGY PREDICTED BY IDOCK:   -4.97 KCAL/MOL
REMARK 922        TOTAL FREE ENERGY PREDICTED BY IDOCK:   -9.35 KCAL/MOL
REMARK 923 INTER-LIGAND FREE ENERGY PREDICTED BY IDOCK:   -7.81 KCAL/MOL
REMARK 924 INTRA-LIGAND FREE ENERGY PREDICTED BY IDOCK:   -1.53 KCAL/MOL
REMARK 927      BINDING AFFINITY PREDICTED BY RF-SCORE:    0.00 PKD
ROOT
HETATM    1  C   UNL     1     -11.610  12.265  63.636  1.00  0.00    -0.581 C  
HETATM    2  C   UNL     1     -12.538  12.834  64.688  1.00  0.00    -0.419 C  
ENDROOT
BRANCH   2   3
HETATM    3  O   UNL     1     -12.286  12.218  65.960  1.00  0.00    -0.646 OA 
BRANCH   3   4
HETATM    4  C   UNL     1     -11.582  12.970  66.855  1.00  0.00    -0.366 C  
HETATM    5  O   UNL     1     -11.729  14.172  67.036  1.00  0.00    -0.363 OA 
BRANCH   4   6
HETATM    6  C   UNL     1     -10.584  12.070  67.608  1.00  0.00    -0.210 C  
BRANCH   6   7
HETATM    7  N   UNL     1     -10.572  12.431  69.052  1.00  0.00    -0.410 NA 
HETATM    8  H   UNL     1     -10.413  13.433  69.166  1.00  0.00     0.000 HD 
BRANCH   7   9
HETATM    9  C   UNL     1     -11.768  12.015  69.791  1.00  0.00    -0.319 C  
BRANCH   9  10
HETATM   10  C   UNL     1     -12.348  13.127  70.693  1.00  0.00    -0.326 C  
BRANCH  10  11
HETATM   11  N   UNL     1     -12.593  14.410  70.015  1.00  0.00    -0.494 NA 
HETATM   12  H   UNL     1     -13.595  14.576  69.916  1.00  0.00     0.000 HD 
BRANCH  11  13
HETATM   13  C   UNL     1     -11.932  15.582  70.662  1.00  0.00    -0.378 C  
BRANCH  13  14
HETATM   14  C   UNL     1     -11.576  15.337  72.145  1.00  0.00    -0.444 C  
HETATM   15  H   UNL     1     -12.563  15.632  74.650  1.00  0.00     0.000 H  
HETATM   16  S   UNL     1     -12.883  15.852  73.315  1.00  0.00    -0.597 SA 
ENDBRANCH  13  14
BRANCH  13  17
HETATM   17  C   UNL     1     -10.664  15.966  69.868  1.00  0.00    -0.334 C  
HETATM   18  O   UNL     1      -9.692  15.241  69.688  1.00  0.00    -0.249 OA 
BRANCH  17  19
HETATM   19  O   UNL     1     -10.783  17.236  69.380  1.00  0.00    -0.242 OA 
BRANCH  19  20
HETATM   20  C   UNL     1     -10.316  17.440  68.040  1.00  0.00    -0.362 C  
HETATM   21  C   UNL     1     -10.414  18.901  67.655  1.00  0.00    -0.514 C  
ENDBRANCH  19  20
ENDBRANCH  17  19
ENDBRANCH  13  17
ENDBRANCH  11  13
ENDBRANCH  10  11
ENDBRANCH   9  10
ENDBRANCH   7   9
ENDBRANCH   6   7
BRANCH   6  22
HETATM   22  C   UNL     1     -10.891  10.593  67.287  1.00  0.00    -0.287 C  
HETATM   23  H   UNL     1     -10.031   8.496  65.791  1.00  0.00     0.000 H  
HETATM   24  S   UNL     1      -9.755   9.826  66.080  1.00  0.00    -0.272 SA 
ENDBRANCH   6  22
ENDBRANCH   4   6
ENDBRANCH   3   4
ENDBRANCH   2   3
TORSDOF 13
ENDMDL
MODEL        4
REMARK 921   NORMALIZED FREE ENERGY PREDICTED BY IDOCK:   -4.97 KCAL/MOL
REMARK 922        TOTAL FREE ENERGY PREDICTED BY IDOCK:   -9.35 KCAL/MOL
REMARK 923 INTER-LIGAND FREE ENERGY PREDICTED BY IDOCK:   -8.46 KCAL/MOL
REMARK 924 INTRA-LIGAND FREE ENERGY PREDICTED BY IDOCK:   -0.89 KCAL/MOL
REMARK 927      BINDING AFFINITY PREDICTED BY RF-SCORE:    0.00 PKD
ROOT
HETATM    1  C   UNL     1     -10.999  11.482  63.862  1.00  0.00    -0.474 C  
HETATM    2  C   UNL     1     -12.415  11.991  63.691  1.00  0.00    -0.525 C  
ENDROOT
BRANCH   2   3
HETATM    3  O   UNL     1     -12.807  12.763  64.836  1.00  0.00    -0.722 OA 
BRANCH   3   4
HETATM    4  C   UNL     1     -12.421  14.071  64.830  1.00  0.00    -0.396 C  
HETATM    5  O   UNL     1     -12.525  14.834  63.878  1.00  0.00    -0.811 OA 
BRANCH   4   6
HETATM    6  C   UNL     1     -11.844  14.441  66.210  1.00  0.00    -0.379 C  
BRANCH   6   7
HETATM    7  N   UNL     1     -12.346  13.489  67.238  1.00  0.00    -0.304 NA 
HETATM    8  H   UNL     1     -12.931  12.774  66.804  1.00  0.00     0.000 HD 
BRANCH   7   9
HETATM    9  C   UNL     1     -11.297  12.867  68.052  1.00  0.00    -0.292 C  
BRANCH   9  10
HETATM   10  C   UNL     1     -11.395  11.326  68.105  1.00  0.00    -0.303 C  
BRANCH  10  11
HETATM   11  N   UNL     1     -12.522  10.804  68.895  1.00  0.00    -0.731 NA 
HETATM   12  H   UNL     1     -13.091  10.173  68.330  1.00  0.00     0.000 HD 
BRANCH  11  13
HETATM   13  C   UNL     1     -12.123  10.143  70.172  1.00  0.00    -0.149 C  
BRANCH  13  14
HETATM   14  C   UNL     1     -10.592  10.069  70.365  1.00  0.00    -0.280 C  
HETATM   15  H   UNL     1      -8.670   8.642  71.633  1.00  0.00     0.000 H  
HETATM   16  S   UNL     1     -10.048   8.709  71.459  1.00  0.00    -0.303 SA 
ENDBRANCH  13  14
BRANCH  13  17
HETATM   17  C   UNL     1     -12.772  10.881  71.364  1.00  0.00    -0.434 C  
HETATM   18  O   UNL     1     -13.330  10.343  72.314  1.00  0.00    -0.396 OA 
BRANCH  17  19
HETATM   19  O   UNL     1     -12.628  12.231  71.214  1.00  0.00    -0.343 OA 
BRANCH  19  20
HETATM   20  C   UNL     1     -13.407  13.047  72.098  1.00  0.00    -0.524 C  
HETATM   21  C   UNL     1     -13.618  14.426  71.509  1.00  0.00    -0.445 C  
ENDBRANCH  19  20
ENDBRANCH  17  19
ENDBRANCH  13  17
ENDBRANCH  11  13
ENDBRANCH  10  11
ENDBRANCH   9  10
ENDBRANCH   7   9
ENDBRANCH   6   7
BRANCH   6  22
HETATM   22  C   UNL     1     -10.310  14.566  66.101  1.00  0.00    -0.297 C  
HETATM   23  H   UNL     1      -8.300  16.393  66.076  1.00  0.00     0.000 H  
HETATM   24  S   UNL     1      -9.681  16.280  66.174  1.00  0.00    -0.346 SA 
ENDBRANCH   6  22
ENDBRANCH   4   6
ENDBRANCH   3   4
ENDBRANCH   2   3
TORSDOF 13
ENDMDL
MODEL        5
REMARK 921   NORMALIZED FREE ENERGY PREDICTED BY IDOCK:   -4.91 KCAL/MOL
REMARK 922        TOTAL FREE ENERGY PREDICTED BY IDOCK:   -9.24 KCAL/MOL
REMARK 923 INTER-LIGAND FREE ENERGY PREDICTED BY IDOCK:   -8.37 KCAL/MOL
REMARK 924 INTRA-LIGAND FREE ENERGY PREDICTED BY IDOCK:   -0.87 KCAL/MOL
REMARK 927      BINDING AFFINITY PREDICTED BY RF-SCORE:    0.00 PKD
ROOT
HETATM    1  C   UNL     1     -11.082  11.671  63.693  1.00  0.00    -0.506 C  
HETATM    2  C   UNL     1     -12.552  12.025  63.629  1.00  0.00    -0.490 C  
ENDROOT
BRANCH   2   3
HETATM    3  O   UNL     1     -12.951  12.713  64.824  1.00  0.00    -0.816 OA 
BRANCH   3   4
HETATM    4  C   UNL     1     -12.527  14.005  64.934  1.00  0.00    -0.396 C  
HETATM    5  O   UNL     1     -12.611  14.853  64.055  1.00  0.00    -0.832 OA 
BRANCH   4   6
HETATM    6  C   UNL     1     -11.936  14.233  66.339  1.00  0.00    -0.419 C  
BRANCH   6   7
HETATM    7  N   UNL     1     -12.479  13.220  67.284  1.00  0.00    -0.145 NA 
HETATM    8  H   UNL     1     -13.004  12.507  66.777  1.00  0.00     0.000 HD 
BRANCH   7   9
HETATM    9  C   UNL     1     -11.472  12.597  68.149  1.00  0.00    -0.313 C  
BRANCH   9  10
HETATM   10  C   UNL     1     -11.596  11.059  68.223  1.00  0.00    -0.284 C  
BRANCH  10  11
HETATM   11  N   UNL     1     -12.432  10.557  69.327  1.00  0.00    -0.717 NA 
HETATM   12  H   UNL     1     -12.578   9.551  69.234  1.00  0.00     0.000 HD 
BRANCH  11  13
HETATM   13  C   UNL     1     -11.914  10.886  70.687  1.00  0.00    -0.368 C  
BRANCH  13  14
HETATM   14  C   UNL     1     -13.028  11.271  71.685  1.00  0.00    -0.432 C  
HETATM   15  H   UNL     1     -14.276  13.420  72.763  1.00  0.00     0.000 H  
HETATM   16  S   UNL     1     -13.273  13.074  71.865  1.00  0.00    -0.382 SA 
ENDBRANCH  13  14
BRANCH  13  17
HETATM   17  C   UNL     1     -11.099   9.694  71.235  1.00  0.00    -0.355 C  
HETATM   18  O   UNL     1      -9.952   9.408  70.910  1.00  0.00    -0.278 OA 
BRANCH  17  19
HETATM   19  O   UNL     1     -11.839   9.001  72.150  1.00  0.00    -0.358 OA 
BRANCH  19  20
HETATM   20  C   UNL     1     -11.617   7.586  72.195  1.00  0.00    -0.298 C  
HETATM   21  C   UNL     1     -12.459   6.878  71.154  1.00  0.00    -0.398 C  
ENDBRANCH  19  20
ENDBRANCH  17  19
ENDBRANCH  13  17
ENDBRANCH  11  13
ENDBRANCH  10  11
ENDBRANCH   9  10
ENDBRANCH   7   9
ENDBRANCH   6   7
BRANCH   6  22
HETATM   22  C   UNL     1     -10.399  14.302  66.237  1.00  0.00    -0.294 C  
HETATM   23  H   UNL     1      -8.304  16.015  66.475  1.00  0.00     0.000 H  
HETATM   24  S   UNL     1      -9.689  15.952  66.566  1.00  0.00    -0.288 SA 
ENDBRANCH   6  22
ENDBRANCH   4   6
ENDBRANCH   3   4
ENDBRANCH   2   3
TORSDOF 13
ENDMDL
MODEL        6
REMARK 921   NORMALIZED FREE ENERGY PREDICTED BY IDOCK:   -4.83 KCAL/MOL
REMARK 922        TOTAL FREE ENERGY PREDICTED BY IDOCK:   -9.09 KCAL/MOL
REMARK 923 INTER-LIGAND FREE ENERGY PREDICTED BY IDOCK:   -8.08 KCAL/MOL
REMARK 924 INTRA-LIGAND FREE ENERGY PREDICTED BY IDOCK:   -1.02 KCAL/MOL
REMARK 927      BINDING AFFINITY PREDICTED BY RF-SCORE:    0.00 PKD
ROOT
HETATM    1  C   UNL     1     -12.509  15.325  74.419  1.00  0.00    -0.645 C  
HETATM    2  C   UNL     1     -12.255  16.345  73.329  1.00  0.00    -0.464 C  
ENDROOT
BRANCH   2   3
HETATM    3  O   UNL     1     -11.583  15.730  72.220  1.00  0.00    -0.422 OA 
BRANCH   3   4
HETATM    4  C   UNL     1     -12.364  15.438  71.141  1.00  0.00    -0.385 C  
HETATM    5  O   UNL     1     -13.576  15.603  71.081  1.00  0.00    -0.582 OA 
BRANCH   4   6
HETATM    6  C   UNL     1     -11.484  14.877  70.007  1.00  0.00    -0.278 C  
BRANCH   6   7
HETATM    7  N   UNL     1     -12.293  13.976  69.141  1.00  0.00    -0.486 NA 
HETATM    8  H   UNL     1     -12.194  14.243  68.161  1.00  0.00     0.000 HD 
BRANCH   7   9
HETATM    9  C   UNL     1     -12.004  12.549  69.314  1.00  0.00    -0.250 C  
BRANCH   9  10
HETATM   10  C   UNL     1     -11.185  11.944  68.153  1.00  0.00    -0.258 C  
BRANCH  10  11
HETATM   11  N   UNL     1     -11.903  11.848  66.871  1.00  0.00    -0.610 NA 
HETATM   12  H   UNL     1     -12.888  12.082  66.997  1.00  0.00     0.000 HD 
BRANCH  11  13
HETATM   13  C   UNL     1     -11.308  12.663  65.771  1.00  0.00    -0.333 C  
BRANCH  13  14
HETATM   14  C   UNL     1     -11.218  11.901  64.431  1.00  0.00    -0.336 C  
HETATM   15  H   UNL     1      -9.757  10.016  63.146  1.00  0.00     0.000 H  
HETATM   16  S   UNL     1      -9.839  10.702  64.352  1.00  0.00    -0.353 SA 
ENDBRANCH  13  14
BRANCH  13  17
HETATM   17  C   UNL     1     -12.124  13.962  65.589  1.00  0.00    -0.421 C  
HETATM   18  O   UNL     1     -13.199  14.049  65.007  1.00  0.00    -0.720 OA 
BRANCH  17  19
HETATM   19  O   UNL     1     -11.477  15.008  66.182  1.00  0.00    -0.321 OA 
BRANCH  19  20
HETATM   20  C   UNL     1     -10.431  15.616  65.413  1.00  0.00    -0.411 C  
HETATM   21  C   UNL     1     -10.290  17.082  65.764  1.00  0.00    -0.275 C  
ENDBRANCH  19  20
ENDBRANCH  17  19
ENDBRANCH  13  17
ENDBRANCH  11  13
ENDBRANCH  10  11
ENDBRANCH   9  10
ENDBRANCH   7   9
ENDBRANCH   6   7
BRANCH   6  22
HETATM   22  C   UNL     1     -10.779  16.045  69.289  1.00  0.00    -0.275 C  
HETATM   23  H   UNL     1      -8.335  16.900  68.466  1.00  0.00     0.000 H  
HETATM   24  S   UNL     1      -8.971  15.848  69.113  1.00  0.00    -0.253 SA 
ENDBRANCH   6  22
ENDBRANCH   4   6
ENDBRANCH   3   4
ENDBRANCH   2   3
TORSDOF 13
ENDMDL
MODEL        7
REMARK 921   NORMALIZED FREE ENERGY PREDICTED BY IDOCK:   -4.75 KCAL/MOL
REMARK 922        TOTAL FREE ENERGY PREDICTED BY IDOCK:   -8.96 KCAL/MOL
REMARK 923 INTER-LIGAND FREE ENERGY PREDICTED BY IDOCK:   -8.14 KCAL/MOL
REMARK 924 INTRA-LIGAND FREE ENERGY PREDICTED BY IDOCK:   -0.82 KCAL/MOL
REMARK 927      BINDING AFFINITY PREDICTED BY RF-SCORE:    0.00 PKD
ROOT
HETATM    1  C   UNL     1     -12.534  12.371  64.561  1.00  0.00    -0.519 C  
HETATM    2  C   UNL     1     -12.363  13.780  65.087  1.00  0.00    -0.448 C  
ENDROOT
BRANCH   2   3
HETATM    3  O   UNL     1     -11.286  14.438  64.404  1.00  0.00    -0.326 OA 
BRANCH   3   4
HETATM    4  C   UNL     1     -11.180  15.781  64.619  1.00  0.00    -0.363 C  
HETATM    5  O   UNL     1     -11.666  16.650  63.907  1.00  0.00    -1.153 OA 
BRANCH   4   6
HETATM    6  C   UNL     1     -10.362  16.033  65.900  1.00  0.00    -0.368 C  
BRANCH   6   7
HETATM    7  N   UNL     1      -9.081  15.277  65.837  1.00  0.00    -0.452 NA 
HETATM    8  H   UNL     1      -8.328  15.881  65.508  1.00  0.00     0.000 HD 
BRANCH   7   9
HETATM    9  C   UNL     1      -8.701  14.622  67.093  1.00  0.00    -0.222 C  
BRANCH   9  10
HETATM   10  C   UNL     1      -9.507  13.337  67.382  1.00  0.00    -0.218 C  
BRANCH  10  11
HETATM   11  N   UNL     1     -10.109  13.271  68.724  1.00  0.00    -0.415 NA 
HETATM   12  H   UNL     1      -9.967  14.151  69.222  1.00  0.00     0.000 HD 
BRANCH  11  13
HETATM   13  C   UNL     1     -11.554  12.895  68.731  1.00  0.00    -0.311 C  
BRANCH  13  14
HETATM   14  C   UNL     1     -11.786  11.372  68.615  1.00  0.00    -0.329 C  
HETATM   15  H   UNL     1     -10.621   8.991  69.173  1.00  0.00     0.000 H  
HETATM   16  S   UNL     1     -10.413  10.361  69.277  1.00  0.00    -0.249 SA 
ENDBRANCH  13  14
BRANCH  13  17
HETATM   17  C   UNL     1     -12.226  13.439  70.011  1.00  0.00    -0.298 C  
HETATM   18  O   UNL     1     -12.497  12.776  71.007  1.00  0.00    -0.376 OA 
BRANCH  17  19
HETATM   19  O   UNL     1     -12.468  14.776  69.882  1.00  0.00    -0.306 OA 
BRANCH  19  20
HETATM   20  C   UNL     1     -12.986  15.436  71.044  1.00  0.00    -0.492 C  
HETATM   21  C   UNL     1     -11.880  16.148  71.794  1.00  0.00    -0.581 C  
ENDBRANCH  19  20
ENDBRANCH  17  19
ENDBRANCH  13  17
ENDBRANCH  11  13
ENDBRANCH  10  11
ENDBRANCH   9  10
ENDBRANCH   7   9
ENDBRANCH   6   7
BRANCH   6  22
HETATM   22  C   UNL     1     -10.235  17.553  66.129  1.00  0.00    -0.335 C  
HETATM   23  H   UNL     1     -10.397  19.455  68.061  1.00  0.00     0.000 H  
HETATM   24  S   UNL     1     -10.512  18.086  67.854  1.00  0.00    -0.376 SA 
ENDBRANCH   6  22
ENDBRANCH   4   6
ENDBRANCH   3   4
ENDBRANCH   2   3
TORSDOF 13
ENDMDL
MODEL        8
REMARK 921   NORMALIZED FREE ENERGY PREDICTED BY IDOCK:   -4.71 KCAL/MOL
REMARK 922        TOTAL FREE ENERGY PREDICTED BY IDOCK:   -8.88 KCAL/MOL
REMARK 923 INTER-LIGAND FREE ENERGY PREDICTED BY IDOCK:   -8.07 KCAL/MOL
REMARK 924 INTRA-LIGAND FREE ENERGY PREDICTED BY IDOCK:   -0.80 KCAL/MOL
REMARK 927      BINDING AFFINITY PREDICTED BY RF-SCORE:    0.00 PKD
ROOT
HETATM    1  C   UNL     1     -11.636  11.776  68.469  1.00  0.00    -0.380 C  
HETATM    2  C   UNL     1     -11.649  12.880  67.433  1.00  0.00    -0.360 C  
ENDROOT
BRANCH   2   3
HETATM    3  O   UNL     1     -12.138  12.379  66.179  1.00  0.00    -0.611 OA 
BRANCH   3   4
HETATM    4  C   UNL     1     -12.565  13.320  65.290  1.00  0.00    -0.470 C  
HETATM    5  O   UNL     1     -13.534  14.052  65.447  1.00  0.00    -0.679 OA 
BRANCH   4   6
HETATM    6  C   UNL     1     -11.634  13.326  64.063  1.00  0.00    -0.409 C  
BRANCH   6   7
HETATM    7  N   UNL     1     -10.386  14.073  64.382  1.00  0.00    -0.662 NA 
HETATM    8  H   UNL     1      -9.755  14.069  63.580  1.00  0.00     0.000 HD 
BRANCH   7   9
HETATM    9  C   UNL     1     -10.604  15.444  64.855  1.00  0.00    -0.352 C  
BRANCH   9  10
HETATM   10  C   UNL     1      -9.625  15.869  65.972  1.00  0.00    -0.350 C  
BRANCH  10  11
HETATM   11  N   UNL     1     -10.102  16.966  66.829  1.00  0.00    -0.284 NA 
HETATM   12  H   UNL     1     -11.084  16.830  67.069  1.00  0.00     0.000 HD 
BRANCH  11  13
HETATM   13  C   UNL     1      -9.287  17.180  68.062  1.00  0.00    -0.254 C  
BRANCH  13  14
HETATM   14  C   UNL     1      -9.394  18.617  68.619  1.00  0.00    -0.341 C  
HETATM   15  H   UNL     1     -10.384  21.067  68.022  1.00  0.00     0.000 H  
HETATM   16  S   UNL     1     -10.288  19.773  67.520  1.00  0.00    -0.436 SA 
ENDBRANCH  13  14
BRANCH  13  17
HETATM   17  C   UNL     1      -9.705  16.159  69.143  1.00  0.00    -0.248 C  
HETATM   18  O   UNL     1      -9.026  15.212  69.525  1.00  0.00    -0.209 OA 
BRANCH  17  19
HETATM   19  O   UNL     1     -10.944  16.469  69.626  1.00  0.00    -0.325 OA 
BRANCH  19  20
HETATM   20  C   UNL     1     -11.360  15.750  70.795  1.00  0.00    -0.390 C  
HETATM   21  C   UNL     1     -12.844  15.457  70.745  1.00  0.00    -0.524 C  
ENDBRANCH  19  20
ENDBRANCH  17  19
ENDBRANCH  13  17
ENDBRANCH  11  13
ENDBRANCH  10  11
ENDBRANCH   9  10
ENDBRANCH   7   9
ENDBRANCH   6   7
BRANCH   6  22
HETATM   22  C   UNL     1     -11.442  11.879  63.564  1.00  0.00    -0.430 C  
HETATM   23  H   UNL     1      -9.528  10.032  63.013  1.00  0.00     0.000 H  
HETATM   24  S   UNL     1      -9.701  11.335  63.462  1.00  0.00    -0.359 SA 
ENDBRANCH   6  22
ENDBRANCH   4   6
ENDBRANCH   3   4
ENDBRANCH   2   3
TORSDOF 13
ENDMDL
MODEL        9
REMARK 921   NORMALIZED FREE ENERGY PREDICTED BY IDOCK:   -4.63 KCAL/MOL
REMARK 922        TOTAL FREE ENERGY PREDICTED BY IDOCK:   -8.74 KCAL/MOL
REMARK 923 INTER-LIGAND FREE ENERGY PREDICTED BY IDOCK:   -7.93 KCAL/MOL
REMARK 924 INTRA-LIGAND FREE ENERGY PREDICTED BY IDOCK:   -0.81 KCAL/MOL
REMARK 927      BINDING AFFINITY PREDICTED BY RF-SCORE:    0.00 PKD
ROOT
HETATM    1  C   UNL     1     -11.383  11.194  68.350  1.00  0.00    -0.357 C  
HETATM    2  C   UNL     1     -11.751  12.429  67.555  1.00  0.00    -0.357 C  
ENDROOT
BRANCH   2   3
HETATM    3  O   UNL     1     -11.918  12.096  66.168  1.00  0.00    -0.593 OA 
BRANCH   3   4
HETATM    4  C   UNL     1     -12.290  13.123  65.352  1.00  0.00    -0.481 C  
HETATM    5  O   UNL     1     -13.150  13.955  65.610  1.00  0.00    -0.625 OA 
BRANCH   4   6
HETATM    6  C   UNL     1     -11.452  13.079  64.059  1.00  0.00    -0.421 C  
BRANCH   6   7
HETATM    7  N   UNL     1     -10.101  13.650  64.315  1.00  0.00    -0.763 NA 
HETATM    8  H   UNL     1      -9.602  13.790  63.436  1.00  0.00     0.000 HD 
BRANCH   7   9
HETATM    9  C   UNL     1     -10.105  14.887  65.103  1.00  0.00    -0.319 C  
BRANCH   9  10
HETATM   10  C   UNL     1      -9.059  14.892  66.239  1.00  0.00    -0.227 C  
BRANCH  10  11
HETATM   11  N   UNL     1      -8.949  16.163  66.975  1.00  0.00    -0.202 NA 
HETATM   12  H   UNL     1      -8.158  16.707  66.630  1.00  0.00     0.000 HD 
BRANCH  11  13
HETATM   13  C   UNL     1     -10.194  16.986  66.966  1.00  0.00    -0.303 C  
BRANCH  13  14
HETATM   14  C   UNL     1     -10.753  17.257  68.380  1.00  0.00    -0.332 C  
HETATM   15  H   UNL     1     -11.878  16.007  70.504  1.00  0.00     0.000 H  
HETATM   16  S   UNL     1     -11.374  15.763  69.231  1.00  0.00    -0.375 SA 
ENDBRANCH  13  14
BRANCH  13  17
HETATM   17  C   UNL     1      -9.928  18.321  66.236  1.00  0.00    -0.357 C  
HETATM   18  O   UNL     1     -10.791  19.078  65.804  1.00  0.00    -0.404 OA 
BRANCH  17  19
HETATM   19  O   UNL     1      -8.584  18.547  66.147  1.00  0.00    -0.456 OA 
BRANCH  19  20
HETATM   20  C   UNL     1      -8.109  19.753  66.759  1.00  0.00    -0.304 C  
HETATM   21  C   UNL     1      -7.839  19.536  68.233  1.00  0.00    -0.362 C  
ENDBRANCH  19  20
ENDBRANCH  17  19
ENDBRANCH  13  17
ENDBRANCH  11  13
ENDBRANCH  10  11
ENDBRANCH   9  10
ENDBRANCH   7   9
ENDBRANCH   6   7
BRANCH   6  22
HETATM   22  C   UNL     1     -11.479  11.647  63.486  1.00  0.00    -0.329 C  
HETATM   23  H   UNL     1      -9.856   9.597  62.750  1.00  0.00     0.000 H  
HETATM   24  S   UNL     1      -9.833  10.887  63.266  1.00  0.00    -0.364 SA 
ENDBRANCH   6  22
ENDBRANCH   4   6
ENDBRANCH   3   4
ENDBRANCH   2   3
TORSDOF 13
ENDMDL
MODEL       10
REMARK 921   NORMALIZED FREE ENERGY PREDICTED BY IDOCK:   -4.63 KCAL/MOL
REMARK 922        TOTAL FREE ENERGY PREDICTED BY IDOCK:   -8.74 KCAL/MOL
REMARK 923 INTER-LIGAND FREE ENERGY PREDICTED BY IDOCK:   -8.12 KCAL/MOL
REMARK 924 INTRA-LIGAND FREE ENERGY PREDICTED BY IDOCK:   -0.63 KCAL/MOL
REMARK 927      BINDING AFFINITY PREDICTED BY RF-SCORE:    0.00 PKD
ROOT
HETATM    1  C   UNL     1     -10.921  11.716  63.552  1.00  0.00    -0.485 C  
HETATM    2  C   UNL     1     -12.408  11.972  63.418  1.00  0.00    -0.523 C  
ENDROOT
BRANCH   2   3
HETATM    3  O   UNL     1     -12.931  12.514  64.640  1.00  0.00    -0.803 OA 
BRANCH   3   4
HETATM    4  C   UNL     1     -12.627  13.820  64.888  1.00  0.00    -0.341 C  
HETATM    5  O   UNL     1     -12.620  14.715  64.052  1.00  0.00    -0.819 OA 
BRANCH   4   6
HETATM    6  C   UNL     1     -12.304  13.997  66.384  1.00  0.00    -0.431 C  
BRANCH   6   7
HETATM    7  N   UNL     1     -11.968  12.677  66.986  1.00  0.00    -0.491 NA 
HETATM    8  H   UNL     1     -11.170  12.260  66.505  1.00  0.00     0.000 HD 
BRANCH   7   9
HETATM    9  C   UNL     1     -11.732  12.713  68.433  1.00  0.00    -0.333 C  
BRANCH   9  10
HETATM   10  C   UNL     1     -12.011  11.365  69.132  1.00  0.00    -0.328 C  
BRANCH  10  11
HETATM   11  N   UNL     1     -11.160  11.084  70.300  1.00  0.00    -0.466 NA 
HETATM   12  H   UNL     1     -11.487  11.606  71.114  1.00  0.00     0.000 HD 
BRANCH  11  13
HETATM   13  C   UNL     1     -11.028   9.634  70.629  1.00  0.00    -0.320 C  
BRANCH  13  14
HETATM   14  C   UNL     1      -9.576   9.213  70.947  1.00  0.00    -0.279 C  
HETATM   15  H   UNL     1      -7.118   9.022  69.825  1.00  0.00     0.000 H  
HETATM   16  S   UNL     1      -8.424   9.402  69.539  1.00  0.00    -0.167 SA 
ENDBRANCH  13  14
BRANCH  13  17
HETATM   17  C   UNL     1     -11.954   9.284  71.815  1.00  0.00    -0.385 C  
HETATM   18  O   UNL     1     -12.926   9.939  72.173  1.00  0.00    -0.411 OA 
BRANCH  17  19
HETATM   19  O   UNL     1     -11.539   8.125  72.407  1.00  0.00    -0.350 OA 
BRANCH  19  20
HETATM   20  C   UNL     1     -12.169   6.924  71.942  1.00  0.00    -0.332 C  
HETATM   21  C   UNL     1     -11.136   5.938  71.437  1.00  0.00    -0.313 C  
ENDBRANCH  19  20
ENDBRANCH  17  19
ENDBRANCH  13  17
ENDBRANCH  11  13
ENDBRANCH  10  11
ENDBRANCH   9  10
ENDBRANCH   7   9
ENDBRANCH   6   7
BRANCH   6  22
HETATM   22  C   UNL     1     -11.238  15.100  66.545  1.00  0.00    -0.283 C  
HETATM   23  H   UNL     1      -8.592  15.600  66.186  1.00  0.00     0.000 H  
HETATM   24  S   UNL     1      -9.553  14.607  66.041  1.00  0.00    -0.255 SA 
ENDBRANCH   6  22
ENDBRANCH   4   6
ENDBRANCH   3   4
ENDBRANCH   2   3
TORSDOF 13
ENDMDL
MODEL       11
REMARK 921   NORMALIZED FREE ENERGY PREDICTED BY IDOCK:   -4.63 KCAL/MOL
REMARK 922        TOTAL FREE ENERGY PREDICTED BY IDOCK:   -8.74 KCAL/MOL
REMARK 923 INTER-LIGAND FREE ENERGY PREDICTED BY IDOCK:   -8.13 KCAL/MOL
REMARK 924 INTRA-LIGAND FREE ENERGY PREDICTED BY IDOCK:   -0.60 KCAL/MOL
REMARK 927      BINDING AFFINITY PREDICTED BY RF-SCORE:    0.00 PKD
ROOT
HETATM    1  C   UNL     1      -9.634  18.410  67.012  1.00  0.00    -0.301 C  
HETATM    2  C   UNL     1     -10.560  17.936  65.912  1.00  0.00    -0.215 C  
ENDROOT
BRANCH   2   3
HETATM    3  O   UNL     1     -10.151  16.642  65.441  1.00  0.00    -0.578 OA 
BRANCH   3   4
HETATM    4  C   UNL     1     -11.100  15.926  64.775  1.00  0.00    -0.384 C  
HETATM    5  O   UNL     1     -11.779  16.345  63.846  1.00  0.00    -1.085 OA 
BRANCH   4   6
HETATM    6  C   UNL     1     -11.178  14.504  65.364  1.00  0.00    -0.342 C  
BRANCH   6   7
HETATM    7  N   UNL     1     -12.029  14.512  66.586  1.00  0.00    -0.376 NA 
HETATM    8  H   UNL     1     -12.585  13.658  66.637  1.00  0.00     0.000 HD 
BRANCH   7   9
HETATM    9  C   UNL     1     -11.291  14.719  67.837  1.00  0.00    -0.316 C  
BRANCH   9  10
HETATM   10  C   UNL     1     -12.033  14.181  69.081  1.00  0.00    -0.349 C  
BRANCH  10  11
HETATM   11  N   UNL     1     -11.323  13.121  69.815  1.00  0.00    -0.491 NA 
HETATM   12  H   UNL     1     -11.289  13.338  70.811  1.00  0.00     0.000 HD 
BRANCH  11  13
HETATM   13  C   UNL     1     -11.875  11.750  69.599  1.00  0.00    -0.339 C  
BRANCH  13  14
HETATM   14  C   UNL     1     -10.792  10.709  69.240  1.00  0.00    -0.239 C  
HETATM   15  H   UNL     1      -8.724  10.283  67.542  1.00  0.00     0.000 H  
HETATM   16  S   UNL     1      -9.699  11.220  67.866  1.00  0.00    -0.182 SA 
ENDBRANCH  13  14
BRANCH  13  17
HETATM   17  C   UNL     1     -12.650  11.298  70.856  1.00  0.00    -0.371 C  
HETATM   18  O   UNL     1     -13.123  12.045  71.705  1.00  0.00    -0.427 OA 
BRANCH  17  19
HETATM   19  O   UNL     1     -12.744   9.936  70.884  1.00  0.00    -0.321 OA 
BRANCH  19  20
HETATM   20  C   UNL     1     -13.297   9.370  72.079  1.00  0.00    -0.450 C  
HETATM   21  C   UNL     1     -14.388   8.374  71.747  1.00  0.00    -0.558 C  
ENDBRANCH  19  20
ENDBRANCH  17  19
ENDBRANCH  13  17
ENDBRANCH  11  13
ENDBRANCH  10  11
ENDBRANCH   9  10
ENDBRANCH   7   9
ENDBRANCH   6   7
BRANCH   6  22
HETATM   22  C   UNL     1     -11.602  13.519  64.256  1.00  0.00    -0.397 C  
HETATM   23  H   UNL     1     -10.871  11.197  63.051  1.00  0.00     0.000 H  
HETATM   24  S   UNL     1     -10.489  12.085  64.049  1.00  0.00    -0.414 SA 
ENDBRANCH   6  22
ENDBRANCH   4   6
ENDBRANCH   3   4
ENDBRANCH   2   3
TORSDOF 13
ENDMDL
MODEL       12
REMARK 921   NORMALIZED FREE ENERGY PREDICTED BY IDOCK:   -4.62 KCAL/MOL
REMARK 922        TOTAL FREE ENERGY PREDICTED BY IDOCK:   -8.72 KCAL/MOL
REMARK 923 INTER-LIGAND FREE ENERGY PREDICTED BY IDOCK:   -8.15 KCAL/MOL
REMARK 924 INTRA-LIGAND FREE ENERGY PREDICTED BY IDOCK:   -0.57 KCAL/MOL
REMARK 927      BINDING AFFINITY PREDICTED BY RF-SCORE:    0.00 PKD
ROOT
HETATM    1  C   UNL     1     -10.698   7.232  73.296  1.00  0.00    -0.428 C  
HETATM    2  C   UNL     1     -11.752   7.709  72.319  1.00  0.00    -0.324 C  
ENDROOT
BRANCH   2   3
HETATM    3  O   UNL     1     -11.770   9.143  72.268  1.00  0.00    -0.304 OA 
BRANCH   3   4
HETATM    4  C   UNL     1     -11.134   9.707  71.201  1.00  0.00    -0.374 C  
HETATM    5  O   UNL     1     -10.055   9.343  70.749  1.00  0.00    -0.263 OA 
BRANCH   4   6
HETATM    6  C   UNL     1     -11.988  10.863  70.647  1.00  0.00    -0.368 C  
BRANCH   6   7
HETATM    7  N   UNL     1     -12.417  10.551  69.256  1.00  0.00    -0.717 NA 
HETATM    8  H   UNL     1     -13.312  10.996  69.052  1.00  0.00     0.000 HD 
BRANCH   7   9
HETATM    9  C   UNL     1     -11.430  10.890  68.227  1.00  0.00    -0.305 C  
BRANCH   9  10
HETATM   10  C   UNL     1     -11.596  12.319  67.665  1.00  0.00    -0.354 C  
BRANCH  10  11
HETATM   11  N   UNL     1     -12.203  12.393  66.326  1.00  0.00    -0.583 NA 
HETATM   12  H   UNL     1     -13.220  12.437  66.397  1.00  0.00     0.000 HD 
BRANCH  11  13
HETATM   13  C   UNL     1     -11.690  13.511  65.480  1.00  0.00    -0.340 C  
BRANCH  13  14
HETATM   14  C   UNL     1     -10.345  14.083  65.981  1.00  0.00    -0.306 C  
HETATM   15  H   UNL     1      -8.987  16.412  66.244  1.00  0.00     0.000 H  
HETATM   16  S   UNL     1     -10.197  15.896  65.794  1.00  0.00    -0.384 SA 
ENDBRANCH  13  14
BRANCH  13  17
HETATM   17  C   UNL     1     -11.551  13.034  64.018  1.00  0.00    -0.430 C  
HETATM   18  O   UNL     1     -12.480  12.870  63.234  1.00  0.00    -0.685 OA 
BRANCH  17  19
HETATM   19  O   UNL     1     -10.236  12.828  63.714  1.00  0.00    -0.378 OA 
BRANCH  19  20
HETATM   20  C   UNL     1      -9.917  11.557  63.134  1.00  0.00    -0.377 C  
HETATM   21  C   UNL     1      -9.866  10.480  64.197  1.00  0.00    -0.401 C  
ENDBRANCH  19  20
ENDBRANCH  17  19
ENDBRANCH  13  17
ENDBRANCH  11  13
ENDBRANCH  10  11
ENDBRANCH   9  10
ENDBRANCH   7   9
ENDBRANCH   6   7
BRANCH   6  22
HETATM   22  C   UNL     1     -13.121  11.179  71.645  1.00  0.00    -0.424 C  
HETATM   23  H   UNL     1     -14.328  13.237  72.945  1.00  0.00     0.000 H  
HETATM   24  S   UNL     1     -13.307  12.951  72.046  1.00  0.00    -0.407 SA 
ENDBRANCH   6  22
ENDBRANCH   4   6
ENDBRANCH   3   4
ENDBRANCH   2   3
TORSDOF 13
ENDMDL
MODEL       13
REMARK 921   NORMALIZED FREE ENERGY PREDICTED BY IDOCK:   -4.60 KCAL/MOL
REMARK 922        TOTAL FREE ENERGY PREDICTED BY IDOCK:   -8.70 KCAL/MOL
REMARK 923 INTER-LIGAND FREE ENERGY PREDICTED BY IDOCK:   -7.96 KCAL/MOL
REMARK 924 INTRA-LIGAND FREE ENERGY PREDICTED BY IDOCK:   -0.74 KCAL/MOL
REMARK 927      BINDING AFFINITY PREDICTED BY RF-SCORE:    0.00 PKD
ROOT
HETATM    1  C   UNL     1     -14.311   7.545  71.893  1.00  0.00    -0.520 C  
HETATM    2  C   UNL     1     -13.692   8.888  72.219  1.00  0.00    -0.471 C  
ENDROOT
BRANCH   2   3
HETATM    3  O   UNL     1     -13.460   9.635  71.015  1.00  0.00    -0.328 OA 
BRANCH   3   4
HETATM    4  C   UNL     1     -12.921  10.876  71.181  1.00  0.00    -0.352 C  
HETATM    5  O   UNL     1     -13.205  11.655  72.083  1.00  0.00    -0.504 OA 
BRANCH   4   6
HETATM    6  C   UNL     1     -11.892  11.142  70.066  1.00  0.00    -0.361 C  
BRANCH   6   7
HETATM    7  N   UNL     1     -11.626  12.603  69.964  1.00  0.00    -0.531 NA 
HETATM    8  H   UNL     1     -11.076  12.920  70.763  1.00  0.00     0.000 HD 
BRANCH   7   9
HETATM    9  C   UNL     1     -10.991  13.017  68.709  1.00  0.00    -0.258 C  
BRANCH   9  10
HETATM   10  C   UNL     1     -11.869  12.759  67.464  1.00  0.00    -0.343 C  
BRANCH  10  11
HETATM   11  N   UNL     1     -12.429  13.968  66.838  1.00  0.00    -0.529 NA 
HETATM   12  H   UNL     1     -12.332  14.769  67.461  1.00  0.00     0.000 HD 
BRANCH  11  13
HETATM   13  C   UNL     1     -11.862  14.280  65.493  1.00  0.00    -0.363 C  
BRANCH  13  14
HETATM   14  C   UNL     1     -10.351  14.599  65.529  1.00  0.00    -0.362 C  
HETATM   15  H   UNL     1      -8.596  16.521  66.277  1.00  0.00     0.000 H  
HETATM   16  S   UNL     1      -9.956  16.234  66.245  1.00  0.00    -0.337 SA 
ENDBRANCH  13  14
BRANCH  13  17
HETATM   17  C   UNL     1     -12.134  13.104  64.529  1.00  0.00    -0.404 C  
HETATM   18  O   UNL     1     -13.210  12.533  64.391  1.00  0.00    -0.782 OA 
BRANCH  17  19
HETATM   19  O   UNL     1     -10.998  12.793  63.837  1.00  0.00    -0.381 OA 
BRANCH  19  20
HETATM   20  C   UNL     1     -10.753  11.396  63.629  1.00  0.00    -0.401 C  
HETATM   21  C   UNL     1      -9.546  10.939  64.420  1.00  0.00    -0.312 C  
ENDBRANCH  19  20
ENDBRANCH  17  19
ENDBRANCH  13  17
ENDBRANCH  11  13
ENDBRANCH  10  11
ENDBRANCH   9  10
ENDBRANCH   7   9
ENDBRANCH   6   7
BRANCH   6  22
HETATM   22  C   UNL     1     -10.656  10.248  70.293  1.00  0.00    -0.204 C  
HETATM   23  H   UNL     1      -9.254   8.198  69.191  1.00  0.00     0.000 H  
HETATM   24  S   UNL     1     -10.368   9.004  68.986  1.00  0.00    -0.217 SA 
ENDBRANCH   6  22
ENDBRANCH   4   6
ENDBRANCH   3   4
ENDBRANCH   2   3
TORSDOF 13
ENDMDL
MODEL       14
REMARK 921   NORMALIZED FREE ENERGY PREDICTED BY IDOCK:   -4.60 KCAL/MOL
REMARK 922        TOTAL FREE ENERGY PREDICTED BY IDOCK:   -8.69 KCAL/MOL
REMARK 923 INTER-LIGAND FREE ENERGY PREDICTED BY IDOCK:   -7.80 KCAL/MOL
REMARK 924 INTRA-LIGAND FREE ENERGY PREDICTED BY IDOCK:   -0.90 KCAL/MOL
REMARK 927      BINDING AFFINITY PREDICTED BY RF-SCORE:    0.00 PKD
ROOT
HETATM    1  C   UNL     1     -12.323  15.146  74.057  1.00  0.00    -0.725 C  
HETATM    2  C   UNL     1     -12.331  16.323  73.105  1.00  0.00    -0.499 C  
ENDROOT
BRANCH   2   3
HETATM    3  O   UNL     1     -11.619  15.994  71.902  1.00  0.00    -0.445 OA 
BRANCH   3   4
HETATM    4  C   UNL     1     -12.378  15.517  70.875  1.00  0.00    -0.422 C  
HETATM    5  O   UNL     1     -13.601  15.444  70.875  1.00  0.00    -0.444 OA 
BRANCH   4   6
HETATM    6  C   UNL     1     -11.461  15.095  69.711  1.00  0.00    -0.297 C  
BRANCH   6   7
HETATM    7  N   UNL     1     -12.274  14.869  68.485  1.00  0.00    -0.597 NA 
HETATM    8  H   UNL     1     -12.178  15.659  67.845  1.00  0.00     0.000 HD 
BRANCH   7   9
HETATM    9  C   UNL     1     -11.987  13.610  67.791  1.00  0.00    -0.352 C  
BRANCH   9  10
HETATM   10  C   UNL     1     -11.592  12.461  68.745  1.00  0.00    -0.326 C  
BRANCH  10  11
HETATM   11  N   UNL     1     -12.050  11.125  68.330  1.00  0.00    -0.727 NA 
HETATM   12  H   UNL     1     -12.592  11.186  67.468  1.00  0.00     0.000 HD 
BRANCH  11  13
HETATM   13  C   UNL     1     -10.957  10.118  68.189  1.00  0.00    -0.259 C  
BRANCH  13  14
HETATM   14  C   UNL     1      -9.798  10.601  67.289  1.00  0.00    -0.176 C  
HETATM   15  H   UNL     1      -9.038  10.759  64.694  1.00  0.00     0.000 H  
HETATM   16  S   UNL     1     -10.081  10.325  65.504  1.00  0.00    -0.249 SA 
ENDBRANCH  13  14
BRANCH  13  17
HETATM   17  C   UNL     1     -10.420   9.736  69.586  1.00  0.00    -0.242 C  
HETATM   18  O   UNL     1      -9.298   9.991  70.010  1.00  0.00    -0.217 OA 
BRANCH  17  19
HETATM   19  O   UNL     1     -11.384   9.077  70.294  1.00  0.00    -0.251 OA 
BRANCH  19  20
HETATM   20  C   UNL     1     -11.572   9.507  71.648  1.00  0.00    -0.381 C  
HETATM   21  C   UNL     1     -12.977  10.035  71.853  1.00  0.00    -0.547 C  
ENDBRANCH  19  20
ENDBRANCH  17  19
ENDBRANCH  13  17
ENDBRANCH  11  13
ENDBRANCH  10  11
ENDBRANCH   9  10
ENDBRANCH   7   9
ENDBRANCH   6   7
BRANCH   6  22
HETATM   22  C   UNL     1     -10.311  16.115  69.577  1.00  0.00    -0.282 C  
HETATM   23  H   UNL     1      -9.285  17.988  67.898  1.00  0.00     0.000 H  
HETATM   24  S   UNL     1     -10.320  17.069  68.020  1.00  0.00    -0.356 SA 
ENDBRANCH   6  22
ENDBRANCH   4   6
ENDBRANCH   3   4
ENDBRANCH   2   3
TORSDOF 13
ENDMDL
MODEL       15
REMARK 921   NORMALIZED FREE ENERGY PREDICTED BY IDOCK:   -4.59 KCAL/MOL
REMARK 922        TOTAL FREE ENERGY PREDICTED BY IDOCK:   -8.67 KCAL/MOL
REMARK 923 INTER-LIGAND FREE ENERGY PREDICTED BY IDOCK:   -7.78 KCAL/MOL
REMARK 924 INTRA-LIGAND FREE ENERGY PREDICTED BY IDOCK:   -0.89 KCAL/MOL
REMARK 927      BINDING AFFINITY PREDICTED BY RF-SCORE:    0.00 PKD
ROOT
HETATM    1  C   UNL     1     -13.224  12.656  71.632  1.00  0.00    -0.394 C  
HETATM    2  C   UNL     1     -13.027  11.158  71.724  1.00  0.00    -0.421 C  
ENDROOT
BRANCH   2   3
HETATM    3  O   UNL     1     -12.910  10.590  70.411  1.00  0.00    -0.331 OA 
BRANCH   3   4
HETATM    4  C   UNL     1     -11.638  10.420  69.949  1.00  0.00    -0.284 C  
HETATM    5  O   UNL     1     -10.665  10.149  70.642  1.00  0.00    -0.297 OA 
BRANCH   4   6
HETATM    6  C   UNL     1     -11.618  10.612  68.420  1.00  0.00    -0.194 C  
BRANCH   6   7
HETATM    7  N   UNL     1     -11.943  12.025  68.086  1.00  0.00    -0.496 NA 
HETATM    8  H   UNL     1     -12.764  12.334  68.608  1.00  0.00     0.000 HD 
BRANCH   7   9
HETATM    9  C   UNL     1     -10.833  12.964  68.275  1.00  0.00    -0.242 C  
BRANCH   9  10
HETATM   10  C   UNL     1     -11.219  14.433  67.993  1.00  0.00    -0.280 C  
BRANCH  10  11
HETATM   11  N   UNL     1     -11.774  14.682  66.652  1.00  0.00    -0.362 NA 
HETATM   12  H   UNL     1     -12.385  15.499  66.665  1.00  0.00     0.000 HD 
BRANCH  11  13
HETATM   13  C   UNL     1     -10.746  14.815  65.577  1.00  0.00    -0.357 C  
BRANCH  13  14
HETATM   14  C   UNL     1     -10.843  13.709  64.504  1.00  0.00    -0.406 C  
HETATM   15  H   UNL     1     -12.487  11.757  63.596  1.00  0.00     0.000 H  
HETATM   16  S   UNL     1     -12.400  12.753  64.562  1.00  0.00    -0.439 SA 
ENDBRANCH  13  14
BRANCH  13  17
HETATM   17  C   UNL     1     -10.863  16.207  64.918  1.00  0.00    -0.334 C  
HETATM   18  O   UNL     1     -11.617  16.494  63.994  1.00  0.00    -1.154 OA 
BRANCH  17  19
HETATM   19  O   UNL     1     -10.008  17.085  65.521  1.00  0.00    -0.567 OA 
BRANCH  19  20
HETATM   20  C   UNL     1     -10.592  18.307  65.989  1.00  0.00    -0.296 C  
HETATM   21  C   UNL     1     -10.365  18.475  67.477  1.00  0.00    -0.440 C  
ENDBRANCH  19  20
ENDBRANCH  17  19
ENDBRANCH  13  17
ENDBRANCH  11  13
ENDBRANCH  10  11
ENDBRANCH   9  10
ENDBRANCH   7   9
ENDBRANCH   6   7
BRANCH   6  22
HETATM   22  C   UNL     1     -10.283  10.079  67.861  1.00  0.00    -0.188 C  
HETATM   23  H   UNL     1      -9.153   7.889  66.716  1.00  0.00     0.000 H  
HETATM   24  S   UNL     1     -10.356   8.370  67.220  1.00  0.00    -0.303 SA 
ENDBRANCH   6  22
ENDBRANCH   4   6
ENDBRANCH   3   4
ENDBRANCH   2   3
TORSDOF 13
ENDMDL
MODEL       16
REMARK 921   NORMALIZED FREE ENERGY PREDICTED BY IDOCK:   -4.57 KCAL/MOL
REMARK 922        TOTAL FREE ENERGY PREDICTED BY IDOCK:   -8.64 KCAL/MOL
REMARK 923 INTER-LIGAND FREE ENERGY PREDICTED BY IDOCK:   -7.87 KCAL/MOL
REMARK 924 INTRA-LIGAND FREE ENERGY PREDICTED BY IDOCK:   -0.77 KCAL/MOL
REMARK 927      BINDING AFFINITY PREDICTED BY RF-SCORE:    0.00 PKD
ROOT
HETATM    1  C   UNL     1     -11.080  11.833  63.571  1.00  0.00    -0.503 C  
HETATM    2  C   UNL     1     -12.561  12.125  63.469  1.00  0.00    -0.506 C  
ENDROOT
BRANCH   2   3
HETATM    3  O   UNL     1     -13.064  12.589  64.731  1.00  0.00    -0.853 OA 
BRANCH   3   4
HETATM    4  C   UNL     1     -12.658  13.834  65.110  1.00  0.00    -0.433 C  
HETATM    5  O   UNL     1     -12.681  14.832  64.400  1.00  0.00    -0.604 OA 
BRANCH   4   6
HETATM    6  C   UNL     1     -12.175  13.793  66.573  1.00  0.00    -0.430 C  
BRANCH   6   7
HETATM    7  N   UNL     1     -12.069  12.380  67.028  1.00  0.00    -0.529 NA 
HETATM    8  H   UNL     1     -11.765  11.781  66.260  1.00  0.00     0.000 HD 
BRANCH   7   9
HETATM    9  C   UNL     1     -11.210  12.184  68.201  1.00  0.00    -0.267 C  
BRANCH   9  10
HETATM   10  C   UNL     1     -11.974  11.666  69.439  1.00  0.00    -0.316 C  
BRANCH  10  11
HETATM   11  N   UNL     1     -11.916  10.209  69.639  1.00  0.00    -0.485 NA 
HETATM   12  H   UNL     1     -11.567   9.747  68.799  1.00  0.00     0.000 HD 
BRANCH  11  13
HETATM   13  C   UNL     1     -11.127   9.784  70.833  1.00  0.00    -0.357 C  
BRANCH  13  14
HETATM   14  C   UNL     1     -11.847   8.720  71.691  1.00  0.00    -0.330 C  
HETATM   15  H   UNL     1     -14.232   8.180  72.857  1.00  0.00     0.000 H  
HETATM   16  S   UNL     1     -13.583   9.138  72.086  1.00  0.00    -0.489 SA 
ENDBRANCH  13  14
BRANCH  13  17
HETATM   17  C   UNL     1      -9.747   9.257  70.383  1.00  0.00    -0.244 C  
HETATM   18  O   UNL     1      -8.809   8.995  71.129  1.00  0.00    -0.208 OA 
BRANCH  17  19
HETATM   19  O   UNL     1      -9.720   9.113  69.025  1.00  0.00    -0.161 OA 
BRANCH  19  20
HETATM   20  C   UNL     1      -9.455   7.790  68.540  1.00  0.00    -0.148 C  
HETATM   21  C   UNL     1     -10.310   7.481  67.330  1.00  0.00    -0.366 C  
ENDBRANCH  19  20
ENDBRANCH  17  19
ENDBRANCH  13  17
ENDBRANCH  11  13
ENDBRANCH  10  11
ENDBRANCH   9  10
ENDBRANCH   7   9
ENDBRANCH   6   7
BRANCH   6  22
HETATM   22  C   UNL     1     -10.894  14.641  66.708  1.00  0.00    -0.312 C  
HETATM   23  H   UNL     1      -9.814  16.693  68.123  1.00  0.00     0.000 H  
HETATM   24  S   UNL     1     -10.968  15.929  68.001  1.00  0.00    -0.330 SA 
ENDBRANCH   6  22
ENDBRANCH   4   6
ENDBRANCH   3   4
ENDBRANCH   2   3
TORSDOF 13
ENDMDL
MODEL       17
REMARK 921   NORMALIZED FREE ENERGY PREDICTED BY IDOCK:   -4.55 KCAL/MOL
REMARK 922        TOTAL FREE ENERGY PREDICTED BY IDOCK:   -8.60 KCAL/MOL
REMARK 923 INTER-LIGAND FREE ENERGY PREDICTED BY IDOCK:   -7.82 KCAL/MOL
REMARK 924 INTRA-LIGAND FREE ENERGY PREDICTED BY IDOCK:   -0.78 KCAL/MOL
REMARK 927      BINDING AFFINITY PREDICTED BY RF-SCORE:    0.00 PKD
ROOT
HETATM    1  C   UNL     1      -9.029  10.326  63.550  1.00  0.00    -0.259 C  
HETATM    2  C   UNL     1     -10.268  11.119  63.196  1.00  0.00    -0.294 C  
ENDROOT
BRANCH   2   3
HETATM    3  O   UNL     1     -10.945  11.544  64.389  1.00  0.00    -0.332 OA 
BRANCH   3   4
HETATM    4  C   UNL     1     -12.127  12.196  64.200  1.00  0.00    -0.409 C  
HETATM    5  O   UNL     1     -12.938  11.947  63.317  1.00  0.00    -0.707 OA 
BRANCH   4   6
HETATM    6  C   UNL     1     -12.289  13.287  65.276  1.00  0.00    -0.476 C  
BRANCH   6   7
HETATM    7  N   UNL     1     -11.360  13.019  66.408  1.00  0.00    -0.304 NA 
HETATM    8  H   UNL     1     -10.751  13.823  66.565  1.00  0.00     0.000 HD 
BRANCH   7   9
HETATM    9  C   UNL     1     -12.021  12.626  67.656  1.00  0.00    -0.247 C  
BRANCH   9  10
HETATM   10  C   UNL     1     -11.797  13.628  68.810  1.00  0.00    -0.360 C  
BRANCH  10  11
HETATM   11  N   UNL     1     -12.063  15.035  68.470  1.00  0.00    -0.584 NA 
HETATM   12  H   UNL     1     -13.055  15.174  68.277  1.00  0.00     0.000 HD 
BRANCH  11  13
HETATM   13  C   UNL     1     -11.588  16.014  69.492  1.00  0.00    -0.304 C  
BRANCH  13  14
HETATM   14  C   UNL     1     -11.479  15.409  70.909  1.00  0.00    -0.361 C  
HETATM   15  H   UNL     1     -12.902  15.041  73.185  1.00  0.00     0.000 H  
HETATM   16  S   UNL     1     -13.000  15.586  71.909  1.00  0.00    -0.466 SA 
ENDBRANCH  13  14
BRANCH  13  17
HETATM   17  C   UNL     1     -10.225  16.598  69.058  1.00  0.00    -0.301 C  
HETATM   18  O   UNL     1      -9.215  15.943  68.824  1.00  0.00    -0.194 OA 
BRANCH  17  19
HETATM   19  O   UNL     1     -10.307  17.957  68.961  1.00  0.00    -0.361 OA 
BRANCH  19  20
HETATM   20  C   UNL     1     -10.616  18.476  67.660  1.00  0.00    -0.414 C  
HETATM   21  C   UNL     1     -10.139  19.907  67.526  1.00  0.00    -0.566 C  
ENDBRANCH  19  20
ENDBRANCH  17  19
ENDBRANCH  13  17
ENDBRANCH  11  13
ENDBRANCH  10  11
ENDBRANCH   9  10
ENDBRANCH   7   9
ENDBRANCH   6   7
BRANCH   6  22
HETATM   22  C   UNL     1     -12.161  14.674  64.615  1.00  0.00    -0.454 C  
HETATM   23  H   UNL     1     -10.558  16.865  64.511  1.00  0.00     0.000 H  
HETATM   24  S   UNL     1     -10.674  15.615  65.107  1.00  0.00    -0.425 SA 
ENDBRANCH   6  22
ENDBRANCH   4   6
ENDBRANCH   3   4
ENDBRANCH   2   3
TORSDOF 13
ENDMDL
MODEL       18
REMARK 921   NORMALIZED FREE ENERGY PREDICTED BY IDOCK:   -4.54 KCAL/MOL
REMARK 922        TOTAL FREE ENERGY PREDICTED BY IDOCK:   -8.59 KCAL/MOL
REMARK 923 INTER-LIGAND FREE ENERGY PREDICTED BY IDOCK:   -7.56 KCAL/MOL
REMARK 924 INTRA-LIGAND FREE ENERGY PREDICTED BY IDOCK:   -1.02 KCAL/MOL
REMARK 927      BINDING AFFINITY PREDICTED BY RF-SCORE:    0.00 PKD
ROOT
HETATM    1  C   UNL     1     -13.723   9.193  72.438  1.00  0.00    -0.543 C  
HETATM    2  C   UNL     1     -13.223   9.950  71.226  1.00  0.00    -0.383 C  
ENDROOT
BRANCH   2   3
HETATM    3  O   UNL     1     -12.935  11.312  71.575  1.00  0.00    -0.428 OA 
BRANCH   3   4
HETATM    4  C   UNL     1     -12.378  12.072  70.589  1.00  0.00    -0.304 C  
HETATM    5  O   UNL     1     -11.857  11.636  69.570  1.00  0.00    -0.302 OA 
BRANCH   4   6
HETATM    6  C   UNL     1     -12.515  13.563  70.952  1.00  0.00    -0.369 C  
BRANCH   6   7
HETATM    7  N   UNL     1     -12.648  14.373  69.710  1.00  0.00    -0.524 NA 
HETATM    8  H   UNL     1     -13.514  14.913  69.729  1.00  0.00     0.000 HD 
BRANCH   7   9
HETATM    9  C   UNL     1     -11.505  15.248  69.430  1.00  0.00    -0.315 C  
BRANCH   9  10
HETATM   10  C   UNL     1     -10.496  14.637  68.432  1.00  0.00    -0.243 C  
BRANCH  10  11
HETATM   11  N   UNL     1     -11.087  13.746  67.421  1.00  0.00    -0.290 NA 
HETATM   12  H   UNL     1     -11.927  13.297  67.788  1.00  0.00     0.000 HD 
BRANCH  11  13
HETATM   13  C   UNL     1     -11.377  14.406  66.114  1.00  0.00    -0.350 C  
BRANCH  13  14
HETATM   14  C   UNL     1     -10.187  15.229  65.572  1.00  0.00    -0.388 C  
HETATM   15  H   UNL     1      -9.334  17.778  65.238  1.00  0.00     0.000 H  
HETATM   16  S   UNL     1     -10.405  17.038  65.726  1.00  0.00    -0.176 SA 
ENDBRANCH  13  14
BRANCH  13  17
HETATM   17  C   UNL     1     -11.802  13.343  65.078  1.00  0.00    -0.352 C  
HETATM   18  O   UNL     1     -12.958  13.027  64.819  1.00  0.00    -0.735 OA 
BRANCH  17  19
HETATM   19  O   UNL     1     -10.700  12.807  64.477  1.00  0.00    -0.316 OA 
BRANCH  19  20
HETATM   20  C   UNL     1     -10.531  11.391  64.624  1.00  0.00    -0.315 C  
HETATM   21  C   UNL     1      -9.246  11.077  65.360  1.00  0.00    -0.232 C  
ENDBRANCH  19  20
ENDBRANCH  17  19
ENDBRANCH  13  17
ENDBRANCH  11  13
ENDBRANCH  10  11
ENDBRANCH   9  10
ENDBRANCH   7   9
ENDBRANCH   6   7
BRANCH   6  22
HETATM   22  C   UNL     1     -13.644  13.731  71.988  1.00  0.00    -0.479 C  
HETATM   23  H   UNL     1     -15.260  15.598  73.123  1.00  0.00     0.000 H  
HETATM   24  S   UNL     1     -14.242  15.446  72.189  1.00  0.00    -0.520 SA 
ENDBRANCH   6  22
ENDBRANCH   4   6
ENDBRANCH   3   4
ENDBRANCH   2   3
TORSDOF 13
ENDMDL
MODEL       19
REMARK 921   NORMALIZED FREE ENERGY PREDICTED BY IDOCK:   -4.54 KCAL/MOL
REMARK 922        TOTAL FREE ENERGY PREDICTED BY IDOCK:   -8.59 KCAL/MOL
REMARK 923 INTER-LIGAND FREE ENERGY PREDICTED BY IDOCK:   -7.46 KCAL/MOL
REMARK 924 INTRA-LIGAND FREE ENERGY PREDICTED BY IDOCK:   -1.12 KCAL/MOL
REMARK 927      BINDING AFFINITY PREDICTED BY RF-SCORE:    0.00 PKD
ROOT
HETATM    1  C   UNL     1     -10.806   9.531  68.188  1.00  0.00    -0.208 C  
HETATM    2  C   UNL     1     -10.871  10.389  69.434  1.00  0.00    -0.248 C  
ENDROOT
BRANCH   2   3
HETATM    3  O   UNL     1     -12.092  11.144  69.454  1.00  0.00    -0.333 OA 
BRANCH   3   4
HETATM    4  C   UNL     1     -12.009  12.419  68.978  1.00  0.00    -0.241 C  
HETATM    5  O   UNL     1     -12.179  12.750  67.811  1.00  0.00    -0.289 OA 
BRANCH   4   6
HETATM    6  C   UNL     1     -11.679  13.380  70.136  1.00  0.00    -0.196 C  
BRANCH   6   7
HETATM    7  N   UNL     1     -10.568  14.287  69.737  1.00  0.00    -0.446 NA 
HETATM    8  H   UNL     1     -10.270  14.085  68.782  1.00  0.00     0.000 HD 
BRANCH   7   9
HETATM    9  C   UNL     1     -10.867  15.715  69.889  1.00  0.00    -0.318 C  
BRANCH   9  10
HETATM   10  C   UNL     1     -11.111  16.435  68.544  1.00  0.00    -0.357 C  
BRANCH  10  11
HETATM   11  N   UNL     1     -11.070  15.565  67.358  1.00  0.00    -0.311 NA 
HETATM   12  H   UNL     1     -11.999  15.198  67.152  1.00  0.00     0.000 HD 
BRANCH  11  13
HETATM   13  C   UNL     1     -10.483  16.208  66.145  1.00  0.00    -0.325 C  
BRANCH  13  14
HETATM   14  C   UNL     1      -8.980  15.900  65.961  1.00  0.00    -0.302 C  
HETATM   15  H   UNL     1      -6.531  17.038  66.170  1.00  0.00     0.000 H  
HETATM   16  S   UNL     1      -7.883  17.314  66.336  1.00  0.00    -0.318 SA 
ENDBRANCH  13  14
BRANCH  13  17
HETATM   17  C   UNL     1     -11.271  15.768  64.891  1.00  0.00    -0.350 C  
HETATM   18  O   UNL     1     -11.450  16.452  63.889  1.00  0.00    -1.063 OA 
BRANCH  17  19
HETATM   19  O   UNL     1     -11.737  14.495  65.053  1.00  0.00    -0.362 OA 
BRANCH  19  20
HETATM   20  C   UNL     1     -11.124  13.494  64.231  1.00  0.00    -0.351 C  
HETATM   21  C   UNL     1     -12.172  12.713  63.465  1.00  0.00    -0.638 C  
ENDBRANCH  19  20
ENDBRANCH  17  19
ENDBRANCH  13  17
ENDBRANCH  11  13
ENDBRANCH  10  11
ENDBRANCH   9  10
ENDBRANCH   7   9
ENDBRANCH   6   7
BRANCH   6  22
HETATM   22  C   UNL     1     -12.975  14.071  70.607  1.00  0.00    -0.196 C  
HETATM   23  H   UNL     1     -14.777  14.102  72.639  1.00  0.00     0.000 H  
HETATM   24  S   UNL     1     -13.609  13.480  72.215  1.00  0.00    -0.612 SA 
ENDBRANCH   6  22
ENDBRANCH   4   6
ENDBRANCH   3   4
ENDBRANCH   2   3
TORSDOF 13
ENDMDL
MODEL       20
REMARK 921   NORMALIZED FREE ENERGY PREDICTED BY IDOCK:   -4.53 KCAL/MOL
REMARK 922        TOTAL FREE ENERGY PREDICTED BY IDOCK:   -8.57 KCAL/MOL
REMARK 923 INTER-LIGAND FREE ENERGY PREDICTED BY IDOCK:   -7.73 KCAL/MOL
REMARK 924 INTRA-LIGAND FREE ENERGY PREDICTED BY IDOCK:   -0.83 KCAL/MOL
REMARK 927      BINDING AFFINITY PREDICTED BY RF-SCORE:    0.00 PKD
ROOT
HETATM    1  C   UNL     1     -10.741   7.466  73.275  1.00  0.00    -0.441 C  
HETATM    2  C   UNL     1     -11.302   7.803  71.910  1.00  0.00    -0.270 C  
ENDROOT
BRANCH   2   3
HETATM    3  O   UNL     1     -11.643   9.196  71.842  1.00  0.00    -0.358 OA 
BRANCH   3   4
HETATM    4  C   UNL     1     -11.043   9.906  70.844  1.00  0.00    -0.348 C  
HETATM    5  O   UNL     1      -9.965   9.630  70.331  1.00  0.00    -0.252 OA 
BRANCH   4   6
HETATM    6  C   UNL     1     -11.934  11.102  70.457  1.00  0.00    -0.380 C  
BRANCH   6   7
HETATM    7  N   UNL     1     -12.392  10.953  69.049  1.00  0.00    -0.731 NA 
HETATM    8  H   UNL     1     -13.398  11.110  68.984  1.00  0.00     0.000 HD 
BRANCH   7   9
HETATM    9  C   UNL     1     -11.679  11.800  68.087  1.00  0.00    -0.307 C  
BRANCH   9  10
HETATM   10  C   UNL     1     -11.680  13.296  68.471  1.00  0.00    -0.352 C  
BRANCH  10  11
HETATM   11  N   UNL     1     -12.254  14.196  67.457  1.00  0.00    -0.578 NA 
HETATM   12  H   UNL     1     -13.149  14.567  67.776  1.00  0.00     0.000 HD 
BRANCH  11  13
HETATM   13  C   UNL     1     -11.348  15.306  67.038  1.00  0.00    -0.230 C  
BRANCH  13  14
HETATM   14  C   UNL     1     -10.097  15.440  67.934  1.00  0.00    -0.226 C  
HETATM   15  H   UNL     1      -8.733  17.236  69.435  1.00  0.00     0.000 H  
HETATM   16  S   UNL     1      -9.859  17.115  68.629  1.00  0.00    -0.314 SA 
ENDBRANCH  13  14
BRANCH  13  17
HETATM   17  C   UNL     1     -10.928  15.105  65.565  1.00  0.00    -0.365 C  
HETATM   18  O   UNL     1     -10.946  15.971  64.698  1.00  0.00    -0.590 OA 
BRANCH  17  19
HETATM   19  O   UNL     1     -10.519  13.818  65.366  1.00  0.00    -0.302 OA 
BRANCH  19  20
HETATM   20  C   UNL     1     -10.868  13.237  64.103  1.00  0.00    -0.343 C  
HETATM   21  C   UNL     1     -12.208  12.538  64.186  1.00  0.00    -0.552 C  
ENDBRANCH  19  20
ENDBRANCH  17  19
ENDBRANCH  13  17
ENDBRANCH  11  13
ENDBRANCH  10  11
ENDBRANCH   9  10
ENDBRANCH   7   9
ENDBRANCH   6   7
BRANCH   6  22
HETATM   22  C   UNL     1     -13.047  11.266  71.512  1.00  0.00    -0.355 C  
HETATM   23  H   UNL     1     -14.397  13.145  72.936  1.00  0.00     0.000 H  
HETATM   24  S   UNL     1     -13.395  12.996  71.986  1.00  0.00    -0.439 SA 
ENDBRANCH   6  22
ENDBRANCH   4   6
ENDBRANCH   3   4
ENDBRANCH   2   3
TORSDOF 13
ENDMDL
MODEL       21
REMARK 921   NORMALIZED FREE ENERGY PREDICTED BY IDOCK:   -4.52 KCAL/MOL
REMARK 922        TOTAL FREE ENERGY PREDICTED BY IDOCK:   -8.54 KCAL/MOL
REMARK 923 INTER-LIGAND FREE ENERGY PREDICTED BY IDOCK:   -7.63 KCAL/MOL
REMARK 924 INTRA-LIGAND FREE ENERGY PREDICTED BY IDOCK:   -0.92 KCAL/MOL
REMARK 927      BINDING AFFINITY PREDICTED BY RF-SCORE:    0.00 PKD
ROOT
HETATM    1  C   UNL     1     -11.596  11.319  68.344  1.00  0.00    -0.378 C  
HETATM    2  C   UNL     1     -11.780  12.598  67.555  1.00  0.00    -0.368 C  
ENDROOT
BRANCH   2   3
HETATM    3  O   UNL     1     -12.045  12.298  66.176  1.00  0.00    -0.625 OA 
BRANCH   3   4
HETATM    4  C   UNL     1     -12.456  13.347  65.408  1.00  0.00    -0.494 C  
HETATM    5  O   UNL     1     -13.404  14.080  65.662  1.00  0.00    -0.636 OA 
BRANCH   4   6
HETATM    6  C   UNL     1     -11.536  13.474  64.178  1.00  0.00    -0.376 C  
BRANCH   6   7
HETATM    7  N   UNL     1     -10.226  14.050  64.587  1.00  0.00    -0.649 NA 
HETATM    8  H   UNL     1      -9.638  14.211  63.769  1.00  0.00     0.000 HD 
BRANCH   7   9
HETATM    9  C   UNL     1     -10.325  15.270  65.394  1.00  0.00    -0.393 C  
BRANCH   9  10
HETATM   10  C   UNL     1      -9.011  15.632  66.121  1.00  0.00    -0.327 C  
BRANCH  10  11
HETATM   11  N   UNL     1      -8.965  15.254  67.544  1.00  0.00    -0.181 NA 
HETATM   12  H   UNL     1      -8.418  14.402  67.669  1.00  0.00     0.000 HD 
BRANCH  11  13
HETATM   13  C   UNL     1      -8.467  16.332  68.449  1.00  0.00    -0.195 C  
BRANCH  13  14
HETATM   14  C   UNL     1      -7.291  17.134  67.849  1.00  0.00    -0.178 C  
HETATM   15  H   UNL     1      -4.587  17.153  67.685  1.00  0.00     0.000 H  
HETATM   16  S   UNL     1      -5.646  16.430  68.224  1.00  0.00    -0.111 SA 
ENDBRANCH  13  14
BRANCH  13  17
HETATM   17  C   UNL     1      -9.629  17.283  68.811  1.00  0.00    -0.269 C  
HETATM   18  O   UNL     1     -10.688  16.945  69.327  1.00  0.00    -0.335 OA 
BRANCH  17  19
HETATM   19  O   UNL     1      -9.302  18.568  68.483  1.00  0.00    -0.319 OA 
BRANCH  19  20
HETATM   20  C   UNL     1     -10.347  19.347  67.886  1.00  0.00    -0.430 C  
HETATM   21  C   UNL     1     -10.336  19.195  66.380  1.00  0.00    -0.536 C  
ENDBRANCH  19  20
ENDBRANCH  17  19
ENDBRANCH  13  17
ENDBRANCH  11  13
ENDBRANCH  10  11
ENDBRANCH   9  10
ENDBRANCH   7   9
ENDBRANCH   6   7
BRANCH   6  22
HETATM   22  C   UNL     1     -11.476  12.117  63.448  1.00  0.00    -0.416 C  
HETATM   23  H   UNL     1      -9.746  10.179  62.656  1.00  0.00     0.000 H  
HETATM   24  S   UNL     1      -9.800  11.402  63.313  1.00  0.00    -0.409 SA 
ENDBRANCH   6  22
ENDBRANCH   4   6
ENDBRANCH   3   4
ENDBRANCH   2   3
TORSDOF 13
ENDMDL
MODEL       22
REMARK 921   NORMALIZED FREE ENERGY PREDICTED BY IDOCK:   -4.52 KCAL/MOL
REMARK 922        TOTAL FREE ENERGY PREDICTED BY IDOCK:   -8.54 KCAL/MOL
REMARK 923 INTER-LIGAND FREE ENERGY PREDICTED BY IDOCK:   -7.72 KCAL/MOL
REMARK 924 INTRA-LIGAND FREE ENERGY PREDICTED BY IDOCK:   -0.82 KCAL/MOL
REMARK 927      BINDING AFFINITY PREDICTED BY RF-SCORE:    0.00 PKD
ROOT
HETATM    1  C   UNL     1     -13.379  12.641  72.194  1.00  0.00    -0.570 C  
HETATM    2  C   UNL     1     -13.091  11.188  71.881  1.00  0.00    -0.408 C  
ENDROOT
BRANCH   2   3
HETATM    3  O   UNL     1     -12.810  11.027  70.482  1.00  0.00    -0.266 OA 
BRANCH   3   4
HETATM    4  C   UNL     1     -11.503  10.809  70.160  1.00  0.00    -0.331 C  
HETATM    5  O   UNL     1     -10.768   9.994  70.703  1.00  0.00    -0.303 OA 
BRANCH   4   6
HETATM    6  C   UNL     1     -11.098  11.739  69.000  1.00  0.00    -0.246 C  
BRANCH   6   7
HETATM    7  N   UNL     1     -11.011  13.143  69.488  1.00  0.00    -0.459 NA 
HETATM    8  H   UNL     1     -10.090  13.533  69.285  1.00  0.00     0.000 HD 
BRANCH   7   9
HETATM    9  C   UNL     1     -12.064  14.028  68.981  1.00  0.00    -0.323 C  
BRANCH   9  10
HETATM   10  C   UNL     1     -11.523  15.347  68.387  1.00  0.00    -0.355 C  
BRANCH  10  11
HETATM   11  N   UNL     1     -10.587  15.182  67.262  1.00  0.00    -0.280 NA 
HETATM   12  H   UNL     1     -10.805  14.335  66.738  1.00  0.00     0.000 HD 
BRANCH  11  13
HETATM   13  C   UNL     1     -10.515  16.359  66.346  1.00  0.00    -0.286 C  
BRANCH  13  14
HETATM   14  C   UNL     1      -9.095  16.954  66.232  1.00  0.00    -0.267 C  
HETATM   15  H   UNL     1      -7.410  18.695  67.443  1.00  0.00     0.000 H  
HETATM   16  S   UNL     1      -8.688  18.159  67.546  1.00  0.00    -0.251 SA 
ENDBRANCH  13  14
BRANCH  13  17
HETATM   17  C   UNL     1     -11.038  15.961  64.948  1.00  0.00    -0.389 C  
HETATM   18  O   UNL     1     -11.400  16.743  64.076  1.00  0.00    -1.153 OA 
BRANCH  17  19
HETATM   19  O   UNL     1     -11.032  14.602  64.815  1.00  0.00    -0.392 OA 
BRANCH  19  20
HETATM   20  C   UNL     1     -12.152  14.034  64.124  1.00  0.00    -0.422 C  
HETATM   21  C   UNL     1     -11.798  12.678  63.552  1.00  0.00    -0.619 C  
ENDBRANCH  19  20
ENDBRANCH  17  19
ENDBRANCH  13  17
ENDBRANCH  11  13
ENDBRANCH  10  11
ENDBRANCH   9  10
ENDBRANCH   7   9
ENDBRANCH   6   7
BRANCH   6  22
HETATM   22  C   UNL     1      -9.828  11.183  68.324  1.00  0.00    -0.189 C  
HETATM   23  H   UNL     1      -8.453  11.213  65.982  1.00  0.00     0.000 H  
HETATM   24  S   UNL     1      -9.596  11.714  66.592  1.00  0.00    -0.210 SA 
ENDBRANCH   6  22
ENDBRANCH   4   6
ENDBRANCH   3   4
ENDBRANCH   2   3
TORSDOF 13
ENDMDL
MODEL       23
REMARK 921   NORMALIZED FREE ENERGY PREDICTED BY IDOCK:   -4.50 KCAL/MOL
REMARK 922        TOTAL FREE ENERGY PREDICTED BY IDOCK:   -8.51 KCAL/MOL
REMARK 923 INTER-LIGAND FREE ENERGY PREDICTED BY IDOCK:   -6.68 KCAL/MOL
REMARK 924 INTRA-LIGAND FREE ENERGY PREDICTED BY IDOCK:   -1.83 KCAL/MOL
REMARK 927      BINDING AFFINITY PREDICTED BY RF-SCORE:    0.00 PKD
ROOT
HETATM    1  C   UNL     1     -12.692  13.166  65.266  1.00  0.00    -0.457 C  
HETATM    2  C   UNL     1     -11.701  12.232  65.927  1.00  0.00    -0.389 C  
ENDROOT
BRANCH   2   3
HETATM    3  O   UNL     1     -12.021  12.071  67.317  1.00  0.00    -0.591 OA 
BRANCH   3   4
HETATM    4  C   UNL     1     -11.391  11.045  67.956  1.00  0.00    -0.306 C  
HETATM    5  O   UNL     1     -10.912  10.059  67.409  1.00  0.00    -0.283 OA 
BRANCH   4   6
HETATM    6  C   UNL     1     -11.365  11.322  69.472  1.00  0.00    -0.294 C  
BRANCH   6   7
HETATM    7  N   UNL     1     -11.077  12.762  69.715  1.00  0.00    -0.463 NA 
HETATM    8  H   UNL     1     -10.877  13.238  68.835  1.00  0.00     0.000 HD 
BRANCH   7   9
HETATM    9  C   UNL     1     -12.124  13.474  70.455  1.00  0.00    -0.345 C  
BRANCH   9  10
HETATM   10  C   UNL     1     -12.398  14.895  69.914  1.00  0.00    -0.280 C  
BRANCH  10  11
HETATM   11  N   UNL     1     -12.336  15.024  68.449  1.00  0.00    -0.544 NA 
HETATM   12  H   UNL     1     -13.264  15.205  68.068  1.00  0.00     0.000 HD 
BRANCH  11  13
HETATM   13  C   UNL     1     -11.363  16.048  67.964  1.00  0.00    -0.266 C  
BRANCH  13  14
HETATM   14  C   UNL     1     -10.662  16.810  69.109  1.00  0.00    -0.329 C  
HETATM   15  H   UNL     1      -9.287  19.086  69.626  1.00  0.00     0.000 H  
HETATM   16  S   UNL     1      -9.918  18.400  68.595  1.00  0.00    -0.375 SA 
ENDBRANCH  13  14
BRANCH  13  17
HETATM   17  C   UNL     1     -10.313  15.375  67.053  1.00  0.00    -0.280 C  
HETATM   18  O   UNL     1     -10.123  15.641  65.871  1.00  0.00    -0.302 OA 
BRANCH  17  19
HETATM   19  O   UNL     1      -9.610  14.440  67.759  1.00  0.00    -0.209 OA 
BRANCH  19  20
HETATM   20  C   UNL     1      -8.628  13.703  67.019  1.00  0.00    -0.159 C  
HETATM   21  C   UNL     1      -7.967  12.661  67.896  1.00  0.00    -0.156 C  
ENDBRANCH  19  20
ENDBRANCH  17  19
ENDBRANCH  13  17
ENDBRANCH  11  13
ENDBRANCH  10  11
ENDBRANCH   9  10
ENDBRANCH   7   9
ENDBRANCH   6   7
BRANCH   6  22
HETATM   22  C   UNL     1     -12.661  10.779  70.108  1.00  0.00    -0.240 C  
HETATM   23  H   UNL     1     -13.564   9.112  72.053  1.00  0.00     0.000 H  
HETATM   24  S   UNL     1     -12.397   9.601  71.479  1.00  0.00    -0.415 SA 
ENDBRANCH   6  22
ENDBRANCH   4   6
ENDBRANCH   3   4
ENDBRANCH   2   3
TORSDOF 13
ENDMDL
MODEL       24
REMARK 921   NORMALIZED FREE ENERGY PREDICTED BY IDOCK:   -4.49 KCAL/MOL
REMARK 922        TOTAL FREE ENERGY PREDICTED BY IDOCK:   -8.50 KCAL/MOL
REMARK 923 INTER-LIGAND FREE ENERGY PREDICTED BY IDOCK:   -7.94 KCAL/MOL
REMARK 924 INTRA-LIGAND FREE ENERGY PREDICTED BY IDOCK:   -0.56 KCAL/MOL
REMARK 927      BINDING AFFINITY PREDICTED BY RF-SCORE:    0.00 PKD
ROOT
HETATM    1  C   UNL     1     -14.020  13.750  72.230  1.00  0.00    -0.672 C  
HETATM    2  C   UNL     1     -14.333  15.165  71.791  1.00  0.00    -0.597 C  
ENDROOT
BRANCH   2   3
HETATM    3  O   UNL     1     -13.390  15.598  70.800  1.00  0.00    -0.535 OA 
BRANCH   3   4
HETATM    4  C   UNL     1     -12.124  15.835  71.248  1.00  0.00    -0.437 C  
HETATM    5  O   UNL     1     -11.839  16.326  72.334  1.00  0.00    -0.509 OA 
BRANCH   4   6
HETATM    6  C   UNL     1     -11.108  15.380  70.183  1.00  0.00    -0.307 C  
BRANCH   6   7
HETATM    7  N   UNL     1     -11.301  13.933  69.890  1.00  0.00    -0.456 NA 
HETATM    8  H   UNL     1     -11.607  13.438  70.728  1.00  0.00     0.000 HD 
BRANCH   7   9
HETATM    9  C   UNL     1     -12.210  13.657  68.772  1.00  0.00    -0.169 C  
BRANCH   9  10
HETATM   10  C   UNL     1     -11.499  13.056  67.539  1.00  0.00    -0.328 C  
BRANCH  10  11
HETATM   11  N   UNL     1     -12.376  12.783  66.389  1.00  0.00    -0.462 NA 
HETATM   12  H   UNL     1     -13.342  13.026  66.612  1.00  0.00     0.000 HD 
BRANCH  11  13
HETATM   13  C   UNL     1     -11.951  13.447  65.122  1.00  0.00    -0.378 C  
BRANCH  13  14
HETATM   14  C   UNL     1     -10.757  14.409  65.310  1.00  0.00    -0.375 C  
HETATM   15  H   UNL     1     -10.051  17.009  65.032  1.00  0.00     0.000 H  
HETATM   16  S   UNL     1     -11.125  16.143  64.863  1.00  0.00    -0.208 SA 
ENDBRANCH  13  14
BRANCH  13  17
HETATM   17  C   UNL     1     -11.607  12.375  64.064  1.00  0.00    -0.413 C  
HETATM   18  O   UNL     1     -12.381  11.933  63.223  1.00  0.00    -0.545 OA 
BRANCH  17  19
HETATM   19  O   UNL     1     -10.302  11.991  64.194  1.00  0.00    -0.297 OA 
BRANCH  19  20
HETATM   20  C   UNL     1     -10.084  10.619  64.546  1.00  0.00    -0.353 C  
HETATM   21  C   UNL     1      -9.187   9.941  63.533  1.00  0.00    -0.279 C  
ENDBRANCH  19  20
ENDBRANCH  17  19
ENDBRANCH  13  17
ENDBRANCH  11  13
ENDBRANCH  10  11
ENDBRANCH   9  10
ENDBRANCH   7   9
ENDBRANCH   6   7
BRANCH   6  22
HETATM   22  C   UNL     1     -11.187  16.328  68.969  1.00  0.00    -0.326 C  
HETATM   23  H   UNL     1      -9.676  17.980  67.431  1.00  0.00     0.000 H  
HETATM   24  S   UNL     1      -9.605  17.126  68.525  1.00  0.00    -0.297 SA 
ENDBRANCH   6  22
ENDBRANCH   4   6
ENDBRANCH   3   4
ENDBRANCH   2   3
TORSDOF 13
ENDMDL
MODEL       25
REMARK 921   NORMALIZED FREE ENERGY PREDICTED BY IDOCK:   -4.49 KCAL/MOL
REMARK 922        TOTAL FREE ENERGY PREDICTED BY IDOCK:   -8.49 KCAL/MOL
REMARK 923 INTER-LIGAND FREE ENERGY PREDICTED BY IDOCK:   -8.14 KCAL/MOL
REMARK 924 INTRA-LIGAND FREE ENERGY PREDICTED BY IDOCK:   -0.36 KCAL/MOL
REMARK 927      BINDING AFFINITY PREDICTED BY RF-SCORE:    0.00 PKD
ROOT
HETATM    1  C   UNL     1     -10.986   5.917  69.310  1.00  0.00    -0.397 C  
HETATM    2  C   UNL     1     -10.837   6.744  70.569  1.00  0.00    -0.258 C  
ENDROOT
BRANCH   2   3
HETATM    3  O   UNL     1     -11.584   7.965  70.453  1.00  0.00    -0.211 OA 
BRANCH   3   4
HETATM    4  C   UNL     1     -11.119   9.016  71.187  1.00  0.00    -0.301 C  
HETATM    5  O   UNL     1     -10.209   8.960  72.004  1.00  0.00    -0.334 OA 
BRANCH   4   6
HETATM    6  C   UNL     1     -11.910  10.287  70.819  1.00  0.00    -0.365 C  
BRANCH   6   7
HETATM    7  N   UNL     1     -12.332  10.222  69.393  1.00  0.00    -0.568 NA 
HETATM    8  H   UNL     1     -13.271  10.606  69.283  1.00  0.00     0.000 HD 
BRANCH   7   9
HETATM    9  C   UNL     1     -11.403  10.864  68.457  1.00  0.00    -0.299 C  
BRANCH   9  10
HETATM   10  C   UNL     1     -11.773  12.329  68.135  1.00  0.00    -0.349 C  
BRANCH  10  11
HETATM   11  N   UNL     1     -11.498  12.748  66.751  1.00  0.00    -0.324 NA 
HETATM   12  H   UNL     1     -11.740  12.003  66.098  1.00  0.00     0.000 HD 
BRANCH  11  13
HETATM   13  C   UNL     1     -12.160  14.026  66.354  1.00  0.00    -0.455 C  
BRANCH  13  14
HETATM   14  C   UNL     1     -11.267  15.267  66.575  1.00  0.00    -0.228 C  
HETATM   15  H   UNL     1      -8.710  16.126  66.321  1.00  0.00     0.000 H  
HETATM   16  S   UNL     1      -9.514  15.009  66.121  1.00  0.00    -0.299 SA 
ENDBRANCH  13  14
BRANCH  13  17
HETATM   17  C   UNL     1     -12.600  13.945  64.876  1.00  0.00    -0.347 C  
HETATM   18  O   UNL     1     -12.564  14.871  64.073  1.00  0.00    -0.832 OA 
BRANCH  17  19
HETATM   19  O   UNL     1     -13.029  12.683  64.583  1.00  0.00    -0.768 OA 
BRANCH  19  20
HETATM   20  C   UNL     1     -12.544  12.125  63.354  1.00  0.00    -0.463 C  
HETATM   21  C   UNL     1     -11.127  11.618  63.517  1.00  0.00    -0.476 C  
ENDBRANCH  19  20
ENDBRANCH  17  19
ENDBRANCH  13  17
ENDBRANCH  11  13
ENDBRANCH  10  11
ENDBRANCH   9  10
ENDBRANCH   7   9
ENDBRANCH   6   7
BRANCH   6  22
HETATM   22  C   UNL     1     -13.041  10.494  71.846  1.00  0.00    -0.462 C  
HETATM   23  H   UNL     1     -15.024   9.176  73.155  1.00  0.00     0.000 H  
HETATM   24  S   UNL     1     -14.004   8.990  72.230  1.00  0.00    -0.399 SA 
ENDBRANCH   6  22
ENDBRANCH   4   6
ENDBRANCH   3   4
ENDBRANCH   2   3
TORSDOF 13
ENDMDL
MODEL       26
REMARK 921   NORMALIZED FREE ENERGY PREDICTED BY IDOCK:   -4.47 KCAL/MOL
REMARK 922        TOTAL FREE ENERGY PREDICTED BY IDOCK:   -8.47 KCAL/MOL
REMARK 923 INTER-LIGAND FREE ENERGY PREDICTED BY IDOCK:   -7.62 KCAL/MOL
REMARK 924 INTRA-LIGAND FREE ENERGY PREDICTED BY IDOCK:   -0.85 KCAL/MOL
REMARK 927      BINDING AFFINITY PREDICTED BY RF-SCORE:    0.00 PKD
ROOT
HETATM    1  C   UNL     1     -12.382  12.596  64.439  1.00  0.00    -0.523 C  
HETATM    2  C   UNL     1     -12.122  14.051  64.112  1.00  0.00    -0.422 C  
ENDROOT
BRANCH   2   3
HETATM    3  O   UNL     1     -11.682  14.753  65.285  1.00  0.00    -0.351 OA 
BRANCH   3   4
HETATM    4  C   UNL     1     -11.122  15.977  65.068  1.00  0.00    -0.336 C  
HETATM    5  O   UNL     1     -11.362  16.704  64.111  1.00  0.00    -1.141 OA 
BRANCH   4   6
HETATM    6  C   UNL     1     -10.151  16.308  66.217  1.00  0.00    -0.324 C  
BRANCH   6   7
HETATM    7  N   UNL     1      -8.835  15.660  65.966  1.00  0.00    -0.386 NA 
HETATM    8  H   UNL     1      -8.110  16.366  65.835  1.00  0.00     0.000 HD 
BRANCH   7   9
HETATM    9  C   UNL     1      -8.429  14.695  66.993  1.00  0.00    -0.210 C  
BRANCH   9  10
HETATM   10  C   UNL     1      -9.377  14.663  68.212  1.00  0.00    -0.199 C  
BRANCH  10  11
HETATM   11  N   UNL     1      -9.797  13.317  68.636  1.00  0.00    -0.392 NA 
HETATM   12  H   UNL     1      -9.074  12.882  69.210  1.00  0.00     0.000 HD 
BRANCH  11  13
HETATM   13  C   UNL     1     -11.114  13.278  69.338  1.00  0.00    -0.090 C  
BRANCH  13  14
HETATM   14  C   UNL     1     -12.015  14.488  69.007  1.00  0.00    -0.299 C  
HETATM   15  H   UNL     1     -13.637  16.319  70.171  1.00  0.00     0.000 H  
HETATM   16  S   UNL     1     -12.826  15.230  70.469  1.00  0.00    -0.326 SA 
ENDBRANCH  13  14
BRANCH  13  17
HETATM   17  C   UNL     1     -11.846  11.962  68.995  1.00  0.00    -0.308 C  
HETATM   18  O   UNL     1     -11.971  11.491  67.869  1.00  0.00    -0.618 OA 
BRANCH  17  19
HETATM   19  O   UNL     1     -12.330  11.384  70.133  1.00  0.00    -0.297 OA 
BRANCH  19  20
HETATM   20  C   UNL     1     -11.595  10.256  70.626  1.00  0.00    -0.347 C  
HETATM   21  C   UNL     1     -12.322   9.608  71.785  1.00  0.00    -0.474 C  
ENDBRANCH  19  20
ENDBRANCH  17  19
ENDBRANCH  13  17
ENDBRANCH  11  13
ENDBRANCH  10  11
ENDBRANCH   9  10
ENDBRANCH   7   9
ENDBRANCH   6   7
BRANCH   6  22
HETATM   22  C   UNL     1     -10.118  17.836  66.429  1.00  0.00    -0.357 C  
HETATM   23  H   UNL     1      -8.419  19.952  66.552  1.00  0.00     0.000 H  
HETATM   24  S   UNL     1      -8.449  18.576  66.362  1.00  0.00    -0.219 SA 
ENDBRANCH   6  22
ENDBRANCH   4   6
ENDBRANCH   3   4
ENDBRANCH   2   3
TORSDOF 13
ENDMDL
MODEL       27
REMARK 921   NORMALIZED FREE ENERGY PREDICTED BY IDOCK:   -4.47 KCAL/MOL
REMARK 922        TOTAL FREE ENERGY PREDICTED BY IDOCK:   -8.47 KCAL/MOL
REMARK 923 INTER-LIGAND FREE ENERGY PREDICTED BY IDOCK:   -7.54 KCAL/MOL
REMARK 924 INTRA-LIGAND FREE ENERGY PREDICTED BY IDOCK:   -0.93 KCAL/MOL
REMARK 927      BINDING AFFINITY PREDICTED BY RF-SCORE:    0.00 PKD
ROOT
HETATM    1  C   UNL     1     -11.786   9.693  71.409  1.00  0.00    -0.484 C  
HETATM    2  C   UNL     1     -12.719  10.737  70.833  1.00  0.00    -0.384 C  
ENDROOT
BRANCH   2   3
HETATM    3  O   UNL     1     -11.968  11.859  70.344  1.00  0.00    -0.351 OA 
BRANCH   3   4
HETATM    4  C   UNL     1     -11.903  11.984  68.988  1.00  0.00    -0.315 C  
HETATM    5  O   UNL     1     -11.909  11.054  68.192  1.00  0.00    -0.573 OA 
BRANCH   4   6
HETATM    6  C   UNL     1     -11.833  13.477  68.613  1.00  0.00    -0.369 C  
BRANCH   6   7
HETATM    7  N   UNL     1     -12.646  13.728  67.392  1.00  0.00    -0.270 NA 
HETATM    8  H   UNL     1     -13.412  14.369  67.601  1.00  0.00     0.000 HD 
BRANCH   7   9
HETATM    9  C   UNL     1     -11.876  14.208  66.240  1.00  0.00    -0.411 C  
BRANCH   9  10
HETATM   10  C   UNL     1     -10.481  13.557  66.121  1.00  0.00    -0.296 C  
BRANCH  10  11
HETATM   11  N   UNL     1      -9.391  14.484  65.776  1.00  0.00    -0.531 NA 
HETATM   12  H   UNL     1      -9.617  14.999  64.925  1.00  0.00     0.000 HD 
BRANCH  11  13
HETATM   13  C   UNL     1      -9.016  15.425  66.872  1.00  0.00    -0.247 C  
BRANCH  13  14
HETATM   14  C   UNL     1      -7.637  15.114  67.495  1.00  0.00    -0.192 C  
HETATM   15  H   UNL     1      -6.105  15.657  69.662  1.00  0.00     0.000 H  
HETATM   16  S   UNL     1      -7.347  15.937  69.102  1.00  0.00    -0.207 SA 
ENDBRANCH  13  14
BRANCH  13  17
HETATM   17  C   UNL     1      -9.045  16.876  66.343  1.00  0.00    -0.283 C  
HETATM   18  O   UNL     1      -8.090  17.475  65.860  1.00  0.00    -0.536 OA 
BRANCH  17  19
HETATM   19  O   UNL     1     -10.298  17.400  66.480  1.00  0.00    -0.325 OA 
BRANCH  19  20
HETATM   20  C   UNL     1     -10.445  18.427  67.469  1.00  0.00    -0.419 C  
HETATM   21  C   UNL     1     -10.490  19.794  66.821  1.00  0.00    -0.610 C  
ENDBRANCH  19  20
ENDBRANCH  17  19
ENDBRANCH  13  17
ENDBRANCH  11  13
ENDBRANCH  10  11
ENDBRANCH   9  10
ENDBRANCH   7   9
ENDBRANCH   6   7
BRANCH   6  22
HETATM   22  C   UNL     1     -12.196  14.327  69.848  1.00  0.00    -0.352 C  
HETATM   23  H   UNL     1     -11.453  16.553  71.218  1.00  0.00     0.000 H  
HETATM   24  S   UNL     1     -11.127  15.786  70.106  1.00  0.00    -0.380 SA 
ENDBRANCH   6  22
ENDBRANCH   4   6
ENDBRANCH   3   4
ENDBRANCH   2   3
TORSDOF 13
ENDMDL
MODEL       28
REMARK 921   NORMALIZED FREE ENERGY PREDICTED BY IDOCK:   -4.47 KCAL/MOL
REMARK 922        TOTAL FREE ENERGY PREDICTED BY IDOCK:   -8.46 KCAL/MOL
REMARK 923 INTER-LIGAND FREE ENERGY PREDICTED BY IDOCK:   -7.76 KCAL/MOL
REMARK 924 INTRA-LIGAND FREE ENERGY PREDICTED BY IDOCK:   -0.70 KCAL/MOL
REMARK 927      BINDING AFFINITY PREDICTED BY RF-SCORE:    0.00 PKD
ROOT
HETATM    1  C   UNL     1     -11.133  15.823  65.120  1.00  0.00    -0.332 C  
HETATM    2  C   UNL     1     -12.118  15.033  64.286  1.00  0.00    -0.306 C  
ENDROOT
BRANCH   2   3
HETATM    3  O   UNL     1     -12.833  14.101  65.111  1.00  0.00    -0.686 OA 
BRANCH   3   4
HETATM    4  C   UNL     1     -12.686  12.785  64.785  1.00  0.00    -0.393 C  
HETATM    5  O   UNL     1     -13.524  12.101  64.210  1.00  0.00    -0.708 OA 
BRANCH   4   6
HETATM    6  C   UNL     1     -11.299  12.295  65.243  1.00  0.00    -0.338 C  
BRANCH   6   7
HETATM    7  N   UNL     1     -11.418  11.596  66.551  1.00  0.00    -0.447 NA 
HETATM    8  H   UNL     1     -11.063  10.643  66.478  1.00  0.00     0.000 HD 
BRANCH   7   9
HETATM    9  C   UNL     1     -10.781  12.295  67.672  1.00  0.00    -0.220 C  
BRANCH   9  10
HETATM   10  C   UNL     1     -11.769  12.677  68.797  1.00  0.00    -0.323 C  
BRANCH  10  11
HETATM   11  N   UNL     1     -11.282  13.710  69.726  1.00  0.00    -0.468 NA 
HETATM   12  H   UNL     1     -10.262  13.715  69.751  1.00  0.00     0.000 HD 
BRANCH  11  13
HETATM   13  C   UNL     1     -11.803  15.081  69.447  1.00  0.00    -0.329 C  
BRANCH  13  14
HETATM   14  C   UNL     1     -12.609  15.675  70.624  1.00  0.00    -0.414 C  
HETATM   15  H   UNL     1     -12.645  15.812  73.329  1.00  0.00     0.000 H  
HETATM   16  S   UNL     1     -11.920  15.277  72.270  1.00  0.00    -0.443 SA 
ENDBRANCH  13  14
BRANCH  13  17
HETATM   17  C   UNL     1     -10.631  16.017  69.080  1.00  0.00    -0.260 C  
HETATM   18  O   UNL     1      -9.466  15.866  69.429  1.00  0.00    -0.246 OA 
BRANCH  17  19
HETATM   19  O   UNL     1     -11.078  17.042  68.296  1.00  0.00    -0.337 OA 
BRANCH  19  20
HETATM   20  C   UNL     1     -10.070  17.915  67.769  1.00  0.00    -0.348 C  
HETATM   21  C   UNL     1     -10.199  19.302  68.361  1.00  0.00    -0.503 C  
ENDBRANCH  19  20
ENDBRANCH  17  19
ENDBRANCH  13  17
ENDBRANCH  11  13
ENDBRANCH  10  11
ENDBRANCH   9  10
ENDBRANCH   7   9
ENDBRANCH   6   7
BRANCH   6  22
HETATM   22  C   UNL     1     -10.647  11.484  64.104  1.00  0.00    -0.363 C  
HETATM   23  H   UNL     1      -8.976   9.393  63.640  1.00  0.00     0.000 H  
HETATM   24  S   UNL     1      -9.563  10.124  64.665  1.00  0.00    -0.303 SA 
ENDBRANCH   6  22
ENDBRANCH   4   6
ENDBRANCH   3   4
ENDBRANCH   2   3
TORSDOF 13
ENDMDL
MODEL       29
REMARK 921   NORMALIZED FREE ENERGY PREDICTED BY IDOCK:   -4.47 KCAL/MOL
REMARK 922        TOTAL FREE ENERGY PREDICTED BY IDOCK:   -8.46 KCAL/MOL
REMARK 923 INTER-LIGAND FREE ENERGY PREDICTED BY IDOCK:   -7.87 KCAL/MOL
REMARK 924 INTRA-LIGAND FREE ENERGY PREDICTED BY IDOCK:   -0.58 KCAL/MOL
REMARK 927      BINDING AFFINITY PREDICTED BY RF-SCORE:    0.00 PKD
ROOT
HETATM    1  C   UNL     1     -11.698   8.049  72.188  1.00  0.00    -0.399 C  
HETATM    2  C   UNL     1     -12.504   9.309  71.955  1.00  0.00    -0.378 C  
ENDROOT
BRANCH   2   3
HETATM    3  O   UNL     1     -11.727  10.267  71.220  1.00  0.00    -0.354 OA 
BRANCH   3   4
HETATM    4  C   UNL     1     -12.374  11.417  70.876  1.00  0.00    -0.381 C  
HETATM    5  O   UNL     1     -13.144  12.038  71.599  1.00  0.00    -0.427 OA 
BRANCH   4   6
HETATM    6  C   UNL     1     -11.979  11.820  69.443  1.00  0.00    -0.298 C  
BRANCH   6   7
HETATM    7  N   UNL     1     -11.273  13.130  69.464  1.00  0.00    -0.453 NA 
HETATM    8  H   UNL     1     -10.613  13.191  68.688  1.00  0.00     0.000 HD 
BRANCH   7   9
HETATM    9  C   UNL     1     -12.161  14.297  69.473  1.00  0.00    -0.330 C  
BRANCH   9  10
HETATM   10  C   UNL     1     -11.773  15.369  68.430  1.00  0.00    -0.316 C  
BRANCH  10  11
HETATM   11  N   UNL     1     -10.787  14.932  67.429  1.00  0.00    -0.296 NA 
HETATM   12  H   UNL     1     -11.166  14.172  66.864  1.00  0.00     0.000 HD 
BRANCH  11  13
HETATM   13  C   UNL     1     -10.275  16.027  66.553  1.00  0.00    -0.293 C  
BRANCH  13  14
HETATM   14  C   UNL     1      -8.734  16.135  66.553  1.00  0.00    -0.302 C  
HETATM   15  H   UNL     1      -6.507  14.837  67.387  1.00  0.00     0.000 H  
HETATM   16  S   UNL     1      -7.894  14.740  67.386  1.00  0.00    -0.198 SA 
ENDBRANCH  13  14
BRANCH  13  17
HETATM   17  C   UNL     1     -10.793  15.825  65.112  1.00  0.00    -0.428 C  
HETATM   18  O   UNL     1     -11.052  16.723  64.319  1.00  0.00    -1.106 OA 
BRANCH  17  19
HETATM   19  O   UNL     1     -10.912  14.493  64.840  1.00  0.00    -0.373 OA 
BRANCH  19  20
HETATM   20  C   UNL     1     -12.133  14.089  64.206  1.00  0.00    -0.445 C  
HETATM   21  C   UNL     1     -11.968  12.743  63.532  1.00  0.00    -0.633 C  
ENDBRANCH  19  20
ENDBRANCH  17  19
ENDBRANCH  13  17
ENDBRANCH  11  13
ENDBRANCH  10  11
ENDBRANCH   9  10
ENDBRANCH   7   9
ENDBRANCH   6   7
BRANCH   6  22
HETATM   22  C   UNL     1     -11.214  10.655  68.782  1.00  0.00    -0.279 C  
HETATM   23  H   UNL     1      -8.965  10.089  67.367  1.00  0.00     0.000 H  
HETATM   24  S   UNL     1      -9.655  11.138  67.962  1.00  0.00    -0.182 SA 
ENDBRANCH   6  22
ENDBRANCH   4   6
ENDBRANCH   3   4
ENDBRANCH   2   3
TORSDOF 13
ENDMDL
MODEL       30
REMARK 921   NORMALIZED FREE ENERGY PREDICTED BY IDOCK:   -4.46 KCAL/MOL
REMARK 922        TOTAL FREE ENERGY PREDICTED BY IDOCK:   -8.45 KCAL/MOL
REMARK 923 INTER-LIGAND FREE ENERGY PREDICTED BY IDOCK:   -7.28 KCAL/MOL
REMARK 924 INTRA-LIGAND FREE ENERGY PREDICTED BY IDOCK:   -1.16 KCAL/MOL
REMARK 927      BINDING AFFINITY PREDICTED BY RF-SCORE:    0.00 PKD
ROOT
HETATM    1  C   UNL     1     -11.956  12.336  63.461  1.00  0.00    -0.625 C  
HETATM    2  C   UNL     1     -11.641  11.856  64.861  1.00  0.00    -0.226 C  
ENDROOT
BRANCH   2   3
HETATM    3  O   UNL     1     -12.469  12.535  65.818  1.00  0.00    -0.626 OA 
BRANCH   3   4
HETATM    4  C   UNL     1     -11.811  13.156  66.838  1.00  0.00    -0.386 C  
HETATM    5  O   UNL     1     -11.886  14.349  67.104  1.00  0.00    -0.388 OA 
BRANCH   4   6
HETATM    6  C   UNL     1     -10.966  12.123  67.608  1.00  0.00    -0.243 C  
BRANCH   6   7
HETATM    7  N   UNL     1      -9.807  12.799  68.251  1.00  0.00    -0.225 NA 
HETATM    8  H   UNL     1      -9.598  12.367  69.152  1.00  0.00     0.000 HD 
BRANCH   7   9
HETATM    9  C   UNL     1      -8.601  12.857  67.420  1.00  0.00    -0.195 C  
BRANCH   9  10
HETATM   10  C   UNL     1      -8.073  14.293  67.204  1.00  0.00    -0.129 C  
BRANCH  10  11
HETATM   11  N   UNL     1      -8.906  15.134  66.330  1.00  0.00    -0.459 NA 
HETATM   12  H   UNL     1      -9.856  14.767  66.281  1.00  0.00     0.000 HD 
BRANCH  11  13
HETATM   13  C   UNL     1      -8.923  16.579  66.704  1.00  0.00    -0.255 C  
BRANCH  13  14
HETATM   14  C   UNL     1      -7.659  17.341  66.248  1.00  0.00    -0.325 C  
HETATM   15  H   UNL     1      -5.416  18.516  67.209  1.00  0.00     0.000 H  
HETATM   16  S   UNL     1      -6.553  17.831  67.620  1.00  0.00    -0.185 SA 
ENDBRANCH  13  14
BRANCH  13  17
HETATM   17  C   UNL     1     -10.186  17.251  66.122  1.00  0.00    -0.331 C  
HETATM   18  O   UNL     1     -10.726  16.951  65.063  1.00  0.00    -0.700 OA 
BRANCH  17  19
HETATM   19  O   UNL     1     -10.627  18.230  66.966  1.00  0.00    -0.389 OA 
BRANCH  19  20
HETATM   20  C   UNL     1     -10.551  19.571  66.466  1.00  0.00    -0.476 C  
HETATM   21  C   UNL     1      -9.625  20.411  67.320  1.00  0.00    -0.592 C  
ENDBRANCH  19  20
ENDBRANCH  17  19
ENDBRANCH  13  17
ENDBRANCH  11  13
ENDBRANCH  10  11
ENDBRANCH   9  10
ENDBRANCH   7   9
ENDBRANCH   6   7
BRANCH   6  22
HETATM   22  C   UNL     1     -11.885  11.321  68.552  1.00  0.00    -0.285 C  
HETATM   23  H   UNL     1     -12.866  11.294  71.085  1.00  0.00     0.000 H  
HETATM   24  S   UNL     1     -12.039  12.017  70.234  1.00  0.00    -0.245 SA 
ENDBRANCH   6  22
ENDBRANCH   4   6
ENDBRANCH   3   4
ENDBRANCH   2   3
TORSDOF 13
ENDMDL
MODEL       31
REMARK 921   NORMALIZED FREE ENERGY PREDICTED BY IDOCK:   -4.46 KCAL/MOL
REMARK 922        TOTAL FREE ENERGY PREDICTED BY IDOCK:   -8.44 KCAL/MOL
REMARK 923 INTER-LIGAND FREE ENERGY PREDICTED BY IDOCK:   -7.50 KCAL/MOL
REMARK 924 INTRA-LIGAND FREE ENERGY PREDICTED BY IDOCK:   -0.94 KCAL/MOL
REMARK 927      BINDING AFFINITY PREDICTED BY RF-SCORE:    0.00 PKD
ROOT
HETATM    1  C   UNL     1     -12.535  11.992  63.354  1.00  0.00    -0.625 C  
HETATM    2  C   UNL     1     -12.510  12.679  64.703  1.00  0.00    -0.466 C  
ENDROOT
BRANCH   2   3
HETATM    3  O   UNL     1     -12.089  11.760  65.722  1.00  0.00    -0.357 OA 
BRANCH   3   4
HETATM    4  C   UNL     1     -10.741  11.629  65.883  1.00  0.00    -0.278 C  
HETATM    5  O   UNL     1      -9.891  12.195  65.207  1.00  0.00    -0.249 OA 
BRANCH   4   6
HETATM    6  C   UNL     1     -10.454  10.669  67.053  1.00  0.00    -0.243 C  
BRANCH   6   7
HETATM    7  N   UNL     1     -11.690  10.476  67.860  1.00  0.00    -0.714 NA 
HETATM    8  H   UNL     1     -11.879   9.482  67.989  1.00  0.00     0.000 HD 
BRANCH   7   9
HETATM    9  C   UNL     1     -11.682  11.167  69.154  1.00  0.00    -0.338 C  
BRANCH   9  10
HETATM   10  C   UNL     1     -11.805  12.702  69.029  1.00  0.00    -0.294 C  
BRANCH  10  11
HETATM   11  N   UNL     1     -10.638  13.459  69.511  1.00  0.00    -0.379 NA 
HETATM   12  H   UNL     1      -9.802  12.874  69.494  1.00  0.00     0.000 HD 
BRANCH  11  13
HETATM   13  C   UNL     1     -10.394  14.739  68.782  1.00  0.00    -0.248 C  
BRANCH  13  14
HETATM   14  C   UNL     1     -11.284  14.905  67.531  1.00  0.00    -0.328 C  
HETATM   15  H   UNL     1     -11.207  15.744  64.957  1.00  0.00     0.000 H  
HETATM   16  S   UNL     1     -10.405  15.594  66.083  1.00  0.00    -0.334 SA 
ENDBRANCH  13  14
BRANCH  13  17
HETATM   17  C   UNL     1     -10.600  15.930  69.743  1.00  0.00    -0.322 C  
HETATM   18  O   UNL     1     -10.582  17.113  69.422  1.00  0.00    -0.321 OA 
BRANCH  17  19
HETATM   19  O   UNL     1     -10.819  15.476  71.012  1.00  0.00    -0.321 OA 
BRANCH  19  20
HETATM   20  C   UNL     1     -11.921  16.071  71.710  1.00  0.00    -0.517 C  
HETATM   21  C   UNL     1     -13.215  15.360  71.376  1.00  0.00    -0.578 C  
ENDBRANCH  19  20
ENDBRANCH  17  19
ENDBRANCH  13  17
ENDBRANCH  11  13
ENDBRANCH  10  11
ENDBRANCH   9  10
ENDBRANCH   7   9
ENDBRANCH   6   7
BRANCH   6  22
HETATM   22  C   UNL     1      -9.802   9.383  66.504  1.00  0.00    -0.258 C  
HETATM   23  H   UNL     1      -9.891   6.675  66.705  1.00  0.00     0.000 H  
HETATM   24  S   UNL     1     -10.478   7.834  67.199  1.00  0.00    -0.331 SA 
ENDBRANCH   6  22
ENDBRANCH   4   6
ENDBRANCH   3   4
ENDBRANCH   2   3
TORSDOF 13
ENDMDL
MODEL       32
REMARK 921   NORMALIZED FREE ENERGY PREDICTED BY IDOCK:   -4.45 KCAL/MOL
REMARK 922        TOTAL FREE ENERGY PREDICTED BY IDOCK:   -8.42 KCAL/MOL
REMARK 923 INTER-LIGAND FREE ENERGY PREDICTED BY IDOCK:   -7.51 KCAL/MOL
REMARK 924 INTRA-LIGAND FREE ENERGY PREDICTED BY IDOCK:   -0.91 KCAL/MOL
REMARK 927      BINDING AFFINITY PREDICTED BY RF-SCORE:    0.00 PKD
ROOT
HETATM    1  C   UNL     1     -10.649  19.545  67.244  1.00  0.00    -0.610 C  
HETATM    2  C   UNL     1     -10.185  18.109  67.357  1.00  0.00    -0.372 C  
ENDROOT
BRANCH   2   3
HETATM    3  O   UNL     1     -11.016  17.389  68.280  1.00  0.00    -0.317 OA 
BRANCH   3   4
HETATM    4  C   UNL     1     -10.980  16.030  68.176  1.00  0.00    -0.339 C  
HETATM    5  O   UNL     1     -10.375  15.403  67.315  1.00  0.00    -0.261 OA 
BRANCH   4   6
HETATM    6  C   UNL     1     -11.808  15.406  69.316  1.00  0.00    -0.343 C  
BRANCH   6   7
HETATM    7  N   UNL     1     -12.276  14.051  68.914  1.00  0.00    -0.513 NA 
HETATM    8  H   UNL     1     -12.264  13.957  67.898  1.00  0.00     0.000 HD 
BRANCH   7   9
HETATM    9  C   UNL     1     -11.542  12.946  69.538  1.00  0.00    -0.282 C  
BRANCH   9  10
HETATM   10  C   UNL     1     -12.231  11.575  69.360  1.00  0.00    -0.207 C  
BRANCH  10  11
HETATM   11  N   UNL     1     -12.164  11.020  67.998  1.00  0.00    -0.563 NA 
HETATM   12  H   UNL     1     -12.851  11.472  67.395  1.00  0.00     0.000 HD 
BRANCH  11  13
HETATM   13  C   UNL     1     -10.807  11.077  67.378  1.00  0.00    -0.274 C  
BRANCH  13  14
HETATM   14  C   UNL     1     -10.273   9.690  66.958  1.00  0.00    -0.244 C  
HETATM   15  H   UNL     1      -9.764   7.216  67.935  1.00  0.00     0.000 H  
HETATM   16  S   UNL     1     -10.246   8.464  68.314  1.00  0.00    -0.200 SA 
ENDBRANCH  13  14
BRANCH  13  17
HETATM   17  C   UNL     1     -10.833  12.027  66.161  1.00  0.00    -0.286 C  
HETATM   18  O   UNL     1      -9.872  12.292  65.447  1.00  0.00    -0.247 OA 
BRANCH  17  19
HETATM   19  O   UNL     1     -12.091  12.528  65.983  1.00  0.00    -0.557 OA 
BRANCH  19  20
HETATM   20  C   UNL     1     -12.341  13.163  64.722  1.00  0.00    -0.423 C  
HETATM   21  C   UNL     1     -12.637  12.133  63.652  1.00  0.00    -0.616 C  
ENDBRANCH  19  20
ENDBRANCH  17  19
ENDBRANCH  13  17
ENDBRANCH  11  13
ENDBRANCH  10  11
ENDBRANCH   9  10
ENDBRANCH   7   9
ENDBRANCH   6   7
BRANCH   6  22
HETATM   22  C   UNL     1     -10.999  15.476  70.627  1.00  0.00    -0.342 C  
HETATM   23  H   UNL     1     -11.284  15.734  73.316  1.00  0.00     0.000 H  
HETATM   24  S   UNL     1     -12.012  15.671  72.135  1.00  0.00    -0.513 SA 
ENDBRANCH   6  22
ENDBRANCH   4   6
ENDBRANCH   3   4
ENDBRANCH   2   3
TORSDOF 13
ENDMDL
MODEL       33
REMARK 921   NORMALIZED FREE ENERGY PREDICTED BY IDOCK:   -4.44 KCAL/MOL
REMARK 922        TOTAL FREE ENERGY PREDICTED BY IDOCK:   -8.41 KCAL/MOL
REMARK 923 INTER-LIGAND FREE ENERGY PREDICTED BY IDOCK:   -6.86 KCAL/MOL
REMARK 924 INTRA-LIGAND FREE ENERGY PREDICTED BY IDOCK:   -1.55 KCAL/MOL
REMARK 927      BINDING AFFINITY PREDICTED BY RF-SCORE:    0.00 PKD
ROOT
HETATM    1  C   UNL     1     -12.169  12.496  63.898  1.00  0.00    -0.590 C  
HETATM    2  C   UNL     1     -11.578  11.879  65.148  1.00  0.00    -0.215 C  
ENDROOT
BRANCH   2   3
HETATM    3  O   UNL     1     -12.121  12.511  66.318  1.00  0.00    -0.574 OA 
BRANCH   3   4
HETATM    4  C   UNL     1     -11.759  11.960  67.511  1.00  0.00    -0.265 C  
HETATM    5  O   UNL     1     -11.685  10.760  67.742  1.00  0.00    -0.547 OA 
BRANCH   4   6
HETATM    6  C   UNL     1     -11.449  13.082  68.521  1.00  0.00    -0.304 C  
BRANCH   6   7
HETATM    7  N   UNL     1     -11.311  12.506  69.887  1.00  0.00    -0.509 NA 
HETATM    8  H   UNL     1     -10.502  12.907  70.362  1.00  0.00     0.000 HD 
BRANCH   7   9
HETATM    9  C   UNL     1     -12.510  12.634  70.722  1.00  0.00    -0.270 C  
BRANCH   9  10
HETATM   10  C   UNL     1     -12.963  11.297  71.351  1.00  0.00    -0.379 C  
BRANCH  10  11
HETATM   11  N   UNL     1     -12.425  10.092  70.700  1.00  0.00    -0.448 NA 
HETATM   12  H   UNL     1     -12.101  10.310  69.758  1.00  0.00     0.000 HD 
BRANCH  11  13
HETATM   13  C   UNL     1     -11.350   9.404  71.475  1.00  0.00    -0.394 C  
BRANCH  13  14
HETATM   14  C   UNL     1     -11.829   8.102  72.155  1.00  0.00    -0.359 C  
HETATM   15  H   UNL     1     -13.878   6.330  72.159  1.00  0.00     0.000 H  
HETATM   16  S   UNL     1     -13.447   7.501  71.548  1.00  0.00    -0.315 SA 
ENDBRANCH  13  14
BRANCH  13  17
HETATM   17  C   UNL     1     -10.150   9.108  70.549  1.00  0.00    -0.235 C  
HETATM   18  O   UNL     1      -9.479   9.953  69.966  1.00  0.00    -0.231 OA 
BRANCH  17  19
HETATM   19  O   UNL     1      -9.932   7.762  70.479  1.00  0.00    -0.187 OA 
BRANCH  19  20
HETATM   20  C   UNL     1      -9.822   7.212  69.160  1.00  0.00    -0.160 C  
HETATM   21  C   UNL     1     -10.990   6.297  68.861  1.00  0.00    -0.435 C  
ENDBRANCH  19  20
ENDBRANCH  17  19
ENDBRANCH  13  17
ENDBRANCH  11  13
ENDBRANCH  10  11
ENDBRANCH   9  10
ENDBRANCH   7   9
ENDBRANCH   6   7
BRANCH   6  22
HETATM   22  C   UNL     1     -10.245  13.902  68.013  1.00  0.00    -0.246 C  
HETATM   23  H   UNL     1      -7.631  13.671  67.309  1.00  0.00     0.000 H  
HETATM   24  S   UNL     1      -8.716  12.933  67.767  1.00  0.00    -0.201 SA 
ENDBRANCH   6  22
ENDBRANCH   4   6
ENDBRANCH   3   4
ENDBRANCH   2   3
TORSDOF 13
ENDMDL
MODEL       34
REMARK 921   NORMALIZED FREE ENERGY PREDICTED BY IDOCK:   -4.44 KCAL/MOL
REMARK 922        TOTAL FREE ENERGY PREDICTED BY IDOCK:   -8.41 KCAL/MOL
REMARK 923 INTER-LIGAND FREE ENERGY PREDICTED BY IDOCK:   -7.25 KCAL/MOL
REMARK 924 INTRA-LIGAND FREE ENERGY PREDICTED BY IDOCK:   -1.16 KCAL/MOL
REMARK 927      BINDING AFFINITY PREDICTED BY RF-SCORE:    0.00 PKD
ROOT
HETATM    1  C   UNL     1     -11.015  12.105  63.338  1.00  0.00    -0.480 C  
HETATM    2  C   UNL     1     -11.019  11.753  64.810  1.00  0.00    -0.303 C  
ENDROOT
BRANCH   2   3
HETATM    3  O   UNL     1     -12.283  12.092  65.400  1.00  0.00    -0.515 OA 
BRANCH   3   4
HETATM    4  C   UNL     1     -12.446  13.402  65.741  1.00  0.00    -0.439 C  
HETATM    5  O   UNL     1     -13.266  14.165  65.245  1.00  0.00    -0.760 OA 
BRANCH   4   6
HETATM    6  C   UNL     1     -11.447  13.771  66.854  1.00  0.00    -0.347 C  
BRANCH   6   7
HETATM    7  N   UNL     1     -11.132  15.224  66.787  1.00  0.00    -0.309 NA 
HETATM    8  H   UNL     1     -10.875  15.575  67.710  1.00  0.00     0.000 HD 
BRANCH   7   9
HETATM    9  C   UNL     1     -10.105  15.577  65.801  1.00  0.00    -0.360 C  
BRANCH   9  10
HETATM   10  C   UNL     1      -8.692  15.709  66.410  1.00  0.00    -0.318 C  
BRANCH  10  11
HETATM   11  N   UNL     1      -8.162  17.082  66.457  1.00  0.00    -0.252 NA 
HETATM   12  H   UNL     1      -8.726  17.702  65.875  1.00  0.00     0.000 HD 
BRANCH  11  13
HETATM   13  C   UNL     1      -8.025  17.640  67.834  1.00  0.00    -0.231 C  
BRANCH  13  14
HETATM   14  C   UNL     1      -6.984  18.777  67.928  1.00  0.00    -0.221 C  
HETATM   15  H   UNL     1      -5.378  20.329  66.395  1.00  0.00     0.000 H  
HETATM   16  S   UNL     1      -6.316  19.306  66.310  1.00  0.00    -0.184 SA 
ENDBRANCH  13  14
BRANCH  13  17
HETATM   17  C   UNL     1      -9.400  18.138  68.332  1.00  0.00    -0.309 C  
HETATM   18  O   UNL     1     -10.204  17.474  68.978  1.00  0.00    -0.345 OA 
BRANCH  17  19
HETATM   19  O   UNL     1      -9.593  19.436  67.957  1.00  0.00    -0.315 OA 
BRANCH  19  20
HETATM   20  C   UNL     1     -10.797  19.707  67.228  1.00  0.00    -0.395 C  
HETATM   21  C   UNL     1     -10.558  19.592  65.737  1.00  0.00    -0.537 C  
ENDBRANCH  19  20
ENDBRANCH  17  19
ENDBRANCH  13  17
ENDBRANCH  11  13
ENDBRANCH  10  11
ENDBRANCH   9  10
ENDBRANCH   7   9
ENDBRANCH   6   7
BRANCH   6  22
HETATM   22  C   UNL     1     -11.985  13.262  68.207  1.00  0.00    -0.302 C  
HETATM   23  H   UNL     1     -12.155  13.920  70.837  1.00  0.00     0.000 H  
HETATM   24  S   UNL     1     -11.670  14.378  69.618  1.00  0.00    -0.327 SA 
ENDBRANCH   6  22
ENDBRANCH   4   6
ENDBRANCH   3   4
ENDBRANCH   2   3
TORSDOF 13
ENDMDL
MODEL       35
REMARK 921   NORMALIZED FREE ENERGY PREDICTED BY IDOCK:   -4.44 KCAL/MOL
REMARK 922        TOTAL FREE ENERGY PREDICTED BY IDOCK:   -8.41 KCAL/MOL
REMARK 923 INTER-LIGAND FREE ENERGY PREDICTED BY IDOCK:   -7.75 KCAL/MOL
REMARK 924 INTRA-LIGAND FREE ENERGY PREDICTED BY IDOCK:   -0.66 KCAL/MOL
REMARK 927      BINDING AFFINITY PREDICTED BY RF-SCORE:    0.00 PKD
ROOT
HETATM    1  C   UNL     1     -12.214  12.363  63.510  1.00  0.00    -0.661 C  
HETATM    2  C   UNL     1     -12.484  13.159  64.769  1.00  0.00    -0.402 C  
ENDROOT
BRANCH   2   3
HETATM    3  O   UNL     1     -12.569  14.559  64.464  1.00  0.00    -0.644 OA 
BRANCH   3   4
HETATM    4  C   UNL     1     -11.486  15.310  64.816  1.00  0.00    -0.363 C  
HETATM    5  O   UNL     1     -11.067  16.280  64.196  1.00  0.00    -0.733 OA 
BRANCH   4   6
HETATM    6  C   UNL     1     -10.879  14.756  66.119  1.00  0.00    -0.321 C  
BRANCH   6   7
HETATM    7  N   UNL     1      -9.574  14.103  65.829  1.00  0.00    -0.520 NA 
HETATM    8  H   UNL     1      -8.881  14.800  65.553  1.00  0.00     0.000 HD 
BRANCH   7   9
HETATM    9  C   UNL     1      -9.056  13.272  66.920  1.00  0.00    -0.232 C  
BRANCH   9  10
HETATM   10  C   UNL     1      -9.986  12.093  67.286  1.00  0.00    -0.203 C  
BRANCH  10  11
HETATM   11  N   UNL     1     -10.021  11.752  68.718  1.00  0.00    -0.367 NA 
HETATM   12  H   UNL     1     -10.079  12.598  69.284  1.00  0.00     0.000 HD 
BRANCH  11  13
HETATM   13  C   UNL     1     -11.104  10.796  69.094  1.00  0.00    -0.249 C  
BRANCH  13  14
HETATM   14  C   UNL     1     -10.604   9.344  69.258  1.00  0.00    -0.225 C  
HETATM   15  H   UNL     1      -8.429   7.910  70.002  1.00  0.00     0.000 H  
HETATM   16  S   UNL     1      -8.880   9.217  69.855  1.00  0.00    -0.204 SA 
ENDBRANCH  13  14
BRANCH  13  17
HETATM   17  C   UNL     1     -11.787  11.272  70.395  1.00  0.00    -0.350 C  
HETATM   18  O   UNL     1     -12.184  12.412  70.613  1.00  0.00    -0.368 OA 
BRANCH  17  19
HETATM   19  O   UNL     1     -11.898  10.233  71.274  1.00  0.00    -0.364 OA 
BRANCH  19  20
HETATM   20  C   UNL     1     -13.160  10.107  71.941  1.00  0.00    -0.466 C  
HETATM   21  C   UNL     1     -13.628   8.667  71.937  1.00  0.00    -0.446 C  
ENDBRANCH  19  20
ENDBRANCH  17  19
ENDBRANCH  13  17
ENDBRANCH  11  13
ENDBRANCH  10  11
ENDBRANCH   9  10
ENDBRANCH   7   9
ENDBRANCH   6   7
BRANCH   6  22
HETATM   22  C   UNL     1     -10.850  15.876  67.180  1.00  0.00    -0.267 C  
HETATM   23  H   UNL     1     -11.626  16.451  69.719  1.00  0.00     0.000 H  
HETATM   24  S   UNL     1     -11.652  15.443  68.763  1.00  0.00    -0.368 SA 
ENDBRANCH   6  22
ENDBRANCH   4   6
ENDBRANCH   3   4
ENDBRANCH   2   3
TORSDOF 13
ENDMDL
MODEL       36
REMARK 921   NORMALIZED FREE ENERGY PREDICTED BY IDOCK:   -4.44 KCAL/MOL
REMARK 922        TOTAL FREE ENERGY PREDICTED BY IDOCK:   -8.40 KCAL/MOL
REMARK 923 INTER-LIGAND FREE ENERGY PREDICTED BY IDOCK:   -7.65 KCAL/MOL
REMARK 924 INTRA-LIGAND FREE ENERGY PREDICTED BY IDOCK:   -0.75 KCAL/MOL
REMARK 927      BINDING AFFINITY PREDICTED BY RF-SCORE:    0.00 PKD
ROOT
HETATM    1  C   UNL     1     -12.270  15.398  74.217  1.00  0.00    -0.751 C  
HETATM    2  C   UNL     1     -12.192  16.326  73.023  1.00  0.00    -0.523 C  
ENDROOT
BRANCH   2   3
HETATM    3  O   UNL     1     -11.628  15.639  71.895  1.00  0.00    -0.401 OA 
BRANCH   3   4
HETATM    4  C   UNL     1     -12.424  15.560  70.791  1.00  0.00    -0.440 C  
HETATM    5  O   UNL     1     -13.647  15.618  70.796  1.00  0.00    -0.524 OA 
BRANCH   4   6
HETATM    6  C   UNL     1     -11.545  15.397  69.536  1.00  0.00    -0.332 C  
BRANCH   6   7
HETATM    7  N   UNL     1     -12.406  15.159  68.345  1.00  0.00    -0.509 NA 
HETATM    8  H   UNL     1     -12.434  15.991  67.755  1.00  0.00     0.000 HD 
BRANCH   7   9
HETATM    9  C   UNL     1     -12.034  13.982  67.554  1.00  0.00    -0.395 C  
BRANCH   9  10
HETATM   10  C   UNL     1     -11.645  12.762  68.417  1.00  0.00    -0.325 C  
BRANCH  10  11
HETATM   11  N   UNL     1     -11.817  11.456  67.759  1.00  0.00    -0.630 NA 
HETATM   12  H   UNL     1     -12.424  11.545  66.943  1.00  0.00     0.000 HD 
BRANCH  11  13
HETATM   13  C   UNL     1     -10.538  10.783  67.386  1.00  0.00    -0.242 C  
BRANCH  13  14
HETATM   14  C   UNL     1     -10.713   9.286  67.053  1.00  0.00    -0.129 C  
HETATM   15  H   UNL     1      -9.323   7.102  66.255  1.00  0.00     0.000 H  
HETATM   16  S   UNL     1      -9.165   8.450  66.555  1.00  0.00    -0.203 SA 
ENDBRANCH  13  14
BRANCH  13  17
HETATM   17  C   UNL     1      -9.892  11.521  66.192  1.00  0.00    -0.221 C  
HETATM   18  O   UNL     1      -8.795  12.069  66.205  1.00  0.00    -0.171 OA 
BRANCH  17  19
HETATM   19  O   UNL     1     -10.718  11.467  65.106  1.00  0.00    -0.289 OA 
BRANCH  19  20
HETATM   20  C   UNL     1     -10.664  12.593  64.220  1.00  0.00    -0.382 C  
HETATM   21  C   UNL     1     -12.042  12.923  63.687  1.00  0.00    -0.611 C  
ENDBRANCH  19  20
ENDBRANCH  17  19
ENDBRANCH  13  17
ENDBRANCH  11  13
ENDBRANCH  10  11
ENDBRANCH   9  10
ENDBRANCH   7   9
ENDBRANCH   6   7
BRANCH   6  22
HETATM   22  C   UNL     1     -10.577  16.593  69.437  1.00  0.00    -0.333 C  
HETATM   23  H   UNL     1      -8.681  17.696  67.833  1.00  0.00     0.000 H  
HETATM   24  S   UNL     1      -9.554  16.619  67.923  1.00  0.00    -0.237 SA 
ENDBRANCH   6  22
ENDBRANCH   4   6
ENDBRANCH   3   4
ENDBRANCH   2   3
TORSDOF 13
ENDMDL
MODEL       37
REMARK 921   NORMALIZED FREE ENERGY PREDICTED BY IDOCK:   -4.43 KCAL/MOL
REMARK 922        TOTAL FREE ENERGY PREDICTED BY IDOCK:   -8.40 KCAL/MOL
REMARK 923 INTER-LIGAND FREE ENERGY PREDICTED BY IDOCK:   -7.29 KCAL/MOL
REMARK 924 INTRA-LIGAND FREE ENERGY PREDICTED BY IDOCK:   -1.11 KCAL/MOL
REMARK 927      BINDING AFFINITY PREDICTED BY RF-SCORE:    0.00 PKD
ROOT
HETATM    1  C   UNL     1      -8.576  19.892  66.396  1.00  0.00    -0.386 C  
HETATM    2  C   UNL     1      -9.923  20.057  67.067  1.00  0.00    -0.445 C  
ENDROOT
BRANCH   2   3
HETATM    3  O   UNL     1     -10.730  18.889  66.857  1.00  0.00    -0.421 OA 
BRANCH   3   4
HETATM    4  C   UNL     1     -10.493  17.844  67.701  1.00  0.00    -0.397 C  
HETATM    5  O   UNL     1     -10.288  17.941  68.905  1.00  0.00    -0.367 OA 
BRANCH   4   6
HETATM    6  C   UNL     1     -10.534  16.524  66.908  1.00  0.00    -0.282 C  
BRANCH   6   7
HETATM    7  N   UNL     1     -10.500  16.813  65.448  1.00  0.00    -0.634 NA 
HETATM    8  H   UNL     1      -9.601  16.536  65.052  1.00  0.00     0.000 HD 
BRANCH   7   9
HETATM    9  C   UNL     1     -11.602  16.215  64.686  1.00  0.00    -0.133 C  
BRANCH   9  10
HETATM   10  C   UNL     1     -11.513  14.676  64.587  1.00  0.00    -0.388 C  
BRANCH  10  11
HETATM   11  N   UNL     1     -12.349  13.943  65.551  1.00  0.00    -0.451 NA 
HETATM   12  H   UNL     1     -13.310  13.880  65.215  1.00  0.00     0.000 HD 
BRANCH  11  13
HETATM   13  C   UNL     1     -11.831  12.589  65.907  1.00  0.00    -0.430 C  
BRANCH  13  14
HETATM   14  C   UNL     1     -10.369  12.361  65.462  1.00  0.00    -0.271 C  
HETATM   15  H   UNL     1      -8.871  10.936  63.713  1.00  0.00     0.000 H  
HETATM   16  S   UNL     1     -10.187  11.141  64.113  1.00  0.00    -0.374 SA 
ENDBRANCH  13  14
BRANCH  13  17
HETATM   17  C   UNL     1     -11.963  12.366  67.430  1.00  0.00    -0.175 C  
HETATM   18  O   UNL     1     -11.920  11.279  67.995  1.00  0.00    -0.621 OA 
BRANCH  17  19
HETATM   19  O   UNL     1     -12.127  13.563  68.066  1.00  0.00    -0.347 OA 
BRANCH  19  20
HETATM   20  C   UNL     1     -11.968  13.543  69.491  1.00  0.00    -0.334 C  
HETATM   21  C   UNL     1     -12.073  14.941  70.062  1.00  0.00    -0.387 C  
ENDBRANCH  19  20
ENDBRANCH  17  19
ENDBRANCH  13  17
ENDBRANCH  11  13
ENDBRANCH  10  11
ENDBRANCH   9  10
ENDBRANCH   7   9
ENDBRANCH   6   7
BRANCH   6  22
HETATM   22  C   UNL     1      -9.430  15.583  67.433  1.00  0.00    -0.211 C  
HETATM   23  H   UNL     1      -6.751  15.142  67.322  1.00  0.00     0.000 H  
HETATM   24  S   UNL     1      -7.746  15.989  66.849  1.00  0.00    -0.235 SA 
ENDBRANCH   6  22
ENDBRANCH   4   6
ENDBRANCH   3   4
ENDBRANCH   2   3
TORSDOF 13
ENDMDL
MODEL       38
REMARK 921   NORMALIZED FREE ENERGY PREDICTED BY IDOCK:   -4.43 KCAL/MOL
REMARK 922        TOTAL FREE ENERGY PREDICTED BY IDOCK:   -8.39 KCAL/MOL
REMARK 923 INTER-LIGAND FREE ENERGY PREDICTED BY IDOCK:   -6.94 KCAL/MOL
REMARK 924 INTRA-LIGAND FREE ENERGY PREDICTED BY IDOCK:   -1.45 KCAL/MOL
REMARK 927      BINDING AFFINITY PREDICTED BY RF-SCORE:    0.00 PKD
ROOT
HETATM    1  C   UNL     1     -11.799  12.152  63.938  1.00  0.00    -0.558 C  
HETATM    2  C   UNL     1     -12.514  12.717  65.147  1.00  0.00    -0.501 C  
ENDROOT
BRANCH   2   3
HETATM    3  O   UNL     1     -11.566  13.066  66.167  1.00  0.00    -0.331 OA 
BRANCH   3   4
HETATM    4  C   UNL     1     -11.765  12.486  67.385  1.00  0.00    -0.366 C  
HETATM    5  O   UNL     1     -11.895  11.284  67.583  1.00  0.00    -0.614 OA 
BRANCH   4   6
HETATM    6  C   UNL     1     -11.791  13.576  68.474  1.00  0.00    -0.362 C  
BRANCH   6   7
HETATM    7  N   UNL     1     -11.438  12.980  69.791  1.00  0.00    -0.496 NA 
HETATM    8  H   UNL     1     -10.536  13.336  70.112  1.00  0.00     0.000 HD 
BRANCH   7   9
HETATM    9  C   UNL     1     -12.457  13.159  70.830  1.00  0.00    -0.323 C  
BRANCH   9  10
HETATM   10  C   UNL     1     -12.916  11.831  71.473  1.00  0.00    -0.341 C  
BRANCH  10  11
HETATM   11  N   UNL     1     -12.713  10.636  70.638  1.00  0.00    -0.364 NA 
HETATM   12  H   UNL     1     -12.409  10.902  69.701  1.00  0.00     0.000 HD 
BRANCH  11  13
HETATM   13  C   UNL     1     -11.779   9.629  71.223  1.00  0.00    -0.382 C  
BRANCH  13  14
HETATM   14  C   UNL     1     -12.498   8.369  71.754  1.00  0.00    -0.335 C  
HETATM   15  H   UNL     1     -14.968   7.317  72.113  1.00  0.00     0.000 H  
HETATM   16  S   UNL     1     -14.321   8.451  71.635  1.00  0.00    -0.408 SA 
ENDBRANCH  13  14
BRANCH  13  17
HETATM   17  C   UNL     1     -10.719   9.233  70.172  1.00  0.00    -0.235 C  
HETATM   18  O   UNL     1     -10.660   8.152  69.596  1.00  0.00    -0.227 OA 
BRANCH  17  19
HETATM   19  O   UNL     1      -9.854  10.269  69.965  1.00  0.00    -0.191 OA 
BRANCH  19  20
HETATM   20  C   UNL     1      -8.850  10.058  68.964  1.00  0.00    -0.159 C  
HETATM   21  C   UNL     1      -8.479  11.363  68.292  1.00  0.00    -0.154 C  
ENDBRANCH  19  20
ENDBRANCH  17  19
ENDBRANCH  13  17
ENDBRANCH  11  13
ENDBRANCH  10  11
ENDBRANCH   9  10
ENDBRANCH   7   9
ENDBRANCH   6   7
BRANCH   6  22
HETATM   22  C   UNL     1     -10.922  14.767  68.020  1.00  0.00    -0.271 C  
HETATM   23  H   UNL     1     -10.325  17.346  68.628  1.00  0.00     0.000 H  
HETATM   24  S   UNL     1     -11.108  16.273  69.036  1.00  0.00    -0.320 SA 
ENDBRANCH   6  22
ENDBRANCH   4   6
ENDBRANCH   3   4
ENDBRANCH   2   3
TORSDOF 13
ENDMDL
MODEL       39
REMARK 921   NORMALIZED FREE ENERGY PREDICTED BY IDOCK:   -4.43 KCAL/MOL
REMARK 922        TOTAL FREE ENERGY PREDICTED BY IDOCK:   -8.39 KCAL/MOL
REMARK 923 INTER-LIGAND FREE ENERGY PREDICTED BY IDOCK:   -7.21 KCAL/MOL
REMARK 924 INTRA-LIGAND FREE ENERGY PREDICTED BY IDOCK:   -1.18 KCAL/MOL
REMARK 927      BINDING AFFINITY PREDICTED BY RF-SCORE:    0.00 PKD
ROOT
HETATM    1  C   UNL     1     -10.423   9.100  67.930  1.00  0.00    -0.293 C  
HETATM    2  C   UNL     1     -11.135  10.199  68.691  1.00  0.00    -0.205 C  
ENDROOT
BRANCH   2   3
HETATM    3  O   UNL     1     -11.888  11.021  67.787  1.00  0.00    -0.605 OA 
BRANCH   3   4
HETATM    4  C   UNL     1     -11.413  12.286  67.600  1.00  0.00    -0.336 C  
HETATM    5  O   UNL     1     -10.877  12.974  68.459  1.00  0.00    -0.243 OA 
BRANCH   4   6
HETATM    6  C   UNL     1     -11.646  12.710  66.137  1.00  0.00    -0.393 C  
BRANCH   6   7
HETATM    7  N   UNL     1     -12.067  14.137  66.087  1.00  0.00    -0.424 NA 
HETATM    8  H   UNL     1     -12.194  14.503  67.031  1.00  0.00     0.000 HD 
BRANCH   7   9
HETATM    9  C   UNL     1     -11.172  15.006  65.317  1.00  0.00    -0.367 C  
BRANCH   9  10
HETATM   10  C   UNL     1     -10.438  16.052  66.185  1.00  0.00    -0.326 C  
BRANCH  10  11
HETATM   11  N   UNL     1     -10.334  15.710  67.613  1.00  0.00    -0.269 NA 
HETATM   12  H   UNL     1      -9.377  15.445  67.848  1.00  0.00     0.000 HD 
BRANCH  11  13
HETATM   13  C   UNL     1     -10.822  16.776  68.536  1.00  0.00    -0.345 C  
BRANCH  13  14
HETATM   14  C   UNL     1     -10.958  16.298  69.999  1.00  0.00    -0.355 C  
HETATM   15  H   UNL     1     -12.710  15.137  71.708  1.00  0.00     0.000 H  
HETATM   16  S   UNL     1     -12.587  15.567  70.391  1.00  0.00    -0.300 SA 
ENDBRANCH  13  14
BRANCH  13  17
HETATM   17  C   UNL     1      -9.879  17.998  68.463  1.00  0.00    -0.378 C  
HETATM   18  O   UNL     1      -8.662  17.965  68.605  1.00  0.00    -0.301 OA 
BRANCH  17  19
HETATM   19  O   UNL     1     -10.599  19.129  68.203  1.00  0.00    -0.364 OA 
BRANCH  19  20
HETATM   20  C   UNL     1     -10.050  20.008  67.212  1.00  0.00    -0.437 C  
HETATM   21  C   UNL     1     -10.576  19.660  65.836  1.00  0.00    -0.566 C  
ENDBRANCH  19  20
ENDBRANCH  17  19
ENDBRANCH  13  17
ENDBRANCH  11  13
ENDBRANCH  10  11
ENDBRANCH   9  10
ENDBRANCH   7   9
ENDBRANCH   6   7
BRANCH   6  22
HETATM   22  C   UNL     1     -10.403  12.346  65.300  1.00  0.00    -0.282 C  
HETATM   23  H   UNL     1      -9.653  11.231  62.938  1.00  0.00     0.000 H  
HETATM   24  S   UNL     1     -10.773  11.559  63.693  1.00  0.00    -0.424 SA 
ENDBRANCH   6  22
ENDBRANCH   4   6
ENDBRANCH   3   4
ENDBRANCH   2   3
TORSDOF 13
ENDMDL
MODEL       40
REMARK 921   NORMALIZED FREE ENERGY PREDICTED BY IDOCK:   -4.42 KCAL/MOL
REMARK 922        TOTAL FREE ENERGY PREDICTED BY IDOCK:   -8.37 KCAL/MOL
REMARK 923 INTER-LIGAND FREE ENERGY PREDICTED BY IDOCK:   -7.01 KCAL/MOL
REMARK 924 INTRA-LIGAND FREE ENERGY PREDICTED BY IDOCK:   -1.36 KCAL/MOL
REMARK 927      BINDING AFFINITY PREDICTED BY RF-SCORE:    0.00 PKD
ROOT
HETATM    1  C   UNL     1     -12.648  14.712  70.490  1.00  0.00    -0.409 C  
HETATM    2  C   UNL     1     -12.741  13.411  71.258  1.00  0.00    -0.338 C  
ENDROOT
BRANCH   2   3
HETATM    3  O   UNL     1     -12.225  12.329  70.468  1.00  0.00    -0.360 OA 
BRANCH   3   4
HETATM    4  C   UNL     1     -12.425  11.078  70.972  1.00  0.00    -0.409 C  
HETATM    5  O   UNL     1     -13.295  10.771  71.777  1.00  0.00    -0.395 OA 
BRANCH   4   6
HETATM    6  C   UNL     1     -11.393  10.109  70.364  1.00  0.00    -0.326 C  
BRANCH   6   7
HETATM    7  N   UNL     1     -10.322  10.880  69.675  1.00  0.00    -0.444 NA 
HETATM    8  H   UNL     1      -9.529  11.023  70.300  1.00  0.00     0.000 HD 
BRANCH   7   9
HETATM    9  C   UNL     1      -9.876  10.297  68.406  1.00  0.00    -0.156 C  
BRANCH   9  10
HETATM   10  C   UNL     1     -10.924  10.409  67.277  1.00  0.00    -0.240 C  
BRANCH  10  11
HETATM   11  N   UNL     1     -11.802  11.588  67.362  1.00  0.00    -0.620 NA 
HETATM   12  H   UNL     1     -11.844  11.933  68.321  1.00  0.00     0.000 HD 
BRANCH  11  13
HETATM   13  C   UNL     1     -11.440  12.692  66.425  1.00  0.00    -0.356 C  
BRANCH  13  14
HETATM   14  C   UNL     1     -12.533  12.980  65.373  1.00  0.00    -0.476 C  
HETATM   15  H   UNL     1     -13.270  12.364  62.840  1.00  0.00     0.000 H  
HETATM   16  S   UNL     1     -12.286  12.105  63.787  1.00  0.00    -0.533 SA 
ENDBRANCH  13  14
BRANCH  13  17
HETATM   17  C   UNL     1     -11.126  13.973  67.229  1.00  0.00    -0.302 C  
HETATM   18  O   UNL     1     -11.743  15.029  67.151  1.00  0.00    -0.327 OA 
BRANCH  17  19
HETATM   19  O   UNL     1     -10.059  13.759  68.055  1.00  0.00    -0.232 OA 
BRANCH  19  20
HETATM   20  C   UNL     1      -8.777  13.687  67.418  1.00  0.00    -0.213 C  
HETATM   21  C   UNL     1      -8.255  15.074  67.105  1.00  0.00    -0.251 C  
ENDBRANCH  19  20
ENDBRANCH  17  19
ENDBRANCH  13  17
ENDBRANCH  11  13
ENDBRANCH  10  11
ENDBRANCH   9  10
ENDBRANCH   7   9
ENDBRANCH   6   7
BRANCH   6  22
HETATM   22  C   UNL     1     -10.917   9.126  71.454  1.00  0.00    -0.344 C  
HETATM   23  H   UNL     1     -10.915   6.492  72.118  1.00  0.00     0.000 H  
HETATM   24  S   UNL     1     -11.343   7.377  71.137  1.00  0.00    -0.276 SA 
ENDBRANCH   6  22
ENDBRANCH   4   6
ENDBRANCH   3   4
ENDBRANCH   2   3
TORSDOF 13
ENDMDL
MODEL       41
REMARK 921   NORMALIZED FREE ENERGY PREDICTED BY IDOCK:   -4.41 KCAL/MOL
REMARK 922        TOTAL FREE ENERGY PREDICTED BY IDOCK:   -8.36 KCAL/MOL
REMARK 923 INTER-LIGAND FREE ENERGY PREDICTED BY IDOCK:   -7.44 KCAL/MOL
REMARK 924 INTRA-LIGAND FREE ENERGY PREDICTED BY IDOCK:   -0.92 KCAL/MOL
REMARK 927      BINDING AFFINITY PREDICTED BY RF-SCORE:    0.00 PKD
ROOT
HETATM    1  C   UNL     1     -14.134  13.796  72.342  1.00  0.00    -0.593 C  
HETATM    2  C   UNL     1     -14.408  15.232  71.949  1.00  0.00    -0.589 C  
ENDROOT
BRANCH   2   3
HETATM    3  O   UNL     1     -13.530  15.633  70.886  1.00  0.00    -0.569 OA 
BRANCH   3   4
HETATM    4  C   UNL     1     -12.223  15.809  71.232  1.00  0.00    -0.438 C  
HETATM    5  O   UNL     1     -11.825  16.494  72.166  1.00  0.00    -0.501 OA 
BRANCH   4   6
HETATM    6  C   UNL     1     -11.326  15.004  70.272  1.00  0.00    -0.263 C  
BRANCH   6   7
HETATM    7  N   UNL     1     -12.139  14.485  69.139  1.00  0.00    -0.483 NA 
HETATM    8  H   UNL     1     -12.032  15.084  68.320  1.00  0.00     0.000 HD 
BRANCH   7   9
HETATM    9  C   UNL     1     -11.868  13.087  68.788  1.00  0.00    -0.317 C  
BRANCH   9  10
HETATM   10  C   UNL     1     -12.212  12.094  69.921  1.00  0.00    -0.170 C  
BRANCH  10  11
HETATM   11  N   UNL     1     -11.119  11.183  70.300  1.00  0.00    -0.455 NA 
HETATM   12  H   UNL     1     -10.728  11.452  71.203  1.00  0.00     0.000 HD 
BRANCH  11  13
HETATM   13  C   UNL     1     -11.498   9.739  70.304  1.00  0.00    -0.255 C  
BRANCH  13  14
HETATM   14  C   UNL     1     -10.630   8.880  69.358  1.00  0.00    -0.217 C  
HETATM   15  H   UNL     1      -8.348   8.958  67.901  1.00  0.00     0.000 H  
HETATM   16  S   UNL     1      -9.128   9.731  68.753  1.00  0.00    -0.141 SA 
ENDBRANCH  13  14
BRANCH  13  17
HETATM   17  C   UNL     1     -11.419   9.186  71.744  1.00  0.00    -0.381 C  
HETATM   18  O   UNL     1     -10.408   8.749  72.283  1.00  0.00    -0.325 OA 
BRANCH  17  19
HETATM   19  O   UNL     1     -12.644   9.262  72.343  1.00  0.00    -0.351 OA 
BRANCH  19  20
HETATM   20  C   UNL     1     -13.744   8.736  71.590  1.00  0.00    -0.394 C  
HETATM   21  C   UNL     1     -13.666   7.226  71.510  1.00  0.00    -0.451 C  
ENDBRANCH  19  20
ENDBRANCH  17  19
ENDBRANCH  13  17
ENDBRANCH  11  13
ENDBRANCH  10  11
ENDBRANCH   9  10
ENDBRANCH   7   9
ENDBRANCH   6   7
BRANCH   6  22
HETATM   22  C   UNL     1     -10.103  15.861  69.884  1.00  0.00    -0.190 C  
HETATM   23  H   UNL     1      -9.333  17.893  68.254  1.00  0.00     0.000 H  
HETATM   24  S   UNL     1     -10.434  17.121  68.604  1.00  0.00    -0.359 SA 
ENDBRANCH   6  22
ENDBRANCH   4   6
ENDBRANCH   3   4
ENDBRANCH   2   3
TORSDOF 13
ENDMDL
MODEL       42
REMARK 921   NORMALIZED FREE ENERGY PREDICTED BY IDOCK:   -4.39 KCAL/MOL
REMARK 922        TOTAL FREE ENERGY PREDICTED BY IDOCK:   -8.31 KCAL/MOL
REMARK 923 INTER-LIGAND FREE ENERGY PREDICTED BY IDOCK:   -7.65 KCAL/MOL
REMARK 924 INTRA-LIGAND FREE ENERGY PREDICTED BY IDOCK:   -0.67 KCAL/MOL
REMARK 927      BINDING AFFINITY PREDICTED BY RF-SCORE:    0.00 PKD
ROOT
HETATM    1  C   UNL     1     -14.332   7.321  71.780  1.00  0.00    -0.560 C  
HETATM    2  C   UNL     1     -12.861   7.543  71.503  1.00  0.00    -0.360 C  
ENDROOT
BRANCH   2   3
HETATM    3  O   UNL     1     -12.401   8.726  72.173  1.00  0.00    -0.352 OA 
BRANCH   3   4
HETATM    4  C   UNL     1     -11.481   9.472  71.498  1.00  0.00    -0.395 C  
HETATM    5  O   UNL     1     -10.300   9.179  71.357  1.00  0.00    -0.297 OA 
BRANCH   4   6
HETATM    6  C   UNL     1     -12.159  10.734  70.931  1.00  0.00    -0.370 C  
BRANCH   6   7
HETATM    7  N   UNL     1     -12.614  10.477  69.537  1.00  0.00    -0.662 NA 
HETATM    8  H   UNL     1     -13.633  10.434  69.498  1.00  0.00     0.000 HD 
BRANCH   7   9
HETATM    9  C   UNL     1     -12.105  11.433  68.548  1.00  0.00    -0.098 C  
BRANCH   9  10
HETATM   10  C   UNL     1     -10.734  12.035  68.927  1.00  0.00    -0.185 C  
BRANCH  10  11
HETATM   11  N   UNL     1     -10.736  13.490  69.151  1.00  0.00    -0.425 NA 
HETATM   12  H   UNL     1      -9.803  13.875  69.000  1.00  0.00     0.000 HD 
BRANCH  11  13
HETATM   13  C   UNL     1     -11.746  14.233  68.341  1.00  0.00    -0.338 C  
BRANCH  13  14
HETATM   14  C   UNL     1     -11.970  15.681  68.830  1.00  0.00    -0.279 C  
HETATM   15  H   UNL     1     -11.678  17.264  71.009  1.00  0.00     0.000 H  
HETATM   16  S   UNL     1     -11.476  15.961  70.569  1.00  0.00    -0.405 SA 
ENDBRANCH  13  14
BRANCH  13  17
HETATM   17  C   UNL     1     -11.321  14.234  66.856  1.00  0.00    -0.343 C  
HETATM   18  O   UNL     1     -10.167  14.310  66.447  1.00  0.00    -0.277 OA 
BRANCH  17  19
HETATM   19  O   UNL     1     -12.421  14.128  66.054  1.00  0.00    -0.467 OA 
BRANCH  19  20
HETATM   20  C   UNL     1     -12.439  13.007  65.160  1.00  0.00    -0.496 C  
HETATM   21  C   UNL     1     -11.913  13.399  63.796  1.00  0.00    -0.517 C  
ENDBRANCH  19  20
ENDBRANCH  17  19
ENDBRANCH  13  17
ENDBRANCH  11  13
ENDBRANCH  10  11
ENDBRANCH   9  10
ENDBRANCH   7   9
ENDBRANCH   6   7
BRANCH   6  22
HETATM   22  C   UNL     1     -13.246  11.211  71.916  1.00  0.00    -0.382 C  
HETATM   23  H   UNL     1     -14.377  13.456  72.946  1.00  0.00     0.000 H  
HETATM   24  S   UNL     1     -13.397  13.025  72.059  1.00  0.00    -0.439 SA 
ENDBRANCH   6  22
ENDBRANCH   4   6
ENDBRANCH   3   4
ENDBRANCH   2   3
TORSDOF 13
ENDMDL
MODEL       43
REMARK 921   NORMALIZED FREE ENERGY PREDICTED BY IDOCK:   -4.38 KCAL/MOL
REMARK 922        TOTAL FREE ENERGY PREDICTED BY IDOCK:   -8.30 KCAL/MOL
REMARK 923 INTER-LIGAND FREE ENERGY PREDICTED BY IDOCK:   -7.65 KCAL/MOL
REMARK 924 INTRA-LIGAND FREE ENERGY PREDICTED BY IDOCK:   -0.66 KCAL/MOL
REMARK 927      BINDING AFFINITY PREDICTED BY RF-SCORE:    0.00 PKD
ROOT
HETATM    1  C   UNL     1     -12.740   9.414  71.986  1.00  0.00    -0.483 C  
HETATM    2  C   UNL     1     -13.199  10.712  71.358  1.00  0.00    -0.323 C  
ENDROOT
BRANCH   2   3
HETATM    3  O   UNL     1     -12.539  11.826  71.978  1.00  0.00    -0.091 OA 
BRANCH   3   4
HETATM    4  C   UNL     1     -13.286  12.958  72.113  1.00  0.00    -0.515 C  
HETATM    5  O   UNL     1     -14.411  13.009  72.596  1.00  0.00    -0.565 OA 
BRANCH   4   6
HETATM    6  C   UNL     1     -12.493  14.164  71.573  1.00  0.00    -0.341 C  
BRANCH   6   7
HETATM    7  N   UNL     1     -12.342  14.046  70.097  1.00  0.00    -0.345 NA 
HETATM    8  H   UNL     1     -13.257  13.965  69.651  1.00  0.00     0.000 HD 
BRANCH   7   9
HETATM    9  C   UNL     1     -11.566  15.126  69.479  1.00  0.00    -0.319 C  
BRANCH   9  10
HETATM   10  C   UNL     1     -11.450  14.997  67.944  1.00  0.00    -0.340 C  
BRANCH  10  11
HETATM   11  N   UNL     1     -12.130  13.825  67.368  1.00  0.00    -0.398 NA 
HETATM   12  H   UNL     1     -13.019  14.100  66.948  1.00  0.00     0.000 HD 
BRANCH  11  13
HETATM   13  C   UNL     1     -11.306  13.057  66.389  1.00  0.00    -0.317 C  
BRANCH  13  14
HETATM   14  C   UNL     1     -10.802  11.707  66.945  1.00  0.00    -0.278 C  
HETATM   15  H   UNL     1      -8.685  10.575  68.199  1.00  0.00     0.000 H  
HETATM   16  S   UNL     1      -9.138  11.790  67.698  1.00  0.00    -0.183 SA 
ENDBRANCH  13  14
BRANCH  13  17
HETATM   17  C   UNL     1     -12.116  12.829  65.094  1.00  0.00    -0.450 C  
HETATM   18  O   UNL     1     -13.166  13.393  64.805  1.00  0.00    -0.590 OA 
BRANCH  17  19
HETATM   19  O   UNL     1     -11.489  11.909  64.304  1.00  0.00    -0.350 OA 
BRANCH  19  20
HETATM   20  C   UNL     1     -10.563  12.434  63.344  1.00  0.00    -0.332 C  
HETATM   21  C   UNL     1      -9.504  11.407  63.002  1.00  0.00    -0.380 C  
ENDBRANCH  19  20
ENDBRANCH  17  19
ENDBRANCH  13  17
ENDBRANCH  11  13
ENDBRANCH  10  11
ENDBRANCH   9  10
ENDBRANCH   7   9
ENDBRANCH   6   7
BRANCH   6  22
HETATM   22  C   UNL     1     -13.145  15.467  72.081  1.00  0.00    -0.406 C  
HETATM   23  H   UNL     1     -13.123  17.210  74.164  1.00  0.00     0.000 H  
HETATM   24  S   UNL     1     -12.537  16.036  73.707  1.00  0.00    -0.641 SA 
ENDBRANCH   6  22
ENDBRANCH   4   6
ENDBRANCH   3   4
ENDBRANCH   2   3
TORSDOF 13
ENDMDL
MODEL       44
REMARK 921   NORMALIZED FREE ENERGY PREDICTED BY IDOCK:   -4.37 KCAL/MOL
REMARK 922        TOTAL FREE ENERGY PREDICTED BY IDOCK:   -8.28 KCAL/MOL
REMARK 923 INTER-LIGAND FREE ENERGY PREDICTED BY IDOCK:   -7.18 KCAL/MOL
REMARK 924 INTRA-LIGAND FREE ENERGY PREDICTED BY IDOCK:   -1.10 KCAL/MOL
REMARK 927      BINDING AFFINITY PREDICTED BY RF-SCORE:    0.00 PKD
ROOT
HETATM    1  C   UNL     1     -10.906  15.609  65.037  1.00  0.00    -0.468 C  
HETATM    2  C   UNL     1     -12.135  14.895  64.517  1.00  0.00    -0.407 C  
ENDROOT
BRANCH   2   3
HETATM    3  O   UNL     1     -11.759  13.687  63.838  1.00  0.00    -0.389 OA 
BRANCH   3   4
HETATM    4  C   UNL     1     -12.248  12.530  64.369  1.00  0.00    -0.449 C  
HETATM    5  O   UNL     1     -13.357  12.063  64.143  1.00  0.00    -0.725 OA 
BRANCH   4   6
HETATM    6  C   UNL     1     -11.185  11.898  65.287  1.00  0.00    -0.295 C  
BRANCH   6   7
HETATM    7  N   UNL     1     -11.789  11.576  66.609  1.00  0.00    -0.395 NA 
HETATM    8  H   UNL     1     -11.369  10.730  66.996  1.00  0.00     0.000 HD 
BRANCH   7   9
HETATM    9  C   UNL     1     -11.730  12.669  67.585  1.00  0.00    -0.361 C  
BRANCH   9  10
HETATM   10  C   UNL     1     -12.026  12.215  69.032  1.00  0.00    -0.247 C  
BRANCH  10  11
HETATM   11  N   UNL     1     -12.202  10.763  69.202  1.00  0.00    -0.716 NA 
HETATM   12  H   UNL     1     -12.412  10.322  68.307  1.00  0.00     0.000 HD 
BRANCH  11  13
HETATM   13  C   UNL     1     -11.052  10.080  69.864  1.00  0.00    -0.288 C  
BRANCH  13  14
HETATM   14  C   UNL     1     -11.359   9.638  71.312  1.00  0.00    -0.388 C  
HETATM   15  H   UNL     1     -13.411   8.938  72.937  1.00  0.00     0.000 H  
HETATM   16  S   UNL     1     -13.134   9.336  71.634  1.00  0.00    -0.403 SA 
ENDBRANCH  13  14
BRANCH  13  17
HETATM   17  C   UNL     1     -10.615   8.863  69.019  1.00  0.00    -0.183 C  
HETATM   18  O   UNL     1     -10.636   8.804  67.795  1.00  0.00    -0.239 OA 
BRANCH  17  19
HETATM   19  O   UNL     1     -10.187   7.855  69.835  1.00  0.00    -0.201 OA 
BRANCH  19  20
HETATM   20  C   UNL     1     -10.670   6.543  69.517  1.00  0.00    -0.270 C  
HETATM   21  C   UNL     1     -11.231   5.864  70.749  1.00  0.00    -0.281 C  
ENDBRANCH  19  20
ENDBRANCH  17  19
ENDBRANCH  13  17
ENDBRANCH  11  13
ENDBRANCH  10  11
ENDBRANCH   9  10
ENDBRANCH   7   9
ENDBRANCH   6   7
BRANCH   6  22
HETATM   22  C   UNL     1     -10.514  10.720  64.551  1.00  0.00    -0.281 C  
HETATM   23  H   UNL     1      -8.251   9.218  64.513  1.00  0.00     0.000 H  
HETATM   24  S   UNL     1      -8.856  10.279  65.176  1.00  0.00    -0.197 SA 
ENDBRANCH   6  22
ENDBRANCH   4   6
ENDBRANCH   3   4
ENDBRANCH   2   3
TORSDOF 13
ENDMDL
MODEL       45
REMARK 921   NORMALIZED FREE ENERGY PREDICTED BY IDOCK:   -4.36 KCAL/MOL
REMARK 922        TOTAL FREE ENERGY PREDICTED BY IDOCK:   -8.28 KCAL/MOL
REMARK 923 INTER-LIGAND FREE ENERGY PREDICTED BY IDOCK:   -7.61 KCAL/MOL
REMARK 924 INTRA-LIGAND FREE ENERGY PREDICTED BY IDOCK:   -0.67 KCAL/MOL
REMARK 927      BINDING AFFINITY PREDICTED BY RF-SCORE:    0.00 PKD
ROOT
HETATM    1  C   UNL     1     -12.246  15.342  74.285  1.00  0.00    -0.751 C  
HETATM    2  C   UNL     1     -11.935  16.115  73.021  1.00  0.00    -0.489 C  
ENDROOT
BRANCH   2   3
HETATM    3  O   UNL     1     -11.625  15.211  71.950  1.00  0.00    -0.392 OA 
BRANCH   3   4
HETATM    4  C   UNL     1     -12.645  14.942  71.086  1.00  0.00    -0.335 C  
HETATM    5  O   UNL     1     -13.517  15.736  70.754  1.00  0.00    -0.520 OA 
BRANCH   4   6
HETATM    6  C   UNL     1     -12.523  13.491  70.583  1.00  0.00    -0.333 C  
BRANCH   6   7
HETATM    7  N   UNL     1     -11.199  13.293  69.933  1.00  0.00    -0.488 NA 
HETATM    8  H   UNL     1     -10.838  12.361  70.140  1.00  0.00     0.000 HD 
BRANCH   7   9
HETATM    9  C   UNL     1     -11.191  13.535  68.487  1.00  0.00    -0.278 C  
BRANCH   9  10
HETATM   10  C   UNL     1      -9.787  13.415  67.854  1.00  0.00    -0.237 C  
BRANCH  10  11
HETATM   11  N   UNL     1      -9.536  14.326  66.725  1.00  0.00    -0.269 NA 
HETATM   12  H   UNL     1     -10.295  14.269  66.045  1.00  0.00     0.000 HD 
BRANCH  11  13
HETATM   13  C   UNL     1      -9.297  15.745  67.123  1.00  0.00    -0.213 C  
BRANCH  13  14
HETATM   14  C   UNL     1      -7.821  16.038  67.470  1.00  0.00    -0.148 C  
HETATM   15  H   UNL     1      -6.027  15.843  69.491  1.00  0.00     0.000 H  
HETATM   16  S   UNL     1      -7.355  15.579  69.178  1.00  0.00    -0.193 SA 
ENDBRANCH  13  14
BRANCH  13  17
HETATM   17  C   UNL     1      -9.775  16.688  65.997  1.00  0.00    -0.278 C  
HETATM   18  O   UNL     1     -10.568  16.390  65.111  1.00  0.00    -0.610 OA 
BRANCH  17  19
HETATM   19  O   UNL     1      -9.193  17.915  66.135  1.00  0.00    -0.466 OA 
BRANCH  19  20
HETATM   20  C   UNL     1     -10.089  19.032  66.191  1.00  0.00    -0.406 C  
HETATM   21  C   UNL     1     -10.690  19.170  67.574  1.00  0.00    -0.555 C  
ENDBRANCH  19  20
ENDBRANCH  17  19
ENDBRANCH  13  17
ENDBRANCH  11  13
ENDBRANCH  10  11
ENDBRANCH   9  10
ENDBRANCH   7   9
ENDBRANCH   6   7
BRANCH   6  22
HETATM   22  C   UNL     1     -12.856  12.525  71.739  1.00  0.00    -0.242 C  
HETATM   23  H   UNL     1     -12.914   9.887  72.386  1.00  0.00     0.000 H  
HETATM   24  S   UNL     1     -12.615  10.758  71.345  1.00  0.00    -0.402 SA 
ENDBRANCH   6  22
ENDBRANCH   4   6
ENDBRANCH   3   4
ENDBRANCH   2   3
TORSDOF 13
ENDMDL
MODEL       46
REMARK 921   NORMALIZED FREE ENERGY PREDICTED BY IDOCK:   -4.36 KCAL/MOL
REMARK 922        TOTAL FREE ENERGY PREDICTED BY IDOCK:   -8.27 KCAL/MOL
REMARK 923 INTER-LIGAND FREE ENERGY PREDICTED BY IDOCK:   -7.06 KCAL/MOL
REMARK 924 INTRA-LIGAND FREE ENERGY PREDICTED BY IDOCK:   -1.21 KCAL/MOL
REMARK 927      BINDING AFFINITY PREDICTED BY RF-SCORE:    0.00 PKD
ROOT
HETATM    1  C   UNL     1     -12.482  12.362  63.683  1.00  0.00    -0.610 C  
HETATM    2  C   UNL     1     -12.646  13.064  65.014  1.00  0.00    -0.454 C  
ENDROOT
BRANCH   2   3
HETATM    3  O   UNL     1     -11.425  12.995  65.766  1.00  0.00    -0.310 OA 
BRANCH   3   4
HETATM    4  C   UNL     1     -11.287  11.906  66.575  1.00  0.00    -0.341 C  
HETATM    5  O   UNL     1     -12.001  11.644  67.535  1.00  0.00    -0.622 OA 
BRANCH   4   6
HETATM    6  C   UNL     1     -10.101  11.052  66.088  1.00  0.00    -0.237 C  
BRANCH   6   7
HETATM    7  N   UNL     1      -8.884  11.901  65.969  1.00  0.00    -0.395 NA 
HETATM    8  H   UNL     1      -9.057  12.682  65.336  1.00  0.00     0.000 HD 
BRANCH   7   9
HETATM    9  C   UNL     1      -8.356  12.386  67.248  1.00  0.00    -0.184 C  
BRANCH   9  10
HETATM   10  C   UNL     1      -8.101  13.909  67.268  1.00  0.00    -0.145 C  
BRANCH  10  11
HETATM   11  N   UNL     1      -8.968  14.694  66.374  1.00  0.00    -0.466 NA 
HETATM   12  H   UNL     1      -9.557  14.076  65.815  1.00  0.00     0.000 HD 
BRANCH  11  13
HETATM   13  C   UNL     1      -9.800  15.719  67.070  1.00  0.00    -0.234 C  
BRANCH  13  14
HETATM   14  C   UNL     1      -9.895  15.492  68.595  1.00  0.00    -0.207 C  
HETATM   15  H   UNL     1     -11.630  14.739  70.534  1.00  0.00     0.000 H  
HETATM   16  S   UNL     1     -11.545  14.944  69.162  1.00  0.00    -0.325 SA 
ENDBRANCH  13  14
BRANCH  13  17
HETATM   17  C   UNL     1      -9.240  17.129  66.778  1.00  0.00    -0.254 C  
HETATM   18  O   UNL     1      -8.528  17.426  65.825  1.00  0.00    -0.532 OA 
BRANCH  17  19
HETATM   19  O   UNL     1      -9.662  18.008  67.733  1.00  0.00    -0.277 OA 
BRANCH  19  20
HETATM   20  C   UNL     1     -10.588  19.012  67.297  1.00  0.00    -0.470 C  
HETATM   21  C   UNL     1      -9.906  20.359  67.186  1.00  0.00    -0.601 C  
ENDBRANCH  19  20
ENDBRANCH  17  19
ENDBRANCH  13  17
ENDBRANCH  11  13
ENDBRANCH  10  11
ENDBRANCH   9  10
ENDBRANCH   7   9
ENDBRANCH   6   7
BRANCH   6  22
HETATM   22  C   UNL     1      -9.967   9.809  66.991  1.00  0.00    -0.203 C  
HETATM   23  H   UNL     1      -9.086   7.239  66.993  1.00  0.00     0.000 H  
HETATM   24  S   UNL     1      -9.207   8.359  66.180  1.00  0.00    -0.191 SA 
ENDBRANCH   6  22
ENDBRANCH   4   6
ENDBRANCH   3   4
ENDBRANCH   2   3
TORSDOF 13
ENDMDL
MODEL       47
REMARK 921   NORMALIZED FREE ENERGY PREDICTED BY IDOCK:   -4.36 KCAL/MOL
REMARK 922        TOTAL FREE ENERGY PREDICTED BY IDOCK:   -8.26 KCAL/MOL
REMARK 923 INTER-LIGAND FREE ENERGY PREDICTED BY IDOCK:   -7.17 KCAL/MOL
REMARK 924 INTRA-LIGAND FREE ENERGY PREDICTED BY IDOCK:   -1.09 KCAL/MOL
REMARK 927      BINDING AFFINITY PREDICTED BY RF-SCORE:    0.00 PKD
ROOT
HETATM    1  C   UNL     1      -9.862  11.359  63.112  1.00  0.00    -0.413 C  
HETATM    2  C   UNL     1     -10.916  11.817  64.096  1.00  0.00    -0.374 C  
ENDROOT
BRANCH   2   3
HETATM    3  O   UNL     1     -10.480  11.572  65.442  1.00  0.00    -0.263 OA 
BRANCH   3   4
HETATM    4  C   UNL     1     -11.373  11.887  66.422  1.00  0.00    -0.339 C  
HETATM    5  O   UNL     1     -12.287  12.696  66.312  1.00  0.00    -0.550 OA 
BRANCH   4   6
HETATM    6  C   UNL     1     -11.062  11.063  67.686  1.00  0.00    -0.300 C  
BRANCH   6   7
HETATM    7  N   UNL     1     -12.285  10.948  68.527  1.00  0.00    -0.809 NA 
HETATM    8  H   UNL     1     -12.561   9.970  68.620  1.00  0.00     0.000 HD 
BRANCH   7   9
HETATM    9  C   UNL     1     -12.173  11.577  69.847  1.00  0.00    -0.258 C  
BRANCH   9  10
HETATM   10  C   UNL     1     -11.571  12.998  69.799  1.00  0.00    -0.216 C  
BRANCH  10  11
HETATM   11  N   UNL     1     -12.447  14.024  69.209  1.00  0.00    -0.453 NA 
HETATM   12  H   UNL     1     -13.427  13.766  69.327  1.00  0.00     0.000 HD 
BRANCH  11  13
HETATM   13  C   UNL     1     -12.204  15.406  69.718  1.00  0.00    -0.306 C  
BRANCH  13  14
HETATM   14  C   UNL     1     -11.652  15.433  71.160  1.00  0.00    -0.377 C  
HETATM   15  H   UNL     1     -12.451  15.443  73.749  1.00  0.00     0.000 H  
HETATM   16  S   UNL     1     -12.948  15.418  72.450  1.00  0.00    -0.446 SA 
ENDBRANCH  13  14
BRANCH  13  17
HETATM   17  C   UNL     1     -11.240  16.148  68.766  1.00  0.00    -0.365 C  
HETATM   18  O   UNL     1     -10.512  17.083  69.081  1.00  0.00    -0.320 OA 
BRANCH  17  19
HETATM   19  O   UNL     1     -11.306  15.604  67.515  1.00  0.00    -0.300 OA 
BRANCH  19  20
HETATM   20  C   UNL     1     -10.515  16.249  66.509  1.00  0.00    -0.290 C  
HETATM   21  C   UNL     1      -9.397  15.341  66.042  1.00  0.00    -0.346 C  
ENDBRANCH  19  20
ENDBRANCH  17  19
ENDBRANCH  13  17
ENDBRANCH  11  13
ENDBRANCH  10  11
ENDBRANCH   9  10
ENDBRANCH   7   9
ENDBRANCH   6   7
BRANCH   6  22
HETATM   22  C   UNL     1     -10.404   9.730  67.271  1.00  0.00    -0.248 C  
HETATM   23  H   UNL     1      -9.618   7.324  68.257  1.00  0.00     0.000 H  
HETATM   24  S   UNL     1     -10.211   8.524  68.630  1.00  0.00    -0.194 SA 
ENDBRANCH   6  22
ENDBRANCH   4   6
ENDBRANCH   3   4
ENDBRANCH   2   3
TORSDOF 13
ENDMDL
MODEL       48
REMARK 921   NORMALIZED FREE ENERGY PREDICTED BY IDOCK:   -4.35 KCAL/MOL
REMARK 922        TOTAL FREE ENERGY PREDICTED BY IDOCK:   -8.25 KCAL/MOL
REMARK 923 INTER-LIGAND FREE ENERGY PREDICTED BY IDOCK:   -7.03 KCAL/MOL
REMARK 924 INTRA-LIGAND FREE ENERGY PREDICTED BY IDOCK:   -1.23 KCAL/MOL
REMARK 927      BINDING AFFINITY PREDICTED BY RF-SCORE:    0.00 PKD
ROOT
HETATM    1  C   UNL     1     -11.607  10.644  69.745  1.00  0.00    -0.385 C  
HETATM    2  C   UNL     1     -11.927  11.927  69.007  1.00  0.00    -0.262 C  
ENDROOT
BRANCH   2   3
HETATM    3  O   UNL     1     -12.012  11.680  67.595  1.00  0.00    -0.618 OA 
BRANCH   3   4
HETATM    4  C   UNL     1     -11.371  12.580  66.796  1.00  0.00    -0.334 C  
HETATM    5  O   UNL     1     -10.394  13.244  67.122  1.00  0.00    -0.246 OA 
BRANCH   4   6
HETATM    6  C   UNL     1     -12.059  12.624  65.418  1.00  0.00    -0.462 C  
BRANCH   6   7
HETATM    7  N   UNL     1     -12.737  13.936  65.236  1.00  0.00    -0.678 NA 
HETATM    8  H   UNL     1     -12.838  14.412  66.133  1.00  0.00     0.000 HD 
BRANCH   7   9
HETATM    9  C   UNL     1     -12.096  14.820  64.257  1.00  0.00    -0.394 C  
BRANCH   9  10
HETATM   10  C   UNL     1     -11.378  16.027  64.900  1.00  0.00    -0.229 C  
BRANCH  10  11
HETATM   11  N   UNL     1     -10.013  15.755  65.378  1.00  0.00    -0.402 NA 
HETATM   12  H   UNL     1      -9.411  15.484  64.600  1.00  0.00     0.000 HD 
BRANCH  11  13
HETATM   13  C   UNL     1      -9.397  16.875  66.149  1.00  0.00    -0.236 C  
BRANCH  13  14
HETATM   14  C   UNL     1     -10.439  17.776  66.848  1.00  0.00    -0.307 C  
HETATM   15  H   UNL     1     -11.296  20.342  66.972  1.00  0.00     0.000 H  
HETATM   16  S   UNL     1     -10.359  19.531  66.342  1.00  0.00    -0.530 SA 
ENDBRANCH  13  14
BRANCH  13  17
HETATM   17  C   UNL     1      -8.405  16.306  67.188  1.00  0.00    -0.191 C  
HETATM   18  O   UNL     1      -7.681  15.331  67.018  1.00  0.00    -0.208 OA 
BRANCH  17  19
HETATM   19  O   UNL     1      -8.440  17.055  68.328  1.00  0.00    -0.217 OA 
BRANCH  19  20
HETATM   20  C   UNL     1      -7.184  17.586  68.769  1.00  0.00    -0.257 C  
HETATM   21  C   UNL     1      -7.198  19.100  68.733  1.00  0.00    -0.368 C  
ENDBRANCH  19  20
ENDBRANCH  17  19
ENDBRANCH  13  17
ENDBRANCH  11  13
ENDBRANCH  10  11
ENDBRANCH   9  10
ENDBRANCH   7   9
ENDBRANCH   6   7
BRANCH   6  22
HETATM   22  C   UNL     1     -11.036  12.240  64.329  1.00  0.00    -0.348 C  
HETATM   23  H   UNL     1      -9.168  10.371  63.699  1.00  0.00     0.000 H  
HETATM   24  S   UNL     1     -10.089  10.718  64.680  1.00  0.00    -0.355 SA 
ENDBRANCH   6  22
ENDBRANCH   4   6
ENDBRANCH   3   4
ENDBRANCH   2   3
TORSDOF 13
ENDMDL
MODEL       49
REMARK 921   NORMALIZED FREE ENERGY PREDICTED BY IDOCK:   -4.35 KCAL/MOL
REMARK 922        TOTAL FREE ENERGY PREDICTED BY IDOCK:   -8.25 KCAL/MOL
REMARK 923 INTER-LIGAND FREE ENERGY PREDICTED BY IDOCK:   -6.95 KCAL/MOL
REMARK 924 INTRA-LIGAND FREE ENERGY PREDICTED BY IDOCK:   -1.31 KCAL/MOL
REMARK 927      BINDING AFFINITY PREDICTED BY RF-SCORE:    0.00 PKD
ROOT
HETATM    1  C   UNL     1     -11.873  12.605  63.455  1.00  0.00    -0.619 C  
HETATM    2  C   UNL     1     -12.078  14.036  63.904  1.00  0.00    -0.311 C  
ENDROOT
BRANCH   2   3
HETATM    3  O   UNL     1     -10.891  14.531  64.542  1.00  0.00    -0.351 OA 
BRANCH   3   4
HETATM    4  C   UNL     1     -10.924  15.840  64.923  1.00  0.00    -0.427 C  
HETATM    5  O   UNL     1     -11.457  16.746  64.294  1.00  0.00    -1.125 OA 
BRANCH   4   6
HETATM    6  C   UNL     1     -10.196  16.001  66.272  1.00  0.00    -0.316 C  
BRANCH   6   7
HETATM    7  N   UNL     1      -8.882  15.304  66.221  1.00  0.00    -0.442 NA 
HETATM    8  H   UNL     1      -8.137  15.966  65.998  1.00  0.00     0.000 HD 
BRANCH   7   9
HETATM    9  C   UNL     1      -8.549  14.547  67.432  1.00  0.00    -0.201 C  
BRANCH   9  10
HETATM   10  C   UNL     1      -8.328  13.041  67.172  1.00  0.00    -0.150 C  
BRANCH  10  11
HETATM   11  N   UNL     1      -9.218  12.450  66.158  1.00  0.00    -0.397 NA 
HETATM   12  H   UNL     1      -8.680  12.138  65.350  1.00  0.00     0.000 HD 
BRANCH  11  13
HETATM   13  C   UNL     1     -10.081  11.344  66.669  1.00  0.00    -0.212 C  
BRANCH  13  14
HETATM   14  C   UNL     1      -9.276  10.198  67.321  1.00  0.00    -0.138 C  
HETATM   15  H   UNL     1      -7.515   8.226  66.732  1.00  0.00     0.000 H  
HETATM   16  S   UNL     1      -8.238   9.258  66.145  1.00  0.00    -0.112 SA 
ENDBRANCH  13  14
BRANCH  13  17
HETATM   17  C   UNL     1     -11.109  11.909  67.673  1.00  0.00    -0.257 C  
HETATM   18  O   UNL     1     -11.870  12.846  67.459  1.00  0.00    -0.360 OA 
BRANCH  17  19
HETATM   19  O   UNL     1     -11.059  11.205  68.842  1.00  0.00    -0.199 OA 
BRANCH  19  20
HETATM   20  C   UNL     1     -12.098  11.484  69.789  1.00  0.00    -0.306 C  
HETATM   21  C   UNL     1     -12.265  10.333  70.758  1.00  0.00    -0.447 C  
ENDBRANCH  19  20
ENDBRANCH  17  19
ENDBRANCH  13  17
ENDBRANCH  11  13
ENDBRANCH  10  11
ENDBRANCH   9  10
ENDBRANCH   7   9
ENDBRANCH   6   7
BRANCH   6  22
HETATM   22  C   UNL     1     -10.150  17.496  66.648  1.00  0.00    -0.328 C  
HETATM   23  H   UNL     1      -8.448  19.600  66.886  1.00  0.00     0.000 H  
HETATM   24  S   UNL     1      -8.490  18.253  66.547  1.00  0.00    -0.248 SA 
ENDBRANCH   6  22
ENDBRANCH   4   6
ENDBRANCH   3   4
ENDBRANCH   2   3
TORSDOF 13
ENDMDL
MODEL       50
REMARK 921   NORMALIZED FREE ENERGY PREDICTED BY IDOCK:   -4.35 KCAL/MOL
REMARK 922        TOTAL FREE ENERGY PREDICTED BY IDOCK:   -8.24 KCAL/MOL
REMARK 923 INTER-LIGAND FREE ENERGY PREDICTED BY IDOCK:   -7.38 KCAL/MOL
REMARK 924 INTRA-LIGAND FREE ENERGY PREDICTED BY IDOCK:   -0.87 KCAL/MOL
REMARK 927      BINDING AFFINITY PREDICTED BY RF-SCORE:    0.00 PKD
ROOT
HETATM    1  C   UNL     1     -12.124  12.523  63.362  1.00  0.00    -0.621 C  
HETATM    2  C   UNL     1     -12.602  12.903  64.747  1.00  0.00    -0.425 C  
ENDROOT
BRANCH   2   3
HETATM    3  O   UNL     1     -12.807  14.322  64.830  1.00  0.00    -0.680 OA 
BRANCH   3   4
HETATM    4  C   UNL     1     -11.676  15.084  64.862  1.00  0.00    -0.336 C  
HETATM    5  O   UNL     1     -11.432  16.016  64.106  1.00  0.00    -0.495 OA 
BRANCH   4   6
HETATM    6  C   UNL     1     -10.760  14.597  66.001  1.00  0.00    -0.312 C  
BRANCH   6   7
HETATM    7  N   UNL     1      -9.352  14.983  65.715  1.00  0.00    -0.483 NA 
HETATM    8  H   UNL     1      -9.323  15.737  65.027  1.00  0.00     0.000 HD 
BRANCH   7   9
HETATM    9  C   UNL     1      -8.569  15.342  66.901  1.00  0.00    -0.257 C  
BRANCH   9  10
HETATM   10  C   UNL     1      -7.435  16.348  66.605  1.00  0.00    -0.232 C  
BRANCH  10  11
HETATM   11  N   UNL     1      -7.568  17.649  67.281  1.00  0.00    -0.195 NA 
HETATM   12  H   UNL     1      -6.650  18.017  67.531  1.00  0.00     0.000 HD 
BRANCH  11  13
HETATM   13  C   UNL     1      -8.345  18.664  66.510  1.00  0.00    -0.291 C  
BRANCH  13  14
HETATM   14  C   UNL     1      -9.424  19.375  67.357  1.00  0.00    -0.316 C  
HETATM   15  H   UNL     1     -11.086  18.980  69.459  1.00  0.00     0.000 H  
HETATM   16  S   UNL     1     -10.115  18.341  68.697  1.00  0.00    -0.354 SA 
ENDBRANCH  13  14
BRANCH  13  17
HETATM   17  C   UNL     1      -7.379  19.704  65.901  1.00  0.00    -0.308 C  
HETATM   18  O   UNL     1      -6.723  19.548  64.876  1.00  0.00    -0.402 OA 
BRANCH  17  19
HETATM   19  O   UNL     1      -7.365  20.836  66.664  1.00  0.00    -0.232 OA 
BRANCH  19  20
HETATM   20  C   UNL     1      -6.076  21.275  67.112  1.00  0.00    -0.343 C  
HETATM   21  C   UNL     1      -5.793  20.771  68.511  1.00  0.00    -0.388 C  
ENDBRANCH  19  20
ENDBRANCH  17  19
ENDBRANCH  13  17
ENDBRANCH  11  13
ENDBRANCH  10  11
ENDBRANCH   9  10
ENDBRANCH   7   9
ENDBRANCH   6   7
BRANCH   6  22
HETATM   22  C   UNL     1     -11.329  15.081  67.350  1.00  0.00    -0.332 C  
HETATM   23  H   UNL     1     -12.331  14.177  69.708  1.00  0.00     0.000 H  
HETATM   24  S   UNL     1     -11.819  13.742  68.492  1.00  0.00    -0.373 SA 
ENDBRANCH   6  22
ENDBRANCH   4   6
ENDBRANCH   3   4
ENDBRANCH   2   3
TORSDOF 13
ENDMDL
MODEL       51
REMARK 921   NORMALIZED FREE ENERGY PREDICTED BY IDOCK:   -4.34 KCAL/MOL
REMARK 922        TOTAL FREE ENERGY PREDICTED BY IDOCK:   -8.24 KCAL/MOL
REMARK 923 INTER-LIGAND FREE ENERGY PREDICTED BY IDOCK:   -7.34 KCAL/MOL
REMARK 924 INTRA-LIGAND FREE ENERGY PREDICTED BY IDOCK:   -0.90 KCAL/MOL
REMARK 927      BINDING AFFINITY PREDICTED BY RF-SCORE:    0.00 PKD
ROOT
HETATM    1  C   UNL     1      -7.050  20.393  66.144  1.00  0.00    -0.273 C  
HETATM    2  C   UNL     1      -8.448  19.822  66.249  1.00  0.00    -0.361 C  
ENDROOT
BRANCH   2   3
HETATM    3  O   UNL     1      -8.689  19.339  67.580  1.00  0.00    -0.286 OA 
BRANCH   3   4
HETATM    4  C   UNL     1      -9.856  18.658  67.762  1.00  0.00    -0.325 C  
HETATM    5  O   UNL     1     -10.945  18.988  67.309  1.00  0.00    -0.459 OA 
BRANCH   4   6
HETATM    6  C   UNL     1      -9.590  17.403  68.616  1.00  0.00    -0.295 C  
BRANCH   6   7
HETATM    7  N   UNL     1     -10.882  16.777  69.008  1.00  0.00    -0.314 NA 
HETATM    8  H   UNL     1     -11.509  16.723  68.204  1.00  0.00     0.000 HD 
BRANCH   7   9
HETATM    9  C   UNL     1     -10.751  15.463  69.644  1.00  0.00    -0.276 C  
BRANCH   9  10
HETATM   10  C   UNL     1     -11.922  14.508  69.324  1.00  0.00    -0.319 C  
BRANCH  10  11
HETATM   11  N   UNL     1     -12.370  14.524  67.922  1.00  0.00    -0.599 NA 
HETATM   12  H   UNL     1     -12.345  15.474  67.550  1.00  0.00     0.000 HD 
BRANCH  11  13
HETATM   13  C   UNL     1     -11.621  13.593  67.028  1.00  0.00    -0.359 C  
BRANCH  13  14
HETATM   14  C   UNL     1     -11.632  12.131  67.526  1.00  0.00    -0.343 C  
HETATM   15  H   UNL     1     -10.014  10.215  68.548  1.00  0.00     0.000 H  
HETATM   16  S   UNL     1     -10.003  11.531  68.100  1.00  0.00    -0.198 SA 
ENDBRANCH  13  14
BRANCH  13  17
HETATM   17  C   UNL     1     -12.197  13.671  65.597  1.00  0.00    -0.454 C  
HETATM   18  O   UNL     1     -13.367  13.905  65.315  1.00  0.00    -0.732 OA 
BRANCH  17  19
HETATM   19  O   UNL     1     -11.209  13.452  64.681  1.00  0.00    -0.330 OA 
BRANCH  19  20
HETATM   20  C   UNL     1     -11.481  12.450  63.692  1.00  0.00    -0.489 C  
HETATM   21  C   UNL     1     -10.712  11.180  63.988  1.00  0.00    -0.409 C  
ENDBRANCH  19  20
ENDBRANCH  17  19
ENDBRANCH  13  17
ENDBRANCH  11  13
ENDBRANCH  10  11
ENDBRANCH   9  10
ENDBRANCH   7   9
ENDBRANCH   6   7
BRANCH   6  22
HETATM   22  C   UNL     1      -8.597  16.486  67.873  1.00  0.00    -0.183 C  
HETATM   23  H   UNL     1      -8.204  15.217  65.504  1.00  0.00     0.000 H  
HETATM   24  S   UNL     1      -9.098  16.043  66.174  1.00  0.00    -0.338 SA 
ENDBRANCH   6  22
ENDBRANCH   4   6
ENDBRANCH   3   4
ENDBRANCH   2   3
TORSDOF 13
ENDMDL
MODEL       52
REMARK 921   NORMALIZED FREE ENERGY PREDICTED BY IDOCK:   -4.33 KCAL/MOL
REMARK 922        TOTAL FREE ENERGY PREDICTED BY IDOCK:   -8.22 KCAL/MOL
REMARK 923 INTER-LIGAND FREE ENERGY PREDICTED BY IDOCK:   -7.43 KCAL/MOL
REMARK 924 INTRA-LIGAND FREE ENERGY PREDICTED BY IDOCK:   -0.79 KCAL/MOL
REMARK 927      BINDING AFFINITY PREDICTED BY RF-SCORE:    0.00 PKD
ROOT
HETATM    1  C   UNL     1     -13.223  10.751  71.792  1.00  0.00    -0.523 C  
HETATM    2  C   UNL     1     -13.312   9.252  71.984  1.00  0.00    -0.450 C  
ENDROOT
BRANCH   2   3
HETATM    3  O   UNL     1     -11.997   8.677  72.020  1.00  0.00    -0.323 OA 
BRANCH   3   4
HETATM    4  C   UNL     1     -11.686   7.843  70.987  1.00  0.00    -0.277 C  
HETATM    5  O   UNL     1     -12.222   6.764  70.764  1.00  0.00    -0.390 OA 
BRANCH   4   6
HETATM    6  C   UNL     1     -10.563   8.472  70.140  1.00  0.00    -0.232 C  
BRANCH   6   7
HETATM    7  N   UNL     1     -11.153   9.196  68.981  1.00  0.00    -0.443 NA 
HETATM    8  H   UNL     1     -12.172   9.174  69.030  1.00  0.00     0.000 HD 
BRANCH   7   9
HETATM    9  C   UNL     1     -10.678  10.574  68.821  1.00  0.00    -0.216 C  
BRANCH   9  10
HETATM   10  C   UNL     1     -11.820  11.599  68.644  1.00  0.00    -0.308 C  
BRANCH  10  11
HETATM   11  N   UNL     1     -11.869  12.251  67.325  1.00  0.00    -0.555 NA 
HETATM   12  H   UNL     1     -12.588  11.822  66.742  1.00  0.00     0.000 HD 
BRANCH  11  13
HETATM   13  C   UNL     1     -12.055  13.731  67.379  1.00  0.00    -0.343 C  
BRANCH  13  14
HETATM   14  C   UNL     1     -11.050  14.436  68.316  1.00  0.00    -0.259 C  
HETATM   15  H   UNL     1     -10.928  16.173  70.391  1.00  0.00     0.000 H  
HETATM   16  S   UNL     1     -11.832  15.538  69.548  1.00  0.00    -0.362 SA 
ENDBRANCH  13  14
BRANCH  13  17
HETATM   17  C   UNL     1     -11.955  14.319  65.954  1.00  0.00    -0.391 C  
HETATM   18  O   UNL     1     -11.235  15.254  65.621  1.00  0.00    -0.323 OA 
BRANCH  17  19
HETATM   19  O   UNL     1     -12.780  13.637  65.106  1.00  0.00    -0.611 OA 
BRANCH  19  20
HETATM   20  C   UNL     1     -12.241  13.335  63.813  1.00  0.00    -0.439 C  
HETATM   21  C   UNL     1     -12.526  11.897  63.434  1.00  0.00    -0.582 C  
ENDBRANCH  19  20
ENDBRANCH  17  19
ENDBRANCH  13  17
ENDBRANCH  11  13
ENDBRANCH  10  11
ENDBRANCH   9  10
ENDBRANCH   7   9
ENDBRANCH   6   7
BRANCH   6  22
HETATM   22  C   UNL     1      -9.644   9.306  71.056  1.00  0.00    -0.259 C  
HETATM   23  H   UNL     1      -7.043   9.628  71.772  1.00  0.00     0.000 H  
HETATM   24  S   UNL     1      -7.872   8.877  70.947  1.00  0.00    -0.142 SA 
ENDBRANCH   6  22
ENDBRANCH   4   6
ENDBRANCH   3   4
ENDBRANCH   2   3
TORSDOF 13
ENDMDL
MODEL       53
REMARK 921   NORMALIZED FREE ENERGY PREDICTED BY IDOCK:   -4.33 KCAL/MOL
REMARK 922        TOTAL FREE ENERGY PREDICTED BY IDOCK:   -8.22 KCAL/MOL
REMARK 923 INTER-LIGAND FREE ENERGY PREDICTED BY IDOCK:   -7.56 KCAL/MOL
REMARK 924 INTRA-LIGAND FREE ENERGY PREDICTED BY IDOCK:   -0.66 KCAL/MOL
REMARK 927      BINDING AFFINITY PREDICTED BY RF-SCORE:    0.00 PKD
ROOT
HETATM    1  C   UNL     1     -12.505   7.110  71.383  1.00  0.00    -0.427 C  
HETATM    2  C   UNL     1     -11.587   7.769  72.390  1.00  0.00    -0.356 C  
ENDROOT
BRANCH   2   3
HETATM    3  O   UNL     1     -11.286   9.113  71.983  1.00  0.00    -0.364 OA 
BRANCH   3   4
HETATM    4  C   UNL     1     -10.052   9.304  71.433  1.00  0.00    -0.278 C  
HETATM    5  O   UNL     1      -8.987   9.064  71.987  1.00  0.00    -0.374 OA 
BRANCH   4   6
HETATM    6  C   UNL     1     -10.208   9.858  70.004  1.00  0.00    -0.271 C  
BRANCH   6   7
HETATM    7  N   UNL     1     -11.004  11.116  70.036  1.00  0.00    -0.471 NA 
HETATM    8  H   UNL     1     -10.391  11.921  70.172  1.00  0.00     0.000 HD 
BRANCH   7   9
HETATM    9  C   UNL     1     -11.863  11.319  68.865  1.00  0.00    -0.345 C  
BRANCH   9  10
HETATM   10  C   UNL     1     -11.908  12.787  68.387  1.00  0.00    -0.310 C  
BRANCH  10  11
HETATM   11  N   UNL     1     -11.586  12.986  66.964  1.00  0.00    -0.340 NA 
HETATM   12  H   UNL     1     -11.959  12.219  66.404  1.00  0.00     0.000 HD 
BRANCH  11  13
HETATM   13  C   UNL     1     -12.030  14.300  66.412  1.00  0.00    -0.419 C  
BRANCH  13  14
HETATM   14  C   UNL     1     -10.944  15.395  66.501  1.00  0.00    -0.271 C  
HETATM   15  H   UNL     1      -8.257  15.737  66.490  1.00  0.00     0.000 H  
HETATM   16  S   UNL     1      -9.234  14.752  66.409  1.00  0.00    -0.236 SA 
ENDBRANCH  13  14
BRANCH  13  17
HETATM   17  C   UNL     1     -12.484  14.121  64.946  1.00  0.00    -0.401 C  
HETATM   18  O   UNL     1     -12.631  15.026  64.133  1.00  0.00    -0.770 OA 
BRANCH  17  19
HETATM   19  O   UNL     1     -12.691  12.798  64.679  1.00  0.00    -0.649 OA 
BRANCH  19  20
HETATM   20  C   UNL     1     -12.334  12.361  63.360  1.00  0.00    -0.499 C  
HETATM   21  C   UNL     1     -10.945  11.759  63.352  1.00  0.00    -0.458 C  
ENDBRANCH  19  20
ENDBRANCH  17  19
ENDBRANCH  13  17
ENDBRANCH  11  13
ENDBRANCH  10  11
ENDBRANCH   9  10
ENDBRANCH   7   9
ENDBRANCH   6   7
BRANCH   6  22
HETATM   22  C   UNL     1      -8.817   9.959  69.346  1.00  0.00    -0.187 C  
HETATM   23  H   UNL     1      -7.166   8.685  67.605  1.00  0.00     0.000 H  
HETATM   24  S   UNL     1      -8.419   8.594  68.199  1.00  0.00    -0.131 SA 
ENDBRANCH   6  22
ENDBRANCH   4   6
ENDBRANCH   3   4
ENDBRANCH   2   3
TORSDOF 13
ENDMDL
MODEL       54
REMARK 921   NORMALIZED FREE ENERGY PREDICTED BY IDOCK:   -4.32 KCAL/MOL
REMARK 922        TOTAL FREE ENERGY PREDICTED BY IDOCK:   -8.21 KCAL/MOL
REMARK 923 INTER-LIGAND FREE ENERGY PREDICTED BY IDOCK:   -7.30 KCAL/MOL
REMARK 924 INTRA-LIGAND FREE ENERGY PREDICTED BY IDOCK:   -0.91 KCAL/MOL
REMARK 927      BINDING AFFINITY PREDICTED BY RF-SCORE:    0.00 PKD
ROOT
HETATM    1  C   UNL     1     -12.047  12.086  63.590  1.00  0.00    -0.627 C  
HETATM    2  C   UNL     1     -11.002  12.440  64.627  1.00  0.00    -0.305 C  
ENDROOT
BRANCH   2   3
HETATM    3  O   UNL     1     -11.529  12.247  65.949  1.00  0.00    -0.344 OA 
BRANCH   3   4
HETATM    4  C   UNL     1     -11.971  13.371  66.581  1.00  0.00    -0.399 C  
HETATM    5  O   UNL     1     -12.709  14.215  66.088  1.00  0.00    -0.442 OA 
BRANCH   4   6
HETATM    6  C   UNL     1     -11.406  13.410  68.014  1.00  0.00    -0.286 C  
BRANCH   6   7
HETATM    7  N   UNL     1     -12.409  14.012  68.935  1.00  0.00    -0.508 NA 
HETATM    8  H   UNL     1     -13.064  13.300  69.261  1.00  0.00     0.000 HD 
BRANCH   7   9
HETATM    9  C   UNL     1     -11.831  14.735  70.072  1.00  0.00    -0.311 C  
BRANCH   9  10
HETATM   10  C   UNL     1     -10.567  15.543  69.705  1.00  0.00    -0.295 C  
BRANCH  10  11
HETATM   11  N   UNL     1     -10.813  16.947  69.339  1.00  0.00    -0.351 NA 
HETATM   12  H   UNL     1     -10.683  17.554  70.148  1.00  0.00     0.000 HD 
BRANCH  11  13
HETATM   13  C   UNL     1      -9.998  17.432  68.186  1.00  0.00    -0.308 C  
BRANCH  13  14
HETATM   14  C   UNL     1     -10.378  16.760  66.848  1.00  0.00    -0.294 C  
HETATM   15  H   UNL     1      -9.378  15.152  64.911  1.00  0.00     0.000 H  
HETATM   16  S   UNL     1      -9.036  15.757  66.116  1.00  0.00    -0.323 SA 
ENDBRANCH  13  14
BRANCH  13  17
HETATM   17  C   UNL     1     -10.131  18.967  68.066  1.00  0.00    -0.377 C  
HETATM   18  O   UNL     1     -11.010  19.557  67.448  1.00  0.00    -0.477 OA 
BRANCH  17  19
HETATM   19  O   UNL     1      -9.127  19.579  68.760  1.00  0.00    -0.368 OA 
BRANCH  19  20
HETATM   20  C   UNL     1      -7.793  19.277  68.333  1.00  0.00    -0.341 C  
HETATM   21  C   UNL     1      -6.794  19.599  69.424  1.00  0.00    -0.377 C  
ENDBRANCH  19  20
ENDBRANCH  17  19
ENDBRANCH  13  17
ENDBRANCH  11  13
ENDBRANCH  10  11
ENDBRANCH   9  10
ENDBRANCH   7   9
ENDBRANCH   6   7
BRANCH   6  22
HETATM   22  C   UNL     1     -10.901  12.004  68.397  1.00  0.00    -0.233 C  
HETATM   23  H   UNL     1     -11.558   9.808  69.856  1.00  0.00     0.000 H  
HETATM   24  S   UNL     1     -12.012  11.075  69.510  1.00  0.00    -0.331 SA 
ENDBRANCH   6  22
ENDBRANCH   4   6
ENDBRANCH   3   4
ENDBRANCH   2   3
TORSDOF 13
ENDMDL
MODEL       55
REMARK 921   NORMALIZED FREE ENERGY PREDICTED BY IDOCK:   -4.32 KCAL/MOL
REMARK 922        TOTAL FREE ENERGY PREDICTED BY IDOCK:   -8.20 KCAL/MOL
REMARK 923 INTER-LIGAND FREE ENERGY PREDICTED BY IDOCK:   -7.31 KCAL/MOL
REMARK 924 INTRA-LIGAND FREE ENERGY PREDICTED BY IDOCK:   -0.90 KCAL/MOL
REMARK 927      BINDING AFFINITY PREDICTED BY RF-SCORE:    0.00 PKD
ROOT
HETATM    1  C   UNL     1     -11.301  12.256  63.403  1.00  0.00    -0.508 C  
HETATM    2  C   UNL     1     -12.373  12.500  64.443  1.00  0.00    -0.455 C  
ENDROOT
BRANCH   2   3
HETATM    3  O   UNL     1     -11.922  13.467  65.405  1.00  0.00    -0.347 OA 
BRANCH   3   4
HETATM    4  C   UNL     1     -11.541  12.967  66.615  1.00  0.00    -0.372 C  
HETATM    5  O   UNL     1     -12.264  12.338  67.379  1.00  0.00    -0.478 OA 
BRANCH   4   6
HETATM    6  C   UNL     1     -10.060  13.306  66.868  1.00  0.00    -0.250 C  
BRANCH   6   7
HETATM    7  N   UNL     1      -9.936  14.141  68.093  1.00  0.00    -0.226 NA 
HETATM    8  H   UNL     1      -8.956  14.356  68.280  1.00  0.00     0.000 HD 
BRANCH   7   9
HETATM    9  C   UNL     1     -10.735  15.371  68.072  1.00  0.00    -0.279 C  
BRANCH   9  10
HETATM   10  C   UNL     1     -11.778  15.444  69.209  1.00  0.00    -0.349 C  
BRANCH  10  11
HETATM   11  N   UNL     1     -12.113  14.150  69.828  1.00  0.00    -0.336 NA 
HETATM   12  H   UNL     1     -11.417  13.446  69.580  1.00  0.00     0.000 HD 
BRANCH  11  13
HETATM   13  C   UNL     1     -12.294  14.207  71.308  1.00  0.00    -0.369 C  
BRANCH  13  14
HETATM   14  C   UNL     1     -12.903  15.540  71.795  1.00  0.00    -0.438 C  
HETATM   15  H   UNL     1     -13.065  17.138  73.977  1.00  0.00     0.000 H  
HETATM   16  S   UNL     1     -12.518  15.938  73.538  1.00  0.00    -0.631 SA 
ENDBRANCH  13  14
BRANCH  13  17
HETATM   17  C   UNL     1     -13.174  13.023  71.769  1.00  0.00    -0.392 C  
HETATM   18  O   UNL     1     -14.004  13.064  72.669  1.00  0.00    -0.657 OA 
BRANCH  17  19
HETATM   19  O   UNL     1     -12.901  11.916  71.016  1.00  0.00    -0.300 OA 
BRANCH  19  20
HETATM   20  C   UNL     1     -12.737  10.690  71.741  1.00  0.00    -0.383 C  
HETATM   21  C   UNL     1     -13.415   9.545  71.018  1.00  0.00    -0.196 C  
ENDBRANCH  19  20
ENDBRANCH  17  19
ENDBRANCH  13  17
ENDBRANCH  11  13
ENDBRANCH  10  11
ENDBRANCH   9  10
ENDBRANCH   7   9
ENDBRANCH   6   7
BRANCH   6  22
HETATM   22  C   UNL     1      -9.233  12.004  66.855  1.00  0.00    -0.197 C  
HETATM   23  H   UNL     1      -8.177  10.113  68.496  1.00  0.00     0.000 H  
HETATM   24  S   UNL     1      -8.922  11.286  68.506  1.00  0.00    -0.147 SA 
ENDBRANCH   6  22
ENDBRANCH   4   6
ENDBRANCH   3   4
ENDBRANCH   2   3
TORSDOF 13
ENDMDL
MODEL       56
REMARK 921   NORMALIZED FREE ENERGY PREDICTED BY IDOCK:   -4.32 KCAL/MOL
REMARK 922        TOTAL FREE ENERGY PREDICTED BY IDOCK:   -8.20 KCAL/MOL
REMARK 923 INTER-LIGAND FREE ENERGY PREDICTED BY IDOCK:   -7.40 KCAL/MOL
REMARK 924 INTRA-LIGAND FREE ENERGY PREDICTED BY IDOCK:   -0.80 KCAL/MOL
REMARK 927      BINDING AFFINITY PREDICTED BY RF-SCORE:    0.00 PKD
ROOT
HETATM    1  C   UNL     1     -12.314  12.107  63.643  1.00  0.00    -0.673 C  
HETATM    2  C   UNL     1     -12.430  13.048  64.823  1.00  0.00    -0.427 C  
ENDROOT
BRANCH   2   3
HETATM    3  O   UNL     1     -12.474  12.304  66.050  1.00  0.00    -0.503 OA 
BRANCH   3   4
HETATM    4  C   UNL     1     -11.600  12.703  67.018  1.00  0.00    -0.365 C  
HETATM    5  O   UNL     1     -11.279  13.863  67.244  1.00  0.00    -0.295 OA 
BRANCH   4   6
HETATM    6  C   UNL     1     -11.090  11.470  67.788  1.00  0.00    -0.260 C  
BRANCH   6   7
HETATM    7  N   UNL     1     -12.159  10.962  68.690  1.00  0.00    -0.796 NA 
HETATM    8  H   UNL     1     -12.132   9.942  68.733  1.00  0.00     0.000 HD 
BRANCH   7   9
HETATM    9  C   UNL     1     -12.135  11.532  70.040  1.00  0.00    -0.331 C  
BRANCH   9  10
HETATM   10  C   UNL     1     -12.392  10.488  71.150  1.00  0.00    -0.405 C  
BRANCH  10  11
HETATM   11  N   UNL     1     -11.277   9.560  71.400  1.00  0.00    -0.375 NA 
HETATM   12  H   UNL     1     -10.449  10.073  71.705  1.00  0.00     0.000 HD 
BRANCH  11  13
HETATM   13  C   UNL     1     -11.595   8.463  72.360  1.00  0.00    -0.380 C  
BRANCH  13  14
HETATM   14  C   UNL     1     -12.298   7.259  71.695  1.00  0.00    -0.352 C  
HETATM   15  H   UNL     1     -11.987   5.436  69.716  1.00  0.00     0.000 H  
HETATM   16  S   UNL     1     -11.354   6.519  70.314  1.00  0.00    -0.415 SA 
ENDBRANCH  13  14
BRANCH  13  17
HETATM   17  C   UNL     1     -10.301   7.999  73.065  1.00  0.00    -0.280 C  
HETATM   18  O   UNL     1      -9.162   8.311  72.735  1.00  0.00    -0.240 OA 
BRANCH  17  19
HETATM   19  O   UNL     1     -10.607   7.193  74.124  1.00  0.00    -0.283 OA 
BRANCH  19  20
HETATM   20  C   UNL     1      -9.795   6.021  74.275  1.00  0.00    -0.242 C  
HETATM   21  C   UNL     1     -10.558   4.782  73.856  1.00  0.00    -0.342 C  
ENDBRANCH  19  20
ENDBRANCH  17  19
ENDBRANCH  13  17
ENDBRANCH  11  13
ENDBRANCH  10  11
ENDBRANCH   9  10
ENDBRANCH   7   9
ENDBRANCH   6   7
BRANCH   6  22
HETATM   22  C   UNL     1     -10.514  10.450  66.786  1.00  0.00    -0.225 C  
HETATM   23  H   UNL     1      -8.646  10.175  64.832  1.00  0.00     0.000 H  
HETATM   24  S   UNL     1      -9.165  11.095  65.735  1.00  0.00    -0.215 SA 
ENDBRANCH   6  22
ENDBRANCH   4   6
ENDBRANCH   3   4
ENDBRANCH   2   3
TORSDOF 13
ENDMDL
MODEL       57
REMARK 921   NORMALIZED FREE ENERGY PREDICTED BY IDOCK:   -4.32 KCAL/MOL
REMARK 922        TOTAL FREE ENERGY PREDICTED BY IDOCK:   -8.20 KCAL/MOL
REMARK 923 INTER-LIGAND FREE ENERGY PREDICTED BY IDOCK:   -7.01 KCAL/MOL
REMARK 924 INTRA-LIGAND FREE ENERGY PREDICTED BY IDOCK:   -1.19 KCAL/MOL
REMARK 927      BINDING AFFINITY PREDICTED BY RF-SCORE:    0.00 PKD
ROOT
HETATM    1  C   UNL     1     -12.531  11.875  63.107  1.00  0.00    -0.363 C  
HETATM    2  C   UNL     1     -11.535  12.530  64.040  1.00  0.00    -0.409 C  
ENDROOT
BRANCH   2   3
HETATM    3  O   UNL     1     -11.981  12.422  65.400  1.00  0.00    -0.408 OA 
BRANCH   3   4
HETATM    4  C   UNL     1     -12.437  13.575  65.969  1.00  0.00    -0.399 C  
HETATM    5  O   UNL     1     -13.357  14.259  65.538  1.00  0.00    -0.608 OA 
BRANCH   4   6
HETATM    6  C   UNL     1     -11.622  13.877  67.240  1.00  0.00    -0.365 C  
BRANCH   6   7
HETATM    7  N   UNL     1     -12.409  14.758  68.146  1.00  0.00    -0.572 NA 
HETATM    8  H   UNL     1     -13.407  14.572  68.043  1.00  0.00     0.000 HD 
BRANCH   7   9
HETATM    9  C   UNL     1     -12.016  14.684  69.557  1.00  0.00    -0.319 C  
BRANCH   9  10
HETATM   10  C   UNL     1     -11.060  15.818  69.987  1.00  0.00    -0.344 C  
BRANCH  10  11
HETATM   11  N   UNL     1      -9.662  15.646  69.559  1.00  0.00    -0.278 NA 
HETATM   12  H   UNL     1      -9.559  14.791  69.012  1.00  0.00     0.000 HD 
BRANCH  11  13
HETATM   13  C   UNL     1      -9.099  16.812  68.817  1.00  0.00    -0.259 C  
BRANCH  13  14
HETATM   14  C   UNL     1      -7.584  17.006  69.048  1.00  0.00    -0.194 C  
HETATM   15  H   UNL     1      -5.651  18.904  69.031  1.00  0.00     0.000 H  
HETATM   16  S   UNL     1      -7.015  18.729  68.824  1.00  0.00    -0.311 SA 
ENDBRANCH  13  14
BRANCH  13  17
HETATM   17  C   UNL     1      -9.390  16.656  67.308  1.00  0.00    -0.230 C  
HETATM   18  O   UNL     1      -8.675  16.067  66.504  1.00  0.00    -0.242 OA 
BRANCH  17  19
HETATM   19  O   UNL     1     -10.572  17.262  66.993  1.00  0.00    -0.310 OA 
BRANCH  19  20
HETATM   20  C   UNL     1     -10.660  18.661  67.294  1.00  0.00    -0.430 C  
HETATM   21  C   UNL     1     -10.779  19.476  66.023  1.00  0.00    -0.529 C  
ENDBRANCH  19  20
ENDBRANCH  17  19
ENDBRANCH  13  17
ENDBRANCH  11  13
ENDBRANCH  10  11
ENDBRANCH   9  10
ENDBRANCH   7   9
ENDBRANCH   6   7
BRANCH   6  22
HETATM   22  C   UNL     1     -11.130  12.550  67.854  1.00  0.00    -0.245 C  
HETATM   23  H   UNL     1      -8.870  11.165  68.450  1.00  0.00     0.000 H  
HETATM   24  S   UNL     1      -9.314  12.360  67.897  1.00  0.00    -0.201 SA 
ENDBRANCH   6  22
ENDBRANCH   4   6
ENDBRANCH   3   4
ENDBRANCH   2   3
TORSDOF 13
ENDMDL
MODEL       58
REMARK 921   NORMALIZED FREE ENERGY PREDICTED BY IDOCK:   -4.32 KCAL/MOL
REMARK 922        TOTAL FREE ENERGY PREDICTED BY IDOCK:   -8.20 KCAL/MOL
REMARK 923 INTER-LIGAND FREE ENERGY PREDICTED BY IDOCK:   -7.40 KCAL/MOL
REMARK 924 INTRA-LIGAND FREE ENERGY PREDICTED BY IDOCK:   -0.80 KCAL/MOL
REMARK 927      BINDING AFFINITY PREDICTED BY RF-SCORE:    0.00 PKD
ROOT
HETATM    1  C   UNL     1     -12.685  10.471  70.929  1.00  0.00    -0.495 C  
HETATM    2  C   UNL     1     -11.582  10.574  69.897  1.00  0.00    -0.307 C  
ENDROOT
BRANCH   2   3
HETATM    3  O   UNL     1     -12.122  10.979  68.630  1.00  0.00    -0.551 OA 
BRANCH   3   4
HETATM    4  C   UNL     1     -11.253  10.956  67.579  1.00  0.00    -0.293 C  
HETATM    5  O   UNL     1     -10.673   9.960  67.164  1.00  0.00    -0.253 OA 
BRANCH   4   6
HETATM    6  C   UNL     1     -11.122  12.374  66.991  1.00  0.00    -0.278 C  
BRANCH   6   7
HETATM    7  N   UNL     1      -9.684  12.716  66.817  1.00  0.00    -0.234 NA 
HETATM    8  H   UNL     1      -9.577  13.463  66.130  1.00  0.00     0.000 HD 
BRANCH   7   9
HETATM    9  C   UNL     1      -8.987  13.060  68.060  1.00  0.00    -0.199 C  
BRANCH   9  10
HETATM   10  C   UNL     1      -9.166  14.538  68.473  1.00  0.00    -0.195 C  
BRANCH  10  11
HETATM   11  N   UNL     1      -9.797  14.742  69.788  1.00  0.00    -0.433 NA 
HETATM   12  H   UNL     1      -9.099  14.692  70.530  1.00  0.00     0.000 HD 
BRANCH  11  13
HETATM   13  C   UNL     1     -10.588  16.003  69.899  1.00  0.00    -0.314 C  
BRANCH  13  14
HETATM   14  C   UNL     1     -11.194  16.460  68.554  1.00  0.00    -0.334 C  
HETATM   15  H   UNL     1     -11.040  18.438  66.709  1.00  0.00     0.000 H  
HETATM   16  S   UNL     1     -10.494  18.026  67.919  1.00  0.00    -0.376 SA 
ENDBRANCH  13  14
BRANCH  13  17
HETATM   17  C   UNL     1     -11.705  15.824  70.950  1.00  0.00    -0.406 C  
HETATM   18  O   UNL     1     -11.839  16.498  71.965  1.00  0.00    -0.478 OA 
BRANCH  17  19
HETATM   19  O   UNL     1     -12.537  14.805  70.582  1.00  0.00    -0.318 OA 
BRANCH  19  20
HETATM   20  C   UNL     1     -13.815  14.773  71.231  1.00  0.00    -0.390 C  
HETATM   21  C   UNL     1     -13.872  13.651  72.247  1.00  0.00    -0.689 C  
ENDBRANCH  19  20
ENDBRANCH  17  19
ENDBRANCH  13  17
ENDBRANCH  11  13
ENDBRANCH  10  11
ENDBRANCH   9  10
ENDBRANCH   7   9
ENDBRANCH   6   7
BRANCH   6  22
HETATM   22  C   UNL     1     -11.996  12.480  65.725  1.00  0.00    -0.420 C  
HETATM   23  H   UNL     1     -13.085  14.284  64.011  1.00  0.00     0.000 H  
HETATM   24  S   UNL     1     -12.297  14.188  65.151  1.00  0.00    -0.435 SA 
ENDBRANCH   6  22
ENDBRANCH   4   6
ENDBRANCH   3   4
ENDBRANCH   2   3
TORSDOF 13
ENDMDL
MODEL       59
REMARK 921   NORMALIZED FREE ENERGY PREDICTED BY IDOCK:   -4.32 KCAL/MOL
REMARK 922        TOTAL FREE ENERGY PREDICTED BY IDOCK:   -8.19 KCAL/MOL
REMARK 923 INTER-LIGAND FREE ENERGY PREDICTED BY IDOCK:   -7.16 KCAL/MOL
REMARK 924 INTRA-LIGAND FREE ENERGY PREDICTED BY IDOCK:   -1.03 KCAL/MOL
REMARK 927      BINDING AFFINITY PREDICTED BY RF-SCORE:    0.00 PKD
ROOT
HETATM    1  C   UNL     1      -6.800  19.583  65.644  1.00  0.00    -0.313 C  
HETATM    2  C   UNL     1      -6.865  18.108  65.979  1.00  0.00    -0.282 C  
ENDROOT
BRANCH   2   3
HETATM    3  O   UNL     1      -8.162  17.583  65.658  1.00  0.00    -0.505 OA 
BRANCH   3   4
HETATM    4  C   UNL     1      -8.671  16.676  66.541  1.00  0.00    -0.282 C  
HETATM    5  O   UNL     1      -8.025  15.802  67.107  1.00  0.00    -0.175 OA 
BRANCH   4   6
HETATM    6  C   UNL     1     -10.179  16.930  66.725  1.00  0.00    -0.306 C  
BRANCH   6   7
HETATM    7  N   UNL     1     -10.948  15.735  66.281  1.00  0.00    -0.228 NA 
HETATM    8  H   UNL     1     -11.884  15.743  66.687  1.00  0.00     0.000 HD 
BRANCH   7   9
HETATM    9  C   UNL     1     -11.024  15.569  64.826  1.00  0.00    -0.399 C  
BRANCH   9  10
HETATM   10  C   UNL     1     -11.823  14.320  64.393  1.00  0.00    -0.426 C  
BRANCH  10  11
HETATM   11  N   UNL     1     -12.486  13.596  65.490  1.00  0.00    -0.482 NA 
HETATM   12  H   UNL     1     -13.453  13.385  65.245  1.00  0.00     0.000 HD 
BRANCH  11  13
HETATM   13  C   UNL     1     -11.776  12.358  65.926  1.00  0.00    -0.419 C  
BRANCH  13  14
HETATM   14  C   UNL     1     -10.487  12.081  65.121  1.00  0.00    -0.289 C  
HETATM   15  H   UNL     1      -8.746  10.101  64.500  1.00  0.00     0.000 H  
HETATM   16  S   UNL     1      -9.906  10.350  65.225  1.00  0.00    -0.315 SA 
ENDBRANCH  13  14
BRANCH  13  17
HETATM   17  C   UNL     1     -11.450  12.449  67.433  1.00  0.00    -0.352 C  
HETATM   18  O   UNL     1     -10.708  13.277  67.950  1.00  0.00    -0.231 OA 
BRANCH  17  19
HETATM   19  O   UNL     1     -12.121  11.476  68.117  1.00  0.00    -0.604 OA 
BRANCH  19  20
HETATM   20  C   UNL     1     -11.431  10.910  69.239  1.00  0.00    -0.302 C  
HETATM   21  C   UNL     1     -12.378  10.701  70.402  1.00  0.00    -0.428 C  
ENDBRANCH  19  20
ENDBRANCH  17  19
ENDBRANCH  13  17
ENDBRANCH  11  13
ENDBRANCH  10  11
ENDBRANCH   9  10
ENDBRANCH   7   9
ENDBRANCH   6   7
BRANCH   6  22
HETATM   22  C   UNL     1     -10.442  17.399  68.170  1.00  0.00    -0.389 C  
HETATM   23  H   UNL     1     -10.091  19.512  69.841  1.00  0.00     0.000 H  
HETATM   24  S   UNL     1      -9.854  19.089  68.539  1.00  0.00    -0.429 SA 
ENDBRANCH   6  22
ENDBRANCH   4   6
ENDBRANCH   3   4
ENDBRANCH   2   3
TORSDOF 13
ENDMDL
MODEL       60
REMARK 921   NORMALIZED FREE ENERGY PREDICTED BY IDOCK:   -4.31 KCAL/MOL
REMARK 922        TOTAL FREE ENERGY PREDICTED BY IDOCK:   -8.18 KCAL/MOL
REMARK 923 INTER-LIGAND FREE ENERGY PREDICTED BY IDOCK:   -7.08 KCAL/MOL
REMARK 924 INTRA-LIGAND FREE ENERGY PREDICTED BY IDOCK:   -1.10 KCAL/MOL
REMARK 927      BINDING AFFINITY PREDICTED BY RF-SCORE:    0.00 PKD
ROOT
HETATM    1  C   UNL     1      -8.415  20.283  67.317  1.00  0.00    -0.415 C  
HETATM    2  C   UNL     1      -9.911  20.244  67.092  1.00  0.00    -0.453 C  
ENDROOT
BRANCH   2   3
HETATM    3  O   UNL     1     -10.400  18.902  67.229  1.00  0.00    -0.369 OA 
BRANCH   3   4
HETATM    4  C   UNL     1     -10.650  18.238  66.064  1.00  0.00    -0.296 C  
HETATM    5  O   UNL     1     -10.916  18.769  64.993  1.00  0.00    -0.520 OA 
BRANCH   4   6
HETATM    6  C   UNL     1     -10.536  16.721  66.303  1.00  0.00    -0.261 C  
BRANCH   6   7
HETATM    7  N   UNL     1     -10.486  16.008  64.997  1.00  0.00    -0.587 NA 
HETATM    8  H   UNL     1      -9.596  15.521  64.892  1.00  0.00     0.000 HD 
BRANCH   7   9
HETATM    9  C   UNL     1     -11.603  15.086  64.768  1.00  0.00    -0.395 C  
BRANCH   9  10
HETATM   10  C   UNL     1     -11.154  13.628  64.523  1.00  0.00    -0.386 C  
BRANCH  10  11
HETATM   11  N   UNL     1      -9.956  13.215  65.272  1.00  0.00    -0.480 NA 
HETATM   12  H   UNL     1      -9.686  13.937  65.940  1.00  0.00     0.000 HD 
BRANCH  11  13
HETATM   13  C   UNL     1     -10.084  11.894  65.954  1.00  0.00    -0.234 C  
BRANCH  13  14
HETATM   14  C   UNL     1      -8.731  11.322  66.431  1.00  0.00    -0.180 C  
HETATM   15  H   UNL     1      -7.487   8.985  67.003  1.00  0.00     0.000 H  
HETATM   16  S   UNL     1      -8.705   9.499  66.573  1.00  0.00    -0.136 SA 
ENDBRANCH  13  14
BRANCH  13  17
HETATM   17  C   UNL     1     -11.058  12.018  67.147  1.00  0.00    -0.290 C  
HETATM   18  O   UNL     1     -11.949  11.222  67.421  1.00  0.00    -0.581 OA 
BRANCH  17  19
HETATM   19  O   UNL     1     -10.777  13.144  67.866  1.00  0.00    -0.227 OA 
BRANCH  19  20
HETATM   20  C   UNL     1     -11.907  13.845  68.401  1.00  0.00    -0.374 C  
HETATM   21  C   UNL     1     -11.990  13.663  69.902  1.00  0.00    -0.415 C  
ENDBRANCH  19  20
ENDBRANCH  17  19
ENDBRANCH  13  17
ENDBRANCH  11  13
ENDBRANCH  10  11
ENDBRANCH   9  10
ENDBRANCH   7   9
ENDBRANCH   6   7
BRANCH   6  22
HETATM   22  C   UNL     1      -9.360  16.446  67.264  1.00  0.00    -0.221 C  
HETATM   23  H   UNL     1      -6.649  16.300  67.355  1.00  0.00     0.000 H  
HETATM   24  S   UNL     1      -7.708  16.547  66.490  1.00  0.00    -0.257 SA 
ENDBRANCH   6  22
ENDBRANCH   4   6
ENDBRANCH   3   4
ENDBRANCH   2   3
TORSDOF 13
ENDMDL
MODEL       61
REMARK 921   NORMALIZED FREE ENERGY PREDICTED BY IDOCK:   -4.30 KCAL/MOL
REMARK 922        TOTAL FREE ENERGY PREDICTED BY IDOCK:   -8.16 KCAL/MOL
REMARK 923 INTER-LIGAND FREE ENERGY PREDICTED BY IDOCK:   -7.72 KCAL/MOL
REMARK 924 INTRA-LIGAND FREE ENERGY PREDICTED BY IDOCK:   -0.44 KCAL/MOL
REMARK 927      BINDING AFFINITY PREDICTED BY RF-SCORE:    0.00 PKD
ROOT
HETATM    1  C   UNL     1     -12.053   9.941  71.445  1.00  0.00    -0.501 C  
HETATM    2  C   UNL     1     -13.153  10.979  71.503  1.00  0.00    -0.396 C  
ENDROOT
BRANCH   2   3
HETATM    3  O   UNL     1     -12.607  12.294  71.317  1.00  0.00    -0.343 OA 
BRANCH   3   4
HETATM    4  C   UNL     1     -13.333  13.319  71.848  1.00  0.00    -0.451 C  
HETATM    5  O   UNL     1     -14.341  13.190  72.532  1.00  0.00    -0.613 OA 
BRANCH   4   6
HETATM    6  C   UNL     1     -12.683  14.661  71.463  1.00  0.00    -0.338 C  
BRANCH   6   7
HETATM    7  N   UNL     1     -12.972  14.970  70.036  1.00  0.00    -0.620 NA 
HETATM    8  H   UNL     1     -13.097  15.974  69.907  1.00  0.00     0.000 HD 
BRANCH   7   9
HETATM    9  C   UNL     1     -11.977  14.453  69.091  1.00  0.00    -0.322 C  
BRANCH   9  10
HETATM   10  C   UNL     1     -10.614  15.174  69.181  1.00  0.00    -0.256 C  
BRANCH  10  11
HETATM   11  N   UNL     1     -10.628  16.583  68.753  1.00  0.00    -0.300 NA 
HETATM   12  H   UNL     1      -9.934  17.121  69.272  1.00  0.00     0.000 HD 
BRANCH  11  13
HETATM   13  C   UNL     1     -10.448  16.779  67.284  1.00  0.00    -0.310 C  
BRANCH  13  14
HETATM   14  C   UNL     1     -10.471  18.265  66.862  1.00  0.00    -0.373 C  
HETATM   15  H   UNL     1      -9.804  20.740  67.739  1.00  0.00     0.000 H  
HETATM   16  S   UNL     1      -9.784  19.403  68.119  1.00  0.00    -0.409 SA 
ENDBRANCH  13  14
BRANCH  13  17
HETATM   17  C   UNL     1      -9.127  16.119  66.830  1.00  0.00    -0.230 C  
HETATM   18  O   UNL     1      -8.042  16.246  67.386  1.00  0.00    -0.144 OA 
BRANCH  17  19
HETATM   19  O   UNL     1      -9.343  15.358  65.717  1.00  0.00    -0.325 OA 
BRANCH  19  20
HETATM   20  C   UNL     1     -10.269  14.274  65.868  1.00  0.00    -0.324 C  
HETATM   21  C   UNL     1     -10.649  13.701  64.519  1.00  0.00    -0.428 C  
ENDBRANCH  19  20
ENDBRANCH  17  19
ENDBRANCH  13  17
ENDBRANCH  11  13
ENDBRANCH  10  11
ENDBRANCH   9  10
ENDBRANCH   7   9
ENDBRANCH   6   7
BRANCH   6  22
HETATM   22  C   UNL     1     -13.105  15.740  72.482  1.00  0.00    -0.474 C  
HETATM   23  H   UNL     1     -12.571  16.660  74.982  1.00  0.00     0.000 H  
HETATM   24  S   UNL     1     -12.191  15.689  74.063  1.00  0.00    -0.565 SA 
ENDBRANCH   6  22
ENDBRANCH   4   6
ENDBRANCH   3   4
ENDBRANCH   2   3
TORSDOF 13
ENDMDL
MODEL       62
REMARK 921   NORMALIZED FREE ENERGY PREDICTED BY IDOCK:   -4.29 KCAL/MOL
REMARK 922        TOTAL FREE ENERGY PREDICTED BY IDOCK:   -8.15 KCAL/MOL
REMARK 923 INTER-LIGAND FREE ENERGY PREDICTED BY IDOCK:   -7.21 KCAL/MOL
REMARK 924 INTRA-LIGAND FREE ENERGY PREDICTED BY IDOCK:   -0.93 KCAL/MOL
REMARK 927      BINDING AFFINITY PREDICTED BY RF-SCORE:    0.00 PKD
ROOT
HETATM    1  C   UNL     1      -6.749  19.668  67.332  1.00  0.00    -0.234 C  
HETATM    2  C   UNL     1      -7.517  19.961  66.061  1.00  0.00    -0.324 C  
ENDROOT
BRANCH   2   3
HETATM    3  O   UNL     1      -8.430  18.890  65.774  1.00  0.00    -0.429 OA 
BRANCH   3   4
HETATM    4  C   UNL     1      -9.737  19.127  66.083  1.00  0.00    -0.315 C  
HETATM    5  O   UNL     1     -10.299  20.212  65.993  1.00  0.00    -0.444 OA 
BRANCH   4   6
HETATM    6  C   UNL     1     -10.399  17.817  66.550  1.00  0.00    -0.345 C  
BRANCH   6   7
HETATM    7  N   UNL     1      -9.894  16.678  65.735  1.00  0.00    -0.536 NA 
HETATM    8  H   UNL     1      -9.340  16.046  66.313  1.00  0.00     0.000 HD 
BRANCH   7   9
HETATM    9  C   UNL     1     -10.937  15.936  65.019  1.00  0.00    -0.412 C  
BRANCH   9  10
HETATM   10  C   UNL     1     -11.300  14.591  65.688  1.00  0.00    -0.336 C  
BRANCH  10  11
HETATM   11  N   UNL     1     -11.845  14.704  67.051  1.00  0.00    -0.374 NA 
HETATM   12  H   UNL     1     -12.780  15.111  67.028  1.00  0.00     0.000 HD 
BRANCH  11  13
HETATM   13  C   UNL     1     -11.851  13.423  67.817  1.00  0.00    -0.358 C  
BRANCH  13  14
HETATM   14  C   UNL     1     -10.562  12.595  67.627  1.00  0.00    -0.218 C  
HETATM   15  H   UNL     1      -9.692  10.051  67.292  1.00  0.00     0.000 H  
HETATM   16  S   UNL     1     -10.853  10.797  67.463  1.00  0.00    -0.303 SA 
ENDBRANCH  13  14
BRANCH  13  17
HETATM   17  C   UNL     1     -12.077  13.716  69.317  1.00  0.00    -0.314 C  
HETATM   18  O   UNL     1     -12.130  12.873  70.205  1.00  0.00    -0.347 OA 
BRANCH  17  19
HETATM   19  O   UNL     1     -12.200  15.061  69.518  1.00  0.00    -0.290 OA 
BRANCH  19  20
HETATM   20  C   UNL     1     -12.765  15.459  70.774  1.00  0.00    -0.459 C  
HETATM   21  C   UNL     1     -11.729  16.151  71.634  1.00  0.00    -0.558 C  
ENDBRANCH  19  20
ENDBRANCH  17  19
ENDBRANCH  13  17
ENDBRANCH  11  13
ENDBRANCH  10  11
ENDBRANCH   9  10
ENDBRANCH   7   9
ENDBRANCH   6   7
BRANCH   6  22
HETATM   22  C   UNL     1     -10.227  17.679  68.077  1.00  0.00    -0.362 C  
HETATM   23  H   UNL     1      -8.604  16.595  69.967  1.00  0.00     0.000 H  
HETATM   24  S   UNL     1      -8.760  16.720  68.592  1.00  0.00    -0.254 SA 
ENDBRANCH   6  22
ENDBRANCH   4   6
ENDBRANCH   3   4
ENDBRANCH   2   3
TORSDOF 13
ENDMDL
MODEL       63
REMARK 921   NORMALIZED FREE ENERGY PREDICTED BY IDOCK:   -4.29 KCAL/MOL
REMARK 922        TOTAL FREE ENERGY PREDICTED BY IDOCK:   -8.14 KCAL/MOL
REMARK 923 INTER-LIGAND FREE ENERGY PREDICTED BY IDOCK:   -7.60 KCAL/MOL
REMARK 924 INTRA-LIGAND FREE ENERGY PREDICTED BY IDOCK:   -0.54 KCAL/MOL
REMARK 927      BINDING AFFINITY PREDICTED BY RF-SCORE:    0.00 PKD
ROOT
HETATM    1  C   UNL     1     -11.217  15.757  64.682  1.00  0.00    -0.373 C  
HETATM    2  C   UNL     1     -12.401  14.868  64.365  1.00  0.00    -0.323 C  
ENDROOT
BRANCH   2   3
HETATM    3  O   UNL     1     -11.953  13.625  63.803  1.00  0.00    -0.443 OA 
BRANCH   3   4
HETATM    4  C   UNL     1     -12.353  12.498  64.459  1.00  0.00    -0.467 C  
HETATM    5  O   UNL     1     -13.405  11.903  64.262  1.00  0.00    -0.610 OA 
BRANCH   4   6
HETATM    6  C   UNL     1     -11.272  12.085  65.476  1.00  0.00    -0.321 C  
BRANCH   6   7
HETATM    7  N   UNL     1     -11.879  11.950  66.828  1.00  0.00    -0.607 NA 
HETATM    8  H   UNL     1     -11.672  11.031  67.221  1.00  0.00     0.000 HD 
BRANCH   7   9
HETATM    9  C   UNL     1     -11.501  13.007  67.772  1.00  0.00    -0.316 C  
BRANCH   9  10
HETATM   10  C   UNL     1     -12.347  14.291  67.625  1.00  0.00    -0.026 C  
BRANCH  10  11
HETATM   11  N   UNL     1     -11.985  15.380  68.546  1.00  0.00    -0.550 NA 
HETATM   12  H   UNL     1     -12.820  15.880  68.853  1.00  0.00     0.000 HD 
BRANCH  11  13
HETATM   13  C   UNL     1     -11.175  14.946  69.722  1.00  0.00    -0.280 C  
BRANCH  13  14
HETATM   14  C   UNL     1      -9.782  15.611  69.780  1.00  0.00    -0.228 C  
HETATM   15  H   UNL     1      -8.421  17.785  68.907  1.00  0.00     0.000 H  
HETATM   16  S   UNL     1      -9.674  17.186  68.856  1.00  0.00    -0.225 SA 
ENDBRANCH  13  14
BRANCH  13  17
HETATM   17  C   UNL     1     -11.955  15.234  71.024  1.00  0.00    -0.343 C  
HETATM   18  O   UNL     1     -11.580  15.974  71.927  1.00  0.00    -0.445 OA 
BRANCH  17  19
HETATM   19  O   UNL     1     -13.136  14.549  71.024  1.00  0.00    -0.350 OA 
BRANCH  19  20
HETATM   20  C   UNL     1     -13.445  13.830  72.224  1.00  0.00    -0.541 C  
HETATM   21  C   UNL     1     -13.315  12.337  72.004  1.00  0.00    -0.491 C  
ENDBRANCH  19  20
ENDBRANCH  17  19
ENDBRANCH  13  17
ENDBRANCH  11  13
ENDBRANCH  10  11
ENDBRANCH   9  10
ENDBRANCH   7   9
ENDBRANCH   6   7
BRANCH   6  22
HETATM   22  C   UNL     1     -10.526  10.844  64.947  1.00  0.00    -0.282 C  
HETATM   23  H   UNL     1      -9.145   9.921  62.797  1.00  0.00     0.000 H  
HETATM   24  S   UNL     1      -9.818  11.039  63.274  1.00  0.00    -0.380 SA 
ENDBRANCH   6  22
ENDBRANCH   4   6
ENDBRANCH   3   4
ENDBRANCH   2   3
TORSDOF 13
ENDMDL
MODEL       64
REMARK 921   NORMALIZED FREE ENERGY PREDICTED BY IDOCK:   -4.29 KCAL/MOL
REMARK 922        TOTAL FREE ENERGY PREDICTED BY IDOCK:   -8.14 KCAL/MOL
REMARK 923 INTER-LIGAND FREE ENERGY PREDICTED BY IDOCK:   -6.90 KCAL/MOL
REMARK 924 INTRA-LIGAND FREE ENERGY PREDICTED BY IDOCK:   -1.23 KCAL/MOL
REMARK 927      BINDING AFFINITY PREDICTED BY RF-SCORE:    0.00 PKD
ROOT
HETATM    1  C   UNL     1     -10.110   5.143  69.807  1.00  0.00    -0.336 C  
HETATM    2  C   UNL     1     -11.060   6.207  69.301  1.00  0.00    -0.393 C  
ENDROOT
BRANCH   2   3
HETATM    3  O   UNL     1     -12.101   6.441  70.262  1.00  0.00    -0.294 OA 
BRANCH   3   4
HETATM    4  C   UNL     1     -11.863   7.434  71.165  1.00  0.00    -0.301 C  
HETATM    5  O   UNL     1     -12.046   7.349  72.373  1.00  0.00    -0.247 OA 
BRANCH   4   6
HETATM    6  C   UNL     1     -11.319   8.675  70.431  1.00  0.00    -0.187 C  
BRANCH   6   7
HETATM    7  N   UNL     1     -12.399   9.690  70.290  1.00  0.00    -0.469 NA 
HETATM    8  H   UNL     1     -13.309   9.233  70.224  1.00  0.00     0.000 HD 
BRANCH   7   9
HETATM    9  C   UNL     1     -12.413  10.710  71.343  1.00  0.00    -0.390 C  
BRANCH   9  10
HETATM   10  C   UNL     1     -12.463  12.154  70.796  1.00  0.00    -0.271 C  
BRANCH  10  11
HETATM   11  N   UNL     1     -11.329  12.532  69.937  1.00  0.00    -0.509 NA 
HETATM   12  H   UNL     1     -10.733  11.723  69.757  1.00  0.00     0.000 HD 
BRANCH  11  13
HETATM   13  C   UNL     1     -11.721  13.187  68.655  1.00  0.00    -0.326 C  
BRANCH  13  14
HETATM   14  C   UNL     1     -10.784  14.348  68.254  1.00  0.00    -0.242 C  
HETATM   15  H   UNL     1      -8.207  14.884  67.616  1.00  0.00     0.000 H  
HETATM   16  S   UNL     1      -9.050  13.839  67.976  1.00  0.00    -0.197 SA 
ENDBRANCH  13  14
BRANCH  13  17
HETATM   17  C   UNL     1     -11.771  12.132  67.527  1.00  0.00    -0.315 C  
HETATM   18  O   UNL     1     -11.445  10.956  67.641  1.00  0.00    -0.468 OA 
BRANCH  17  19
HETATM   19  O   UNL     1     -12.244  12.697  66.378  1.00  0.00    -0.550 OA 
BRANCH  19  20
HETATM   20  C   UNL     1     -11.558  12.336  65.172  1.00  0.00    -0.351 C  
HETATM   21  C   UNL     1     -12.503  12.359  63.989  1.00  0.00    -0.554 C  
ENDBRANCH  19  20
ENDBRANCH  17  19
ENDBRANCH  13  17
ENDBRANCH  11  13
ENDBRANCH  10  11
ENDBRANCH   9  10
ENDBRANCH   7   9
ENDBRANCH   6   7
BRANCH   6  22
HETATM   22  C   UNL     1     -10.033   9.156  71.134  1.00  0.00    -0.307 C  
HETATM   23  H   UNL     1      -7.373   9.530  70.726  1.00  0.00     0.000 H  
HETATM   24  S   UNL     1      -8.532   9.097  70.094  1.00  0.00    -0.196 SA 
ENDBRANCH   6  22
ENDBRANCH   4   6
ENDBRANCH   3   4
ENDBRANCH   2   3
TORSDOF 13
ENDMDL
MODEL       65
REMARK 921   NORMALIZED FREE ENERGY PREDICTED BY IDOCK:   -4.28 KCAL/MOL
REMARK 922        TOTAL FREE ENERGY PREDICTED BY IDOCK:   -8.14 KCAL/MOL
REMARK 923 INTER-LIGAND FREE ENERGY PREDICTED BY IDOCK:   -6.99 KCAL/MOL
REMARK 924 INTRA-LIGAND FREE ENERGY PREDICTED BY IDOCK:   -1.14 KCAL/MOL
REMARK 927      BINDING AFFINITY PREDICTED BY RF-SCORE:    0.00 PKD
ROOT
HETATM    1  C   UNL     1     -13.003   7.030  71.741  1.00  0.00    -0.356 C  
HETATM    2  C   UNL     1     -13.313   8.500  71.558  1.00  0.00    -0.293 C  
ENDROOT
BRANCH   2   3
HETATM    3  O   UNL     1     -12.285   9.303  72.157  1.00  0.00    -0.359 OA 
BRANCH   3   4
HETATM    4  C   UNL     1     -11.130   9.419  71.441  1.00  0.00    -0.380 C  
HETATM    5  O   UNL     1     -10.020   9.078  71.831  1.00  0.00    -0.332 OA 
BRANCH   4   6
HETATM    6  C   UNL     1     -11.439  10.036  70.063  1.00  0.00    -0.248 C  
BRANCH   6   7
HETATM    7  N   UNL     1     -11.102  11.486  70.073  1.00  0.00    -0.469 NA 
HETATM    8  H   UNL     1     -10.792  11.785  69.148  1.00  0.00     0.000 HD 
BRANCH   7   9
HETATM    9  C   UNL     1     -12.179  12.355  70.557  1.00  0.00    -0.295 C  
BRANCH   9  10
HETATM   10  C   UNL     1     -11.947  13.850  70.244  1.00  0.00    -0.331 C  
BRANCH  10  11
HETATM   11  N   UNL     1     -12.652  14.350  69.053  1.00  0.00    -0.496 NA 
HETATM   12  H   UNL     1     -13.176  15.197  69.277  1.00  0.00     0.000 HD 
BRANCH  11  13
HETATM   13  C   UNL     1     -11.772  14.580  67.869  1.00  0.00    -0.351 C  
BRANCH  13  14
HETATM   14  C   UNL     1     -10.291  14.801  68.248  1.00  0.00    -0.238 C  
HETATM   15  H   UNL     1      -8.329  16.667  68.178  1.00  0.00     0.000 H  
HETATM   16  S   UNL     1      -9.662  16.468  67.838  1.00  0.00    -0.239 SA 
ENDBRANCH  13  14
BRANCH  13  17
HETATM   17  C   UNL     1     -11.898  13.391  66.890  1.00  0.00    -0.403 C  
HETATM   18  O   UNL     1     -11.802  12.208  67.195  1.00  0.00    -0.543 OA 
BRANCH  17  19
HETATM   19  O   UNL     1     -12.143  13.849  65.628  1.00  0.00    -0.374 OA 
BRANCH  19  20
HETATM   20  C   UNL     1     -12.748  12.911  64.727  1.00  0.00    -0.370 C  
HETATM   21  C   UNL     1     -11.931  12.782  63.459  1.00  0.00    -0.633 C  
ENDBRANCH  19  20
ENDBRANCH  17  19
ENDBRANCH  13  17
ENDBRANCH  11  13
ENDBRANCH  10  11
ENDBRANCH   9  10
ENDBRANCH   7   9
ENDBRANCH   6   7
BRANCH   6  22
HETATM   22  C   UNL     1     -10.756   9.194  68.966  1.00  0.00    -0.153 C  
HETATM   23  H   UNL     1      -8.583   9.146  67.337  1.00  0.00     0.000 H  
HETATM   24  S   UNL     1      -9.199   9.904  68.325  1.00  0.00    -0.129 SA 
ENDBRANCH   6  22
ENDBRANCH   4   6
ENDBRANCH   3   4
ENDBRANCH   2   3
TORSDOF 13
ENDMDL
MODEL       66
REMARK 921   NORMALIZED FREE ENERGY PREDICTED BY IDOCK:   -4.28 KCAL/MOL
REMARK 922        TOTAL FREE ENERGY PREDICTED BY IDOCK:   -8.14 KCAL/MOL
REMARK 923 INTER-LIGAND FREE ENERGY PREDICTED BY IDOCK:   -7.44 KCAL/MOL
REMARK 924 INTRA-LIGAND FREE ENERGY PREDICTED BY IDOCK:   -0.69 KCAL/MOL
REMARK 927      BINDING AFFINITY PREDICTED BY RF-SCORE:    0.00 PKD
ROOT
HETATM    1  C   UNL     1      -6.457  21.160  63.133  1.00  0.00    -0.198 C  
HETATM    2  C   UNL     1      -5.726  19.967  63.710  1.00  0.00    -0.277 C  
ENDROOT
BRANCH   2   3
HETATM    3  O   UNL     1      -5.779  19.996  65.144  1.00  0.00    -0.167 OA 
BRANCH   3   4
HETATM    4  C   UNL     1      -6.782  19.270  65.716  1.00  0.00    -0.257 C  
HETATM    5  O   UNL     1      -7.133  18.151  65.363  1.00  0.00    -0.523 OA 
BRANCH   4   6
HETATM    6  C   UNL     1      -7.396  20.070  66.880  1.00  0.00    -0.250 C  
BRANCH   6   7
HETATM    7  N   UNL     1      -8.777  20.496  66.525  1.00  0.00    -0.549 NA 
HETATM    8  H   UNL     1      -8.892  20.520  65.512  1.00  0.00     0.000 HD 
BRANCH   7   9
HETATM    9  C   UNL     1      -9.837  19.690  67.141  1.00  0.00    -0.369 C  
BRANCH   9  10
HETATM   10  C   UNL     1     -10.496  18.693  66.162  1.00  0.00    -0.430 C  
BRANCH  10  11
HETATM   11  N   UNL     1     -10.597  17.311  66.659  1.00  0.00    -0.236 NA 
HETATM   12  H   UNL     1     -11.571  17.067  66.835  1.00  0.00     0.000 HD 
BRANCH  11  13
HETATM   13  C   UNL     1      -9.954  16.293  65.776  1.00  0.00    -0.323 C  
BRANCH  13  14
HETATM   14  C   UNL     1      -9.469  15.044  66.543  1.00  0.00    -0.282 C  
HETATM   15  H   UNL     1      -8.201  14.298  68.817  1.00  0.00     0.000 H  
HETATM   16  S   UNL     1      -8.638  15.423  68.127  1.00  0.00    -0.155 SA 
ENDBRANCH  13  14
BRANCH  13  17
HETATM   17  C   UNL     1     -10.938  15.881  64.658  1.00  0.00    -0.305 C  
HETATM   18  O   UNL     1     -11.652  16.649  64.023  1.00  0.00    -1.197 OA 
BRANCH  17  19
HETATM   19  O   UNL     1     -10.891  14.530  64.467  1.00  0.00    -0.351 OA 
BRANCH  19  20
HETATM   20  C   UNL     1     -12.154  13.877  64.290  1.00  0.00    -0.440 C  
HETATM   21  C   UNL     1     -12.265  12.668  65.194  1.00  0.00    -0.539 C  
ENDBRANCH  19  20
ENDBRANCH  17  19
ENDBRANCH  13  17
ENDBRANCH  11  13
ENDBRANCH  10  11
ENDBRANCH   9  10
ENDBRANCH   7   9
ENDBRANCH   6   7
BRANCH   6  22
HETATM   22  C   UNL     1      -7.257  19.256  68.183  1.00  0.00    -0.269 C  
HETATM   23  H   UNL     1      -5.968  19.230  70.574  1.00  0.00     0.000 H  
HETATM   24  S   UNL     1      -6.093  19.963  69.400  1.00  0.00    -0.325 SA 
ENDBRANCH   6  22
ENDBRANCH   4   6
ENDBRANCH   3   4
ENDBRANCH   2   3
TORSDOF 13
ENDMDL
MODEL       67
REMARK 921   NORMALIZED FREE ENERGY PREDICTED BY IDOCK:   -4.28 KCAL/MOL
REMARK 922        TOTAL FREE ENERGY PREDICTED BY IDOCK:   -8.13 KCAL/MOL
REMARK 923 INTER-LIGAND FREE ENERGY PREDICTED BY IDOCK:   -7.20 KCAL/MOL
REMARK 924 INTRA-LIGAND FREE ENERGY PREDICTED BY IDOCK:   -0.93 KCAL/MOL
REMARK 927      BINDING AFFINITY PREDICTED BY RF-SCORE:    0.00 PKD
ROOT
HETATM    1  C   UNL     1     -11.463  12.003  63.619  1.00  0.00    -0.556 C  
HETATM    2  C   UNL     1     -12.508  12.495  64.597  1.00  0.00    -0.463 C  
ENDROOT
BRANCH   2   3
HETATM    3  O   UNL     1     -12.065  12.285  65.947  1.00  0.00    -0.609 OA 
BRANCH   3   4
HETATM    4  C   UNL     1     -11.811  13.413  66.670  1.00  0.00    -0.395 C  
HETATM    5  O   UNL     1     -11.872  14.558  66.238  1.00  0.00    -0.380 OA 
BRANCH   4   6
HETATM    6  C   UNL     1     -11.447  13.025  68.116  1.00  0.00    -0.319 C  
BRANCH   6   7
HETATM    7  N   UNL     1     -12.265  13.820  69.072  1.00  0.00    -0.397 NA 
HETATM    8  H   UNL     1     -12.789  13.201  69.691  1.00  0.00     0.000 HD 
BRANCH   7   9
HETATM    9  C   UNL     1     -11.503  14.800  69.852  1.00  0.00    -0.281 C  
BRANCH   9  10
HETATM   10  C   UNL     1     -11.764  16.261  69.423  1.00  0.00    -0.109 C  
BRANCH  10  11
HETATM   11  N   UNL     1     -10.553  17.074  69.223  1.00  0.00    -0.323 NA 
HETATM   12  H   UNL     1      -9.734  16.475  69.123  1.00  0.00     0.000 HD 
BRANCH  11  13
HETATM   13  C   UNL     1     -10.640  18.035  68.084  1.00  0.00    -0.319 C  
BRANCH  13  14
HETATM   14  C   UNL     1      -9.989  19.402  68.391  1.00  0.00    -0.437 C  
HETATM   15  H   UNL     1      -7.586  20.562  68.855  1.00  0.00     0.000 H  
HETATM   16  S   UNL     1      -8.171  19.332  68.578  1.00  0.00    -0.370 SA 
ENDBRANCH  13  14
BRANCH  13  17
HETATM   17  C   UNL     1      -9.995  17.410  66.827  1.00  0.00    -0.307 C  
HETATM   18  O   UNL     1     -10.085  17.854  65.688  1.00  0.00    -0.567 OA 
BRANCH  17  19
HETATM   19  O   UNL     1      -9.295  16.288  67.169  1.00  0.00    -0.217 OA 
BRANCH  19  20
HETATM   20  C   UNL     1      -8.041  16.103  66.499  1.00  0.00    -0.296 C  
HETATM   21  C   UNL     1      -6.951  15.749  67.488  1.00  0.00    -0.216 C  
ENDBRANCH  19  20
ENDBRANCH  17  19
ENDBRANCH  13  17
ENDBRANCH  11  13
ENDBRANCH  10  11
ENDBRANCH   9  10
ENDBRANCH   7   9
ENDBRANCH   6   7
BRANCH   6  22
HETATM   22  C   UNL     1     -11.538  11.492  68.267  1.00  0.00    -0.308 C  
HETATM   23  H   UNL     1     -11.500   9.510  70.124  1.00  0.00     0.000 H  
HETATM   24  S   UNL     1     -11.419  10.891  69.987  1.00  0.00    -0.330 SA 
ENDBRANCH   6  22
ENDBRANCH   4   6
ENDBRANCH   3   4
ENDBRANCH   2   3
TORSDOF 13
ENDMDL
MODEL       68
REMARK 921   NORMALIZED FREE ENERGY PREDICTED BY IDOCK:   -4.27 KCAL/MOL
REMARK 922        TOTAL FREE ENERGY PREDICTED BY IDOCK:   -8.11 KCAL/MOL
REMARK 923 INTER-LIGAND FREE ENERGY PREDICTED BY IDOCK:   -7.41 KCAL/MOL
REMARK 924 INTRA-LIGAND FREE ENERGY PREDICTED BY IDOCK:   -0.71 KCAL/MOL
REMARK 927      BINDING AFFINITY PREDICTED BY RF-SCORE:    0.00 PKD
ROOT
HETATM    1  C   UNL     1     -11.456   6.626  70.073  1.00  0.00    -0.434 C  
HETATM    2  C   UNL     1     -12.069   7.037  71.395  1.00  0.00    -0.355 C  
ENDROOT
BRANCH   2   3
HETATM    3  O   UNL     1     -11.690   8.382  71.723  1.00  0.00    -0.274 OA 
BRANCH   3   4
HETATM    4  C   UNL     1     -12.704   9.293  71.757  1.00  0.00    -0.381 C  
HETATM    5  O   UNL     1     -13.777   9.134  72.325  1.00  0.00    -0.443 OA 
BRANCH   4   6
HETATM    6  C   UNL     1     -12.286  10.555  70.979  1.00  0.00    -0.400 C  
BRANCH   6   7
HETATM    7  N   UNL     1     -12.407  10.308  69.516  1.00  0.00    -0.558 NA 
HETATM    8  H   UNL     1     -13.145  10.890  69.118  1.00  0.00     0.000 HD 
BRANCH   7   9
HETATM    9  C   UNL     1     -11.159  10.481  68.767  1.00  0.00    -0.265 C  
BRANCH   9  10
HETATM   10  C   UNL     1     -11.381  10.802  67.272  1.00  0.00    -0.093 C  
BRANCH  10  11
HETATM   11  N   UNL     1     -11.894  12.154  66.998  1.00  0.00    -0.594 NA 
HETATM   12  H   UNL     1     -11.620  12.797  67.741  1.00  0.00     0.000 HD 
BRANCH  11  13
HETATM   13  C   UNL     1     -11.504  12.700  65.664  1.00  0.00    -0.350 C  
BRANCH  13  14
HETATM   14  C   UNL     1     -11.702  11.689  64.513  1.00  0.00    -0.111 C  
HETATM   15  H   UNL     1     -10.407  10.568  62.414  1.00  0.00     0.000 H  
HETATM   16  S   UNL     1     -10.228  11.477  63.451  1.00  0.00    -0.427 SA 
ENDBRANCH  13  14
BRANCH  13  17
HETATM   17  C   UNL     1     -12.300  13.993  65.379  1.00  0.00    -0.478 C  
HETATM   18  O   UNL     1     -13.522  14.087  65.371  1.00  0.00    -0.679 OA 
BRANCH  17  19
HETATM   19  O   UNL     1     -11.442  15.029  65.145  1.00  0.00    -0.360 OA 
BRANCH  19  20
HETATM   20  C   UNL     1     -10.231  15.026  65.912  1.00  0.00    -0.315 C  
HETATM   21  C   UNL     1     -10.366  15.914  67.131  1.00  0.00    -0.300 C  
ENDBRANCH  19  20
ENDBRANCH  17  19
ENDBRANCH  13  17
ENDBRANCH  11  13
ENDBRANCH  10  11
ENDBRANCH   9  10
ENDBRANCH   7   9
ENDBRANCH   6   7
BRANCH   6  22
HETATM   22  C   UNL     1     -13.068  11.768  71.523  1.00  0.00    -0.287 C  
HETATM   23  H   UNL     1     -13.173  14.481  71.419  1.00  0.00     0.000 H  
HETATM   24  S   UNL     1     -12.468  13.388  70.929  1.00  0.00    -0.303 SA 
ENDBRANCH   6  22
ENDBRANCH   4   6
ENDBRANCH   3   4
ENDBRANCH   2   3
TORSDOF 13
ENDMDL
MODEL       69
REMARK 921   NORMALIZED FREE ENERGY PREDICTED BY IDOCK:   -4.27 KCAL/MOL
REMARK 922        TOTAL FREE ENERGY PREDICTED BY IDOCK:   -8.11 KCAL/MOL
REMARK 923 INTER-LIGAND FREE ENERGY PREDICTED BY IDOCK:   -7.23 KCAL/MOL
REMARK 924 INTRA-LIGAND FREE ENERGY PREDICTED BY IDOCK:   -0.88 KCAL/MOL
REMARK 927      BINDING AFFINITY PREDICTED BY RF-SCORE:    0.00 PKD
ROOT
HETATM    1  C   UNL     1     -10.227  11.760  64.284  1.00  0.00    -0.344 C  
HETATM    2  C   UNL     1     -10.866  11.345  65.592  1.00  0.00    -0.218 C  
ENDROOT
BRANCH   2   3
HETATM    3  O   UNL     1      -9.857  10.964  66.540  1.00  0.00    -0.193 OA 
BRANCH   3   4
HETATM    4  C   UNL     1     -10.227  10.023  67.454  1.00  0.00    -0.219 C  
HETATM    5  O   UNL     1     -10.601   8.887  67.187  1.00  0.00    -0.286 OA 
BRANCH   4   6
HETATM    6  C   UNL     1     -10.093  10.605  68.874  1.00  0.00    -0.202 C  
BRANCH   6   7
HETATM    7  N   UNL     1     -10.112  12.092  68.812  1.00  0.00    -0.394 NA 
HETATM    8  H   UNL     1      -9.837  12.413  67.882  1.00  0.00     0.000 HD 
BRANCH   7   9
HETATM    9  C   UNL     1     -11.387  12.699  69.206  1.00  0.00    -0.245 C  
BRANCH   9  10
HETATM   10  C   UNL     1     -11.881  13.781  68.220  1.00  0.00    -0.378 C  
BRANCH  10  11
HETATM   11  N   UNL     1     -12.325  15.036  68.848  1.00  0.00    -0.594 NA 
HETATM   12  H   UNL     1     -13.272  14.936  69.214  1.00  0.00     0.000 HD 
BRANCH  11  13
HETATM   13  C   UNL     1     -11.407  15.551  69.907  1.00  0.00    -0.314 C  
BRANCH  13  14
HETATM   14  C   UNL     1     -10.563  16.759  69.445  1.00  0.00    -0.318 C  
HETATM   15  H   UNL     1      -8.183  17.389  68.316  1.00  0.00     0.000 H  
HETATM   16  S   UNL     1      -8.943  16.301  68.732  1.00  0.00    -0.252 SA 
ENDBRANCH  13  14
BRANCH  13  17
HETATM   17  C   UNL     1     -12.223  15.923  71.164  1.00  0.00    -0.399 C  
HETATM   18  O   UNL     1     -11.763  16.412  72.190  1.00  0.00    -0.506 OA 
BRANCH  17  19
HETATM   19  O   UNL     1     -13.544  15.639  70.967  1.00  0.00    -0.588 OA 
BRANCH  19  20
HETATM   20  C   UNL     1     -14.238  15.072  72.087  1.00  0.00    -0.540 C  
HETATM   21  C   UNL     1     -13.852  13.620  72.278  1.00  0.00    -0.689 C  
ENDBRANCH  19  20
ENDBRANCH  17  19
ENDBRANCH  13  17
ENDBRANCH  11  13
ENDBRANCH  10  11
ENDBRANCH   9  10
ENDBRANCH   7   9
ENDBRANCH   6   7
BRANCH   6  22
HETATM   22  C   UNL     1     -11.151   9.957  69.790  1.00  0.00    -0.254 C  
HETATM   23  H   UNL     1     -11.419   8.304  71.928  1.00  0.00     0.000 H  
HETATM   24  S   UNL     1     -10.466   8.887  71.103  1.00  0.00    -0.294 SA 
ENDBRANCH   6  22
ENDBRANCH   4   6
ENDBRANCH   3   4
ENDBRANCH   2   3
TORSDOF 13
ENDMDL
MODEL       70
REMARK 921   NORMALIZED FREE ENERGY PREDICTED BY IDOCK:   -4.27 KCAL/MOL
REMARK 922        TOTAL FREE ENERGY PREDICTED BY IDOCK:   -8.10 KCAL/MOL
REMARK 923 INTER-LIGAND FREE ENERGY PREDICTED BY IDOCK:   -7.29 KCAL/MOL
REMARK 924 INTRA-LIGAND FREE ENERGY PREDICTED BY IDOCK:   -0.81 KCAL/MOL
REMARK 927      BINDING AFFINITY PREDICTED BY RF-SCORE:    0.00 PKD
ROOT
HETATM    1  C   UNL     1     -11.163  15.776  64.706  1.00  0.00    -0.375 C  
HETATM    2  C   UNL     1     -12.243  14.898  64.112  1.00  0.00    -0.255 C  
ENDROOT
BRANCH   2   3
HETATM    3  O   UNL     1     -12.832  14.076  65.131  1.00  0.00    -0.696 OA 
BRANCH   3   4
HETATM    4  C   UNL     1     -12.619  12.734  65.008  1.00  0.00    -0.468 C  
HETATM    5  O   UNL     1     -13.261  11.980  64.288  1.00  0.00    -0.710 OA 
BRANCH   4   6
HETATM    6  C   UNL     1     -11.439  12.318  65.907  1.00  0.00    -0.376 C  
BRANCH   6   7
HETATM    7  N   UNL     1     -11.942  11.944  67.257  1.00  0.00    -0.599 NA 
HETATM    8  H   UNL     1     -11.487  11.091  67.582  1.00  0.00     0.000 HD 
BRANCH   7   9
HETATM    9  C   UNL     1     -11.821  13.004  68.264  1.00  0.00    -0.343 C  
BRANCH   9  10
HETATM   10  C   UNL     1     -10.691  14.013  67.958  1.00  0.00    -0.246 C  
BRANCH  10  11
HETATM   11  N   UNL     1     -10.920  15.374  68.471  1.00  0.00    -0.265 NA 
HETATM   12  H   UNL     1     -10.901  15.378  69.491  1.00  0.00     0.000 HD 
BRANCH  11  13
HETATM   13  C   UNL     1      -9.982  16.400  67.927  1.00  0.00    -0.243 C  
BRANCH  13  14
HETATM   14  C   UNL     1     -10.259  17.821  68.463  1.00  0.00    -0.382 C  
HETATM   15  H   UNL     1     -10.854  20.332  67.639  1.00  0.00     0.000 H  
HETATM   16  S   UNL     1     -10.605  19.052  67.156  1.00  0.00    -0.458 SA 
ENDBRANCH  13  14
BRANCH  13  17
HETATM   17  C   UNL     1      -8.526  15.989  68.239  1.00  0.00    -0.177 C  
HETATM   18  O   UNL     1      -8.049  15.862  69.362  1.00  0.00    -0.234 OA 
BRANCH  17  19
HETATM   19  O   UNL     1      -7.840  15.775  67.078  1.00  0.00    -0.195 OA 
BRANCH  19  20
HETATM   20  C   UNL     1      -6.667  16.577  66.885  1.00  0.00    -0.198 C  
HETATM   21  C   UNL     1      -6.966  17.757  65.985  1.00  0.00    -0.335 C  
ENDBRANCH  19  20
ENDBRANCH  17  19
ENDBRANCH  13  17
ENDBRANCH  11  13
ENDBRANCH  10  11
ENDBRANCH   9  10
ENDBRANCH   7   9
ENDBRANCH   6   7
BRANCH   6  22
HETATM   22  C   UNL     1     -10.603  11.244  65.181  1.00  0.00    -0.280 C  
HETATM   23  H   UNL     1      -9.359  10.721  62.823  1.00  0.00     0.000 H  
HETATM   24  S   UNL     1     -10.112  11.688  63.478  1.00  0.00    -0.455 SA 
ENDBRANCH   6  22
ENDBRANCH   4   6
ENDBRANCH   3   4
ENDBRANCH   2   3
TORSDOF 13
ENDMDL
MODEL       71
REMARK 921   NORMALIZED FREE ENERGY PREDICTED BY IDOCK:   -4.26 KCAL/MOL
REMARK 922        TOTAL FREE ENERGY PREDICTED BY IDOCK:   -8.09 KCAL/MOL
REMARK 923 INTER-LIGAND FREE ENERGY PREDICTED BY IDOCK:   -7.42 KCAL/MOL
REMARK 924 INTRA-LIGAND FREE ENERGY PREDICTED BY IDOCK:   -0.67 KCAL/MOL
REMARK 927      BINDING AFFINITY PREDICTED BY RF-SCORE:    0.00 PKD
ROOT
HETATM    1  C   UNL     1     -10.763   6.669  68.254  1.00  0.00    -0.317 C  
HETATM    2  C   UNL     1     -10.697   7.450  69.549  1.00  0.00    -0.224 C  
ENDROOT
BRANCH   2   3
HETATM    3  O   UNL     1     -10.908   8.848  69.298  1.00  0.00    -0.197 OA 
BRANCH   3   4
HETATM    4  C   UNL     1     -10.847   9.663  70.390  1.00  0.00    -0.295 C  
HETATM    5  O   UNL     1     -10.157   9.464  71.382  1.00  0.00    -0.301 OA 
BRANCH   4   6
HETATM    6  C   UNL     1     -11.771  10.877  70.176  1.00  0.00    -0.347 C  
BRANCH   6   7
HETATM    7  N   UNL     1     -12.246  10.906  68.766  1.00  0.00    -0.793 NA 
HETATM    8  H   UNL     1     -13.266  10.891  68.734  1.00  0.00     0.000 HD 
BRANCH   7   9
HETATM    9  C   UNL     1     -11.726  12.026  67.974  1.00  0.00    -0.331 C  
BRANCH   9  10
HETATM   10  C   UNL     1     -11.897  13.396  68.666  1.00  0.00    -0.362 C  
BRANCH  10  11
HETATM   11  N   UNL     1     -11.966  14.548  67.752  1.00  0.00    -0.545 NA 
HETATM   12  H   UNL     1     -12.610  15.252  68.113  1.00  0.00     0.000 HD 
BRANCH  11  13
HETATM   13  C   UNL     1     -10.642  15.163  67.439  1.00  0.00    -0.271 C  
BRANCH  13  14
HETATM   14  C   UNL     1     -10.335  15.206  65.926  1.00  0.00    -0.327 C  
HETATM   15  H   UNL     1     -11.386  14.548  63.518  1.00  0.00     0.000 H  
HETATM   16  S   UNL     1     -11.663  14.510  64.880  1.00  0.00    -0.419 SA 
ENDBRANCH  13  14
BRANCH  13  17
HETATM   17  C   UNL     1     -10.578  16.587  68.035  1.00  0.00    -0.328 C  
HETATM   18  O   UNL     1     -10.604  16.859  69.230  1.00  0.00    -0.336 OA 
BRANCH  17  19
HETATM   19  O   UNL     1     -10.477  17.510  67.033  1.00  0.00    -0.328 OA 
BRANCH  19  20
HETATM   20  C   UNL     1     -10.685  18.876  67.415  1.00  0.00    -0.444 C  
HETATM   21  C   UNL     1      -9.743  19.793  66.663  1.00  0.00    -0.519 C  
ENDBRANCH  19  20
ENDBRANCH  17  19
ENDBRANCH  13  17
ENDBRANCH  11  13
ENDBRANCH  10  11
ENDBRANCH   9  10
ENDBRANCH   7   9
ENDBRANCH   6   7
BRANCH   6  22
HETATM   22  C   UNL     1     -12.872  10.871  71.256  1.00  0.00    -0.433 C  
HETATM   23  H   UNL     1     -14.186  12.494  72.994  1.00  0.00     0.000 H  
HETATM   24  S   UNL     1     -13.194  12.499  72.021  1.00  0.00    -0.303 SA 
ENDBRANCH   6  22
ENDBRANCH   4   6
ENDBRANCH   3   4
ENDBRANCH   2   3
TORSDOF 13
ENDMDL
MODEL       72
REMARK 921   NORMALIZED FREE ENERGY PREDICTED BY IDOCK:   -4.25 KCAL/MOL
REMARK 922        TOTAL FREE ENERGY PREDICTED BY IDOCK:   -8.08 KCAL/MOL
REMARK 923 INTER-LIGAND FREE ENERGY PREDICTED BY IDOCK:   -7.05 KCAL/MOL
REMARK 924 INTRA-LIGAND FREE ENERGY PREDICTED BY IDOCK:   -1.03 KCAL/MOL
REMARK 927      BINDING AFFINITY PREDICTED BY RF-SCORE:    0.00 PKD
ROOT
HETATM    1  C   UNL     1      -8.658   8.701  67.535  1.00  0.00    -0.135 C  
HETATM    2  C   UNL     1     -10.113   8.872  67.152  1.00  0.00    -0.249 C  
ENDROOT
BRANCH   2   3
HETATM    3  O   UNL     1     -10.887   9.258  68.299  1.00  0.00    -0.179 OA 
BRANCH   3   4
HETATM    4  C   UNL     1     -11.334  10.547  68.306  1.00  0.00    -0.264 C  
HETATM    5  O   UNL     1     -11.840  11.124  67.351  1.00  0.00    -0.570 OA 
BRANCH   4   6
HETATM    6  C   UNL     1     -11.114  11.158  69.703  1.00  0.00    -0.232 C  
BRANCH   6   7
HETATM    7  N   UNL     1     -10.699  12.581  69.570  1.00  0.00    -0.410 NA 
HETATM    8  H   UNL     1     -10.224  12.731  68.679  1.00  0.00     0.000 HD 
BRANCH   7   9
HETATM    9  C   UNL     1     -11.788  13.549  69.738  1.00  0.00    -0.329 C  
BRANCH   9  10
HETATM   10  C   UNL     1     -11.970  14.484  68.521  1.00  0.00    -0.286 C  
BRANCH  10  11
HETATM   11  N   UNL     1     -11.507  13.929  67.238  1.00  0.00    -0.326 NA 
HETATM   12  H   UNL     1     -12.090  13.139  66.961  1.00  0.00     0.000 HD 
BRANCH  11  13
HETATM   13  C   UNL     1     -11.421  14.928  66.133  1.00  0.00    -0.272 C  
BRANCH  13  14
HETATM   14  C   UNL     1     -10.003  15.512  65.951  1.00  0.00    -0.349 C  
HETATM   15  H   UNL     1      -8.608  17.825  66.154  1.00  0.00     0.000 H  
HETATM   16  S   UNL     1      -9.885  17.300  66.318  1.00  0.00    -0.264 SA 
ENDBRANCH  13  14
BRANCH  13  17
HETATM   17  C   UNL     1     -11.905  14.286  64.814  1.00  0.00    -0.429 C  
HETATM   18  O   UNL     1     -12.464  14.879  63.898  1.00  0.00    -0.806 OA 
BRANCH  17  19
HETATM   19  O   UNL     1     -11.609  12.953  64.806  1.00  0.00    -0.308 OA 
BRANCH  19  20
HETATM   20  C   UNL     1     -10.615  12.537  63.860  1.00  0.00    -0.440 C  
HETATM   21  C   UNL     1     -10.247  11.084  64.073  1.00  0.00    -0.420 C  
ENDBRANCH  19  20
ENDBRANCH  17  19
ENDBRANCH  13  17
ENDBRANCH  11  13
ENDBRANCH  10  11
ENDBRANCH   9  10
ENDBRANCH   7   9
ENDBRANCH   6   7
BRANCH   6  22
HETATM   22  C   UNL     1     -12.363  10.901  70.570  1.00  0.00    -0.374 C  
HETATM   23  H   UNL     1     -13.400   9.163  72.383  1.00  0.00     0.000 H  
HETATM   24  S   UNL     1     -12.275   9.395  71.601  1.00  0.00    -0.408 SA 
ENDBRANCH   6  22
ENDBRANCH   4   6
ENDBRANCH   3   4
ENDBRANCH   2   3
TORSDOF 13
ENDMDL
MODEL       73
REMARK 921   NORMALIZED FREE ENERGY PREDICTED BY IDOCK:   -4.25 KCAL/MOL
REMARK 922        TOTAL FREE ENERGY PREDICTED BY IDOCK:   -8.08 KCAL/MOL
REMARK 923 INTER-LIGAND FREE ENERGY PREDICTED BY IDOCK:   -6.89 KCAL/MOL
REMARK 924 INTRA-LIGAND FREE ENERGY PREDICTED BY IDOCK:   -1.19 KCAL/MOL
REMARK 927      BINDING AFFINITY PREDICTED BY RF-SCORE:    0.00 PKD
ROOT
HETATM    1  C   UNL     1     -12.494  12.072  63.609  1.00  0.00    -0.637 C  
HETATM    2  C   UNL     1     -11.577  12.238  64.802  1.00  0.00    -0.337 C  
ENDROOT
BRANCH   2   3
HETATM    3  O   UNL     1     -12.348  12.371  66.006  1.00  0.00    -0.627 OA 
BRANCH   3   4
HETATM    4  C   UNL     1     -11.659  12.216  67.172  1.00  0.00    -0.335 C  
HETATM    5  O   UNL     1     -11.864  11.340  68.003  1.00  0.00    -0.578 OA 
BRANCH   4   6
HETATM    6  C   UNL     1     -10.576  13.307  67.278  1.00  0.00    -0.247 C  
BRANCH   6   7
HETATM    7  N   UNL     1     -11.129  14.499  67.977  1.00  0.00    -0.267 NA 
HETATM    8  H   UNL     1     -10.686  14.613  68.889  1.00  0.00     0.000 HD 
BRANCH   7   9
HETATM    9  C   UNL     1     -11.046  15.745  67.209  1.00  0.00    -0.211 C  
BRANCH   9  10
HETATM   10  C   UNL     1     -10.409  15.563  65.813  1.00  0.00    -0.363 C  
BRANCH  10  11
HETATM   11  N   UNL     1      -9.081  16.177  65.652  1.00  0.00    -0.366 NA 
HETATM   12  H   UNL     1      -9.114  16.919  64.952  1.00  0.00     0.000 HD 
BRANCH  11  13
HETATM   13  C   UNL     1      -8.482  16.685  66.922  1.00  0.00    -0.215 C  
BRANCH  13  14
HETATM   14  C   UNL     1      -7.323  15.806  67.441  1.00  0.00    -0.197 C  
HETATM   15  H   UNL     1      -6.230  14.853  69.728  1.00  0.00     0.000 H  
HETATM   16  S   UNL     1      -7.274  15.643  69.261  1.00  0.00    -0.209 SA 
ENDBRANCH  13  14
BRANCH  13  17
HETATM   17  C   UNL     1      -7.999  18.139  66.723  1.00  0.00    -0.240 C  
HETATM   18  O   UNL     1      -7.020  18.641  67.264  1.00  0.00    -0.202 OA 
BRANCH  17  19
HETATM   19  O   UNL     1      -8.816  18.788  65.843  1.00  0.00    -0.465 OA 
BRANCH  19  20
HETATM   20  C   UNL     1      -9.541  19.908  66.369  1.00  0.00    -0.431 C  
HETATM   21  C   UNL     1     -10.756  19.445  67.143  1.00  0.00    -0.593 C  
ENDBRANCH  19  20
ENDBRANCH  17  19
ENDBRANCH  13  17
ENDBRANCH  11  13
ENDBRANCH  10  11
ENDBRANCH   9  10
ENDBRANCH   7   9
ENDBRANCH   6   7
BRANCH   6  22
HETATM   22  C   UNL     1      -9.301  12.697  67.895  1.00  0.00    -0.204 C  
HETATM   23  H   UNL     1      -7.271  10.971  67.365  1.00  0.00     0.000 H  
HETATM   24  S   UNL     1      -8.420  11.521  66.809  1.00  0.00    -0.167 SA 
ENDBRANCH   6  22
ENDBRANCH   4   6
ENDBRANCH   3   4
ENDBRANCH   2   3
TORSDOF 13
ENDMDL
MODEL       74
REMARK 921   NORMALIZED FREE ENERGY PREDICTED BY IDOCK:   -4.25 KCAL/MOL
REMARK 922        TOTAL FREE ENERGY PREDICTED BY IDOCK:   -8.07 KCAL/MOL
REMARK 923 INTER-LIGAND FREE ENERGY PREDICTED BY IDOCK:   -7.22 KCAL/MOL
REMARK 924 INTRA-LIGAND FREE ENERGY PREDICTED BY IDOCK:   -0.85 KCAL/MOL
REMARK 927      BINDING AFFINITY PREDICTED BY RF-SCORE:    0.00 PKD
ROOT
HETATM    1  C   UNL     1     -10.872  15.587  66.852  1.00  0.00    -0.301 C  
HETATM    2  C   UNL     1     -10.927  14.652  65.663  1.00  0.00    -0.335 C  
ENDROOT
BRANCH   2   3
HETATM    3  O   UNL     1     -12.273  14.203  65.446  1.00  0.00    -0.395 OA 
BRANCH   3   4
HETATM    4  C   UNL     1     -12.424  12.864  65.232  1.00  0.00    -0.493 C  
HETATM    5  O   UNL     1     -13.300  12.353  64.545  1.00  0.00    -0.800 OA 
BRANCH   4   6
HETATM    6  C   UNL     1     -11.317  12.097  65.980  1.00  0.00    -0.358 C  
BRANCH   6   7
HETATM    7  N   UNL     1     -11.836  11.611  67.287  1.00  0.00    -0.626 NA 
HETATM    8  H   UNL     1     -11.804  10.592  67.326  1.00  0.00     0.000 HD 
BRANCH   7   9
HETATM    9  C   UNL     1     -11.167  12.189  68.457  1.00  0.00    -0.260 C  
BRANCH   9  10
HETATM   10  C   UNL     1     -11.675  11.615  69.799  1.00  0.00    -0.352 C  
BRANCH  10  11
HETATM   11  N   UNL     1     -10.828  10.563  70.383  1.00  0.00    -0.447 NA 
HETATM   12  H   UNL     1     -10.609  10.780  71.356  1.00  0.00     0.000 HD 
BRANCH  11  13
HETATM   13  C   UNL     1     -11.394   9.186  70.270  1.00  0.00    -0.188 C  
BRANCH  13  14
HETATM   14  C   UNL     1     -10.392   8.163  69.690  1.00  0.00    -0.221 C  
HETATM   15  H   UNL     1      -8.279   7.969  68.006  1.00  0.00     0.000 H  
HETATM   16  S   UNL     1      -9.180   8.889  68.529  1.00  0.00    -0.136 SA 
ENDBRANCH  13  14
BRANCH  13  17
HETATM   17  C   UNL     1     -11.891   8.714  71.655  1.00  0.00    -0.323 C  
HETATM   18  O   UNL     1     -12.674   9.325  72.373  1.00  0.00    -0.370 OA 
BRANCH  17  19
HETATM   19  O   UNL     1     -11.340   7.504  71.964  1.00  0.00    -0.254 OA 
BRANCH  19  20
HETATM   20  C   UNL     1     -10.825   7.370  73.295  1.00  0.00    -0.368 C  
HETATM   21  C   UNL     1      -9.405   7.888  73.376  1.00  0.00    -0.348 C  
ENDBRANCH  19  20
ENDBRANCH  17  19
ENDBRANCH  13  17
ENDBRANCH  11  13
ENDBRANCH  10  11
ENDBRANCH   9  10
ENDBRANCH   7   9
ENDBRANCH   6   7
BRANCH   6  22
HETATM   22  C   UNL     1     -10.730  11.017  65.047  1.00  0.00    -0.194 C  
HETATM   23  H   UNL     1      -9.550  10.683  62.623  1.00  0.00     0.000 H  
HETATM   24  S   UNL     1     -10.079  11.655  63.464  1.00  0.00    -0.455 SA 
ENDBRANCH   6  22
ENDBRANCH   4   6
ENDBRANCH   3   4
ENDBRANCH   2   3
TORSDOF 13
ENDMDL
MODEL       75
REMARK 921   NORMALIZED FREE ENERGY PREDICTED BY IDOCK:   -4.25 KCAL/MOL
REMARK 922        TOTAL FREE ENERGY PREDICTED BY IDOCK:   -8.07 KCAL/MOL
REMARK 923 INTER-LIGAND FREE ENERGY PREDICTED BY IDOCK:   -6.79 KCAL/MOL
REMARK 924 INTRA-LIGAND FREE ENERGY PREDICTED BY IDOCK:   -1.28 KCAL/MOL
REMARK 927      BINDING AFFINITY PREDICTED BY RF-SCORE:    0.00 PKD
ROOT
HETATM    1  C   UNL     1     -11.731  12.524  64.235  1.00  0.00    -0.450 C  
HETATM    2  C   UNL     1     -12.384  12.873  65.555  1.00  0.00    -0.461 C  
ENDROOT
BRANCH   2   3
HETATM    3  O   UNL     1     -11.407  12.881  66.607  1.00  0.00    -0.288 OA 
BRANCH   3   4
HETATM    4  C   UNL     1     -11.741  12.188  67.733  1.00  0.00    -0.320 C  
HETATM    5  O   UNL     1     -11.979  10.987  67.779  1.00  0.00    -0.609 OA 
BRANCH   4   6
HETATM    6  C   UNL     1     -11.763  13.148  68.938  1.00  0.00    -0.326 C  
BRANCH   6   7
HETATM    7  N   UNL     1     -11.558  12.380  70.196  1.00  0.00    -0.539 NA 
HETATM    8  H   UNL     1     -10.705  12.688  70.665  1.00  0.00     0.000 HD 
BRANCH   7   9
HETATM    9  C   UNL     1     -12.694  12.421  71.123  1.00  0.00    -0.240 C  
BRANCH   9  10
HETATM   10  C   UNL     1     -13.237  11.021  71.487  1.00  0.00    -0.299 C  
BRANCH  10  11
HETATM   11  N   UNL     1     -12.571   9.900  70.804  1.00  0.00    -0.471 NA 
HETATM   12  H   UNL     1     -12.048  10.236  69.994  1.00  0.00     0.000 HD 
BRANCH  11  13
HETATM   13  C   UNL     1     -11.692   9.078  71.688  1.00  0.00    -0.361 C  
BRANCH  13  14
HETATM   14  C   UNL     1     -12.001   7.567  71.614  1.00  0.00    -0.302 C  
HETATM   15  H   UNL     1     -11.620   5.387  70.050  1.00  0.00     0.000 H  
HETATM   16  S   UNL     1     -11.343   6.748  70.117  1.00  0.00    -0.347 SA 
ENDBRANCH  13  14
BRANCH  13  17
HETATM   17  C   UNL     1     -10.211   9.336  71.333  1.00  0.00    -0.301 C  
HETATM   18  O   UNL     1      -9.810   9.868  70.304  1.00  0.00    -0.253 OA 
BRANCH  17  19
HETATM   19  O   UNL     1      -9.404   8.893  72.341  1.00  0.00    -0.342 OA 
BRANCH  19  20
HETATM   20  C   UNL     1      -8.208   8.216  71.935  1.00  0.00    -0.141 C  
HETATM   21  C   UNL     1      -7.304   7.964  73.124  1.00  0.00    -0.135 C  
ENDBRANCH  19  20
ENDBRANCH  17  19
ENDBRANCH  13  17
ENDBRANCH  11  13
ENDBRANCH  10  11
ENDBRANCH   9  10
ENDBRANCH   7   9
ENDBRANCH   6   7
BRANCH   6  22
HETATM   22  C   UNL     1     -10.771  14.302  68.685  1.00  0.00    -0.249 C  
HETATM   23  H   UNL     1     -10.377  16.944  69.179  1.00  0.00     0.000 H  
HETATM   24  S   UNL     1     -11.270  15.904  69.407  1.00  0.00    -0.359 SA 
ENDBRANCH   6  22
ENDBRANCH   4   6
ENDBRANCH   3   4
ENDBRANCH   2   3
TORSDOF 13
ENDMDL
MODEL       76
REMARK 921   NORMALIZED FREE ENERGY PREDICTED BY IDOCK:   -4.24 KCAL/MOL
REMARK 922        TOTAL FREE ENERGY PREDICTED BY IDOCK:   -8.05 KCAL/MOL
REMARK 923 INTER-LIGAND FREE ENERGY PREDICTED BY IDOCK:   -6.97 KCAL/MOL
REMARK 924 INTRA-LIGAND FREE ENERGY PREDICTED BY IDOCK:   -1.08 KCAL/MOL
REMARK 927      BINDING AFFINITY PREDICTED BY RF-SCORE:    0.00 PKD
ROOT
HETATM    1  C   UNL     1     -13.260  13.662  71.459  1.00  0.00    -0.409 C  
HETATM    2  C   UNL     1     -13.439  12.257  71.995  1.00  0.00    -0.316 C  
ENDROOT
BRANCH   2   3
HETATM    3  O   UNL     1     -12.801  11.309  71.127  1.00  0.00    -0.376 OA 
BRANCH   3   4
HETATM    4  C   UNL     1     -12.820  10.012  71.548  1.00  0.00    -0.432 C  
HETATM    5  O   UNL     1     -13.593   9.550  72.378  1.00  0.00    -0.452 OA 
BRANCH   4   6
HETATM    6  C   UNL     1     -11.724   9.217  70.812  1.00  0.00    -0.256 C  
BRANCH   6   7
HETATM    7  N   UNL     1     -10.643  10.140  70.371  1.00  0.00    -0.395 NA 
HETATM    8  H   UNL     1      -9.925  10.216  71.093  1.00  0.00     0.000 HD 
BRANCH   7   9
HETATM    9  C   UNL     1     -10.037   9.792  69.082  1.00  0.00    -0.192 C  
BRANCH   9  10
HETATM   10  C   UNL     1     -10.520  10.684  67.917  1.00  0.00    -0.208 C  
BRANCH  10  11
HETATM   11  N   UNL     1     -11.791  11.386  68.161  1.00  0.00    -0.589 NA 
HETATM   12  H   UNL     1     -12.132  11.191  69.102  1.00  0.00     0.000 HD 
BRANCH  11  13
HETATM   13  C   UNL     1     -11.734  12.859  67.922  1.00  0.00    -0.357 C  
BRANCH  13  14
HETATM   14  C   UNL     1     -10.462  13.519  68.496  1.00  0.00    -0.244 C  
HETATM   15  H   UNL     1      -9.577  15.815  69.630  1.00  0.00     0.000 H  
HETATM   16  S   UNL     1     -10.723  15.220  69.113  1.00  0.00    -0.265 SA 
ENDBRANCH  13  14
BRANCH  13  17
HETATM   17  C   UNL     1     -11.842  13.143  66.407  1.00  0.00    -0.400 C  
HETATM   18  O   UNL     1     -12.731  12.732  65.669  1.00  0.00    -0.549 OA 
BRANCH  17  19
HETATM   19  O   UNL     1     -10.805  13.934  66.004  1.00  0.00    -0.287 OA 
BRANCH  19  20
HETATM   20  C   UNL     1     -11.140  14.998  65.103  1.00  0.00    -0.401 C  
HETATM   21  C   UNL     1     -10.287  16.219  65.375  1.00  0.00    -0.320 C  
ENDBRANCH  19  20
ENDBRANCH  17  19
ENDBRANCH  13  17
ENDBRANCH  11  13
ENDBRANCH  10  11
ENDBRANCH   9  10
ENDBRANCH   7   9
ENDBRANCH   6   7
BRANCH   6  22
HETATM   22  C   UNL     1     -11.279   8.032  71.693  1.00  0.00    -0.255 C  
HETATM   23  H   UNL     1      -9.346   7.258  73.437  1.00  0.00     0.000 H  
HETATM   24  S   UNL     1      -9.747   8.326  72.643  1.00  0.00    -0.268 SA 
ENDBRANCH   6  22
ENDBRANCH   4   6
ENDBRANCH   3   4
ENDBRANCH   2   3
TORSDOF 13
ENDMDL
MODEL       77
REMARK 921   NORMALIZED FREE ENERGY PREDICTED BY IDOCK:   -4.24 KCAL/MOL
REMARK 922        TOTAL FREE ENERGY PREDICTED BY IDOCK:   -8.05 KCAL/MOL
REMARK 923 INTER-LIGAND FREE ENERGY PREDICTED BY IDOCK:   -7.38 KCAL/MOL
REMARK 924 INTRA-LIGAND FREE ENERGY PREDICTED BY IDOCK:   -0.67 KCAL/MOL
REMARK 927      BINDING AFFINITY PREDICTED BY RF-SCORE:    0.00 PKD
ROOT
HETATM    1  C   UNL     1     -12.659   8.809  71.861  1.00  0.00    -0.428 C  
HETATM    2  C   UNL     1     -13.360  10.150  71.825  1.00  0.00    -0.385 C  
ENDROOT
BRANCH   2   3
HETATM    3  O   UNL     1     -12.479  11.158  71.308  1.00  0.00    -0.376 OA 
BRANCH   3   4
HETATM    4  C   UNL     1     -12.859  12.449  71.530  1.00  0.00    -0.274 C  
HETATM    5  O   UNL     1     -13.626  12.818  72.411  1.00  0.00    -0.565 OA 
BRANCH   4   6
HETATM    6  C   UNL     1     -12.165  13.371  70.510  1.00  0.00    -0.352 C  
BRANCH   6   7
HETATM    7  N   UNL     1     -12.190  12.740  69.162  1.00  0.00    -0.123 NA 
HETATM    8  H   UNL     1     -12.770  13.287  68.524  1.00  0.00     0.000 HD 
BRANCH   7   9
HETATM    9  C   UNL     1     -10.866  12.507  68.577  1.00  0.00    -0.243 C  
BRANCH   9  10
HETATM   10  C   UNL     1     -10.105  13.810  68.245  1.00  0.00    -0.239 C  
BRANCH  10  11
HETATM   11  N   UNL     1     -10.837  14.753  67.384  1.00  0.00    -0.292 NA 
HETATM   12  H   UNL     1     -11.021  15.623  67.884  1.00  0.00     0.000 HD 
BRANCH  11  13
HETATM   13  C   UNL     1     -10.173  15.034  66.077  1.00  0.00    -0.301 C  
BRANCH  13  14
HETATM   14  C   UNL     1     -11.126  14.897  64.869  1.00  0.00    -0.414 C  
HETATM   15  H   UNL     1     -13.434  13.705  64.099  1.00  0.00     0.000 H  
HETATM   16  S   UNL     1     -12.576  13.829  65.186  1.00  0.00    -0.402 SA 
ENDBRANCH  13  14
BRANCH  13  17
HETATM   17  C   UNL     1      -9.549  16.447  66.104  1.00  0.00    -0.325 C  
HETATM   18  O   UNL     1      -8.401  16.722  65.775  1.00  0.00    -0.434 OA 
BRANCH  17  19
HETATM   19  O   UNL     1     -10.470  17.356  66.540  1.00  0.00    -0.321 OA 
BRANCH  19  20
HETATM   20  C   UNL     1     -10.145  18.734  66.315  1.00  0.00    -0.409 C  
HETATM   21  C   UNL     1     -10.457  19.566  67.541  1.00  0.00    -0.596 C  
ENDBRANCH  19  20
ENDBRANCH  17  19
ENDBRANCH  13  17
ENDBRANCH  11  13
ENDBRANCH  10  11
ENDBRANCH   9  10
ENDBRANCH   7   9
ENDBRANCH   6   7
BRANCH   6  22
HETATM   22  C   UNL     1     -12.780  14.783  70.603  1.00  0.00    -0.358 C  
HETATM   23  H   UNL     1     -12.564  17.137  71.942  1.00  0.00     0.000 H  
HETATM   24  S   UNL     1     -12.011  15.865  71.858  1.00  0.00    -0.545 SA 
ENDBRANCH   6  22
ENDBRANCH   4   6
ENDBRANCH   3   4
ENDBRANCH   2   3
TORSDOF 13
ENDMDL
MODEL       78
REMARK 921   NORMALIZED FREE ENERGY PREDICTED BY IDOCK:   -4.24 KCAL/MOL
REMARK 922        TOTAL FREE ENERGY PREDICTED BY IDOCK:   -8.05 KCAL/MOL
REMARK 923 INTER-LIGAND FREE ENERGY PREDICTED BY IDOCK:   -7.00 KCAL/MOL
REMARK 924 INTRA-LIGAND FREE ENERGY PREDICTED BY IDOCK:   -1.05 KCAL/MOL
REMARK 927      BINDING AFFINITY PREDICTED BY RF-SCORE:    0.00 PKD
ROOT
HETATM    1  C   UNL     1     -11.865  12.165  69.002  1.00  0.00    -0.361 C  
HETATM    2  C   UNL     1     -11.790  13.133  67.841  1.00  0.00    -0.348 C  
ENDROOT
BRANCH   2   3
HETATM    3  O   UNL     1     -12.080  12.455  66.609  1.00  0.00    -0.592 OA 
BRANCH   3   4
HETATM    4  C   UNL     1     -12.131  13.242  65.496  1.00  0.00    -0.435 C  
HETATM    5  O   UNL     1     -13.151  13.545  64.891  1.00  0.00    -0.718 OA 
BRANCH   4   6
HETATM    6  C   UNL     1     -10.707  13.699  65.126  1.00  0.00    -0.353 C  
BRANCH   6   7
HETATM    7  N   UNL     1     -10.283  13.046  63.857  1.00  0.00    -0.713 NA 
HETATM    8  H   UNL     1      -9.306  13.262  63.655  1.00  0.00     0.000 HD 
BRANCH   7   9
HETATM    9  C   UNL     1     -10.506  11.598  63.816  1.00  0.00    -0.402 C  
BRANCH   9  10
HETATM   10  C   UNL     1      -9.512  10.800  64.689  1.00  0.00    -0.251 C  
BRANCH  10  11
HETATM   11  N   UNL     1     -10.111  10.124  65.851  1.00  0.00    -0.265 NA 
HETATM   12  H   UNL     1     -11.125  10.237  65.846  1.00  0.00     0.000 HD 
BRANCH  11  13
HETATM   13  C   UNL     1      -9.748   8.681  65.976  1.00  0.00    -0.168 C  
BRANCH  13  14
HETATM   14  C   UNL     1      -8.239   8.453  66.213  1.00  0.00    -0.111 C  
HETATM   15  H   UNL     1      -6.292   6.594  65.911  1.00  0.00     0.000 H  
HETATM   16  S   UNL     1      -7.650   6.800  65.698  1.00  0.00    -0.095 SA 
ENDBRANCH  13  14
BRANCH  13  17
HETATM   17  C   UNL     1     -10.568   8.036  67.115  1.00  0.00    -0.297 C  
HETATM   18  O   UNL     1     -11.065   6.916  67.086  1.00  0.00    -0.370 OA 
BRANCH  17  19
HETATM   19  O   UNL     1     -10.653   8.894  68.175  1.00  0.00    -0.214 OA 
BRANCH  19  20
HETATM   20  C   UNL     1     -10.372   8.330  69.462  1.00  0.00    -0.219 C  
HETATM   21  C   UNL     1      -9.703   9.349  70.360  1.00  0.00    -0.315 C  
ENDBRANCH  19  20
ENDBRANCH  17  19
ENDBRANCH  13  17
ENDBRANCH  11  13
ENDBRANCH  10  11
ENDBRANCH   9  10
ENDBRANCH   7   9
ENDBRANCH   6   7
BRANCH   6  22
HETATM   22  C   UNL     1     -10.649  15.240  65.141  1.00  0.00    -0.430 C  
HETATM   23  H   UNL     1      -9.217  17.327  66.129  1.00  0.00     0.000 H  
HETATM   24  S   UNL     1      -9.270  15.938  66.115  1.00  0.00    -0.346 SA 
ENDBRANCH   6  22
ENDBRANCH   4   6
ENDBRANCH   3   4
ENDBRANCH   2   3
TORSDOF 13
ENDMDL
MODEL       79
REMARK 921   NORMALIZED FREE ENERGY PREDICTED BY IDOCK:   -4.24 KCAL/MOL
REMARK 922        TOTAL FREE ENERGY PREDICTED BY IDOCK:   -8.05 KCAL/MOL
REMARK 923 INTER-LIGAND FREE ENERGY PREDICTED BY IDOCK:   -7.17 KCAL/MOL
REMARK 924 INTRA-LIGAND FREE ENERGY PREDICTED BY IDOCK:   -0.88 KCAL/MOL
REMARK 927      BINDING AFFINITY PREDICTED BY RF-SCORE:    0.00 PKD
ROOT
HETATM    1  C   UNL     1     -12.982  10.662  71.480  1.00  0.00    -0.566 C  
HETATM    2  C   UNL     1     -13.151   9.372  72.254  1.00  0.00    -0.428 C  
ENDROOT
BRANCH   2   3
HETATM    3  O   UNL     1     -11.911   8.651  72.297  1.00  0.00    -0.367 OA 
BRANCH   3   4
HETATM    4  C   UNL     1     -11.892   7.463  71.629  1.00  0.00    -0.291 C  
HETATM    5  O   UNL     1     -12.664   6.532  71.821  1.00  0.00    -0.320 OA 
BRANCH   4   6
HETATM    6  C   UNL     1     -10.755   7.476  70.589  1.00  0.00    -0.230 C  
BRANCH   6   7
HETATM    7  N   UNL     1     -11.200   8.199  69.366  1.00  0.00    -0.426 NA 
HETATM    8  H   UNL     1     -12.178   8.478  69.454  1.00  0.00     0.000 HD 
BRANCH   7   9
HETATM    9  C   UNL     1     -10.370   9.352  69.006  1.00  0.00    -0.210 C  
BRANCH   9  10
HETATM   10  C   UNL     1     -10.782  10.012  67.672  1.00  0.00    -0.284 C  
BRANCH  10  11
HETATM   11  N   UNL     1     -11.795  11.073  67.792  1.00  0.00    -0.668 NA 
HETATM   12  H   UNL     1     -12.217  11.060  68.721  1.00  0.00     0.000 HD 
BRANCH  11  13
HETATM   13  C   UNL     1     -11.293  12.441  67.466  1.00  0.00    -0.315 C  
BRANCH  13  14
HETATM   14  C   UNL     1      -9.797  12.463  67.082  1.00  0.00    -0.205 C  
HETATM   15  H   UNL     1      -7.655  14.116  66.948  1.00  0.00     0.000 H  
HETATM   16  S   UNL     1      -9.002  14.096  67.293  1.00  0.00    -0.223 SA 
ENDBRANCH  13  14
BRANCH  13  17
HETATM   17  C   UNL     1     -12.142  13.048  66.327  1.00  0.00    -0.386 C  
HETATM   18  O   UNL     1     -12.532  14.209  66.274  1.00  0.00    -0.466 OA 
BRANCH  17  19
HETATM   19  O   UNL     1     -12.389  12.103  65.372  1.00  0.00    -0.533 OA 
BRANCH  19  20
HETATM   20  C   UNL     1     -12.122  12.494  64.019  1.00  0.00    -0.473 C  
HETATM   21  C   UNL     1     -10.938  11.732  63.464  1.00  0.00    -0.499 C  
ENDBRANCH  19  20
ENDBRANCH  17  19
ENDBRANCH  13  17
ENDBRANCH  11  13
ENDBRANCH  10  11
ENDBRANCH   9  10
ENDBRANCH   7   9
ENDBRANCH   6   7
BRANCH   6  22
HETATM   22  C   UNL     1      -9.468   8.008  71.252  1.00  0.00    -0.157 C  
HETATM   23  H   UNL     1      -7.497   7.308  72.985  1.00  0.00     0.000 H  
HETATM   24  S   UNL     1      -8.656   6.830  72.387  1.00  0.00    -0.122 SA 
ENDBRANCH   6  22
ENDBRANCH   4   6
ENDBRANCH   3   4
ENDBRANCH   2   3
TORSDOF 13
ENDMDL
MODEL       80
REMARK 921   NORMALIZED FREE ENERGY PREDICTED BY IDOCK:   -4.23 KCAL/MOL
REMARK 922        TOTAL FREE ENERGY PREDICTED BY IDOCK:   -8.04 KCAL/MOL
REMARK 923 INTER-LIGAND FREE ENERGY PREDICTED BY IDOCK:   -7.38 KCAL/MOL
REMARK 924 INTRA-LIGAND FREE ENERGY PREDICTED BY IDOCK:   -0.65 KCAL/MOL
REMARK 927      BINDING AFFINITY PREDICTED BY RF-SCORE:    0.00 PKD
ROOT
HETATM    1  C   UNL     1     -11.072   6.246  69.053  1.00  0.00    -0.446 C  
HETATM    2  C   UNL     1     -11.394   7.165  70.212  1.00  0.00    -0.269 C  
ENDROOT
BRANCH   2   3
HETATM    3  O   UNL     1     -11.102   8.527  69.863  1.00  0.00    -0.218 OA 
BRANCH   3   4
HETATM    4  C   UNL     1     -10.957   9.389  70.909  1.00  0.00    -0.320 C  
HETATM    5  O   UNL     1     -10.253   9.195  71.892  1.00  0.00    -0.332 OA 
BRANCH   4   6
HETATM    6  C   UNL     1     -11.808  10.649  70.658  1.00  0.00    -0.363 C  
BRANCH   6   7
HETATM    7  N   UNL     1     -12.333  10.631  69.265  1.00  0.00    -0.717 NA 
HETATM    8  H   UNL     1     -13.353  10.678  69.269  1.00  0.00     0.000 HD 
BRANCH   7   9
HETATM    9  C   UNL     1     -11.777  11.672  68.394  1.00  0.00    -0.307 C  
BRANCH   9  10
HETATM   10  C   UNL     1     -11.553  13.019  69.116  1.00  0.00    -0.316 C  
BRANCH  10  11
HETATM   11  N   UNL     1     -12.218  14.175  68.492  1.00  0.00    -0.561 NA 
HETATM   12  H   UNL     1     -13.231  14.059  68.515  1.00  0.00     0.000 HD 
BRANCH  11  13
HETATM   13  C   UNL     1     -11.830  15.494  69.073  1.00  0.00    -0.354 C  
BRANCH  13  14
HETATM   14  C   UNL     1     -10.978  15.365  70.356  1.00  0.00    -0.323 C  
HETATM   15  H   UNL     1     -11.042  15.870  73.016  1.00  0.00     0.000 H  
HETATM   16  S   UNL     1     -11.809  15.985  71.862  1.00  0.00    -0.538 SA 
ENDBRANCH  13  14
BRANCH  13  17
HETATM   17  C   UNL     1     -11.073  16.326  68.015  1.00  0.00    -0.299 C  
HETATM   18  O   UNL     1     -10.691  17.481  68.160  1.00  0.00    -0.381 OA 
BRANCH  17  19
HETATM   19  O   UNL     1     -10.877  15.582  66.886  1.00  0.00    -0.314 OA 
BRANCH  19  20
HETATM   20  C   UNL     1      -9.714  15.907  66.114  1.00  0.00    -0.321 C  
HETATM   21  C   UNL     1      -8.466  15.343  66.759  1.00  0.00    -0.307 C  
ENDBRANCH  19  20
ENDBRANCH  17  19
ENDBRANCH  13  17
ENDBRANCH  11  13
ENDBRANCH  10  11
ENDBRANCH   9  10
ENDBRANCH   7   9
ENDBRANCH   6   7
BRANCH   6  22
HETATM   22  C   UNL     1     -12.866  10.777  71.773  1.00  0.00    -0.423 C  
HETATM   23  H   UNL     1     -14.292  12.611  73.182  1.00  0.00     0.000 H  
HETATM   24  S   UNL     1     -13.339  12.495  72.177  1.00  0.00    -0.275 SA 
ENDBRANCH   6  22
ENDBRANCH   4   6
ENDBRANCH   3   4
ENDBRANCH   2   3
TORSDOF 13
ENDMDL
MODEL       81
REMARK 921   NORMALIZED FREE ENERGY PREDICTED BY IDOCK:   -4.22 KCAL/MOL
REMARK 922        TOTAL FREE ENERGY PREDICTED BY IDOCK:   -8.02 KCAL/MOL
REMARK 923 INTER-LIGAND FREE ENERGY PREDICTED BY IDOCK:   -6.84 KCAL/MOL
REMARK 924 INTRA-LIGAND FREE ENERGY PREDICTED BY IDOCK:   -1.18 KCAL/MOL
REMARK 927      BINDING AFFINITY PREDICTED BY RF-SCORE:    0.00 PKD
ROOT
HETATM    1  C   UNL     1     -10.909  19.511  67.085  1.00  0.00    -0.555 C  
HETATM    2  C   UNL     1      -9.627  19.734  66.312  1.00  0.00    -0.423 C  
ENDROOT
BRANCH   2   3
HETATM    3  O   UNL     1      -8.506  19.228  67.053  1.00  0.00    -0.271 OA 
BRANCH   3   4
HETATM    4  C   UNL     1      -8.239  17.901  66.892  1.00  0.00    -0.237 C  
HETATM    5  O   UNL     1      -8.007  17.351  65.823  1.00  0.00    -0.538 OA 
BRANCH   4   6
HETATM    6  C   UNL     1      -8.265  17.203  68.266  1.00  0.00    -0.230 C  
BRANCH   6   7
HETATM    7  N   UNL     1      -9.246  16.084  68.244  1.00  0.00    -0.189 NA 
HETATM    8  H   UNL     1      -8.784  15.201  68.466  1.00  0.00     0.000 HD 
BRANCH   7   9
HETATM    9  C   UNL     1     -10.412  16.283  69.109  1.00  0.00    -0.280 C  
BRANCH   9  10
HETATM   10  C   UNL     1     -11.746  15.883  68.441  1.00  0.00    -0.241 C  
BRANCH  10  11
HETATM   11  N   UNL     1     -12.294  14.588  68.875  1.00  0.00    -0.582 NA 
HETATM   12  H   UNL     1     -13.238  14.459  68.509  1.00  0.00     0.000 HD 
BRANCH  11  13
HETATM   13  C   UNL     1     -11.437  13.414  68.536  1.00  0.00    -0.310 C  
BRANCH  13  14
HETATM   14  C   UNL     1     -11.847  12.126  69.283  1.00  0.00    -0.313 C  
HETATM   15  H   UNL     1     -10.985   9.619  69.840  1.00  0.00     0.000 H  
HETATM   16  S   UNL     1     -10.616  10.778  69.168  1.00  0.00    -0.230 SA 
ENDBRANCH  13  14
BRANCH  13  17
HETATM   17  C   UNL     1     -11.466  13.174  67.010  1.00  0.00    -0.336 C  
HETATM   18  O   UNL     1     -12.349  12.581  66.401  1.00  0.00    -0.537 OA 
BRANCH  17  19
HETATM   19  O   UNL     1     -10.363  13.731  66.427  1.00  0.00    -0.279 OA 
BRANCH  19  20
HETATM   20  C   UNL     1     -10.495  14.082  65.044  1.00  0.00    -0.420 C  
HETATM   21  C   UNL     1     -10.950  15.518  64.896  1.00  0.00    -0.452 C  
ENDBRANCH  19  20
ENDBRANCH  17  19
ENDBRANCH  13  17
ENDBRANCH  11  13
ENDBRANCH  10  11
ENDBRANCH   9  10
ENDBRANCH   7   9
ENDBRANCH   6   7
BRANCH   6  22
HETATM   22  C   UNL     1      -6.825  16.826  68.670  1.00  0.00    -0.175 C  
HETATM   23  H   UNL     1      -4.497  17.897  69.573  1.00  0.00     0.000 H  
HETATM   24  S   UNL     1      -5.794  18.235  69.209  1.00  0.00    -0.244 SA 
ENDBRANCH   6  22
ENDBRANCH   4   6
ENDBRANCH   3   4
ENDBRANCH   2   3
TORSDOF 13
ENDMDL
MODEL       82
REMARK 921   NORMALIZED FREE ENERGY PREDICTED BY IDOCK:   -4.21 KCAL/MOL
REMARK 922        TOTAL FREE ENERGY PREDICTED BY IDOCK:   -8.01 KCAL/MOL
REMARK 923 INTER-LIGAND FREE ENERGY PREDICTED BY IDOCK:   -7.23 KCAL/MOL
REMARK 924 INTRA-LIGAND FREE ENERGY PREDICTED BY IDOCK:   -0.77 KCAL/MOL
REMARK 927      BINDING AFFINITY PREDICTED BY RF-SCORE:    0.00 PKD
ROOT
HETATM    1  C   UNL     1     -11.289   7.852  72.726  1.00  0.00    -0.453 C  
HETATM    2  C   UNL     1     -12.266   8.872  72.180  1.00  0.00    -0.367 C  
ENDROOT
BRANCH   2   3
HETATM    3  O   UNL     1     -11.561   9.914  71.488  1.00  0.00    -0.373 OA 
BRANCH   3   4
HETATM    4  C   UNL     1     -12.297  11.016  71.166  1.00  0.00    -0.359 C  
HETATM    5  O   UNL     1     -13.200  11.485  71.847  1.00  0.00    -0.485 OA 
BRANCH   4   6
HETATM    6  C   UNL     1     -11.809  11.583  69.819  1.00  0.00    -0.357 C  
BRANCH   6   7
HETATM    7  N   UNL     1     -11.422  13.011  69.985  1.00  0.00    -0.522 NA 
HETATM    8  H   UNL     1     -10.445  13.147  69.722  1.00  0.00     0.000 HD 
BRANCH   7   9
HETATM    9  C   UNL     1     -12.282  13.959  69.270  1.00  0.00    -0.277 C  
BRANCH   9  10
HETATM   10  C   UNL     1     -12.025  13.991  67.747  1.00  0.00    -0.357 C  
BRANCH  10  11
HETATM   11  N   UNL     1     -10.713  14.529  67.350  1.00  0.00    -0.278 NA 
HETATM   12  H   UNL     1     -10.622  14.532  66.334  1.00  0.00     0.000 HD 
BRANCH  11  13
HETATM   13  C   UNL     1     -10.411  15.881  67.906  1.00  0.00    -0.288 C  
BRANCH  13  14
HETATM   14  C   UNL     1      -9.120  15.914  68.754  1.00  0.00    -0.219 C  
HETATM   15  H   UNL     1      -6.864  14.502  69.258  1.00  0.00     0.000 H  
HETATM   16  S   UNL     1      -8.026  14.472  68.495  1.00  0.00    -0.147 SA 
ENDBRANCH  13  14
BRANCH  13  17
HETATM   17  C   UNL     1     -10.317  16.906  66.755  1.00  0.00    -0.298 C  
HETATM   18  O   UNL     1      -9.868  16.679  65.637  1.00  0.00    -0.528 OA 
BRANCH  17  19
HETATM   19  O   UNL     1     -10.819  18.110  67.158  1.00  0.00    -0.333 OA 
BRANCH  19  20
HETATM   20  C   UNL     1     -10.431  19.246  66.374  1.00  0.00    -0.474 C  
HETATM   21  C   UNL     1      -9.889  20.349  67.259  1.00  0.00    -0.597 C  
ENDBRANCH  19  20
ENDBRANCH  17  19
ENDBRANCH  13  17
ENDBRANCH  11  13
ENDBRANCH  10  11
ENDBRANCH   9  10
ENDBRANCH   7   9
ENDBRANCH   6   7
BRANCH   6  22
HETATM   22  C   UNL     1     -10.721  10.654  69.242  1.00  0.00    -0.238 C  
HETATM   23  H   UNL     1      -9.776   9.646  66.903  1.00  0.00     0.000 H  
HETATM   24  S   UNL     1     -10.756  10.483  67.424  1.00  0.00    -0.285 SA 
ENDBRANCH   6  22
ENDBRANCH   4   6
ENDBRANCH   3   4
ENDBRANCH   2   3
TORSDOF 13
ENDMDL
MODEL       83
REMARK 921   NORMALIZED FREE ENERGY PREDICTED BY IDOCK:   -4.21 KCAL/MOL
REMARK 922        TOTAL FREE ENERGY PREDICTED BY IDOCK:   -8.00 KCAL/MOL
REMARK 923 INTER-LIGAND FREE ENERGY PREDICTED BY IDOCK:   -7.08 KCAL/MOL
REMARK 924 INTRA-LIGAND FREE ENERGY PREDICTED BY IDOCK:   -0.92 KCAL/MOL
REMARK 927      BINDING AFFINITY PREDICTED BY RF-SCORE:    0.00 PKD
ROOT
HETATM    1  C   UNL     1     -12.286  15.143  70.404  1.00  0.00    -0.391 C  
HETATM    2  C   UNL     1     -11.086  15.831  69.788  1.00  0.00    -0.322 C  
ENDROOT
BRANCH   2   3
HETATM    3  O   UNL     1     -11.399  16.282  68.461  1.00  0.00    -0.367 OA 
BRANCH   3   4
HETATM    4  C   UNL     1     -10.532  17.187  67.923  1.00  0.00    -0.369 C  
HETATM    5  O   UNL     1     -10.625  18.404  68.029  1.00  0.00    -0.381 OA 
BRANCH   4   6
HETATM    6  C   UNL     1      -9.414  16.441  67.170  1.00  0.00    -0.231 C  
BRANCH   6   7
HETATM    7  N   UNL     1      -9.676  16.488  65.705  1.00  0.00    -0.534 NA 
HETATM    8  H   UNL     1      -8.848  16.818  65.207  1.00  0.00     0.000 HD 
BRANCH   7   9
HETATM    9  C   UNL     1     -10.147  15.223  65.133  1.00  0.00    -0.288 C  
BRANCH   9  10
HETATM   10  C   UNL     1     -11.647  14.957  65.389  1.00  0.00    -0.280 C  
BRANCH  10  11
HETATM   11  N   UNL     1     -11.934  13.780  66.226  1.00  0.00    -0.403 NA 
HETATM   12  H   UNL     1     -12.940  13.670  66.353  1.00  0.00     0.000 HD 
BRANCH  11  13
HETATM   13  C   UNL     1     -11.329  12.510  65.727  1.00  0.00    -0.336 C  
BRANCH  13  14
HETATM   14  C   UNL     1     -11.238  11.413  66.811  1.00  0.00    -0.252 C  
HETATM   15  H   UNL     1     -11.674  10.984  69.449  1.00  0.00     0.000 H  
HETATM   16  S   UNL     1     -11.756  11.971  68.474  1.00  0.00    -0.321 SA 
ENDBRANCH  13  14
BRANCH  13  17
HETATM   17  C   UNL     1     -12.134  11.993  64.514  1.00  0.00    -0.255 C  
HETATM   18  O   UNL     1     -13.332  12.174  64.328  1.00  0.00    -0.761 OA 
BRANCH  17  19
HETATM   19  O   UNL     1     -11.313  11.308  63.664  1.00  0.00    -0.325 OA 
BRANCH  19  20
HETATM   20  C   UNL     1     -10.055  11.929  63.371  1.00  0.00    -0.438 C  
HETATM   21  C   UNL     1      -9.187  11.014  62.533  1.00  0.00    -0.337 C  
ENDBRANCH  19  20
ENDBRANCH  17  19
ENDBRANCH  13  17
ENDBRANCH  11  13
ENDBRANCH  10  11
ENDBRANCH   9  10
ENDBRANCH   7   9
ENDBRANCH   6   7
BRANCH   6  22
HETATM   22  C   UNL     1      -8.045  16.987  67.626  1.00  0.00    -0.180 C  
HETATM   23  H   UNL     1      -5.751  18.094  66.682  1.00  0.00     0.000 H  
HETATM   24  S   UNL     1      -6.984  17.603  66.272  1.00  0.00    -0.307 SA 
ENDBRANCH   6  22
ENDBRANCH   4   6
ENDBRANCH   3   4
ENDBRANCH   2   3
TORSDOF 13
ENDMDL
MODEL       84
REMARK 921   NORMALIZED FREE ENERGY PREDICTED BY IDOCK:   -4.20 KCAL/MOL
REMARK 922        TOTAL FREE ENERGY PREDICTED BY IDOCK:   -7.98 KCAL/MOL
REMARK 923 INTER-LIGAND FREE ENERGY PREDICTED BY IDOCK:   -7.19 KCAL/MOL
REMARK 924 INTRA-LIGAND FREE ENERGY PREDICTED BY IDOCK:   -0.79 KCAL/MOL
REMARK 927      BINDING AFFINITY PREDICTED BY RF-SCORE:    0.00 PKD
ROOT
HETATM    1  C   UNL     1     -11.665   6.662  70.333  1.00  0.00    -0.446 C  
HETATM    2  C   UNL     1     -12.208   6.956  71.715  1.00  0.00    -0.356 C  
ENDROOT
BRANCH   2   3
HETATM    3  O   UNL     1     -11.989   8.334  72.054  1.00  0.00    -0.305 OA 
BRANCH   3   4
HETATM    4  C   UNL     1     -13.010   9.187  71.758  1.00  0.00    -0.380 C  
HETATM    5  O   UNL     1     -14.201   8.938  71.895  1.00  0.00    -0.395 OA 
BRANCH   4   6
HETATM    6  C   UNL     1     -12.433  10.516  71.235  1.00  0.00    -0.419 C  
BRANCH   6   7
HETATM    7  N   UNL     1     -12.387  10.495  69.747  1.00  0.00    -0.536 NA 
HETATM    8  H   UNL     1     -12.798  11.348  69.366  1.00  0.00     0.000 HD 
BRANCH   7   9
HETATM    9  C   UNL     1     -11.050  10.275  69.185  1.00  0.00    -0.235 C  
BRANCH   9  10
HETATM   10  C   UNL     1     -10.928  10.712  67.708  1.00  0.00    -0.306 C  
BRANCH  10  11
HETATM   11  N   UNL     1     -11.978  11.634  67.245  1.00  0.00    -0.602 NA 
HETATM   12  H   UNL     1     -12.532  11.969  68.034  1.00  0.00     0.000 HD 
BRANCH  11  13
HETATM   13  C   UNL     1     -11.474  12.782  66.435  1.00  0.00    -0.357 C  
BRANCH  13  14
HETATM   14  C   UNL     1     -12.370  13.109  65.220  1.00  0.00    -0.481 C  
HETATM   15  H   UNL     1     -12.570  12.705  62.549  1.00  0.00     0.000 H  
HETATM   16  S   UNL     1     -11.763  12.410  63.643  1.00  0.00    -0.539 SA 
ENDBRANCH  13  14
BRANCH  13  17
HETATM   17  C   UNL     1     -11.326  14.028  67.337  1.00  0.00    -0.329 C  
HETATM   18  O   UNL     1     -12.240  14.773  67.673  1.00  0.00    -0.215 OA 
BRANCH  17  19
HETATM   19  O   UNL     1     -10.024  14.177  67.720  1.00  0.00    -0.228 OA 
BRANCH  19  20
HETATM   20  C   UNL     1      -9.809  14.888  68.946  1.00  0.00    -0.230 C  
HETATM   21  C   UNL     1      -8.482  15.616  68.919  1.00  0.00    -0.213 C  
ENDBRANCH  19  20
ENDBRANCH  17  19
ENDBRANCH  13  17
ENDBRANCH  11  13
ENDBRANCH  10  11
ENDBRANCH   9  10
ENDBRANCH   7   9
ENDBRANCH   6   7
BRANCH   6  22
HETATM   22  C   UNL     1     -13.210  11.690  71.866  1.00  0.00    -0.369 C  
HETATM   23  H   UNL     1     -13.442  14.396  71.801  1.00  0.00     0.000 H  
HETATM   24  S   UNL     1     -12.742  13.338  71.233  1.00  0.00    -0.252 SA 
ENDBRANCH   6  22
ENDBRANCH   4   6
ENDBRANCH   3   4
ENDBRANCH   2   3
TORSDOF 13
ENDMDL
MODEL       85
REMARK 921   NORMALIZED FREE ENERGY PREDICTED BY IDOCK:   -4.20 KCAL/MOL
REMARK 922        TOTAL FREE ENERGY PREDICTED BY IDOCK:   -7.98 KCAL/MOL
REMARK 923 INTER-LIGAND FREE ENERGY PREDICTED BY IDOCK:   -6.89 KCAL/MOL
REMARK 924 INTRA-LIGAND FREE ENERGY PREDICTED BY IDOCK:   -1.09 KCAL/MOL
REMARK 927      BINDING AFFINITY PREDICTED BY RF-SCORE:    0.00 PKD
ROOT
HETATM    1  C   UNL     1     -10.588   5.578  69.537  1.00  0.00    -0.366 C  
HETATM    2  C   UNL     1      -9.842   6.894  69.480  1.00  0.00    -0.159 C  
ENDROOT
BRANCH   2   3
HETATM    3  O   UNL     1     -10.752   7.989  69.664  1.00  0.00    -0.238 OA 
BRANCH   3   4
HETATM    4  C   UNL     1     -10.378   8.924  70.583  1.00  0.00    -0.215 C  
HETATM    5  O   UNL     1      -9.263   9.423  70.669  1.00  0.00    -0.244 OA 
BRANCH   4   6
HETATM    6  C   UNL     1     -11.577   9.262  71.489  1.00  0.00    -0.382 C  
BRANCH   6   7
HETATM    7  N   UNL     1     -12.652   9.903  70.684  1.00  0.00    -0.500 NA 
HETATM    8  H   UNL     1     -13.567   9.549  70.966  1.00  0.00     0.000 HD 
BRANCH   7   9
HETATM    9  C   UNL     1     -12.639  11.369  70.712  1.00  0.00    -0.316 C  
BRANCH   9  10
HETATM   10  C   UNL     1     -12.138  12.002  69.395  1.00  0.00    -0.202 C  
BRANCH  10  11
HETATM   11  N   UNL     1     -12.051  11.075  68.255  1.00  0.00    -0.788 NA 
HETATM   12  H   UNL     1     -12.941  11.035  67.759  1.00  0.00     0.000 HD 
BRANCH  11  13
HETATM   13  C   UNL     1     -10.937  11.372  67.306  1.00  0.00    -0.282 C  
BRANCH  13  14
HETATM   14  C   UNL     1     -10.370  10.109  66.620  1.00  0.00    -0.208 C  
HETATM   15  H   UNL     1      -8.115   8.621  66.424  1.00  0.00     0.000 H  
HETATM   16  S   UNL     1      -8.626   9.758  67.041  1.00  0.00    -0.124 SA 
ENDBRANCH  13  14
BRANCH  13  17
HETATM   17  C   UNL     1     -11.418  12.383  66.242  1.00  0.00    -0.371 C  
HETATM   18  O   UNL     1     -12.417  12.256  65.542  1.00  0.00    -0.597 OA 
BRANCH  17  19
HETATM   19  O   UNL     1     -10.573  13.454  66.198  1.00  0.00    -0.285 OA 
BRANCH  19  20
HETATM   20  C   UNL     1     -10.575  14.206  64.977  1.00  0.00    -0.419 C  
HETATM   21  C   UNL     1     -10.661  15.691  65.260  1.00  0.00    -0.448 C  
ENDBRANCH  19  20
ENDBRANCH  17  19
ENDBRANCH  13  17
ENDBRANCH  11  13
ENDBRANCH  10  11
ENDBRANCH   9  10
ENDBRANCH   7   9
ENDBRANCH   6   7
BRANCH   6  22
HETATM   22  C   UNL     1     -11.988   8.001  72.276  1.00  0.00    -0.358 C  
HETATM   23  H   UNL     1     -11.005   6.088  73.935  1.00  0.00     0.000 H  
HETATM   24  S   UNL     1     -10.635   7.224  73.226  1.00  0.00    -0.383 SA 
ENDBRANCH   6  22
ENDBRANCH   4   6
ENDBRANCH   3   4
ENDBRANCH   2   3
TORSDOF 13
ENDMDL
MODEL       86
REMARK 921   NORMALIZED FREE ENERGY PREDICTED BY IDOCK:   -4.19 KCAL/MOL
REMARK 922        TOTAL FREE ENERGY PREDICTED BY IDOCK:   -7.96 KCAL/MOL
REMARK 923 INTER-LIGAND FREE ENERGY PREDICTED BY IDOCK:   -7.24 KCAL/MOL
REMARK 924 INTRA-LIGAND FREE ENERGY PREDICTED BY IDOCK:   -0.73 KCAL/MOL
REMARK 927      BINDING AFFINITY PREDICTED BY RF-SCORE:    0.00 PKD
ROOT
HETATM    1  C   UNL     1     -11.215   6.208  70.002  1.00  0.00    -0.471 C  
HETATM    2  C   UNL     1     -11.490   7.240  71.075  1.00  0.00    -0.287 C  
ENDROOT
BRANCH   2   3
HETATM    3  O   UNL     1     -11.907   8.478  70.478  1.00  0.00    -0.173 OA 
BRANCH   3   4
HETATM    4  C   UNL     1     -11.180   9.578  70.826  1.00  0.00    -0.317 C  
HETATM    5  O   UNL     1     -10.075   9.557  71.354  1.00  0.00    -0.258 OA 
BRANCH   4   6
HETATM    6  C   UNL     1     -11.960  10.850  70.441  1.00  0.00    -0.362 C  
BRANCH   6   7
HETATM    7  N   UNL     1     -12.492  10.716  69.058  1.00  0.00    -0.740 NA 
HETATM    8  H   UNL     1     -13.422  11.130  68.993  1.00  0.00     0.000 HD 
BRANCH   7   9
HETATM    9  C   UNL     1     -11.616  11.260  68.016  1.00  0.00    -0.272 C  
BRANCH   9  10
HETATM   10  C   UNL     1     -11.550  12.803  68.015  1.00  0.00    -0.341 C  
BRANCH  10  11
HETATM   11  N   UNL     1     -11.950  13.440  66.750  1.00  0.00    -0.396 NA 
HETATM   12  H   UNL     1     -12.626  14.185  66.923  1.00  0.00     0.000 HD 
BRANCH  11  13
HETATM   13  C   UNL     1     -10.809  13.951  65.932  1.00  0.00    -0.287 C  
BRANCH  13  14
HETATM   14  C   UNL     1     -10.686  13.255  64.559  1.00  0.00    -0.411 C  
HETATM   15  H   UNL     1     -12.114  11.810  62.766  1.00  0.00     0.000 H  
HETATM   16  S   UNL     1     -12.224  12.437  64.002  1.00  0.00    -0.502 SA 
ENDBRANCH  13  14
BRANCH  13  17
HETATM   17  C   UNL     1     -10.949  15.478  65.743  1.00  0.00    -0.283 C  
HETATM   18  O   UNL     1     -10.840  16.074  64.677  1.00  0.00    -0.608 OA 
BRANCH  17  19
HETATM   19  O   UNL     1     -11.224  16.075  66.940  1.00  0.00    -0.125 OA 
BRANCH  19  20
HETATM   20  C   UNL     1     -10.088  16.515  67.697  1.00  0.00    -0.266 C  
HETATM   21  C   UNL     1     -10.480  16.810  69.129  1.00  0.00    -0.343 C  
ENDBRANCH  19  20
ENDBRANCH  17  19
ENDBRANCH  13  17
ENDBRANCH  11  13
ENDBRANCH  10  11
ENDBRANCH   9  10
ENDBRANCH   7   9
ENDBRANCH   6   7
BRANCH   6  22
HETATM   22  C   UNL     1     -13.003  11.155  71.536  1.00  0.00    -0.437 C  
HETATM   23  H   UNL     1     -14.115  13.202  72.935  1.00  0.00     0.000 H  
HETATM   24  S   UNL     1     -13.175  12.926  71.949  1.00  0.00    -0.357 SA 
ENDBRANCH   6  22
ENDBRANCH   4   6
ENDBRANCH   3   4
ENDBRANCH   2   3
TORSDOF 13
ENDMDL
MODEL       87
REMARK 921   NORMALIZED FREE ENERGY PREDICTED BY IDOCK:   -4.16 KCAL/MOL
REMARK 922        TOTAL FREE ENERGY PREDICTED BY IDOCK:   -7.92 KCAL/MOL
REMARK 923 INTER-LIGAND FREE ENERGY PREDICTED BY IDOCK:   -7.47 KCAL/MOL
REMARK 924 INTRA-LIGAND FREE ENERGY PREDICTED BY IDOCK:   -0.45 KCAL/MOL
REMARK 927      BINDING AFFINITY PREDICTED BY RF-SCORE:    0.00 PKD
ROOT
HETATM    1  C   UNL     1     -11.903  16.318  72.762  1.00  0.00    -0.565 C  
HETATM    2  C   UNL     1     -11.991  15.627  71.418  1.00  0.00    -0.418 C  
ENDROOT
BRANCH   2   3
HETATM    3  O   UNL     1     -11.224  16.345  70.439  1.00  0.00    -0.378 OA 
BRANCH   3   4
HETATM    4  C   UNL     1     -11.449  15.999  69.139  1.00  0.00    -0.347 C  
HETATM    5  O   UNL     1     -12.381  15.311  68.742  1.00  0.00    -0.110 OA 
BRANCH   4   6
HETATM    6  C   UNL     1     -10.354  16.617  68.248  1.00  0.00    -0.304 C  
BRANCH   6   7
HETATM    7  N   UNL     1     -10.601  16.256  66.825  1.00  0.00    -0.290 NA 
HETATM    8  H   UNL     1     -10.884  17.079  66.293  1.00  0.00     0.000 HD 
BRANCH   7   9
HETATM    9  C   UNL     1      -9.476  15.583  66.166  1.00  0.00    -0.341 C  
BRANCH   9  10
HETATM   10  C   UNL     1      -9.770  14.110  65.805  1.00  0.00    -0.217 C  
BRANCH  10  11
HETATM   11  N   UNL     1     -10.167  13.883  64.405  1.00  0.00    -0.732 NA 
HETATM   12  H   UNL     1      -9.402  13.453  63.884  1.00  0.00     0.000 HD 
BRANCH  11  13
HETATM   13  C   UNL     1     -11.420  13.089  64.244  1.00  0.00    -0.381 C  
BRANCH  13  14
HETATM   14  C   UNL     1     -11.173  11.667  63.692  1.00  0.00    -0.411 C  
HETATM   15  H   UNL     1      -9.231  10.097  62.642  1.00  0.00     0.000 H  
HETATM   16  S   UNL     1      -9.454  11.376  63.139  1.00  0.00    -0.308 SA 
ENDBRANCH  13  14
BRANCH  13  17
HETATM   17  C   UNL     1     -12.163  13.011  65.596  1.00  0.00    -0.466 C  
HETATM   18  O   UNL     1     -12.711  13.951  66.160  1.00  0.00    -0.429 OA 
BRANCH  17  19
HETATM   19  O   UNL     1     -12.132  11.733  66.075  1.00  0.00    -0.399 OA 
BRANCH  19  20
HETATM   20  C   UNL     1     -11.446  11.545  67.320  1.00  0.00    -0.263 C  
HETATM   21  C   UNL     1     -10.457  10.403  67.221  1.00  0.00    -0.304 C  
ENDBRANCH  19  20
ENDBRANCH  17  19
ENDBRANCH  13  17
ENDBRANCH  11  13
ENDBRANCH  10  11
ENDBRANCH   9  10
ENDBRANCH   7   9
ENDBRANCH   6   7
BRANCH   6  22
HETATM   22  C   UNL     1     -10.247  18.125  68.549  1.00  0.00    -0.384 C  
HETATM   23  H   UNL     1     -10.632  20.572  67.434  1.00  0.00     0.000 H  
HETATM   24  S   UNL     1     -10.729  19.213  67.163  1.00  0.00    -0.425 SA 
ENDBRANCH   6  22
ENDBRANCH   4   6
ENDBRANCH   3   4
ENDBRANCH   2   3
TORSDOF 13
ENDMDL
MODEL       88
REMARK 921   NORMALIZED FREE ENERGY PREDICTED BY IDOCK:   -4.16 KCAL/MOL
REMARK 922        TOTAL FREE ENERGY PREDICTED BY IDOCK:   -7.92 KCAL/MOL
REMARK 923 INTER-LIGAND FREE ENERGY PREDICTED BY IDOCK:   -6.91 KCAL/MOL
REMARK 924 INTRA-LIGAND FREE ENERGY PREDICTED BY IDOCK:   -1.01 KCAL/MOL
REMARK 927      BINDING AFFINITY PREDICTED BY RF-SCORE:    0.00 PKD
ROOT
HETATM    1  C   UNL     1      -9.912  19.537  68.701  1.00  0.00    -0.538 C  
HETATM    2  C   UNL     1     -10.611  18.992  67.474  1.00  0.00    -0.461 C  
ENDROOT
BRANCH   2   3
HETATM    3  O   UNL     1     -10.757  17.568  67.576  1.00  0.00    -0.349 OA 
BRANCH   3   4
HETATM    4  C   UNL     1     -10.240  16.843  66.543  1.00  0.00    -0.318 C  
HETATM    5  O   UNL     1      -9.617  17.307  65.596  1.00  0.00    -0.527 OA 
BRANCH   4   6
HETATM    6  C   UNL     1     -10.552  15.349  66.758  1.00  0.00    -0.309 C  
BRANCH   6   7
HETATM    7  N   UNL     1      -9.901  14.540  65.691  1.00  0.00    -0.452 NA 
HETATM    8  H   UNL     1      -9.466  13.709  66.091  1.00  0.00     0.000 HD 
BRANCH   7   9
HETATM    9  C   UNL     1     -10.790  14.171  64.585  1.00  0.00    -0.386 C  
BRANCH   9  10
HETATM   10  C   UNL     1     -10.490  12.773  64.000  1.00  0.00    -0.406 C  
BRANCH  10  11
HETATM   11  N   UNL     1      -9.652  11.911  64.850  1.00  0.00    -0.423 NA 
HETATM   12  H   UNL     1      -9.136  12.473  65.528  1.00  0.00     0.000 HD 
BRANCH  11  13
HETATM   13  C   UNL     1     -10.398  10.817  65.539  1.00  0.00    -0.241 C  
BRANCH  13  14
HETATM   14  C   UNL     1      -9.533   9.565  65.804  1.00  0.00    -0.250 C  
HETATM   15  H   UNL     1      -7.007   8.624  65.535  1.00  0.00     0.000 H  
HETATM   16  S   UNL     1      -7.786   9.751  65.297  1.00  0.00    -0.127 SA 
ENDBRANCH  13  14
BRANCH  13  17
HETATM   17  C   UNL     1     -10.988  11.346  66.865  1.00  0.00    -0.299 C  
HETATM   18  O   UNL     1     -12.099  11.846  66.999  1.00  0.00    -0.600 OA 
BRANCH  17  19
HETATM   19  O   UNL     1     -10.092  11.166  67.880  1.00  0.00    -0.170 OA 
BRANCH  19  20
HETATM   20  C   UNL     1     -10.654  10.932  69.178  1.00  0.00    -0.220 C  
HETATM   21  C   UNL     1      -9.945   9.789  69.873  1.00  0.00    -0.282 C  
ENDBRANCH  19  20
ENDBRANCH  17  19
ENDBRANCH  13  17
ENDBRANCH  11  13
ENDBRANCH  10  11
ENDBRANCH   9  10
ENDBRANCH   7   9
ENDBRANCH   6   7
BRANCH   6  22
HETATM   22  C   UNL     1     -10.194  14.961  68.208  1.00  0.00    -0.225 C  
HETATM   23  H   UNL     1     -11.313  14.267  70.584  1.00  0.00     0.000 H  
HETATM   24  S   UNL     1     -11.634  14.618  69.279  1.00  0.00    -0.321 SA 
ENDBRANCH   6  22
ENDBRANCH   4   6
ENDBRANCH   3   4
ENDBRANCH   2   3
TORSDOF 13
ENDMDL
MODEL       89
REMARK 921   NORMALIZED FREE ENERGY PREDICTED BY IDOCK:   -4.16 KCAL/MOL
REMARK 922        TOTAL FREE ENERGY PREDICTED BY IDOCK:   -7.91 KCAL/MOL
REMARK 923 INTER-LIGAND FREE ENERGY PREDICTED BY IDOCK:   -7.13 KCAL/MOL
REMARK 924 INTRA-LIGAND FREE ENERGY PREDICTED BY IDOCK:   -0.79 KCAL/MOL
REMARK 927      BINDING AFFINITY PREDICTED BY RF-SCORE:    0.00 PKD
ROOT
HETATM    1  C   UNL     1     -12.869  11.459  71.444  1.00  0.00    -0.502 C  
HETATM    2  C   UNL     1     -11.919  11.206  70.293  1.00  0.00    -0.373 C  
ENDROOT
BRANCH   2   3
HETATM    3  O   UNL     1     -11.792  12.386  69.485  1.00  0.00    -0.298 OA 
BRANCH   3   4
HETATM    4  C   UNL     1     -11.630  12.174  68.147  1.00  0.00    -0.337 C  
HETATM    5  O   UNL     1     -11.874  11.125  67.564  1.00  0.00    -0.591 OA 
BRANCH   4   6
HETATM    6  C   UNL     1     -11.101  13.460  67.484  1.00  0.00    -0.274 C  
BRANCH   6   7
HETATM    7  N   UNL     1      -9.959  13.132  66.588  1.00  0.00    -0.263 NA 
HETATM    8  H   UNL     1     -10.017  13.674  65.725  1.00  0.00     0.000 HD 
BRANCH   7   9
HETATM    9  C   UNL     1      -8.639  13.294  67.206  1.00  0.00    -0.210 C  
BRANCH   9  10
HETATM   10  C   UNL     1      -8.243  14.770  67.428  1.00  0.00    -0.196 C  
BRANCH  10  11
HETATM   11  N   UNL     1      -8.452  15.650  66.266  1.00  0.00    -0.381 NA 
HETATM   12  H   UNL     1      -9.186  15.277  65.664  1.00  0.00     0.000 HD 
BRANCH  11  13
HETATM   13  C   UNL     1      -8.739  17.072  66.617  1.00  0.00    -0.251 C  
BRANCH  13  14
HETATM   14  C   UNL     1      -7.724  18.065  66.009  1.00  0.00    -0.176 C  
HETATM   15  H   UNL     1      -5.501  19.486  66.623  1.00  0.00     0.000 H  
HETATM   16  S   UNL     1      -6.414  18.592  67.171  1.00  0.00    -0.187 SA 
ENDBRANCH  13  14
BRANCH  13  17
HETATM   17  C   UNL     1     -10.172  17.439  66.172  1.00  0.00    -0.328 C  
HETATM   18  O   UNL     1     -10.663  17.179  65.079  1.00  0.00    -0.712 OA 
BRANCH  17  19
HETATM   19  O   UNL     1     -10.824  18.089  67.180  1.00  0.00    -0.312 OA 
BRANCH  19  20
HETATM   20  C   UNL     1     -10.160  18.102  68.451  1.00  0.00    -0.388 C  
HETATM   21  C   UNL     1      -9.828  19.519  68.868  1.00  0.00    -0.522 C  
ENDBRANCH  19  20
ENDBRANCH  17  19
ENDBRANCH  13  17
ENDBRANCH  11  13
ENDBRANCH  10  11
ENDBRANCH   9  10
ENDBRANCH   7   9
ENDBRANCH   6   7
BRANCH   6  22
HETATM   22  C   UNL     1     -12.277  14.211  66.826  1.00  0.00    -0.394 C  
HETATM   23  H   UNL     1     -13.434  14.704  64.418  1.00  0.00     0.000 H  
HETATM   24  S   UNL     1     -12.374  14.028  65.011  1.00  0.00    -0.433 SA 
ENDBRANCH   6  22
ENDBRANCH   4   6
ENDBRANCH   3   4
ENDBRANCH   2   3
TORSDOF 13
ENDMDL
MODEL       90
REMARK 921   NORMALIZED FREE ENERGY PREDICTED BY IDOCK:   -4.15 KCAL/MOL
REMARK 922        TOTAL FREE ENERGY PREDICTED BY IDOCK:   -7.90 KCAL/MOL
REMARK 923 INTER-LIGAND FREE ENERGY PREDICTED BY IDOCK:   -7.16 KCAL/MOL
REMARK 924 INTRA-LIGAND FREE ENERGY PREDICTED BY IDOCK:   -0.74 KCAL/MOL
REMARK 927      BINDING AFFINITY PREDICTED BY RF-SCORE:    0.00 PKD
ROOT
HETATM    1  C   UNL     1     -11.021   6.110  68.779  1.00  0.00    -0.421 C  
HETATM    2  C   UNL     1     -11.112   6.180  70.288  1.00  0.00    -0.366 C  
ENDROOT
BRANCH   2   3
HETATM    3  O   UNL     1     -11.946   7.278  70.686  1.00  0.00    -0.291 OA 
BRANCH   3   4
HETATM    4  C   UNL     1     -11.352   8.219  71.475  1.00  0.00    -0.268 C  
HETATM    5  O   UNL     1     -11.407   8.252  72.698  1.00  0.00    -0.390 OA 
BRANCH   4   6
HETATM    6  C   UNL     1     -10.593   9.226  70.590  1.00  0.00    -0.262 C  
BRANCH   6   7
HETATM    7  N   UNL     1     -11.164  10.588  70.773  1.00  0.00    -0.387 NA 
HETATM    8  H   UNL     1     -10.419  11.267  70.932  1.00  0.00     0.000 HD 
BRANCH   7   9
HETATM    9  C   UNL     1     -12.037  11.031  69.682  1.00  0.00    -0.340 C  
BRANCH   9  10
HETATM   10  C   UNL     1     -11.265  11.614  68.478  1.00  0.00    -0.256 C  
BRANCH  10  11
HETATM   11  N   UNL     1     -11.780  11.214  67.158  1.00  0.00    -0.447 NA 
HETATM   12  H   UNL     1     -12.800  11.250  67.148  1.00  0.00     0.000 HD 
BRANCH  11  13
HETATM   13  C   UNL     1     -11.219  11.997  66.017  1.00  0.00    -0.335 C  
BRANCH  13  14
HETATM   14  C   UNL     1     -10.533  11.112  64.954  1.00  0.00    -0.308 C  
HETATM   15  H   UNL     1      -8.414   9.462  64.598  1.00  0.00     0.000 H  
HETATM   16  S   UNL     1      -9.032  10.258  65.556  1.00  0.00    -0.185 SA 
ENDBRANCH  13  14
BRANCH  13  17
HETATM   17  C   UNL     1     -12.338  12.839  65.366  1.00  0.00    -0.470 C  
HETATM   18  O   UNL     1     -12.988  12.513  64.379  1.00  0.00    -0.748 OA 
BRANCH  17  19
HETATM   19  O   UNL     1     -12.511  14.004  66.057  1.00  0.00    -0.468 OA 
BRANCH  19  20
HETATM   20  C   UNL     1     -11.317  14.742  66.349  1.00  0.00    -0.339 C  
HETATM   21  C   UNL     1     -10.884  15.559  65.150  1.00  0.00    -0.452 C  
ENDBRANCH  19  20
ENDBRANCH  17  19
ENDBRANCH  13  17
ENDBRANCH  11  13
ENDBRANCH  10  11
ENDBRANCH   9  10
ENDBRANCH   7   9
ENDBRANCH   6   7
BRANCH   6  22
HETATM   22  C   UNL     1      -9.079   9.091  70.853  1.00  0.00    -0.250 C  
HETATM   23  H   UNL     1      -6.653   9.813  69.865  1.00  0.00     0.000 H  
HETATM   24  S   UNL     1      -8.017   9.934  69.628  1.00  0.00    -0.176 SA 
ENDBRANCH   6  22
ENDBRANCH   4   6
ENDBRANCH   3   4
ENDBRANCH   2   3
TORSDOF 13
ENDMDL
MODEL       91
REMARK 921   NORMALIZED FREE ENERGY PREDICTED BY IDOCK:   -4.15 KCAL/MOL
REMARK 922        TOTAL FREE ENERGY PREDICTED BY IDOCK:   -7.90 KCAL/MOL
REMARK 923 INTER-LIGAND FREE ENERGY PREDICTED BY IDOCK:   -7.08 KCAL/MOL
REMARK 924 INTRA-LIGAND FREE ENERGY PREDICTED BY IDOCK:   -0.81 KCAL/MOL
REMARK 927      BINDING AFFINITY PREDICTED BY RF-SCORE:    0.00 PKD
ROOT
HETATM    1  C   UNL     1     -10.530  19.712  65.755  1.00  0.00    -0.540 C  
HETATM    2  C   UNL     1     -10.181  19.904  67.215  1.00  0.00    -0.433 C  
ENDROOT
BRANCH   2   3
HETATM    3  O   UNL     1      -9.317  18.848  67.663  1.00  0.00    -0.291 OA 
BRANCH   3   4
HETATM    4  C   UNL     1      -9.895  17.619  67.783  1.00  0.00    -0.292 C  
HETATM    5  O   UNL     1     -11.013  17.405  68.236  1.00  0.00    -0.317 OA 
BRANCH   4   6
HETATM    6  C   UNL     1      -8.928  16.544  67.251  1.00  0.00    -0.199 C  
BRANCH   6   7
HETATM    7  N   UNL     1      -9.244  16.243  65.828  1.00  0.00    -0.458 NA 
HETATM    8  H   UNL     1      -8.511  15.663  65.417  1.00  0.00     0.000 HD 
BRANCH   7   9
HETATM    9  C   UNL     1     -10.560  15.634  65.614  1.00  0.00    -0.378 C  
BRANCH   9  10
HETATM   10  C   UNL     1     -10.843  14.441  66.554  1.00  0.00    -0.310 C  
BRANCH  10  11
HETATM   11  N   UNL     1     -11.941  14.653  67.512  1.00  0.00    -0.534 NA 
HETATM   12  H   UNL     1     -12.840  14.649  67.030  1.00  0.00     0.000 HD 
BRANCH  11  13
HETATM   13  C   UNL     1     -11.956  13.690  68.652  1.00  0.00    -0.360 C  
BRANCH  13  14
HETATM   14  C   UNL     1     -10.834  12.631  68.567  1.00  0.00    -0.252 C  
HETATM   15  H   UNL     1     -10.436   9.958  68.390  1.00  0.00     0.000 H  
HETATM   16  S   UNL     1     -11.445  10.911  68.466  1.00  0.00    -0.292 SA 
ENDBRANCH  13  14
BRANCH  13  17
HETATM   17  C   UNL     1     -11.857  14.462  69.986  1.00  0.00    -0.315 C  
HETATM   18  O   UNL     1     -10.920  15.177  70.324  1.00  0.00    -0.261 OA 
BRANCH  17  19
HETATM   19  O   UNL     1     -12.975  14.243  70.738  1.00  0.00    -0.344 OA 
BRANCH  19  20
HETATM   20  C   UNL     1     -13.574  15.406  71.326  1.00  0.00    -0.505 C  
HETATM   21  C   UNL     1     -13.697  15.245  72.826  1.00  0.00    -0.584 C  
ENDBRANCH  19  20
ENDBRANCH  17  19
ENDBRANCH  13  17
ENDBRANCH  11  13
ENDBRANCH  10  11
ENDBRANCH   9  10
ENDBRANCH   7   9
ENDBRANCH   6   7
BRANCH   6  22
HETATM   22  C   UNL     1      -7.477  16.979  67.541  1.00  0.00    -0.161 C  
HETATM   23  H   UNL     1      -5.279  18.051  66.360  1.00  0.00     0.000 H  
HETATM   24  S   UNL     1      -6.586  17.659  66.099  1.00  0.00    -0.256 SA 
ENDBRANCH   6  22
ENDBRANCH   4   6
ENDBRANCH   3   4
ENDBRANCH   2   3
TORSDOF 13
ENDMDL
MODEL       92
REMARK 921   NORMALIZED FREE ENERGY PREDICTED BY IDOCK:   -4.14 KCAL/MOL
REMARK 922        TOTAL FREE ENERGY PREDICTED BY IDOCK:   -7.89 KCAL/MOL
REMARK 923 INTER-LIGAND FREE ENERGY PREDICTED BY IDOCK:   -7.01 KCAL/MOL
REMARK 924 INTRA-LIGAND FREE ENERGY PREDICTED BY IDOCK:   -0.87 KCAL/MOL
REMARK 927      BINDING AFFINITY PREDICTED BY RF-SCORE:    0.00 PKD
ROOT
HETATM    1  C   UNL     1     -10.825  19.688  65.546  1.00  0.00    -0.262 C  
HETATM    2  C   UNL     1     -10.034  20.249  66.709  1.00  0.00    -0.450 C  
ENDROOT
BRANCH   2   3
HETATM    3  O   UNL     1      -9.092  19.276  67.184  1.00  0.00    -0.289 OA 
BRANCH   3   4
HETATM    4  C   UNL     1      -9.262  18.866  68.474  1.00  0.00    -0.361 C  
HETATM    5  O   UNL     1      -9.922  19.454  69.321  1.00  0.00    -0.404 OA 
BRANCH   4   6
HETATM    6  C   UNL     1      -8.503  17.543  68.696  1.00  0.00    -0.258 C  
BRANCH   6   7
HETATM    7  N   UNL     1      -9.162  16.450  67.930  1.00  0.00    -0.201 NA 
HETATM    8  H   UNL     1      -8.474  15.939  67.377  1.00  0.00     0.000 HD 
BRANCH   7   9
HETATM    9  C   UNL     1      -9.949  15.524  68.751  1.00  0.00    -0.214 C  
BRANCH   9  10
HETATM   10  C   UNL     1     -11.474  15.713  68.595  1.00  0.00    -0.375 C  
BRANCH  10  11
HETATM   11  N   UNL     1     -12.163  14.631  67.872  1.00  0.00    -0.603 NA 
HETATM   12  H   UNL     1     -12.987  14.991  67.391  1.00  0.00     0.000 HD 
BRANCH  11  13
HETATM   13  C   UNL     1     -11.292  13.877  66.922  1.00  0.00    -0.328 C  
BRANCH  13  14
HETATM   14  C   UNL     1     -11.491  12.347  66.999  1.00  0.00    -0.358 C  
HETATM   15  H   UNL     1     -11.180  10.239  68.671  1.00  0.00     0.000 H  
HETATM   16  S   UNL     1     -11.001  11.616  68.602  1.00  0.00    -0.237 SA 
ENDBRANCH  13  14
BRANCH  13  17
HETATM   17  C   UNL     1     -11.544  14.373  65.481  1.00  0.00    -0.347 C  
HETATM   18  O   UNL     1     -10.987  15.328  64.952  1.00  0.00    -0.408 OA 
BRANCH  17  19
HETATM   19  O   UNL     1     -12.477  13.585  64.871  1.00  0.00    -0.477 OA 
BRANCH  19  20
HETATM   20  C   UNL     1     -12.236  13.282  63.490  1.00  0.00    -0.441 C  
HETATM   21  C   UNL     1     -11.439  12.002  63.353  1.00  0.00    -0.489 C  
ENDBRANCH  19  20
ENDBRANCH  17  19
ENDBRANCH  13  17
ENDBRANCH  11  13
ENDBRANCH  10  11
ENDBRANCH   9  10
ENDBRANCH   7   9
ENDBRANCH   6   7
BRANCH   6  22
HETATM   22  C   UNL     1      -7.005  17.762  68.400  1.00  0.00    -0.228 C  
HETATM   23  H   UNL     1      -4.904  19.367  69.025  1.00  0.00     0.000 H  
HETATM   24  S   UNL     1      -6.253  19.169  69.291  1.00  0.00    -0.284 SA 
ENDBRANCH   6  22
ENDBRANCH   4   6
ENDBRANCH   3   4
ENDBRANCH   2   3
TORSDOF 13
ENDMDL
MODEL       93
REMARK 921   NORMALIZED FREE ENERGY PREDICTED BY IDOCK:   -4.14 KCAL/MOL
REMARK 922        TOTAL FREE ENERGY PREDICTED BY IDOCK:   -7.89 KCAL/MOL
REMARK 923 INTER-LIGAND FREE ENERGY PREDICTED BY IDOCK:   -7.24 KCAL/MOL
REMARK 924 INTRA-LIGAND FREE ENERGY PREDICTED BY IDOCK:   -0.65 KCAL/MOL
REMARK 927      BINDING AFFINITY PREDICTED BY RF-SCORE:    0.00 PKD
ROOT
HETATM    1  C   UNL     1     -12.285   9.616  71.679  1.00  0.00    -0.484 C  
HETATM    2  C   UNL     1     -12.805  10.684  70.740  1.00  0.00    -0.352 C  
ENDROOT
BRANCH   2   3
HETATM    3  O   UNL     1     -11.712  11.354  70.096  1.00  0.00    -0.314 OA 
BRANCH   3   4
HETATM    4  C   UNL     1     -11.747  11.372  68.732  1.00  0.00    -0.339 C  
HETATM    5  O   UNL     1     -11.759  10.380  68.013  1.00  0.00    -0.383 OA 
BRANCH   4   6
HETATM    6  C   UNL     1     -11.781  12.831  68.239  1.00  0.00    -0.344 C  
BRANCH   6   7
HETATM    7  N   UNL     1     -11.067  13.707  69.208  1.00  0.00    -0.378 NA 
HETATM    8  H   UNL     1     -10.202  14.059  68.798  1.00  0.00     0.000 HD 
BRANCH   7   9
HETATM    9  C   UNL     1     -11.874  14.814  69.732  1.00  0.00    -0.316 C  
BRANCH   9  10
HETATM   10  C   UNL     1     -11.227  16.199  69.513  1.00  0.00    -0.337 C  
BRANCH  10  11
HETATM   11  N   UNL     1     -11.111  16.614  68.106  1.00  0.00    -0.340 NA 
HETATM   12  H   UNL     1     -11.977  17.050  67.790  1.00  0.00     0.000 HD 
BRANCH  11  13
HETATM   13  C   UNL     1      -9.945  17.503  67.822  1.00  0.00    -0.312 C  
BRANCH  13  14
HETATM   14  C   UNL     1      -8.593  16.756  67.838  1.00  0.00    -0.202 C  
HETATM   15  H   UNL     1      -7.358  14.563  66.837  1.00  0.00     0.000 H  
HETATM   16  S   UNL     1      -8.575  15.235  66.823  1.00  0.00    -0.254 SA 
ENDBRANCH  13  14
BRANCH  13  17
HETATM   17  C   UNL     1     -10.147  18.205  66.461  1.00  0.00    -0.386 C  
HETATM   18  O   UNL     1     -10.581  17.674  65.445  1.00  0.00    -0.657 OA 
BRANCH  17  19
HETATM   19  O   UNL     1      -9.781  19.518  66.553  1.00  0.00    -0.336 OA 
BRANCH  19  20
HETATM   20  C   UNL     1      -8.438  19.823  66.157  1.00  0.00    -0.341 C  
HETATM   21  C   UNL     1      -7.661  20.422  67.310  1.00  0.00    -0.372 C  
ENDBRANCH  19  20
ENDBRANCH  17  19
ENDBRANCH  13  17
ENDBRANCH  11  13
ENDBRANCH  10  11
ENDBRANCH   9  10
ENDBRANCH   7   9
ENDBRANCH   6   7
BRANCH   6  22
HETATM   22  C   UNL     1     -11.272  12.885  66.783  1.00  0.00    -0.298 C  
HETATM   23  H   UNL     1     -11.930  13.797  64.310  1.00  0.00     0.000 H  
HETATM   24  S   UNL     1     -12.387  13.748  65.621  1.00  0.00    -0.497 SA 
ENDBRANCH   6  22
ENDBRANCH   4   6
ENDBRANCH   3   4
ENDBRANCH   2   3
TORSDOF 13
ENDMDL
MODEL       94
REMARK 921   NORMALIZED FREE ENERGY PREDICTED BY IDOCK:   -4.14 KCAL/MOL
REMARK 922        TOTAL FREE ENERGY PREDICTED BY IDOCK:   -7.87 KCAL/MOL
REMARK 923 INTER-LIGAND FREE ENERGY PREDICTED BY IDOCK:   -7.16 KCAL/MOL
REMARK 924 INTRA-LIGAND FREE ENERGY PREDICTED BY IDOCK:   -0.72 KCAL/MOL
REMARK 927      BINDING AFFINITY PREDICTED BY RF-SCORE:    0.00 PKD
ROOT
HETATM    1  C   UNL     1     -14.386   7.628  71.526  1.00  0.00    -0.589 C  
HETATM    2  C   UNL     1     -12.887   7.523  71.343  1.00  0.00    -0.342 C  
ENDROOT
BRANCH   2   3
HETATM    3  O   UNL     1     -12.384   8.692  70.679  1.00  0.00    -0.050 OA 
BRANCH   3   4
HETATM    4  C   UNL     1     -11.029   8.755  70.534  1.00  0.00    -0.239 C  
HETATM    5  O   UNL     1     -10.212   8.332  71.342  1.00  0.00    -0.191 OA 
BRANCH   4   6
HETATM    6  C   UNL     1     -10.687   9.433  69.193  1.00  0.00    -0.197 C  
BRANCH   6   7
HETATM    7  N   UNL     1     -11.802  10.330  68.784  1.00  0.00    -0.644 NA 
HETATM    8  H   UNL     1     -12.541  10.322  69.487  1.00  0.00     0.000 HD 
BRANCH   7   9
HETATM    9  C   UNL     1     -11.394  11.707  68.486  1.00  0.00    -0.274 C  
BRANCH   9  10
HETATM   10  C   UNL     1     -11.900  12.733  69.523  1.00  0.00    -0.316 C  
BRANCH  10  11
HETATM   11  N   UNL     1     -12.202  14.067  68.979  1.00  0.00    -0.494 NA 
HETATM   12  H   UNL     1     -13.200  14.264  69.051  1.00  0.00     0.000 HD 
BRANCH  11  13
HETATM   13  C   UNL     1     -11.406  15.174  69.588  1.00  0.00    -0.283 C  
BRANCH  13  14
HETATM   14  C   UNL     1     -11.061  16.297  68.586  1.00  0.00    -0.356 C  
HETATM   15  H   UNL     1     -10.436  16.714  65.984  1.00  0.00     0.000 H  
HETATM   16  S   UNL     1     -10.748  15.703  66.885  1.00  0.00    -0.282 SA 
ENDBRANCH  13  14
BRANCH  13  17
HETATM   17  C   UNL     1     -12.170  15.757  70.798  1.00  0.00    -0.399 C  
HETATM   18  O   UNL     1     -11.666  16.396  71.715  1.00  0.00    -0.478 OA 
BRANCH  17  19
HETATM   19  O   UNL     1     -13.501  15.468  70.695  1.00  0.00    -0.433 OA 
BRANCH  19  20
HETATM   20  C   UNL     1     -14.169  15.144  71.921  1.00  0.00    -0.579 C  
HETATM   21  C   UNL     1     -13.785  13.757  72.391  1.00  0.00    -0.692 C  
ENDBRANCH  19  20
ENDBRANCH  17  19
ENDBRANCH  13  17
ENDBRANCH  11  13
ENDBRANCH  10  11
ENDBRANCH   9  10
ENDBRANCH   7   9
ENDBRANCH   6   7
BRANCH   6  22
HETATM   22  C   UNL     1      -9.297  10.093  69.299  1.00  0.00    -0.215 C  
HETATM   23  H   UNL     1      -6.867  10.189  68.089  1.00  0.00     0.000 H  
HETATM   24  S   UNL     1      -8.119   9.595  67.994  1.00  0.00    -0.105 SA 
ENDBRANCH   6  22
ENDBRANCH   4   6
ENDBRANCH   3   4
ENDBRANCH   2   3
TORSDOF 13
ENDMDL
MODEL       95
REMARK 921   NORMALIZED FREE ENERGY PREDICTED BY IDOCK:   -4.13 KCAL/MOL
REMARK 922        TOTAL FREE ENERGY PREDICTED BY IDOCK:   -7.86 KCAL/MOL
REMARK 923 INTER-LIGAND FREE ENERGY PREDICTED BY IDOCK:   -6.85 KCAL/MOL
REMARK 924 INTRA-LIGAND FREE ENERGY PREDICTED BY IDOCK:   -1.01 KCAL/MOL
REMARK 927      BINDING AFFINITY PREDICTED BY RF-SCORE:    0.00 PKD
ROOT
HETATM    1  C   UNL     1      -8.933  10.536  63.540  1.00  0.00    -0.231 C  
HETATM    2  C   UNL     1     -10.082  11.480  63.257  1.00  0.00    -0.406 C  
ENDROOT
BRANCH   2   3
HETATM    3  O   UNL     1     -10.981  11.517  64.375  1.00  0.00    -0.332 OA 
BRANCH   3   4
HETATM    4  C   UNL     1     -12.101  12.278  64.211  1.00  0.00    -0.412 C  
HETATM    5  O   UNL     1     -12.681  12.462  63.148  1.00  0.00    -0.618 OA 
BRANCH   4   6
HETATM    6  C   UNL     1     -12.529  12.861  65.572  1.00  0.00    -0.402 C  
BRANCH   6   7
HETATM    7  N   UNL     1     -11.749  12.217  66.663  1.00  0.00    -0.562 NA 
HETATM    8  H   UNL     1     -10.768  12.131  66.396  1.00  0.00     0.000 HD 
BRANCH   7   9
HETATM    9  C   UNL     1     -11.868  12.879  67.966  1.00  0.00    -0.343 C  
BRANCH   9  10
HETATM   10  C   UNL     1     -10.539  12.931  68.751  1.00  0.00    -0.190 C  
BRANCH  10  11
HETATM   11  N   UNL     1      -9.621  14.008  68.344  1.00  0.00    -0.220 NA 
HETATM   12  H   UNL     1      -9.888  14.379  67.432  1.00  0.00     0.000 HD 
BRANCH  11  13
HETATM   13  C   UNL     1      -9.491  15.113  69.339  1.00  0.00    -0.183 C  
BRANCH  13  14
HETATM   14  C   UNL     1      -8.126  15.833  69.274  1.00  0.00    -0.241 C  
HETATM   15  H   UNL     1      -5.466  15.347  69.119  1.00  0.00     0.000 H  
HETATM   16  S   UNL     1      -6.694  14.699  69.177  1.00  0.00    -0.127 SA 
ENDBRANCH  13  14
BRANCH  13  17
HETATM   17  C   UNL     1     -10.637  16.129  69.139  1.00  0.00    -0.276 C  
HETATM   18  O   UNL     1     -10.998  16.588  68.061  1.00  0.00    -0.352 OA 
BRANCH  17  19
HETATM   19  O   UNL     1     -11.204  16.439  70.341  1.00  0.00    -0.378 OA 
BRANCH  19  20
HETATM   20  C   UNL     1     -11.764  15.341  71.073  1.00  0.00    -0.348 C  
HETATM   21  C   UNL     1     -13.271  15.318  70.937  1.00  0.00    -0.506 C  
ENDBRANCH  19  20
ENDBRANCH  17  19
ENDBRANCH  13  17
ENDBRANCH  11  13
ENDBRANCH  10  11
ENDBRANCH   9  10
ENDBRANCH   7   9
ENDBRANCH   6   7
BRANCH   6  22
HETATM   22  C   UNL     1     -12.453  14.401  65.510  1.00  0.00    -0.347 C  
HETATM   23  H   UNL     1     -10.795  16.445  64.838  1.00  0.00     0.000 H  
HETATM   24  S   UNL     1     -10.864  15.058  64.894  1.00  0.00    -0.377 SA 
ENDBRANCH   6  22
ENDBRANCH   4   6
ENDBRANCH   3   4
ENDBRANCH   2   3
TORSDOF 13
ENDMDL
MODEL       96
REMARK 921   NORMALIZED FREE ENERGY PREDICTED BY IDOCK:   -4.12 KCAL/MOL
REMARK 922        TOTAL FREE ENERGY PREDICTED BY IDOCK:   -7.85 KCAL/MOL
REMARK 923 INTER-LIGAND FREE ENERGY PREDICTED BY IDOCK:   -6.86 KCAL/MOL
REMARK 924 INTRA-LIGAND FREE ENERGY PREDICTED BY IDOCK:   -0.99 KCAL/MOL
REMARK 927      BINDING AFFINITY PREDICTED BY RF-SCORE:    0.00 PKD
ROOT
HETATM    1  C   UNL     1     -11.279   8.805  70.838  1.00  0.00    -0.320 C  
HETATM    2  C   UNL     1     -10.431   9.743  70.006  1.00  0.00    -0.270 C  
ENDROOT
BRANCH   2   3
HETATM    3  O   UNL     1     -10.819   9.673  68.626  1.00  0.00    -0.219 OA 
BRANCH   3   4
HETATM    4  C   UNL     1     -11.540  10.732  68.158  1.00  0.00    -0.197 C  
HETATM    5  O   UNL     1     -12.527  11.210  68.703  1.00  0.00    -0.463 OA 
BRANCH   4   6
HETATM    6  C   UNL     1     -10.914  11.239  66.844  1.00  0.00    -0.290 C  
BRANCH   6   7
HETATM    7  N   UNL     1     -10.275  12.564  67.070  1.00  0.00    -0.221 NA 
HETATM    8  H   UNL     1      -9.309  12.554  66.738  1.00  0.00     0.000 HD 
BRANCH   7   9
HETATM    9  C   UNL     1     -11.003  13.695  66.488  1.00  0.00    -0.295 C  
BRANCH   9  10
HETATM   10  C   UNL     1     -11.725  14.565  67.542  1.00  0.00    -0.386 C  
BRANCH  10  11
HETATM   11  N   UNL     1     -11.591  14.096  68.930  1.00  0.00    -0.288 NA 
HETATM   12  H   UNL     1     -11.046  13.234  68.965  1.00  0.00     0.000 HD 
BRANCH  11  13
HETATM   13  C   UNL     1     -11.026  15.110  69.869  1.00  0.00    -0.274 C  
BRANCH  13  14
HETATM   14  C   UNL     1     -10.444  16.346  69.149  1.00  0.00    -0.303 C  
HETATM   15  H   UNL     1      -8.141  17.315  68.101  1.00  0.00     0.000 H  
HETATM   16  S   UNL     1      -8.665  16.202  68.749  1.00  0.00    -0.252 SA 
ENDBRANCH  13  14
BRANCH  13  17
HETATM   17  C   UNL     1     -12.111  15.545  70.878  1.00  0.00    -0.385 C  
HETATM   18  O   UNL     1     -13.305  15.669  70.628  1.00  0.00    -0.494 OA 
BRANCH  17  19
HETATM   19  O   UNL     1     -11.550  15.764  72.104  1.00  0.00    -0.418 OA 
BRANCH  19  20
HETATM   20  C   UNL     1     -12.453  16.156  73.146  1.00  0.00    -0.519 C  
HETATM   21  C   UNL     1     -12.321  15.239  74.344  1.00  0.00    -0.710 C  
ENDBRANCH  19  20
ENDBRANCH  17  19
ENDBRANCH  13  17
ENDBRANCH  11  13
ENDBRANCH  10  11
ENDBRANCH   9  10
ENDBRANCH   7   9
ENDBRANCH   6   7
BRANCH   6  22
HETATM   22  C   UNL     1      -9.999  10.141  66.263  1.00  0.00    -0.242 C  
HETATM   23  H   UNL     1      -8.639   9.445  64.016  1.00  0.00     0.000 H  
HETATM   24  S   UNL     1      -9.463  10.434  64.541  1.00  0.00    -0.312 SA 
ENDBRANCH   6  22
ENDBRANCH   4   6
ENDBRANCH   3   4
ENDBRANCH   2   3
TORSDOF 13
ENDMDL
MODEL       97
REMARK 921   NORMALIZED FREE ENERGY PREDICTED BY IDOCK:   -4.12 KCAL/MOL
REMARK 922        TOTAL FREE ENERGY PREDICTED BY IDOCK:   -7.84 KCAL/MOL
REMARK 923 INTER-LIGAND FREE ENERGY PREDICTED BY IDOCK:   -7.14 KCAL/MOL
REMARK 924 INTRA-LIGAND FREE ENERGY PREDICTED BY IDOCK:   -0.70 KCAL/MOL
REMARK 927      BINDING AFFINITY PREDICTED BY RF-SCORE:    0.00 PKD
ROOT
HETATM    1  C   UNL     1     -14.402   8.370  71.462  1.00  0.00    -0.499 C  
HETATM    2  C   UNL     1     -13.588   7.094  71.420  1.00  0.00    -0.275 C  
ENDROOT
BRANCH   2   3
HETATM    3  O   UNL     1     -12.187   7.396  71.503  1.00  0.00    -0.305 OA 
BRANCH   3   4
HETATM    4  C   UNL     1     -11.470   7.209  70.358  1.00  0.00    -0.278 C  
HETATM    5  O   UNL     1     -11.519   6.211  69.649  1.00  0.00    -0.429 OA 
BRANCH   4   6
HETATM    6  C   UNL     1     -10.599   8.450  70.089  1.00  0.00    -0.233 C  
BRANCH   6   7
HETATM    7  N   UNL     1     -11.302   9.365  69.149  1.00  0.00    -0.439 NA 
HETATM    8  H   UNL     1     -11.337  10.310  69.532  1.00  0.00     0.000 HD 
BRANCH   7   9
HETATM    9  C   UNL     1     -10.747   9.383  67.792  1.00  0.00    -0.229 C  
BRANCH   9  10
HETATM   10  C   UNL     1     -10.558  10.808  67.226  1.00  0.00    -0.257 C  
BRANCH  10  11
HETATM   11  N   UNL     1     -11.744  11.675  67.322  1.00  0.00    -0.611 NA 
HETATM   12  H   UNL     1     -12.060  11.741  68.290  1.00  0.00     0.000 HD 
BRANCH  11  13
HETATM   13  C   UNL     1     -11.557  13.038  66.741  1.00  0.00    -0.368 C  
BRANCH  13  14
HETATM   14  C   UNL     1     -12.558  13.358  65.609  1.00  0.00    -0.438 C  
HETATM   15  H   UNL     1     -12.982  12.961  62.964  1.00  0.00     0.000 H  
HETATM   16  S   UNL     1     -12.082  12.672  63.983  1.00  0.00    -0.496 SA 
ENDBRANCH  13  14
BRANCH  13  17
HETATM   17  C   UNL     1     -11.662  14.098  67.860  1.00  0.00    -0.367 C  
HETATM   18  O   UNL     1     -11.282  15.260  67.774  1.00  0.00    -0.310 OA 
BRANCH  17  19
HETATM   19  O   UNL     1     -12.255  13.556  68.964  1.00  0.00    -0.320 OA 
BRANCH  19  20
HETATM   20  C   UNL     1     -12.364  14.419  70.104  1.00  0.00    -0.348 C  
HETATM   21  C   UNL     1     -12.937  13.672  71.290  1.00  0.00    -0.399 C  
ENDBRANCH  19  20
ENDBRANCH  17  19
ENDBRANCH  13  17
ENDBRANCH  11  13
ENDBRANCH  10  11
ENDBRANCH   9  10
ENDBRANCH   7   9
ENDBRANCH   6   7
BRANCH   6  22
HETATM   22  C   UNL     1     -10.170   9.070  71.436  1.00  0.00    -0.329 C  
HETATM   23  H   UNL     1      -8.339   8.826  73.427  1.00  0.00     0.000 H  
HETATM   24  S   UNL     1      -8.725   8.268  72.215  1.00  0.00    -0.209 SA 
ENDBRANCH   6  22
ENDBRANCH   4   6
ENDBRANCH   3   4
ENDBRANCH   2   3
TORSDOF 13
ENDMDL
MODEL       98
REMARK 921   NORMALIZED FREE ENERGY PREDICTED BY IDOCK:   -4.11 KCAL/MOL
REMARK 922        TOTAL FREE ENERGY PREDICTED BY IDOCK:   -7.83 KCAL/MOL
REMARK 923 INTER-LIGAND FREE ENERGY PREDICTED BY IDOCK:   -6.76 KCAL/MOL
REMARK 924 INTRA-LIGAND FREE ENERGY PREDICTED BY IDOCK:   -1.08 KCAL/MOL
REMARK 927      BINDING AFFINITY PREDICTED BY RF-SCORE:    0.00 PKD
ROOT
HETATM    1  C   UNL     1      -7.897  10.930  67.744  1.00  0.00    -0.109 C  
HETATM    2  C   UNL     1      -8.994  10.933  68.788  1.00  0.00    -0.164 C  
ENDROOT
BRANCH   2   3
HETATM    3  O   UNL     1      -9.938  11.979  68.515  1.00  0.00    -0.209 OA 
BRANCH   3   4
HETATM    4  C   UNL     1     -11.246  11.675  68.752  1.00  0.00    -0.245 C  
HETATM    5  O   UNL     1     -11.933  10.927  68.068  1.00  0.00    -0.586 OA 
BRANCH   4   6
HETATM    6  C   UNL     1     -11.722  12.411  70.019  1.00  0.00    -0.230 C  
BRANCH   6   7
HETATM    7  N   UNL     1     -12.393  13.685  69.640  1.00  0.00    -0.260 NA 
HETATM    8  H   UNL     1     -13.208  13.847  70.232  1.00  0.00     0.000 HD 
BRANCH   7   9
HETATM    9  C   UNL     1     -11.513  14.858  69.647  1.00  0.00    -0.294 C  
BRANCH   9  10
HETATM   10  C   UNL     1     -11.324  15.489  68.249  1.00  0.00    -0.357 C  
BRANCH  10  11
HETATM   11  N   UNL     1     -10.387  14.774  67.368  1.00  0.00    -0.242 NA 
HETATM   12  H   UNL     1     -10.271  13.809  67.678  1.00  0.00     0.000 HD 
BRANCH  11  13
HETATM   13  C   UNL     1     -10.751  14.817  65.921  1.00  0.00    -0.316 C  
BRANCH  13  14
HETATM   14  C   UNL     1     -12.219  14.421  65.652  1.00  0.00    -0.344 C  
HETATM   15  H   UNL     1     -13.738  12.388  64.704  1.00  0.00     0.000 H  
HETATM   16  S   UNL     1     -12.417  12.745  64.947  1.00  0.00    -0.457 SA 
ENDBRANCH  13  14
BRANCH  13  17
HETATM   17  C   UNL     1     -10.470  16.228  65.357  1.00  0.00    -0.343 C  
HETATM   18  O   UNL     1     -11.250  16.891  64.683  1.00  0.00    -0.915 OA 
BRANCH  17  19
HETATM   19  O   UNL     1      -9.222  16.641  65.727  1.00  0.00    -0.502 OA 
BRANCH  19  20
HETATM   20  C   UNL     1      -9.128  17.980  66.230  1.00  0.00    -0.178 C  
HETATM   21  C   UNL     1      -8.533  17.989  67.623  1.00  0.00    -0.239 C  
ENDBRANCH  19  20
ENDBRANCH  17  19
ENDBRANCH  13  17
ENDBRANCH  11  13
ENDBRANCH  10  11
ENDBRANCH   9  10
ENDBRANCH   7   9
ENDBRANCH   6   7
BRANCH   6  22
HETATM   22  C   UNL     1     -12.557  11.444  70.884  1.00  0.00    -0.356 C  
HETATM   23  H   UNL     1     -12.559   8.922  71.893  1.00  0.00     0.000 H  
HETATM   24  S   UNL     1     -11.808   9.794  71.114  1.00  0.00    -0.410 SA 
ENDBRANCH   6  22
ENDBRANCH   4   6
ENDBRANCH   3   4
ENDBRANCH   2   3
TORSDOF 13
ENDMDL
MODEL       99
REMARK 921   NORMALIZED FREE ENERGY PREDICTED BY IDOCK:   -4.11 KCAL/MOL
REMARK 922        TOTAL FREE ENERGY PREDICTED BY IDOCK:   -7.82 KCAL/MOL
REMARK 923 INTER-LIGAND FREE ENERGY PREDICTED BY IDOCK:   -7.06 KCAL/MOL
REMARK 924 INTRA-LIGAND FREE ENERGY PREDICTED BY IDOCK:   -0.76 KCAL/MOL
REMARK 927      BINDING AFFINITY PREDICTED BY RF-SCORE:    0.00 PKD
ROOT
HETATM    1  C   UNL     1     -12.094  12.649  63.511  1.00  0.00    -0.648 C  
HETATM    2  C   UNL     1     -12.674  12.938  64.880  1.00  0.00    -0.403 C  
ENDROOT
BRANCH   2   3
HETATM    3  O   UNL     1     -12.194  11.981  65.836  1.00  0.00    -0.531 OA 
BRANCH   3   4
HETATM    4  C   UNL     1     -11.555  12.498  66.924  1.00  0.00    -0.370 C  
HETATM    5  O   UNL     1     -12.090  13.148  67.813  1.00  0.00    -0.324 OA 
BRANCH   4   6
HETATM    6  C   UNL     1     -10.061  12.128  66.865  1.00  0.00    -0.206 C  
BRANCH   6   7
HETATM    7  N   UNL     1      -9.335  13.097  66.000  1.00  0.00    -0.477 NA 
HETATM    8  H   UNL     1      -9.797  13.180  65.094  1.00  0.00     0.000 HD 
BRANCH   7   9
HETATM    9  C   UNL     1      -9.146  14.422  66.600  1.00  0.00    -0.240 C  
BRANCH   9  10
HETATM   10  C   UNL     1      -9.884  15.548  65.842  1.00  0.00    -0.353 C  
BRANCH  10  11
HETATM   11  N   UNL     1      -9.333  16.898  66.048  1.00  0.00    -0.485 NA 
HETATM   12  H   UNL     1      -9.290  17.404  65.163  1.00  0.00     0.000 HD 
BRANCH  11  13
HETATM   13  C   UNL     1     -10.053  17.704  67.077  1.00  0.00    -0.330 C  
BRANCH  13  14
HETATM   14  C   UNL     1      -9.513  17.486  68.508  1.00  0.00    -0.296 C  
HETATM   15  H   UNL     1     -10.096  16.232  70.837  1.00  0.00     0.000 H  
HETATM   16  S   UNL     1     -10.582  16.429  69.549  1.00  0.00    -0.311 SA 
ENDBRANCH  13  14
BRANCH  13  17
HETATM   17  C   UNL     1      -9.981  19.202  66.706  1.00  0.00    -0.361 C  
HETATM   18  O   UNL     1     -10.663  20.090  67.205  1.00  0.00    -0.362 OA 
BRANCH  17  19
HETATM   19  O   UNL     1      -9.035  19.401  65.742  1.00  0.00    -0.385 OA 
BRANCH  19  20
HETATM   20  C   UNL     1      -7.795  19.965  66.188  1.00  0.00    -0.326 C  
HETATM   21  C   UNL     1      -6.635  19.414  65.386  1.00  0.00    -0.310 C  
ENDBRANCH  19  20
ENDBRANCH  17  19
ENDBRANCH  13  17
ENDBRANCH  11  13
ENDBRANCH  10  11
ENDBRANCH   9  10
ENDBRANCH   7   9
ENDBRANCH   6   7
BRANCH   6  22
HETATM   22  C   UNL     1      -9.520  11.974  68.302  1.00  0.00    -0.199 C  
HETATM   23  H   UNL     1      -7.432  10.964  69.716  1.00  0.00     0.000 H  
HETATM   24  S   UNL     1      -7.920  11.102  68.422  1.00  0.00    -0.144 SA 
ENDBRANCH   6  22
ENDBRANCH   4   6
ENDBRANCH   3   4
ENDBRANCH   2   3
TORSDOF 13
ENDMDL
MODEL      100
REMARK 921   NORMALIZED FREE ENERGY PREDICTED BY IDOCK:   -4.10 KCAL/MOL
REMARK 922        TOTAL FREE ENERGY PREDICTED BY IDOCK:   -7.82 KCAL/MOL
REMARK 923 INTER-LIGAND FREE ENERGY PREDICTED BY IDOCK:   -6.89 KCAL/MOL
REMARK 924 INTRA-LIGAND FREE ENERGY PREDICTED BY IDOCK:   -0.93 KCAL/MOL
REMARK 927      BINDING AFFINITY PREDICTED BY RF-SCORE:    0.00 PKD
ROOT
HETATM    1  C   UNL     1     -11.672  10.150  70.338  1.00  0.00    -0.390 C  
HETATM    2  C   UNL     1     -10.571  10.786  69.517  1.00  0.00    -0.196 C  
ENDROOT
BRANCH   2   3
HETATM    3  O   UNL     1     -10.555  10.233  68.192  1.00  0.00    -0.190 OA 
BRANCH   3   4
HETATM    4  C   UNL     1     -10.997  11.057  67.200  1.00  0.00    -0.283 C  
HETATM    5  O   UNL     1     -11.925  11.849  67.300  1.00  0.00    -0.605 OA 
BRANCH   4   6
HETATM    6  C   UNL     1     -10.139  10.844  65.937  1.00  0.00    -0.252 C  
BRANCH   6   7
HETATM    7  N   UNL     1      -9.624  12.153  65.451  1.00  0.00    -0.411 NA 
HETATM    8  H   UNL     1      -8.691  12.042  65.055  1.00  0.00     0.000 HD 
BRANCH   7   9
HETATM    9  C   UNL     1     -10.507  12.837  64.501  1.00  0.00    -0.368 C  
BRANCH   9  10
HETATM   10  C   UNL     1     -10.851  14.284  64.917  1.00  0.00    -0.416 C  
BRANCH  10  11
HETATM   11  N   UNL     1     -10.549  14.614  66.320  1.00  0.00    -0.298 NA 
HETATM   12  H   UNL     1      -9.568  14.426  66.527  1.00  0.00     0.000 HD 
BRANCH  11  13
HETATM   13  C   UNL     1     -10.908  16.009  66.713  1.00  0.00    -0.195 C  
BRANCH  13  14
HETATM   14  C   UNL     1     -10.936  16.221  68.242  1.00  0.00    -0.348 C  
HETATM   15  H   UNL     1     -11.778  15.059  70.540  1.00  0.00     0.000 H  
HETATM   16  S   UNL     1     -11.752  14.868  69.163  1.00  0.00    -0.313 SA 
ENDBRANCH  13  14
BRANCH  13  17
HETATM   17  C   UNL     1      -9.924  17.002  66.057  1.00  0.00    -0.269 C  
HETATM   18  O   UNL     1      -8.711  16.849  65.973  1.00  0.00    -0.468 OA 
BRANCH  17  19
HETATM   19  O   UNL     1     -10.603  18.082  65.569  1.00  0.00    -0.639 OA 
BRANCH  19  20
HETATM   20  C   UNL     1     -10.176  19.362  66.051  1.00  0.00    -0.457 C  
HETATM   21  C   UNL     1     -10.861  19.699  67.359  1.00  0.00    -0.497 C  
ENDBRANCH  19  20
ENDBRANCH  17  19
ENDBRANCH  13  17
ENDBRANCH  11  13
ENDBRANCH  10  11
ENDBRANCH   9  10
ENDBRANCH   7   9
ENDBRANCH   6   7
BRANCH   6  22
HETATM   22  C   UNL     1      -9.073   9.767  66.224  1.00  0.00    -0.157 C  
HETATM   23  H   UNL     1      -6.389   9.398  66.419  1.00  0.00     0.000 H  
HETATM   24  S   UNL     1      -7.350  10.368  66.160  1.00  0.00    -0.136 SA 
ENDBRANCH   6  22
ENDBRANCH   4   6
ENDBRANCH   3   4
ENDBRANCH   2   3
TORSDOF 13
ENDMDL
MODEL      101
REMARK 921   NORMALIZED FREE ENERGY PREDICTED BY IDOCK:   -4.10 KCAL/MOL
REMARK 922        TOTAL FREE ENERGY PREDICTED BY IDOCK:   -7.81 KCAL/MOL
REMARK 923 INTER-LIGAND FREE ENERGY PREDICTED BY IDOCK:   -7.42 KCAL/MOL
REMARK 924 INTRA-LIGAND FREE ENERGY PREDICTED BY IDOCK:   -0.39 KCAL/MOL
REMARK 927      BINDING AFFINITY PREDICTED BY RF-SCORE:    0.00 PKD
ROOT
HETATM    1  C   UNL     1     -10.420  19.868  65.934  1.00  0.00    -0.567 C  
HETATM    2  C   UNL     1     -10.882  19.532  67.336  1.00  0.00    -0.414 C  
ENDROOT
BRANCH   2   3
HETATM    3  O   UNL     1     -10.362  18.255  67.738  1.00  0.00    -0.364 OA 
BRANCH   3   4
HETATM    4  C   UNL     1      -9.024  18.214  67.996  1.00  0.00    -0.283 C  
HETATM    5  O   UNL     1      -8.403  19.048  68.643  1.00  0.00    -0.350 OA 
BRANCH   4   6
HETATM    6  C   UNL     1      -8.417  16.951  67.357  1.00  0.00    -0.190 C  
BRANCH   6   7
HETATM    7  N   UNL     1      -8.933  16.790  65.970  1.00  0.00    -0.495 NA 
HETATM    8  H   UNL     1      -8.166  16.834  65.298  1.00  0.00     0.000 HD 
BRANCH   7   9
HETATM    9  C   UNL     1      -9.732  15.579  65.756  1.00  0.00    -0.348 C  
BRANCH   9  10
HETATM   10  C   UNL     1      -9.150  14.331  66.455  1.00  0.00    -0.185 C  
BRANCH  10  11
HETATM   11  N   UNL     1      -9.718  13.048  66.009  1.00  0.00    -0.378 NA 
HETATM   12  H   UNL     1     -10.131  12.548  66.796  1.00  0.00     0.000 HD 
BRANCH  11  13
HETATM   13  C   UNL     1     -10.703  13.169  64.893  1.00  0.00    -0.346 C  
BRANCH  13  14
HETATM   14  C   UNL     1     -10.312  12.345  63.647  1.00  0.00    -0.403 C  
HETATM   15  H   UNL     1      -9.500   9.873  62.893  1.00  0.00     0.000 H  
HETATM   16  S   UNL     1      -9.852  10.615  64.016  1.00  0.00    -0.339 SA 
ENDBRANCH  13  14
BRANCH  13  17
HETATM   17  C   UNL     1     -12.104  12.748  65.390  1.00  0.00    -0.462 C  
HETATM   18  O   UNL     1     -13.124  12.737  64.710  1.00  0.00    -0.813 OA 
BRANCH  17  19
HETATM   19  O   UNL     1     -12.044  12.377  66.703  1.00  0.00    -0.592 OA 
BRANCH  19  20
HETATM   20  C   UNL     1     -12.253  13.423  67.661  1.00  0.00    -0.159 C  
HETATM   21  C   UNL     1     -11.786  12.993  69.035  1.00  0.00    -0.376 C  
ENDBRANCH  19  20
ENDBRANCH  17  19
ENDBRANCH  13  17
ENDBRANCH  11  13
ENDBRANCH  10  11
ENDBRANCH   9  10
ENDBRANCH   7   9
ENDBRANCH   6   7
BRANCH   6  22
HETATM   22  C   UNL     1      -6.882  16.997  67.501  1.00  0.00    -0.144 C  
HETATM   23  H   UNL     1      -4.630  17.853  66.245  1.00  0.00     0.000 H  
HETATM   24  S   UNL     1      -6.013  17.811  66.116  1.00  0.00    -0.216 SA 
ENDBRANCH   6  22
ENDBRANCH   4   6
ENDBRANCH   3   4
ENDBRANCH   2   3
TORSDOF 13
ENDMDL
MODEL      102
REMARK 921   NORMALIZED FREE ENERGY PREDICTED BY IDOCK:   -4.09 KCAL/MOL
REMARK 922        TOTAL FREE ENERGY PREDICTED BY IDOCK:   -7.79 KCAL/MOL
REMARK 923 INTER-LIGAND FREE ENERGY PREDICTED BY IDOCK:   -6.98 KCAL/MOL
REMARK 924 INTRA-LIGAND FREE ENERGY PREDICTED BY IDOCK:   -0.81 KCAL/MOL
REMARK 927      BINDING AFFINITY PREDICTED BY RF-SCORE:    0.00 PKD
ROOT
HETATM    1  C   UNL     1     -11.783  14.799  69.708  1.00  0.00    -0.354 C  
HETATM    2  C   UNL     1     -11.528  15.379  68.333  1.00  0.00    -0.355 C  
ENDROOT
BRANCH   2   3
HETATM    3  O   UNL     1     -12.117  14.544  67.324  1.00  0.00    -0.392 OA 
BRANCH   3   4
HETATM    4  C   UNL     1     -11.427  14.454  66.151  1.00  0.00    -0.357 C  
HETATM    5  O   UNL     1     -11.196  15.389  65.394  1.00  0.00    -0.330 OA 
BRANCH   4   6
HETATM    6  C   UNL     1     -10.975  12.997  65.932  1.00  0.00    -0.271 C  
BRANCH   6   7
HETATM    7  N   UNL     1     -11.922  12.069  66.610  1.00  0.00    -0.603 NA 
HETATM    8  H   UNL     1     -12.528  11.618  65.924  1.00  0.00     0.000 HD 
BRANCH   7   9
HETATM    9  C   UNL     1     -11.279  11.066  67.464  1.00  0.00    -0.302 C  
BRANCH   9  10
HETATM   10  C   UNL     1     -11.636  11.216  68.959  1.00  0.00    -0.324 C  
BRANCH  10  11
HETATM   11  N   UNL     1     -10.571  10.815  69.894  1.00  0.00    -0.451 NA 
HETATM   12  H   UNL     1     -10.688  11.287  70.791  1.00  0.00     0.000 HD 
BRANCH  11  13
HETATM   13  C   UNL     1     -10.451   9.341  70.092  1.00  0.00    -0.230 C  
BRANCH  13  14
HETATM   14  C   UNL     1      -9.326   8.704  69.247  1.00  0.00    -0.153 C  
HETATM   15  H   UNL     1      -8.907   6.905  67.265  1.00  0.00     0.000 H  
HETATM   16  S   UNL     1      -9.919   7.479  68.026  1.00  0.00    -0.179 SA 
ENDBRANCH  13  14
BRANCH  13  17
HETATM   17  C   UNL     1     -10.228   9.034  71.590  1.00  0.00    -0.348 C  
HETATM   18  O   UNL     1      -9.138   8.967  72.146  1.00  0.00    -0.375 OA 
BRANCH  17  19
HETATM   19  O   UNL     1     -11.429   8.859  72.216  1.00  0.00    -0.348 OA 
BRANCH  19  20
HETATM   20  C   UNL     1     -12.424   8.141  71.474  1.00  0.00    -0.307 C  
HETATM   21  C   UNL     1     -12.315   6.653  71.730  1.00  0.00    -0.385 C  
ENDBRANCH  19  20
ENDBRANCH  17  19
ENDBRANCH  13  17
ENDBRANCH  11  13
ENDBRANCH  10  11
ENDBRANCH   9  10
ENDBRANCH   7   9
ENDBRANCH   6   7
BRANCH   6  22
HETATM   22  C   UNL     1     -10.759  12.755  64.424  1.00  0.00    -0.376 C  
HETATM   23  H   UNL     1     -12.065  12.023  62.157  1.00  0.00     0.000 H  
HETATM   24  S   UNL     1     -12.259  12.241  63.516  1.00  0.00    -0.544 SA 
ENDBRANCH   6  22
ENDBRANCH   4   6
ENDBRANCH   3   4
ENDBRANCH   2   3
TORSDOF 13
ENDMDL
MODEL      103
REMARK 921   NORMALIZED FREE ENERGY PREDICTED BY IDOCK:   -4.09 KCAL/MOL
REMARK 922        TOTAL FREE ENERGY PREDICTED BY IDOCK:   -7.79 KCAL/MOL
REMARK 923 INTER-LIGAND FREE ENERGY PREDICTED BY IDOCK:   -6.80 KCAL/MOL
REMARK 924 INTRA-LIGAND FREE ENERGY PREDICTED BY IDOCK:   -1.00 KCAL/MOL
REMARK 927      BINDING AFFINITY PREDICTED BY RF-SCORE:    0.00 PKD
ROOT
HETATM    1  C   UNL     1     -11.238  15.464  69.558  1.00  0.00    -0.289 C  
HETATM    2  C   UNL     1     -11.016  15.841  68.108  1.00  0.00    -0.330 C  
ENDROOT
BRANCH   2   3
HETATM    3  O   UNL     1     -11.651  14.886  67.244  1.00  0.00    -0.360 OA 
BRANCH   3   4
HETATM    4  C   UNL     1     -10.982  14.592  66.092  1.00  0.00    -0.322 C  
HETATM    5  O   UNL     1     -10.414  15.408  65.377  1.00  0.00    -0.342 OA 
BRANCH   4   6
HETATM    6  C   UNL     1     -11.042  13.073  65.838  1.00  0.00    -0.280 C  
BRANCH   6   7
HETATM    7  N   UNL     1     -11.972  12.436  66.810  1.00  0.00    -0.588 NA 
HETATM    8  H   UNL     1     -12.843  12.172  66.348  1.00  0.00     0.000 HD 
BRANCH   7   9
HETATM    9  C   UNL     1     -11.406  11.290  67.529  1.00  0.00    -0.288 C  
BRANCH   9  10
HETATM   10  C   UNL     1     -10.162  11.650  68.371  1.00  0.00    -0.207 C  
BRANCH  10  11
HETATM   11  N   UNL     1      -9.778  10.641  69.372  1.00  0.00    -0.387 NA 
HETATM   12  H   UNL     1      -9.620  11.081  70.279  1.00  0.00     0.000 HD 
BRANCH  11  13
HETATM   13  C   UNL     1     -10.742   9.508  69.502  1.00  0.00    -0.228 C  
BRANCH  13  14
HETATM   14  C   UNL     1     -10.101   8.131  69.224  1.00  0.00    -0.202 C  
HETATM   15  H   UNL     1     -10.565   5.474  69.477  1.00  0.00     0.000 H  
HETATM   16  S   UNL     1     -11.142   6.714  69.727  1.00  0.00    -0.354 SA 
ENDBRANCH  13  14
BRANCH  13  17
HETATM   17  C   UNL     1     -11.375   9.525  70.911  1.00  0.00    -0.341 C  
HETATM   18  O   UNL     1     -10.793   9.247  71.954  1.00  0.00    -0.351 OA 
BRANCH  17  19
HETATM   19  O   UNL     1     -12.684   9.905  70.832  1.00  0.00    -0.321 OA 
BRANCH  19  20
HETATM   20  C   UNL     1     -13.084  10.962  71.714  1.00  0.00    -0.459 C  
HETATM   21  C   UNL     1     -12.720  12.312  71.134  1.00  0.00    -0.340 C  
ENDBRANCH  19  20
ENDBRANCH  17  19
ENDBRANCH  13  17
ENDBRANCH  11  13
ENDBRANCH  10  11
ENDBRANCH   9  10
ENDBRANCH   7   9
ENDBRANCH   6   7
BRANCH   6  22
HETATM   22  C   UNL     1     -11.352  12.822  64.348  1.00  0.00    -0.347 C  
HETATM   23  H   UNL     1     -10.452  11.483  62.162  1.00  0.00     0.000 H  
HETATM   24  S   UNL     1     -10.173  11.710  63.504  1.00  0.00    -0.464 SA 
ENDBRANCH   6  22
ENDBRANCH   4   6
ENDBRANCH   3   4
ENDBRANCH   2   3
TORSDOF 13
ENDMDL
MODEL      104
REMARK 921   NORMALIZED FREE ENERGY PREDICTED BY IDOCK:   -4.08 KCAL/MOL
REMARK 922        TOTAL FREE ENERGY PREDICTED BY IDOCK:   -7.78 KCAL/MOL
REMARK 923 INTER-LIGAND FREE ENERGY PREDICTED BY IDOCK:   -6.92 KCAL/MOL
REMARK 924 INTRA-LIGAND FREE ENERGY PREDICTED BY IDOCK:   -0.86 KCAL/MOL
REMARK 927      BINDING AFFINITY PREDICTED BY RF-SCORE:    0.00 PKD
ROOT
HETATM    1  C   UNL     1     -10.294   5.238  69.304  1.00  0.00    -0.286 C  
HETATM    2  C   UNL     1     -11.165   6.475  69.340  1.00  0.00    -0.356 C  
ENDROOT
BRANCH   2   3
HETATM    3  O   UNL     1     -12.055   6.423  70.465  1.00  0.00    -0.297 OA 
BRANCH   3   4
HETATM    4  C   UNL     1     -11.549   6.883  71.645  1.00  0.00    -0.287 C  
HETATM    5  O   UNL     1     -11.512   6.250  72.693  1.00  0.00    -0.267 OA 
BRANCH   4   6
HETATM    6  C   UNL     1     -11.021   8.318  71.452  1.00  0.00    -0.249 C  
BRANCH   6   7
HETATM    7  N   UNL     1     -12.035   9.296  71.931  1.00  0.00    -0.371 NA 
HETATM    8  H   UNL     1     -11.667   9.833  72.718  1.00  0.00     0.000 HD 
BRANCH   7   9
HETATM    9  C   UNL     1     -12.548  10.196  70.893  1.00  0.00    -0.360 C  
BRANCH   9  10
HETATM   10  C   UNL     1     -11.659  10.243  69.630  1.00  0.00    -0.201 C  
BRANCH  10  11
HETATM   11  N   UNL     1     -12.164  11.104  68.548  1.00  0.00    -0.722 NA 
HETATM   12  H   UNL     1     -13.097  11.450  68.774  1.00  0.00     0.000 HD 
BRANCH  11  13
HETATM   13  C   UNL     1     -11.259  12.237  68.193  1.00  0.00    -0.269 C  
BRANCH  13  14
HETATM   14  C   UNL     1      -9.837  11.779  67.801  1.00  0.00    -0.181 C  
HETATM   15  H   UNL     1      -7.355  12.736  67.291  1.00  0.00     0.000 H  
HETATM   16  S   UNL     1      -8.635  13.148  67.645  1.00  0.00    -0.207 SA 
ENDBRANCH  13  14
BRANCH  13  17
HETATM   17  C   UNL     1     -11.886  13.063  67.048  1.00  0.00    -0.377 C  
HETATM   18  O   UNL     1     -12.140  14.261  67.093  1.00  0.00    -0.423 OA 
BRANCH  17  19
HETATM   19  O   UNL     1     -12.111  12.264  65.964  1.00  0.00    -0.623 OA 
BRANCH  19  20
HETATM   20  C   UNL     1     -11.692  12.792  64.698  1.00  0.00    -0.355 C  
HETATM   21  C   UNL     1     -12.400  12.086  63.561  1.00  0.00    -0.661 C  
ENDBRANCH  19  20
ENDBRANCH  17  19
ENDBRANCH  13  17
ENDBRANCH  11  13
ENDBRANCH  10  11
ENDBRANCH   9  10
ENDBRANCH   7   9
ENDBRANCH   6   7
BRANCH   6  22
HETATM   22  C   UNL     1      -9.622   8.433  72.090  1.00  0.00    -0.297 C  
HETATM   23  H   UNL     1      -6.974   8.426  71.481  1.00  0.00     0.000 H  
HETATM   24  S   UNL     1      -8.235   8.322  70.906  1.00  0.00    -0.127 SA 
ENDBRANCH   6  22
ENDBRANCH   4   6
ENDBRANCH   3   4
ENDBRANCH   2   3
TORSDOF 13
ENDMDL
MODEL      105
REMARK 921   NORMALIZED FREE ENERGY PREDICTED BY IDOCK:   -4.08 KCAL/MOL
REMARK 922        TOTAL FREE ENERGY PREDICTED BY IDOCK:   -7.77 KCAL/MOL
REMARK 923 INTER-LIGAND FREE ENERGY PREDICTED BY IDOCK:   -6.51 KCAL/MOL
REMARK 924 INTRA-LIGAND FREE ENERGY PREDICTED BY IDOCK:   -1.26 KCAL/MOL
REMARK 927      BINDING AFFINITY PREDICTED BY RF-SCORE:    0.00 PKD
ROOT
HETATM    1  C   UNL     1      -8.793  11.874  66.612  1.00  0.00    -0.191 C  
HETATM    2  C   UNL     1     -10.021  11.028  66.349  1.00  0.00    -0.222 C  
ENDROOT
BRANCH   2   3
HETATM    3  O   UNL     1     -11.015  11.270  67.356  1.00  0.00    -0.247 OA 
BRANCH   3   4
HETATM    4  C   UNL     1     -11.777  12.388  67.182  1.00  0.00    -0.345 C  
HETATM    5  O   UNL     1     -12.409  12.661  66.169  1.00  0.00    -0.570 OA 
BRANCH   4   6
HETATM    6  C   UNL     1     -11.726  13.248  68.459  1.00  0.00    -0.352 C  
BRANCH   6   7
HETATM    7  N   UNL     1     -11.253  12.421  69.604  1.00  0.00    -0.484 NA 
HETATM    8  H   UNL     1     -10.447  12.860  70.050  1.00  0.00     0.000 HD 
BRANCH   7   9
HETATM    9  C   UNL     1     -12.286  12.115  70.598  1.00  0.00    -0.295 C  
BRANCH   9  10
HETATM   10  C   UNL     1     -12.508  10.601  70.804  1.00  0.00    -0.385 C  
BRANCH  10  11
HETATM   11  N   UNL     1     -11.989   9.745  69.725  1.00  0.00    -0.448 NA 
HETATM   12  H   UNL     1     -11.594  10.315  68.977  1.00  0.00     0.000 HD 
BRANCH  11  13
HETATM   13  C   UNL     1     -11.003   8.719  70.176  1.00  0.00    -0.223 C  
BRANCH  13  14
HETATM   14  C   UNL     1      -9.780   9.327  70.897  1.00  0.00    -0.276 C  
HETATM   15  H   UNL     1      -7.352  10.427  70.417  1.00  0.00     0.000 H  
HETATM   16  S   UNL     1      -8.452   9.880  69.767  1.00  0.00    -0.178 SA 
ENDBRANCH  13  14
BRANCH  13  17
HETATM   17  C   UNL     1     -11.704   7.693  71.093  1.00  0.00    -0.290 C  
HETATM   18  O   UNL     1     -11.902   7.834  72.294  1.00  0.00    -0.309 OA 
BRANCH  17  19
HETATM   19  O   UNL     1     -12.086   6.601  70.368  1.00  0.00    -0.374 OA 
BRANCH  19  20
HETATM   20  C   UNL     1     -11.217   6.228  69.290  1.00  0.00    -0.389 C  
HETATM   21  C   UNL     1     -10.251   5.148  69.728  1.00  0.00    -0.357 C  
ENDBRANCH  19  20
ENDBRANCH  17  19
ENDBRANCH  13  17
ENDBRANCH  11  13
ENDBRANCH  10  11
ENDBRANCH   9  10
ENDBRANCH   7   9
ENDBRANCH   6   7
BRANCH   6  22
HETATM   22  C   UNL     1     -10.915  14.529  68.176  1.00  0.00    -0.251 C  
HETATM   23  H   UNL     1     -10.297  16.957  69.226  1.00  0.00     0.000 H  
HETATM   24  S   UNL     1     -11.027  15.803  69.481  1.00  0.00    -0.326 SA 
ENDBRANCH   6  22
ENDBRANCH   4   6
ENDBRANCH   3   4
ENDBRANCH   2   3
TORSDOF 13
ENDMDL
MODEL      106
REMARK 921   NORMALIZED FREE ENERGY PREDICTED BY IDOCK:   -4.08 KCAL/MOL
REMARK 922        TOTAL FREE ENERGY PREDICTED BY IDOCK:   -7.77 KCAL/MOL
REMARK 923 INTER-LIGAND FREE ENERGY PREDICTED BY IDOCK:   -7.36 KCAL/MOL
REMARK 924 INTRA-LIGAND FREE ENERGY PREDICTED BY IDOCK:   -0.40 KCAL/MOL
REMARK 927      BINDING AFFINITY PREDICTED BY RF-SCORE:    0.00 PKD
ROOT
HETATM    1  C   UNL     1     -11.091  15.607  64.655  1.00  0.00    -0.387 C  
HETATM    2  C   UNL     1     -12.379  14.829  64.487  1.00  0.00    -0.366 C  
ENDROOT
BRANCH   2   3
HETATM    3  O   UNL     1     -12.321  14.022  63.300  1.00  0.00    -0.718 OA 
BRANCH   3   4
HETATM    4  C   UNL     1     -12.341  12.673  63.498  1.00  0.00    -0.496 C  
HETATM    5  O   UNL     1     -13.179  11.905  63.044  1.00  0.00    -0.473 OA 
BRANCH   4   6
HETATM    6  C   UNL     1     -11.139  12.265  64.372  1.00  0.00    -0.330 C  
BRANCH   6   7
HETATM    7  N   UNL     1     -11.612  11.473  65.540  1.00  0.00    -0.134 NA 
HETATM    8  H   UNL     1     -10.991  10.681  65.708  1.00  0.00     0.000 HD 
BRANCH   7   9
HETATM    9  C   UNL     1     -11.789  12.253  66.769  1.00  0.00    -0.277 C  
BRANCH   9  10
HETATM   10  C   UNL     1     -11.164  11.585  68.014  1.00  0.00    -0.269 C  
BRANCH  10  11
HETATM   11  N   UNL     1     -11.881  10.398  68.506  1.00  0.00    -0.735 NA 
HETATM   12  H   UNL     1     -11.999   9.716  67.756  1.00  0.00     0.000 HD 
BRANCH  11  13
HETATM   13  C   UNL     1     -11.257   9.756  69.701  1.00  0.00    -0.178 C  
BRANCH  13  14
HETATM   14  C   UNL     1      -9.768  10.124  69.881  1.00  0.00    -0.150 C  
HETATM   15  H   UNL     1      -7.374   9.053  70.556  1.00  0.00     0.000 H  
HETATM   16  S   UNL     1      -8.714   8.721  70.394  1.00  0.00    -0.183 SA 
ENDBRANCH  13  14
BRANCH  13  17
HETATM   17  C   UNL     1     -12.055  10.133  70.969  1.00  0.00    -0.377 C  
HETATM   18  O   UNL     1     -12.619  11.205  71.159  1.00  0.00    -0.377 OA 
BRANCH  17  19
HETATM   19  O   UNL     1     -12.052   9.092  71.852  1.00  0.00    -0.336 OA 
BRANCH  19  20
HETATM   20  C   UNL     1     -13.336   8.670  72.330  1.00  0.00    -0.375 C  
HETATM   21  C   UNL     1     -13.865   7.518  71.502  1.00  0.00    -0.487 C  
ENDBRANCH  19  20
ENDBRANCH  17  19
ENDBRANCH  13  17
ENDBRANCH  11  13
ENDBRANCH  10  11
ENDBRANCH   9  10
ENDBRANCH   7   9
ENDBRANCH   6   7
BRANCH   6  22
HETATM   22  C   UNL     1     -10.076  11.584  63.485  1.00  0.00    -0.409 C  
HETATM   23  H   UNL     1      -8.332   9.502  63.436  1.00  0.00     0.000 H  
HETATM   24  S   UNL     1      -9.290  10.115  64.234  1.00  0.00    -0.304 SA 
ENDBRANCH   6  22
ENDBRANCH   4   6
ENDBRANCH   3   4
ENDBRANCH   2   3
TORSDOF 13
ENDMDL
MODEL      107
REMARK 921   NORMALIZED FREE ENERGY PREDICTED BY IDOCK:   -4.08 KCAL/MOL
REMARK 922        TOTAL FREE ENERGY PREDICTED BY IDOCK:   -7.77 KCAL/MOL
REMARK 923 INTER-LIGAND FREE ENERGY PREDICTED BY IDOCK:   -6.62 KCAL/MOL
REMARK 924 INTRA-LIGAND FREE ENERGY PREDICTED BY IDOCK:   -1.15 KCAL/MOL
REMARK 927      BINDING AFFINITY PREDICTED BY RF-SCORE:    0.00 PKD
ROOT
HETATM    1  C   UNL     1     -11.614  11.046  69.325  1.00  0.00    -0.384 C  
HETATM    2  C   UNL     1     -11.644  11.824  68.027  1.00  0.00    -0.316 C  
ENDROOT
BRANCH   2   3
HETATM    3  O   UNL     1     -10.398  12.511  67.831  1.00  0.00    -0.206 OA 
BRANCH   3   4
HETATM    4  C   UNL     1      -9.701  12.166  66.711  1.00  0.00    -0.207 C  
HETATM    5  O   UNL     1      -8.541  11.774  66.693  1.00  0.00    -0.178 OA 
BRANCH   4   6
HETATM    6  C   UNL     1     -10.602  12.337  65.472  1.00  0.00    -0.269 C  
BRANCH   6   7
HETATM    7  N   UNL     1     -10.262  13.608  64.774  1.00  0.00    -0.584 NA 
HETATM    8  H   UNL     1     -10.192  13.453  63.768  1.00  0.00     0.000 HD 
BRANCH   7   9
HETATM    9  C   UNL     1     -11.176  14.719  65.059  1.00  0.00    -0.395 C  
BRANCH   9  10
HETATM   10  C   UNL     1     -10.693  15.628  66.211  1.00  0.00    -0.295 C  
BRANCH  10  11
HETATM   11  N   UNL     1     -11.334  15.374  67.512  1.00  0.00    -0.308 NA 
HETATM   12  H   UNL     1     -11.444  14.371  67.665  1.00  0.00     0.000 HD 
BRANCH  11  13
HETATM   13  C   UNL     1     -10.640  16.006  68.672  1.00  0.00    -0.266 C  
BRANCH  13  14
HETATM   14  C   UNL     1     -10.345  17.507  68.459  1.00  0.00    -0.380 C  
HETATM   15  H   UNL     1      -8.297  19.257  68.166  1.00  0.00     0.000 H  
HETATM   16  S   UNL     1      -8.563  17.905  68.358  1.00  0.00    -0.290 SA 
ENDBRANCH  13  14
BRANCH  13  17
HETATM   17  C   UNL     1     -11.481  15.807  69.952  1.00  0.00    -0.346 C  
HETATM   18  O   UNL     1     -11.444  16.526  70.945  1.00  0.00    -0.311 OA 
BRANCH  17  19
HETATM   19  O   UNL     1     -12.289  14.715  69.817  1.00  0.00    -0.311 OA 
BRANCH  19  20
HETATM   20  C   UNL     1     -12.689  14.076  71.036  1.00  0.00    -0.361 C  
HETATM   21  C   UNL     1     -14.026  14.608  71.507  1.00  0.00    -0.515 C  
ENDBRANCH  19  20
ENDBRANCH  17  19
ENDBRANCH  13  17
ENDBRANCH  11  13
ENDBRANCH  10  11
ENDBRANCH   9  10
ENDBRANCH   7   9
ENDBRANCH   6   7
BRANCH   6  22
HETATM   22  C   UNL     1     -10.530  11.059  64.613  1.00  0.00    -0.329 C  
HETATM   23  H   UNL     1      -9.440  10.059  62.334  1.00  0.00     0.000 H  
HETATM   24  S   UNL     1      -9.505  11.211  63.109  1.00  0.00    -0.368 SA 
ENDBRANCH   6  22
ENDBRANCH   4   6
ENDBRANCH   3   4
ENDBRANCH   2   3
TORSDOF 13
ENDMDL
MODEL      108
REMARK 921   NORMALIZED FREE ENERGY PREDICTED BY IDOCK:   -4.07 KCAL/MOL
REMARK 922        TOTAL FREE ENERGY PREDICTED BY IDOCK:   -7.76 KCAL/MOL
REMARK 923 INTER-LIGAND FREE ENERGY PREDICTED BY IDOCK:   -6.81 KCAL/MOL
REMARK 924 INTRA-LIGAND FREE ENERGY PREDICTED BY IDOCK:   -0.94 KCAL/MOL
REMARK 927      BINDING AFFINITY PREDICTED BY RF-SCORE:    0.00 PKD
ROOT
HETATM    1  C   UNL     1     -11.438  15.997  64.419  1.00  0.00    -0.246 C  
HETATM    2  C   UNL     1     -12.387  14.826  64.559  1.00  0.00    -0.366 C  
ENDROOT
BRANCH   2   3
HETATM    3  O   UNL     1     -12.325  13.994  63.391  1.00  0.00    -0.748 OA 
BRANCH   3   4
HETATM    4  C   UNL     1     -12.100  12.668  63.618  1.00  0.00    -0.547 C  
HETATM    5  O   UNL     1     -12.928  11.777  63.475  1.00  0.00    -0.625 OA 
BRANCH   4   6
HETATM    6  C   UNL     1     -10.642  12.466  64.071  1.00  0.00    -0.413 C  
BRANCH   6   7
HETATM    7  N   UNL     1     -10.614  11.987  65.480  1.00  0.00    -0.263 NA 
HETATM    8  H   UNL     1     -10.253  11.034  65.524  1.00  0.00     0.000 HD 
BRANCH   7   9
HETATM    9  C   UNL     1      -9.876  12.857  66.401  1.00  0.00    -0.268 C  
BRANCH   9  10
HETATM   10  C   UNL     1     -10.439  12.844  67.839  1.00  0.00    -0.224 C  
BRANCH  10  11
HETATM   11  N   UNL     1      -9.686  12.013  68.793  1.00  0.00    -0.404 NA 
HETATM   12  H   UNL     1      -9.289  12.592  69.534  1.00  0.00     0.000 HD 
BRANCH  11  13
HETATM   13  C   UNL     1     -10.469  10.884  69.376  1.00  0.00    -0.173 C  
BRANCH  13  14
HETATM   14  C   UNL     1     -11.986  11.168  69.443  1.00  0.00    -0.349 C  
HETATM   15  H   UNL     1     -14.079  11.176  71.163  1.00  0.00     0.000 H  
HETATM   16  S   UNL     1     -12.714  10.921  71.102  1.00  0.00    -0.431 SA 
ENDBRANCH  13  14
BRANCH  13  17
HETATM   17  C   UNL     1     -10.205   9.596  68.565  1.00  0.00    -0.193 C  
HETATM   18  O   UNL     1     -10.444   9.447  67.372  1.00  0.00    -0.251 OA 
BRANCH  17  19
HETATM   19  O   UNL     1      -9.653   8.641  69.370  1.00  0.00    -0.163 OA 
BRANCH  19  20
HETATM   20  C   UNL     1      -8.857   9.123  70.460  1.00  0.00    -0.224 C  
HETATM   21  C   UNL     1      -9.302   8.499  71.766  1.00  0.00    -0.323 C  
ENDBRANCH  19  20
ENDBRANCH  17  19
ENDBRANCH  13  17
ENDBRANCH  11  13
ENDBRANCH  10  11
ENDBRANCH   9  10
ENDBRANCH   7   9
ENDBRANCH   6   7
BRANCH   6  22
HETATM   22  C   UNL     1      -9.911  11.576  63.044  1.00  0.00    -0.322 C  
HETATM   23  H   UNL     1      -8.428   9.309  62.835  1.00  0.00     0.000 H  
HETATM   24  S   UNL     1      -9.086  10.111  63.760  1.00  0.00    -0.279 SA 
ENDBRANCH   6  22
ENDBRANCH   4   6
ENDBRANCH   3   4
ENDBRANCH   2   3
TORSDOF 13
ENDMDL
MODEL      109
REMARK 921   NORMALIZED FREE ENERGY PREDICTED BY IDOCK:   -4.07 KCAL/MOL
REMARK 922        TOTAL FREE ENERGY PREDICTED BY IDOCK:   -7.75 KCAL/MOL
REMARK 923 INTER-LIGAND FREE ENERGY PREDICTED BY IDOCK:   -6.95 KCAL/MOL
REMARK 924 INTRA-LIGAND FREE ENERGY PREDICTED BY IDOCK:   -0.80 KCAL/MOL
REMARK 927      BINDING AFFINITY PREDICTED BY RF-SCORE:    0.00 PKD
ROOT
HETATM    1  C   UNL     1     -13.646  13.225  72.258  1.00  0.00    -0.703 C  
HETATM    2  C   UNL     1     -12.616  13.273  71.150  1.00  0.00    -0.325 C  
ENDROOT
BRANCH   2   3
HETATM    3  O   UNL     1     -12.883  14.376  70.270  1.00  0.00    -0.327 OA 
BRANCH   3   4
HETATM    4  C   UNL     1     -11.883  15.295  70.150  1.00  0.00    -0.323 C  
HETATM    5  O   UNL     1     -11.511  16.054  71.037  1.00  0.00    -0.386 OA 
BRANCH   4   6
HETATM    6  C   UNL     1     -11.286  15.222  68.732  1.00  0.00    -0.308 C  
BRANCH   6   7
HETATM    7  N   UNL     1     -12.216  14.485  67.832  1.00  0.00    -0.622 NA 
HETATM    8  H   UNL     1     -13.174  14.809  67.968  1.00  0.00     0.000 HD 
BRANCH   7   9
HETATM    9  C   UNL     1     -11.854  14.538  66.412  1.00  0.00    -0.349 C  
BRANCH   9  10
HETATM   10  C   UNL     1     -12.630  13.522  65.545  1.00  0.00    -0.481 C  
BRANCH  10  11
HETATM   11  N   UNL     1     -12.126  12.140  65.608  1.00  0.00    -0.534 NA 
HETATM   12  H   UNL     1     -12.573  11.564  64.895  1.00  0.00     0.000 HD 
BRANCH  11  13
HETATM   13  C   UNL     1     -10.640  12.024  65.516  1.00  0.00    -0.273 C  
BRANCH  13  14
HETATM   14  C   UNL     1     -10.011  11.306  66.730  1.00  0.00    -0.206 C  
HETATM   15  H   UNL     1     -10.662  10.099  69.066  1.00  0.00     0.000 H  
HETATM   16  S   UNL     1     -11.229  10.745  67.973  1.00  0.00    -0.296 SA 
ENDBRANCH  13  14
BRANCH  13  17
HETATM   17  C   UNL     1     -10.256  11.294  64.210  1.00  0.00    -0.327 C  
HETATM   18  O   UNL     1     -10.576  11.646  63.080  1.00  0.00    -0.347 OA 
BRANCH  17  19
HETATM   19  O   UNL     1      -9.494  10.198  64.493  1.00  0.00    -0.261 OA 
BRANCH  19  20
HETATM   20  C   UNL     1      -8.525   9.834  63.500  1.00  0.00    -0.184 C  
HETATM   21  C   UNL     1      -8.238   8.349  63.549  1.00  0.00    -0.106 C  
ENDBRANCH  19  20
ENDBRANCH  17  19
ENDBRANCH  13  17
ENDBRANCH  11  13
ENDBRANCH  10  11
ENDBRANCH   9  10
ENDBRANCH   7   9
ENDBRANCH   6   7
BRANCH   6  22
HETATM   22  C   UNL     1     -10.893  16.642  68.274  1.00  0.00    -0.356 C  
HETATM   23  H   UNL     1      -8.760  18.138  67.503  1.00  0.00     0.000 H  
HETATM   24  S   UNL     1      -9.115  16.859  67.916  1.00  0.00    -0.237 SA 
ENDBRANCH   6  22
ENDBRANCH   4   6
ENDBRANCH   3   4
ENDBRANCH   2   3
TORSDOF 13
ENDMDL
MODEL      110
REMARK 921   NORMALIZED FREE ENERGY PREDICTED BY IDOCK:   -4.06 KCAL/MOL
REMARK 922        TOTAL FREE ENERGY PREDICTED BY IDOCK:   -7.75 KCAL/MOL
REMARK 923 INTER-LIGAND FREE ENERGY PREDICTED BY IDOCK:   -6.73 KCAL/MOL
REMARK 924 INTRA-LIGAND FREE ENERGY PREDICTED BY IDOCK:   -1.01 KCAL/MOL
REMARK 927      BINDING AFFINITY PREDICTED BY RF-SCORE:    0.00 PKD
ROOT
HETATM    1  C   UNL     1     -12.956  10.655  71.302  1.00  0.00    -0.513 C  
HETATM    2  C   UNL     1     -11.690   9.825  71.257  1.00  0.00    -0.394 C  
ENDROOT
BRANCH   2   3
HETATM    3  O   UNL     1     -11.970   8.519  70.732  1.00  0.00    -0.236 OA 
BRANCH   3   4
HETATM    4  C   UNL     1     -11.519   7.470  71.477  1.00  0.00    -0.265 C  
HETATM    5  O   UNL     1     -11.431   7.457  72.699  1.00  0.00    -0.309 OA 
BRANCH   4   6
HETATM    6  C   UNL     1     -11.146   6.301  70.546  1.00  0.00    -0.335 C  
BRANCH   6   7
HETATM    7  N   UNL     1     -11.704   6.543  69.187  1.00  0.00    -0.565 NA 
HETATM    8  H   UNL     1     -12.118   7.474  69.133  1.00  0.00     0.000 HD 
BRANCH   7   9
HETATM    9  C   UNL     1     -10.746   6.345  68.094  1.00  0.00    -0.291 C  
BRANCH   9  10
HETATM   10  C   UNL     1     -10.656   7.551  67.133  1.00  0.00    -0.345 C  
BRANCH  10  11
HETATM   11  N   UNL     1     -10.762   8.869  67.780  1.00  0.00    -0.453 NA 
HETATM   12  H   UNL     1     -10.431   8.820  68.744  1.00  0.00     0.000 HD 
BRANCH  11  13
HETATM   13  C   UNL     1     -10.071   9.970  67.046  1.00  0.00    -0.219 C  
BRANCH  13  14
HETATM   14  C   UNL     1      -9.384   9.497  65.747  1.00  0.00    -0.233 C  
HETATM   15  H   UNL     1      -7.012   9.570  64.441  1.00  0.00     0.000 H  
HETATM   16  S   UNL     1      -7.630   9.996  65.611  1.00  0.00    -0.143 SA 
ENDBRANCH  13  14
BRANCH  13  17
HETATM   17  C   UNL     1     -11.080  11.097  66.733  1.00  0.00    -0.214 C  
HETATM   18  O   UNL     1     -11.861  11.595  67.537  1.00  0.00    -0.591 OA 
BRANCH  17  19
HETATM   19  O   UNL     1     -10.972  11.473  65.425  1.00  0.00    -0.282 OA 
BRANCH  19  20
HETATM   20  C   UNL     1     -11.932  12.434  64.967  1.00  0.00    -0.402 C  
HETATM   21  C   UNL     1     -12.451  12.061  63.594  1.00  0.00    -0.637 C  
ENDBRANCH  19  20
ENDBRANCH  17  19
ENDBRANCH  13  17
ENDBRANCH  11  13
ENDBRANCH  10  11
ENDBRANCH   9  10
ENDBRANCH   7   9
ENDBRANCH   6   7
BRANCH   6  22
HETATM   22  C   UNL     1      -9.623   6.064  70.615  1.00  0.00    -0.173 C  
HETATM   23  H   UNL     1      -7.249   7.375  70.774  1.00  0.00     0.000 H  
HETATM   24  S   UNL     1      -8.621   7.588  70.711  1.00  0.00    -0.136 SA 
ENDBRANCH   6  22
ENDBRANCH   4   6
ENDBRANCH   3   4
ENDBRANCH   2   3
TORSDOF 13
ENDMDL
MODEL      111
REMARK 921   NORMALIZED FREE ENERGY PREDICTED BY IDOCK:   -4.06 KCAL/MOL
REMARK 922        TOTAL FREE ENERGY PREDICTED BY IDOCK:   -7.74 KCAL/MOL
REMARK 923 INTER-LIGAND FREE ENERGY PREDICTED BY IDOCK:   -7.47 KCAL/MOL
REMARK 924 INTRA-LIGAND FREE ENERGY PREDICTED BY IDOCK:   -0.27 KCAL/MOL
REMARK 927      BINDING AFFINITY PREDICTED BY RF-SCORE:    0.00 PKD
ROOT
HETATM    1  C   UNL     1      -8.784  10.373  63.279  1.00  0.00    -0.201 C  
HETATM    2  C   UNL     1      -9.886  11.389  63.062  1.00  0.00    -0.347 C  
ENDROOT
BRANCH   2   3
HETATM    3  O   UNL     1     -10.977  11.138  63.961  1.00  0.00    -0.364 OA 
BRANCH   3   4
HETATM    4  C   UNL     1     -11.921  12.119  64.036  1.00  0.00    -0.440 C  
HETATM    5  O   UNL     1     -12.846  12.271  63.247  1.00  0.00    -0.719 OA 
BRANCH   4   6
HETATM    6  C   UNL     1     -11.650  12.999  65.271  1.00  0.00    -0.328 C  
BRANCH   6   7
HETATM    7  N   UNL     1     -11.091  12.166  66.370  1.00  0.00    -0.299 NA 
HETATM    8  H   UNL     1     -10.090  12.024  66.235  1.00  0.00     0.000 HD 
BRANCH   7   9
HETATM    9  C   UNL     1     -11.357  12.681  67.717  1.00  0.00    -0.297 C  
BRANCH   9  10
HETATM   10  C   UNL     1     -10.461  13.879  68.102  1.00  0.00    -0.245 C  
BRANCH  10  11
HETATM   11  N   UNL     1     -10.315  14.104  69.550  1.00  0.00    -0.424 NA 
HETATM   12  H   UNL     1      -9.340  14.295  69.784  1.00  0.00     0.000 HD 
BRANCH  11  13
HETATM   13  C   UNL     1     -11.203  15.171  70.098  1.00  0.00    -0.273 C  
BRANCH  13  14
HETATM   14  C   UNL     1     -11.697  16.162  69.022  1.00  0.00    -0.254 C  
HETATM   15  H   UNL     1     -10.874  18.258  67.515  1.00  0.00     0.000 H  
HETATM   16  S   UNL     1     -10.429  17.365  68.484  1.00  0.00    -0.348 SA 
ENDBRANCH  13  14
BRANCH  13  17
HETATM   17  C   UNL     1     -12.407  14.525  70.818  1.00  0.00    -0.340 C  
HETATM   18  O   UNL     1     -12.553  13.324  71.020  1.00  0.00    -0.356 OA 
BRANCH  17  19
HETATM   19  O   UNL     1     -13.291  15.489  71.211  1.00  0.00    -0.497 OA 
BRANCH  19  20
HETATM   20  C   UNL     1     -13.734  15.417  72.572  1.00  0.00    -0.552 C  
HETATM   21  C   UNL     1     -12.735  16.080  73.497  1.00  0.00    -0.702 C  
ENDBRANCH  19  20
ENDBRANCH  17  19
ENDBRANCH  13  17
ENDBRANCH  11  13
ENDBRANCH  10  11
ENDBRANCH   9  10
ENDBRANCH   7   9
ENDBRANCH   6   7
BRANCH   6  22
HETATM   22  C   UNL     1     -10.800  14.215  64.850  1.00  0.00    -0.411 C  
HETATM   23  H   UNL     1     -11.001  16.782  63.983  1.00  0.00     0.000 H  
HETATM   24  S   UNL     1     -11.767  15.686  64.362  1.00  0.00    -0.072 SA 
ENDBRANCH   6  22
ENDBRANCH   4   6
ENDBRANCH   3   4
ENDBRANCH   2   3
TORSDOF 13
ENDMDL
MODEL      112
REMARK 921   NORMALIZED FREE ENERGY PREDICTED BY IDOCK:   -4.06 KCAL/MOL
REMARK 922        TOTAL FREE ENERGY PREDICTED BY IDOCK:   -7.74 KCAL/MOL
REMARK 923 INTER-LIGAND FREE ENERGY PREDICTED BY IDOCK:   -7.27 KCAL/MOL
REMARK 924 INTRA-LIGAND FREE ENERGY PREDICTED BY IDOCK:   -0.47 KCAL/MOL
REMARK 927      BINDING AFFINITY PREDICTED BY RF-SCORE:    0.00 PKD
ROOT
HETATM    1  C   UNL     1     -11.231   5.670  71.936  1.00  0.00    -0.246 C  
HETATM    2  C   UNL     1     -10.589   6.578  72.963  1.00  0.00    -0.250 C  
ENDROOT
BRANCH   2   3
HETATM    3  O   UNL     1     -11.269   7.842  73.003  1.00  0.00    -0.411 OA 
BRANCH   3   4
HETATM    4  C   UNL     1     -10.870   8.760  72.076  1.00  0.00    -0.358 C  
HETATM    5  O   UNL     1      -9.736   8.860  71.624  1.00  0.00    -0.281 OA 
BRANCH   4   6
HETATM    6  C   UNL     1     -12.069   9.642  71.679  1.00  0.00    -0.402 C  
BRANCH   6   7
HETATM    7  N   UNL     1     -12.171   9.714  70.196  1.00  0.00    -0.460 NA 
HETATM    8  H   UNL     1     -13.150   9.726  69.908  1.00  0.00     0.000 HD 
BRANCH   7   9
HETATM    9  C   UNL     1     -11.446  10.836  69.592  1.00  0.00    -0.305 C  
BRANCH   9  10
HETATM   10  C   UNL     1     -11.565  10.884  68.052  1.00  0.00    -0.215 C  
BRANCH  10  11
HETATM   11  N   UNL     1     -12.159  12.119  67.515  1.00  0.00    -0.499 NA 
HETATM   12  H   UNL     1     -12.104  12.871  68.203  1.00  0.00     0.000 HD 
BRANCH  11  13
HETATM   13  C   UNL     1     -11.581  12.561  66.211  1.00  0.00    -0.394 C  
BRANCH  13  14
HETATM   14  C   UNL     1     -12.654  12.842  65.135  1.00  0.00    -0.471 C  
HETATM   15  H   UNL     1     -13.181  12.473  62.504  1.00  0.00     0.000 H  
HETATM   16  S   UNL     1     -12.217  12.219  63.473  1.00  0.00    -0.544 SA 
ENDBRANCH  13  14
BRANCH  13  17
HETATM   17  C   UNL     1     -10.707  13.816  66.430  1.00  0.00    -0.281 C  
HETATM   18  O   UNL     1     -10.109  14.426  65.550  1.00  0.00    -0.331 OA 
BRANCH  17  19
HETATM   19  O   UNL     1     -10.702  14.159  67.751  1.00  0.00    -0.244 OA 
BRANCH  19  20
HETATM   20  C   UNL     1     -11.276  15.433  68.071  1.00  0.00    -0.325 C  
HETATM   21  C   UNL     1     -11.872  15.419  69.462  1.00  0.00    -0.370 C  
ENDBRANCH  19  20
ENDBRANCH  17  19
ENDBRANCH  13  17
ENDBRANCH  11  13
ENDBRANCH  10  11
ENDBRANCH   9  10
ENDBRANCH   7   9
ENDBRANCH   6   7
BRANCH   6  22
HETATM   22  C   UNL     1     -13.329   9.146  72.417  1.00  0.00    -0.463 C  
HETATM   23  H   UNL     1     -15.439   7.453  72.167  1.00  0.00     0.000 H  
HETATM   24  S   UNL     1     -14.303   7.900  71.502  1.00  0.00    -0.416 SA 
ENDBRANCH   6  22
ENDBRANCH   4   6
ENDBRANCH   3   4
ENDBRANCH   2   3
TORSDOF 13
ENDMDL
MODEL      113
REMARK 921   NORMALIZED FREE ENERGY PREDICTED BY IDOCK:   -4.05 KCAL/MOL
REMARK 922        TOTAL FREE ENERGY PREDICTED BY IDOCK:   -7.73 KCAL/MOL
REMARK 923 INTER-LIGAND FREE ENERGY PREDICTED BY IDOCK:   -6.90 KCAL/MOL
REMARK 924 INTRA-LIGAND FREE ENERGY PREDICTED BY IDOCK:   -0.83 KCAL/MOL
REMARK 927      BINDING AFFINITY PREDICTED BY RF-SCORE:    0.00 PKD
ROOT
HETATM    1  C   UNL     1     -11.990  12.130  63.608  1.00  0.00    -0.628 C  
HETATM    2  C   UNL     1     -12.650  12.672  64.858  1.00  0.00    -0.450 C  
ENDROOT
BRANCH   2   3
HETATM    3  O   UNL     1     -12.052  12.092  66.028  1.00  0.00    -0.561 OA 
BRANCH   3   4
HETATM    4  C   UNL     1     -10.943  12.726  66.505  1.00  0.00    -0.262 C  
HETATM    5  O   UNL     1      -9.854  12.198  66.693  1.00  0.00    -0.203 OA 
BRANCH   4   6
HETATM    6  C   UNL     1     -11.270  14.210  66.759  1.00  0.00    -0.323 C  
BRANCH   6   7
HETATM    7  N   UNL     1     -11.334  14.467  68.224  1.00  0.00    -0.273 NA 
HETATM    8  H   UNL     1     -10.490  14.122  68.682  1.00  0.00     0.000 HD 
BRANCH   7   9
HETATM    9  C   UNL     1     -11.576  15.868  68.584  1.00  0.00    -0.380 C  
BRANCH   9  10
HETATM   10  C   UNL     1     -10.343  16.563  69.202  1.00  0.00    -0.316 C  
BRANCH  10  11
HETATM   11  N   UNL     1     -10.052  17.902  68.664  1.00  0.00    -0.381 NA 
HETATM   12  H   UNL     1     -10.024  18.591  69.417  1.00  0.00     0.000 HD 
BRANCH  11  13
HETATM   13  C   UNL     1      -8.808  17.977  67.842  1.00  0.00    -0.268 C  
BRANCH  13  14
HETATM   14  C   UNL     1      -8.825  19.132  66.817  1.00  0.00    -0.311 C  
HETATM   15  H   UNL     1     -10.520  20.679  65.378  1.00  0.00     0.000 H  
HETATM   16  S   UNL     1     -10.504  19.640  66.301  1.00  0.00    -0.510 SA 
ENDBRANCH  13  14
BRANCH  13  17
HETATM   17  C   UNL     1      -7.580  18.108  68.770  1.00  0.00    -0.274 C  
HETATM   18  O   UNL     1      -6.840  17.190  69.102  1.00  0.00    -0.227 OA 
BRANCH  17  19
HETATM   19  O   UNL     1      -7.428  19.407  69.165  1.00  0.00    -0.358 OA 
BRANCH  19  20
HETATM   20  C   UNL     1      -6.081  19.840  69.391  1.00  0.00    -0.303 C  
HETATM   21  C   UNL     1      -5.674  20.883  68.372  1.00  0.00    -0.387 C  
ENDBRANCH  19  20
ENDBRANCH  17  19
ENDBRANCH  13  17
ENDBRANCH  11  13
ENDBRANCH  10  11
ENDBRANCH   9  10
ENDBRANCH   7   9
ENDBRANCH   6   7
BRANCH   6  22
HETATM   22  C   UNL     1     -10.284  15.090  65.965  1.00  0.00    -0.301 C  
HETATM   23  H   UNL     1     -10.177  16.961  63.998  1.00  0.00     0.000 H  
HETATM   24  S   UNL     1     -11.066  16.168  64.714  1.00  0.00    -0.186 SA 
ENDBRANCH   6  22
ENDBRANCH   4   6
ENDBRANCH   3   4
ENDBRANCH   2   3
TORSDOF 13
ENDMDL
MODEL      114
REMARK 921   NORMALIZED FREE ENERGY PREDICTED BY IDOCK:   -4.05 KCAL/MOL
REMARK 922        TOTAL FREE ENERGY PREDICTED BY IDOCK:   -7.73 KCAL/MOL
REMARK 923 INTER-LIGAND FREE ENERGY PREDICTED BY IDOCK:   -6.74 KCAL/MOL
REMARK 924 INTRA-LIGAND FREE ENERGY PREDICTED BY IDOCK:   -0.99 KCAL/MOL
REMARK 927      BINDING AFFINITY PREDICTED BY RF-SCORE:    0.00 PKD
ROOT
HETATM    1  C   UNL     1      -9.449  15.861  68.055  1.00  0.00    -0.206 C  
HETATM    2  C   UNL     1     -10.489  16.855  68.525  1.00  0.00    -0.361 C  
ENDROOT
BRANCH   2   3
HETATM    3  O   UNL     1     -11.709  16.178  68.862  1.00  0.00    -0.357 OA 
BRANCH   3   4
HETATM    4  C   UNL     1     -11.832  15.787  70.163  1.00  0.00    -0.355 C  
HETATM    5  O   UNL     1     -11.430  16.420  71.131  1.00  0.00    -0.394 OA 
BRANCH   4   6
HETATM    6  C   UNL     1     -12.563  14.433  70.225  1.00  0.00    -0.323 C  
BRANCH   6   7
HETATM    7  N   UNL     1     -11.571  13.323  70.195  1.00  0.00    -0.525 NA 
HETATM    8  H   UNL     1     -11.745  12.670  70.959  1.00  0.00     0.000 HD 
BRANCH   7   9
HETATM    9  C   UNL     1     -11.501  12.607  68.917  1.00  0.00    -0.306 C  
BRANCH   9  10
HETATM   10  C   UNL     1     -11.789  11.095  69.045  1.00  0.00    -0.348 C  
BRANCH  10  11
HETATM   11  N   UNL     1     -11.435  10.294  67.862  1.00  0.00    -0.652 NA 
HETATM   12  H   UNL     1     -12.267  10.091  67.307  1.00  0.00     0.000 HD 
BRANCH  11  13
HETATM   13  C   UNL     1     -10.371  10.898  67.007  1.00  0.00    -0.231 C  
BRANCH  13  14
HETATM   14  C   UNL     1      -9.068  10.069  66.982  1.00  0.00    -0.142 C  
HETATM   15  H   UNL     1      -6.561  10.008  68.005  1.00  0.00     0.000 H  
HETATM   16  S   UNL     1      -7.734  10.754  68.028  1.00  0.00    -0.103 SA 
ENDBRANCH  13  14
BRANCH  13  17
HETATM   17  C   UNL     1     -10.907  11.091  65.571  1.00  0.00    -0.088 C  
HETATM   18  O   UNL     1     -10.371  10.670  64.552  1.00  0.00    -0.355 OA 
BRANCH  17  19
HETATM   19  O   UNL     1     -12.077  11.793  65.597  1.00  0.00    -0.336 OA 
BRANCH  19  20
HETATM   20  C   UNL     1     -12.135  12.947  64.749  1.00  0.00    -0.422 C  
HETATM   21  C   UNL     1     -12.640  14.152  65.516  1.00  0.00    -0.501 C  
ENDBRANCH  19  20
ENDBRANCH  17  19
ENDBRANCH  13  17
ENDBRANCH  11  13
ENDBRANCH  10  11
ENDBRANCH   9  10
ENDBRANCH   7   9
ENDBRANCH   6   7
BRANCH   6  22
HETATM   22  C   UNL     1     -13.533  14.435  71.425  1.00  0.00    -0.351 C  
HETATM   23  H   UNL     1     -14.517  12.844  73.395  1.00  0.00     0.000 H  
HETATM   24  S   UNL     1     -13.644  12.843  72.314  1.00  0.00    -0.379 SA 
ENDBRANCH   6  22
ENDBRANCH   4   6
ENDBRANCH   3   4
ENDBRANCH   2   3
TORSDOF 13
ENDMDL
MODEL      115
REMARK 921   NORMALIZED FREE ENERGY PREDICTED BY IDOCK:   -4.05 KCAL/MOL
REMARK 922        TOTAL FREE ENERGY PREDICTED BY IDOCK:   -7.72 KCAL/MOL
REMARK 923 INTER-LIGAND FREE ENERGY PREDICTED BY IDOCK:   -7.05 KCAL/MOL
REMARK 924 INTRA-LIGAND FREE ENERGY PREDICTED BY IDOCK:   -0.67 KCAL/MOL
REMARK 927      BINDING AFFINITY PREDICTED BY RF-SCORE:    0.00 PKD
ROOT
HETATM    1  C   UNL     1     -12.154  13.537  63.882  1.00  0.00    -0.493 C  
HETATM    2  C   UNL     1     -11.578  12.308  63.211  1.00  0.00    -0.351 C  
ENDROOT
BRANCH   2   3
HETATM    3  O   UNL     1     -10.168  12.218  63.464  1.00  0.00    -0.427 OA 
BRANCH   3   4
HETATM    4  C   UNL     1      -9.690  10.968  63.724  1.00  0.00    -0.309 C  
HETATM    5  O   UNL     1      -9.658  10.043  62.921  1.00  0.00    -0.267 OA 
BRANCH   4   6
HETATM    6  C   UNL     1      -9.189  10.902  65.179  1.00  0.00    -0.214 C  
BRANCH   6   7
HETATM    7  N   UNL     1      -9.306  12.243  65.813  1.00  0.00    -0.427 NA 
HETATM    8  H   UNL     1      -9.462  12.959  65.103  1.00  0.00     0.000 HD 
BRANCH   7   9
HETATM    9  C   UNL     1     -10.326  12.331  66.862  1.00  0.00    -0.216 C  
BRANCH   9  10
HETATM   10  C   UNL     1     -10.036  13.431  67.908  1.00  0.00    -0.238 C  
BRANCH  10  11
HETATM   11  N   UNL     1     -10.722  13.256  69.198  1.00  0.00    -0.436 NA 
HETATM   12  H   UNL     1     -10.110  12.788  69.867  1.00  0.00     0.000 HD 
BRANCH  11  13
HETATM   13  C   UNL     1     -11.265  14.518  69.781  1.00  0.00    -0.234 C  
BRANCH  13  14
HETATM   14  C   UNL     1     -11.644  15.567  68.712  1.00  0.00    -0.378 C  
HETATM   15  H   UNL     1     -10.945  18.014  67.786  1.00  0.00     0.000 H  
HETATM   16  S   UNL     1     -10.604  17.070  68.747  1.00  0.00    -0.323 SA 
ENDBRANCH  13  14
BRANCH  13  17
HETATM   17  C   UNL     1     -12.489  14.197  70.667  1.00  0.00    -0.362 C  
HETATM   18  O   UNL     1     -12.782  13.087  71.098  1.00  0.00    -0.354 OA 
BRANCH  17  19
HETATM   19  O   UNL     1     -13.201  15.335  70.914  1.00  0.00    -0.448 OA 
BRANCH  19  20
HETATM   20  C   UNL     1     -13.390  15.669  72.295  1.00  0.00    -0.478 C  
HETATM   21  C   UNL     1     -12.107  16.197  72.901  1.00  0.00    -0.643 C  
ENDBRANCH  19  20
ENDBRANCH  17  19
ENDBRANCH  13  17
ENDBRANCH  11  13
ENDBRANCH  10  11
ENDBRANCH   9  10
ENDBRANCH   7   9
ENDBRANCH   6   7
BRANCH   6  22
HETATM   22  C   UNL     1      -9.906   9.748  65.910  1.00  0.00    -0.282 C  
HETATM   23  H   UNL     1      -9.492   7.266  66.933  1.00  0.00     0.000 H  
HETATM   24  S   UNL     1      -8.847   8.305  66.274  1.00  0.00    -0.170 SA 
ENDBRANCH   6  22
ENDBRANCH   4   6
ENDBRANCH   3   4
ENDBRANCH   2   3
TORSDOF 13
ENDMDL
MODEL      116
REMARK 921   NORMALIZED FREE ENERGY PREDICTED BY IDOCK:   -4.05 KCAL/MOL
REMARK 922        TOTAL FREE ENERGY PREDICTED BY IDOCK:   -7.72 KCAL/MOL
REMARK 923 INTER-LIGAND FREE ENERGY PREDICTED BY IDOCK:   -6.60 KCAL/MOL
REMARK 924 INTRA-LIGAND FREE ENERGY PREDICTED BY IDOCK:   -1.12 KCAL/MOL
REMARK 927      BINDING AFFINITY PREDICTED BY RF-SCORE:    0.00 PKD
ROOT
HETATM    1  C   UNL     1     -13.183  10.641  71.675  1.00  0.00    -0.495 C  
HETATM    2  C   UNL     1     -12.241  11.467  70.825  1.00  0.00    -0.363 C  
ENDROOT
BRANCH   2   3
HETATM    3  O   UNL     1     -12.295  11.033  69.457  1.00  0.00    -0.324 OA 
BRANCH   3   4
HETATM    4  C   UNL     1     -11.220  10.318  69.018  1.00  0.00    -0.208 C  
HETATM    5  O   UNL     1     -10.491   9.634  69.725  1.00  0.00    -0.207 OA 
BRANCH   4   6
HETATM    6  C   UNL     1     -11.072  10.497  67.495  1.00  0.00    -0.290 C  
BRANCH   6   7
HETATM    7  N   UNL     1     -10.650  11.891  67.190  1.00  0.00    -0.224 NA 
HETATM    8  H   UNL     1      -9.675  11.909  66.890  1.00  0.00     0.000 HD 
BRANCH   7   9
HETATM    9  C   UNL     1     -11.499  12.583  66.215  1.00  0.00    -0.370 C  
BRANCH   9  10
HETATM   10  C   UNL     1     -12.257  13.790  66.810  1.00  0.00    -0.397 C  
BRANCH  10  11
HETATM   11  N   UNL     1     -12.065  13.991  68.256  1.00  0.00    -0.512 NA 
HETATM   12  H   UNL     1     -11.360  13.347  68.615  1.00  0.00     0.000 HD 
BRANCH  11  13
HETATM   13  C   UNL     1     -11.735  15.395  68.641  1.00  0.00    -0.354 C  
BRANCH  13  14
HETATM   14  C   UNL     1     -11.651  15.602  70.170  1.00  0.00    -0.354 C  
HETATM   15  H   UNL     1     -13.143  15.453  72.426  1.00  0.00     0.000 H  
HETATM   16  S   UNL     1     -13.218  15.267  71.050  1.00  0.00    -0.468 SA 
ENDBRANCH  13  14
BRANCH  13  17
HETATM   17  C   UNL     1     -10.408  15.818  67.975  1.00  0.00    -0.252 C  
HETATM   18  O   UNL     1      -9.314  15.306  68.184  1.00  0.00    -0.194 OA 
BRANCH  17  19
HETATM   19  O   UNL     1     -10.628  16.846  67.103  1.00  0.00    -0.313 OA 
BRANCH  19  20
HETATM   20  C   UNL     1      -9.851  18.031  67.321  1.00  0.00    -0.306 C  
HETATM   21  C   UNL     1     -10.742  19.255  67.371  1.00  0.00    -0.594 C  
ENDBRANCH  19  20
ENDBRANCH  17  19
ENDBRANCH  13  17
ENDBRANCH  11  13
ENDBRANCH  10  11
ENDBRANCH   9  10
ENDBRANCH   7   9
ENDBRANCH   6   7
BRANCH   6  22
HETATM   22  C   UNL     1     -10.162   9.382  66.940  1.00  0.00    -0.248 C  
HETATM   23  H   UNL     1      -7.626   8.902  66.092  1.00  0.00     0.000 H  
HETATM   24  S   UNL     1      -8.447   9.906  66.592  1.00  0.00    -0.125 SA 
ENDBRANCH   6  22
ENDBRANCH   4   6
ENDBRANCH   3   4
ENDBRANCH   2   3
TORSDOF 13
ENDMDL
MODEL      117
REMARK 921   NORMALIZED FREE ENERGY PREDICTED BY IDOCK:   -4.05 KCAL/MOL
REMARK 922        TOTAL FREE ENERGY PREDICTED BY IDOCK:   -7.72 KCAL/MOL
REMARK 923 INTER-LIGAND FREE ENERGY PREDICTED BY IDOCK:   -6.50 KCAL/MOL
REMARK 924 INTRA-LIGAND FREE ENERGY PREDICTED BY IDOCK:   -1.21 KCAL/MOL
REMARK 927      BINDING AFFINITY PREDICTED BY RF-SCORE:    0.00 PKD
ROOT
HETATM    1  C   UNL     1      -9.849  15.698  67.720  1.00  0.00    -0.220 C  
HETATM    2  C   UNL     1      -9.046  15.041  66.617  1.00  0.00    -0.280 C  
ENDROOT
BRANCH   2   3
HETATM    3  O   UNL     1      -9.873  14.133  65.874  1.00  0.00    -0.304 OA 
BRANCH   3   4
HETATM    4  C   UNL     1      -9.856  12.836  66.293  1.00  0.00    -0.267 C  
HETATM    5  O   UNL     1      -8.895  12.269  66.798  1.00  0.00    -0.202 OA 
BRANCH   4   6
HETATM    6  C   UNL     1     -11.236  12.197  66.043  1.00  0.00    -0.336 C  
BRANCH   6   7
HETATM    7  N   UNL     1     -11.809  11.717  67.330  1.00  0.00    -0.626 NA 
HETATM    8  H   UNL     1     -11.377  10.834  67.603  1.00  0.00     0.000 HD 
BRANCH   7   9
HETATM    9  C   UNL     1     -11.732  12.686  68.427  1.00  0.00    -0.333 C  
BRANCH   9  10
HETATM   10  C   UNL     1     -12.115  12.089  69.799  1.00  0.00    -0.248 C  
BRANCH  10  11
HETATM   11  N   UNL     1     -12.341  10.634  69.802  1.00  0.00    -0.517 NA 
HETATM   12  H   UNL     1     -12.504  10.297  68.852  1.00  0.00     0.000 HD 
BRANCH  11  13
HETATM   13  C   UNL     1     -11.255   9.846  70.457  1.00  0.00    -0.330 C  
BRANCH  13  14
HETATM   14  C   UNL     1     -11.650   9.310  71.850  1.00  0.00    -0.334 C  
HETATM   15  H   UNL     1     -13.809   8.647  73.346  1.00  0.00     0.000 H  
HETATM   16  S   UNL     1     -13.454   9.130  72.091  1.00  0.00    -0.499 SA 
ENDBRANCH  13  14
BRANCH  13  17
HETATM   17  C   UNL     1     -10.835   8.678  69.537  1.00  0.00    -0.129 C  
HETATM   18  O   UNL     1     -10.940   7.487  69.810  1.00  0.00    -0.244 OA 
BRANCH  17  19
HETATM   19  O   UNL     1     -10.335   9.163  68.363  1.00  0.00    -0.195 OA 
BRANCH  19  20
HETATM   20  C   UNL     1     -10.197   8.211  67.300  1.00  0.00    -0.278 C  
HETATM   21  C   UNL     1      -9.411   8.802  66.149  1.00  0.00    -0.297 C  
ENDBRANCH  19  20
ENDBRANCH  17  19
ENDBRANCH  13  17
ENDBRANCH  11  13
ENDBRANCH  10  11
ENDBRANCH   9  10
ENDBRANCH   7   9
ENDBRANCH   6   7
BRANCH   6  22
HETATM   22  C   UNL     1     -12.113  13.183  65.243  1.00  0.00    -0.429 C  
HETATM   23  H   UNL     1     -13.194  13.588  62.784  1.00  0.00     0.000 H  
HETATM   24  S   UNL     1     -12.404  12.701  63.505  1.00  0.00    -0.434 SA 
ENDBRANCH   6  22
ENDBRANCH   4   6
ENDBRANCH   3   4
ENDBRANCH   2   3
TORSDOF 13
ENDMDL
MODEL      118
REMARK 921   NORMALIZED FREE ENERGY PREDICTED BY IDOCK:   -4.04 KCAL/MOL
REMARK 922        TOTAL FREE ENERGY PREDICTED BY IDOCK:   -7.71 KCAL/MOL
REMARK 923 INTER-LIGAND FREE ENERGY PREDICTED BY IDOCK:   -7.00 KCAL/MOL
REMARK 924 INTRA-LIGAND FREE ENERGY PREDICTED BY IDOCK:   -0.70 KCAL/MOL
REMARK 927      BINDING AFFINITY PREDICTED BY RF-SCORE:    0.00 PKD
ROOT
HETATM    1  C   UNL     1     -10.304  17.977  66.361  1.00  0.00    -0.382 C  
HETATM    2  C   UNL     1     -10.346  16.671  67.126  1.00  0.00    -0.300 C  
ENDROOT
BRANCH   2   3
HETATM    3  O   UNL     1     -10.969  15.649  66.332  1.00  0.00    -0.291 OA 
BRANCH   3   4
HETATM    4  C   UNL     1     -11.476  14.588  67.022  1.00  0.00    -0.370 C  
HETATM    5  O   UNL     1     -11.930  14.636  68.158  1.00  0.00    -0.313 OA 
BRANCH   4   6
HETATM    6  C   UNL     1     -11.399  13.323  66.146  1.00  0.00    -0.309 C  
BRANCH   6   7
HETATM    7  N   UNL     1     -12.157  12.217  66.792  1.00  0.00    -0.565 NA 
HETATM    8  H   UNL     1     -12.641  11.659  66.088  1.00  0.00     0.000 HD 
BRANCH   7   9
HETATM    9  C   UNL     1     -11.350  11.355  67.662  1.00  0.00    -0.290 C  
BRANCH   9  10
HETATM   10  C   UNL     1     -11.961  11.158  69.067  1.00  0.00    -0.320 C  
BRANCH  10  11
HETATM   11  N   UNL     1     -11.844   9.794  69.608  1.00  0.00    -0.445 NA 
HETATM   12  H   UNL     1     -11.423   9.172  68.918  1.00  0.00     0.000 HD 
BRANCH  11  13
HETATM   13  C   UNL     1     -11.109   9.709  70.905  1.00  0.00    -0.352 C  
BRANCH  13  14
HETATM   14  C   UNL     1     -11.860   8.888  71.976  1.00  0.00    -0.368 C  
HETATM   15  H   UNL     1     -14.336   8.464  72.989  1.00  0.00     0.000 H  
HETATM   16  S   UNL     1     -13.661   9.203  72.024  1.00  0.00    -0.473 SA 
ENDBRANCH  13  14
BRANCH  13  17
HETATM   17  C   UNL     1      -9.704   9.114  70.667  1.00  0.00    -0.256 C  
HETATM   18  O   UNL     1      -8.773   9.151  71.464  1.00  0.00    -0.334 OA 
BRANCH  17  19
HETATM   19  O   UNL     1      -9.647   8.525  69.437  1.00  0.00    -0.167 OA 
BRANCH  19  20
HETATM   20  C   UNL     1      -9.389   7.114  69.428  1.00  0.00    -0.147 C  
HETATM   21  C   UNL     1     -10.662   6.338  69.161  1.00  0.00    -0.362 C  
ENDBRANCH  19  20
ENDBRANCH  17  19
ENDBRANCH  13  17
ENDBRANCH  11  13
ENDBRANCH  10  11
ENDBRANCH   9  10
ENDBRANCH   7   9
ENDBRANCH   6   7
BRANCH   6  22
HETATM   22  C   UNL     1     -11.823  13.677  64.706  1.00  0.00    -0.387 C  
HETATM   23  H   UNL     1     -12.446  12.554  62.312  1.00  0.00     0.000 H  
HETATM   24  S   UNL     1     -12.064  12.236  63.610  1.00  0.00    -0.572 SA 
ENDBRANCH   6  22
ENDBRANCH   4   6
ENDBRANCH   3   4
ENDBRANCH   2   3
TORSDOF 13
ENDMDL
MODEL      119
REMARK 921   NORMALIZED FREE ENERGY PREDICTED BY IDOCK:   -4.04 KCAL/MOL
REMARK 922        TOTAL FREE ENERGY PREDICTED BY IDOCK:   -7.70 KCAL/MOL
REMARK 923 INTER-LIGAND FREE ENERGY PREDICTED BY IDOCK:   -6.86 KCAL/MOL
REMARK 924 INTRA-LIGAND FREE ENERGY PREDICTED BY IDOCK:   -0.85 KCAL/MOL
REMARK 927      BINDING AFFINITY PREDICTED BY RF-SCORE:    0.00 PKD
ROOT
HETATM    1  C   UNL     1     -12.328  16.050  73.091  1.00  0.00    -0.637 C  
HETATM    2  C   UNL     1     -12.401  15.474  71.693  1.00  0.00    -0.403 C  
ENDROOT
BRANCH   2   3
HETATM    3  O   UNL     1     -11.345  16.008  70.880  1.00  0.00    -0.370 OA 
BRANCH   3   4
HETATM    4  C   UNL     1     -11.358  15.632  69.569  1.00  0.00    -0.327 C  
HETATM    5  O   UNL     1     -12.258  15.006  69.023  1.00  0.00    -0.229 OA 
BRANCH   4   6
HETATM    6  C   UNL     1     -10.071  16.126  68.881  1.00  0.00    -0.238 C  
BRANCH   6   7
HETATM    7  N   UNL     1      -9.830  15.340  67.640  1.00  0.00    -0.217 NA 
HETATM    8  H   UNL     1      -9.837  15.953  66.824  1.00  0.00     0.000 HD 
BRANCH   7   9
HETATM    9  C   UNL     1      -8.607  14.532  67.662  1.00  0.00    -0.179 C  
BRANCH   9  10
HETATM   10  C   UNL     1      -8.879  13.012  67.718  1.00  0.00    -0.188 C  
BRANCH  10  11
HETATM   11  N   UNL     1      -8.864  12.331  66.413  1.00  0.00    -0.382 NA 
HETATM   12  H   UNL     1      -8.002  11.797  66.300  1.00  0.00     0.000 HD 
BRANCH  11  13
HETATM   13  C   UNL     1     -10.053  11.466  66.158  1.00  0.00    -0.231 C  
BRANCH  13  14
HETATM   14  C   UNL     1      -9.937  10.068  66.806  1.00  0.00    -0.210 C  
HETATM   15  H   UNL     1      -8.670   7.690  66.531  1.00  0.00     0.000 H  
HETATM   16  S   UNL     1      -8.774   8.948  65.948  1.00  0.00    -0.181 SA 
ENDBRANCH  13  14
BRANCH  13  17
HETATM   17  C   UNL     1     -11.330  12.178  66.657  1.00  0.00    -0.350 C  
HETATM   18  O   UNL     1     -11.980  11.859  67.646  1.00  0.00    -0.575 OA 
BRANCH  17  19
HETATM   19  O   UNL     1     -11.629  13.229  65.840  1.00  0.00    -0.323 OA 
BRANCH  19  20
HETATM   20  C   UNL     1     -12.647  12.991  64.858  1.00  0.00    -0.428 C  
HETATM   21  C   UNL     1     -12.054  12.964  63.466  1.00  0.00    -0.633 C  
ENDBRANCH  19  20
ENDBRANCH  17  19
ENDBRANCH  13  17
ENDBRANCH  11  13
ENDBRANCH  10  11
ENDBRANCH   9  10
ENDBRANCH   7   9
ENDBRANCH   6   7
BRANCH   6  22
HETATM   22  C   UNL     1     -10.148  17.657  68.703  1.00  0.00    -0.377 C  
HETATM   23  H   UNL     1     -10.336  19.593  66.806  1.00  0.00     0.000 H  
HETATM   24  S   UNL     1     -10.266  18.214  66.967  1.00  0.00    -0.380 SA 
ENDBRANCH   6  22
ENDBRANCH   4   6
ENDBRANCH   3   4
ENDBRANCH   2   3
TORSDOF 13
ENDMDL
MODEL      120
REMARK 921   NORMALIZED FREE ENERGY PREDICTED BY IDOCK:   -4.03 KCAL/MOL
REMARK 922        TOTAL FREE ENERGY PREDICTED BY IDOCK:   -7.69 KCAL/MOL
REMARK 923 INTER-LIGAND FREE ENERGY PREDICTED BY IDOCK:   -7.15 KCAL/MOL
REMARK 924 INTRA-LIGAND FREE ENERGY PREDICTED BY IDOCK:   -0.54 KCAL/MOL
REMARK 927      BINDING AFFINITY PREDICTED BY RF-SCORE:    0.00 PKD
ROOT
HETATM    1  C   UNL     1     -13.545  14.778  72.661  1.00  0.00    -0.565 C  
HETATM    2  C   UNL     1     -13.775  13.308  72.381  1.00  0.00    -0.578 C  
ENDROOT
BRANCH   2   3
HETATM    3  O   UNL     1     -12.678  12.767  71.630  1.00  0.00    -0.283 OA 
BRANCH   3   4
HETATM    4  C   UNL     1     -12.727  11.426  71.391  1.00  0.00    -0.384 C  
HETATM    5  O   UNL     1     -13.377  10.616  72.039  1.00  0.00    -0.440 OA 
BRANCH   4   6
HETATM    6  C   UNL     1     -11.845  11.089  70.173  1.00  0.00    -0.357 C  
BRANCH   6   7
HETATM    7  N   UNL     1     -11.075  12.295  69.760  1.00  0.00    -0.468 NA 
HETATM    8  H   UNL     1     -10.074  12.100  69.781  1.00  0.00     0.000 HD 
BRANCH   7   9
HETATM    9  C   UNL     1     -11.463  12.846  68.458  1.00  0.00    -0.310 C  
BRANCH   9  10
HETATM   10  C   UNL     1     -11.760  14.361  68.498  1.00  0.00    -0.335 C  
BRANCH  10  11
HETATM   11  N   UNL     1     -10.582  15.228  68.333  1.00  0.00    -0.240 NA 
HETATM   12  H   UNL     1      -9.756  14.788  68.738  1.00  0.00     0.000 HD 
BRANCH  11  13
HETATM   13  C   UNL     1     -10.316  15.639  66.923  1.00  0.00    -0.293 C  
BRANCH  13  14
HETATM   14  C   UNL     1      -9.463  16.923  66.815  1.00  0.00    -0.255 C  
HETATM   15  H   UNL     1      -9.628  19.542  66.142  1.00  0.00     0.000 H  
HETATM   16  S   UNL     1     -10.396  18.387  66.240  1.00  0.00    -0.382 SA 
ENDBRANCH  13  14
BRANCH  13  17
HETATM   17  C   UNL     1      -9.630  14.481  66.165  1.00  0.00    -0.297 C  
HETATM   18  O   UNL     1      -8.735  13.773  66.611  1.00  0.00    -0.141 OA 
BRANCH  17  19
HETATM   19  O   UNL     1     -10.175  14.349  64.920  1.00  0.00    -0.417 OA 
BRANCH  19  20
HETATM   20  C   UNL     1     -11.352  13.534  64.833  1.00  0.00    -0.334 C  
HETATM   21  C   UNL     1     -11.427  12.842  63.489  1.00  0.00    -0.521 C  
ENDBRANCH  19  20
ENDBRANCH  17  19
ENDBRANCH  13  17
ENDBRANCH  11  13
ENDBRANCH  10  11
ENDBRANCH   9  10
ENDBRANCH   7   9
ENDBRANCH   6   7
BRANCH   6  22
HETATM   22  C   UNL     1     -11.009   9.832  70.484  1.00  0.00    -0.321 C  
HETATM   23  H   UNL     1      -8.662   8.606  69.875  1.00  0.00     0.000 H  
HETATM   24  S   UNL     1      -9.416   9.739  69.595  1.00  0.00    -0.229 SA 
ENDBRANCH   6  22
ENDBRANCH   4   6
ENDBRANCH   3   4
ENDBRANCH   2   3
TORSDOF 13
ENDMDL
MODEL      121
REMARK 921   NORMALIZED FREE ENERGY PREDICTED BY IDOCK:   -4.03 KCAL/MOL
REMARK 922        TOTAL FREE ENERGY PREDICTED BY IDOCK:   -7.68 KCAL/MOL
REMARK 923 INTER-LIGAND FREE ENERGY PREDICTED BY IDOCK:   -6.62 KCAL/MOL
REMARK 924 INTRA-LIGAND FREE ENERGY PREDICTED BY IDOCK:   -1.06 KCAL/MOL
REMARK 927      BINDING AFFINITY PREDICTED BY RF-SCORE:    0.00 PKD
ROOT
HETATM    1  C   UNL     1     -11.115  19.556  67.179  1.00  0.00    -0.292 C  
HETATM    2  C   UNL     1      -9.783  19.841  66.518  1.00  0.00    -0.422 C  
ENDROOT
BRANCH   2   3
HETATM    3  O   UNL     1      -9.262  18.648  65.914  1.00  0.00    -0.472 OA 
BRANCH   3   4
HETATM    4  C   UNL     1      -8.008  18.283  66.307  1.00  0.00    -0.234 C  
HETATM    5  O   UNL     1      -7.089  17.988  65.553  1.00  0.00    -0.515 OA 
BRANCH   4   6
HETATM    6  C   UNL     1      -7.923  18.312  67.845  1.00  0.00    -0.254 C  
BRANCH   6   7
HETATM    7  N   UNL     1      -8.668  17.155  68.412  1.00  0.00    -0.239 NA 
HETATM    8  H   UNL     1      -9.185  16.671  67.678  1.00  0.00     0.000 HD 
BRANCH   7   9
HETATM    9  C   UNL     1      -7.838  16.209  69.164  1.00  0.00    -0.232 C  
BRANCH   9  10
HETATM   10  C   UNL     1      -8.617  14.971  69.660  1.00  0.00     0.009 C  
BRANCH  10  11
HETATM   11  N   UNL     1     -10.082  15.082  69.567  1.00  0.00    -0.362 NA 
HETATM   12  H   UNL     1     -10.350  16.023  69.281  1.00  0.00     0.000 HD 
BRANCH  11  13
HETATM   13  C   UNL     1     -10.719  14.064  68.679  1.00  0.00    -0.259 C  
BRANCH  13  14
HETATM   14  C   UNL     1     -11.884  13.310  69.357  1.00  0.00    -0.329 C  
HETATM   15  H   UNL     1     -13.695  13.542  71.358  1.00  0.00     0.000 H  
HETATM   16  S   UNL     1     -12.646  14.221  70.748  1.00  0.00    -0.369 SA 
ENDBRANCH  13  14
BRANCH  13  17
HETATM   17  C   UNL     1     -11.210  14.743  67.381  1.00  0.00    -0.339 C  
HETATM   18  O   UNL     1     -10.705  15.732  66.863  1.00  0.00    -0.315 OA 
BRANCH  17  19
HETATM   19  O   UNL     1     -12.289  14.072  66.881  1.00  0.00    -0.418 OA 
BRANCH  19  20
HETATM   20  C   UNL     1     -12.417  14.065  65.453  1.00  0.00    -0.498 C  
HETATM   21  C   UNL     1     -12.446  12.646  64.925  1.00  0.00    -0.564 C  
ENDBRANCH  19  20
ENDBRANCH  17  19
ENDBRANCH  13  17
ENDBRANCH  11  13
ENDBRANCH  10  11
ENDBRANCH   9  10
ENDBRANCH   7   9
ENDBRANCH   6   7
BRANCH   6  22
HETATM   22  C   UNL     1      -6.445  18.433  68.269  1.00  0.00    -0.204 C  
HETATM   23  H   UNL     1      -4.708  20.068  69.569  1.00  0.00     0.000 H  
HETATM   24  S   UNL     1      -6.040  19.959  69.187  1.00  0.00    -0.314 SA 
ENDBRANCH   6  22
ENDBRANCH   4   6
ENDBRANCH   3   4
ENDBRANCH   2   3
TORSDOF 13
ENDMDL
MODEL      122
REMARK 921   NORMALIZED FREE ENERGY PREDICTED BY IDOCK:   -4.03 KCAL/MOL
REMARK 922        TOTAL FREE ENERGY PREDICTED BY IDOCK:   -7.68 KCAL/MOL
REMARK 923 INTER-LIGAND FREE ENERGY PREDICTED BY IDOCK:   -6.97 KCAL/MOL
REMARK 924 INTRA-LIGAND FREE ENERGY PREDICTED BY IDOCK:   -0.71 KCAL/MOL
REMARK 927      BINDING AFFINITY PREDICTED BY RF-SCORE:    0.00 PKD
ROOT
HETATM    1  C   UNL     1     -12.687  11.926  63.585  1.00  0.00    -0.509 C  
HETATM    2  C   UNL     1     -12.142  13.301  63.262  1.00  0.00    -0.337 C  
ENDROOT
BRANCH   2   3
HETATM    3  O   UNL     1     -12.550  14.245  64.264  1.00  0.00    -0.678 OA 
BRANCH   3   4
HETATM    4  C   UNL     1     -11.682  15.270  64.502  1.00  0.00    -0.305 C  
HETATM    5  O   UNL     1     -11.557  16.267  63.801  1.00  0.00    -0.952 OA 
BRANCH   4   6
HETATM    6  C   UNL     1     -10.893  14.984  65.794  1.00  0.00    -0.350 C  
BRANCH   6   7
HETATM    7  N   UNL     1      -9.880  13.923  65.541  1.00  0.00    -0.515 NA 
HETATM    8  H   UNL     1      -8.942  14.273  65.739  1.00  0.00     0.000 HD 
BRANCH   7   9
HETATM    9  C   UNL     1     -10.122  12.670  66.263  1.00  0.00    -0.253 C  
BRANCH   9  10
HETATM   10  C   UNL     1     -10.156  12.844  67.797  1.00  0.00    -0.229 C  
BRANCH  10  11
HETATM   11  N   UNL     1      -9.312  11.899  68.547  1.00  0.00    -0.320 NA 
HETATM   12  H   UNL     1      -8.741  12.397  69.231  1.00  0.00     0.000 HD 
BRANCH  11  13
HETATM   13  C   UNL     1     -10.066  10.791  69.205  1.00  0.00    -0.205 C  
BRANCH  13  14
HETATM   14  C   UNL     1     -11.596  10.997  69.176  1.00  0.00    -0.319 C  
HETATM   15  H   UNL     1     -13.742  11.266  70.809  1.00  0.00     0.000 H  
HETATM   16  S   UNL     1     -12.364  11.081  70.834  1.00  0.00    -0.403 SA 
ENDBRANCH  13  14
BRANCH  13  17
HETATM   17  C   UNL     1      -9.699   9.447  68.538  1.00  0.00    -0.149 C  
HETATM   18  O   UNL     1      -9.866   8.339  69.036  1.00  0.00    -0.169 OA 
BRANCH  17  19
HETATM   19  O   UNL     1      -9.167   9.667  67.300  1.00  0.00    -0.133 OA 
BRANCH  19  20
HETATM   20  C   UNL     1      -9.716   8.884  66.233  1.00  0.00    -0.275 C  
HETATM   21  C   UNL     1      -9.236   9.395  64.891  1.00  0.00    -0.246 C  
ENDBRANCH  19  20
ENDBRANCH  17  19
ENDBRANCH  13  17
ENDBRANCH  11  13
ENDBRANCH  10  11
ENDBRANCH   9  10
ENDBRANCH   7   9
ENDBRANCH   6   7
BRANCH   6  22
HETATM   22  C   UNL     1     -10.348  16.312  66.359  1.00  0.00    -0.314 C  
HETATM   23  H   UNL     1      -8.049  17.714  66.714  1.00  0.00     0.000 H  
HETATM   24  S   UNL     1      -8.540  16.518  66.205  1.00  0.00    -0.309 SA 
ENDBRANCH   6  22
ENDBRANCH   4   6
ENDBRANCH   3   4
ENDBRANCH   2   3
TORSDOF 13
ENDMDL
MODEL      123
REMARK 921   NORMALIZED FREE ENERGY PREDICTED BY IDOCK:   -4.02 KCAL/MOL
REMARK 922        TOTAL FREE ENERGY PREDICTED BY IDOCK:   -7.68 KCAL/MOL
REMARK 923 INTER-LIGAND FREE ENERGY PREDICTED BY IDOCK:   -7.08 KCAL/MOL
REMARK 924 INTRA-LIGAND FREE ENERGY PREDICTED BY IDOCK:   -0.60 KCAL/MOL
REMARK 927      BINDING AFFINITY PREDICTED BY RF-SCORE:    0.00 PKD
ROOT
HETATM    1  C   UNL     1     -12.578  12.033  63.448  1.00  0.00    -0.592 C  
HETATM    2  C   UNL     1     -11.448  12.340  64.407  1.00  0.00    -0.354 C  
ENDROOT
BRANCH   2   3
HETATM    3  O   UNL     1     -11.961  12.526  65.735  1.00  0.00    -0.425 OA 
BRANCH   3   4
HETATM    4  C   UNL     1     -11.316  11.841  66.722  1.00  0.00    -0.320 C  
HETATM    5  O   UNL     1     -11.857  11.306  67.682  1.00  0.00    -0.614 OA 
BRANCH   4   6
HETATM    6  C   UNL     1      -9.802  11.833  66.436  1.00  0.00    -0.214 C  
BRANCH   6   7
HETATM    7  N   UNL     1      -9.106  12.744  67.385  1.00  0.00    -0.184 NA 
HETATM    8  H   UNL     1      -8.107  12.537  67.409  1.00  0.00     0.000 HD 
BRANCH   7   9
HETATM    9  C   UNL     1      -9.326  14.171  67.128  1.00  0.00    -0.237 C  
BRANCH   9  10
HETATM   10  C   UNL     1      -8.712  15.090  68.208  1.00  0.00    -0.166 C  
BRANCH  10  11
HETATM   11  N   UNL     1      -9.394  15.057  69.512  1.00  0.00    -0.424 NA 
HETATM   12  H   UNL     1      -8.721  15.174  70.269  1.00  0.00     0.000 HD 
BRANCH  11  13
HETATM   13  C   UNL     1     -10.508  16.041  69.646  1.00  0.00    -0.300 C  
BRANCH  13  14
HETATM   14  C   UNL     1     -10.633  16.987  68.432  1.00  0.00    -0.375 C  
HETATM   15  H   UNL     1      -9.971  19.476  67.591  1.00  0.00     0.000 H  
HETATM   16  S   UNL     1      -9.859  18.624  68.684  1.00  0.00    -0.382 SA 
ENDBRANCH  13  14
BRANCH  13  17
HETATM   17  C   UNL     1     -11.839  15.291  69.874  1.00  0.00    -0.335 C  
HETATM   18  O   UNL     1     -12.244  14.345  69.208  1.00  0.00    -0.306 OA 
BRANCH  17  19
HETATM   19  O   UNL     1     -12.503  15.828  70.939  1.00  0.00    -0.431 OA 
BRANCH  19  20
HETATM   20  C   UNL     1     -13.748  15.204  71.282  1.00  0.00    -0.478 C  
HETATM   21  C   UNL     1     -13.553  14.193  72.393  1.00  0.00    -0.632 C  
ENDBRANCH  19  20
ENDBRANCH  17  19
ENDBRANCH  13  17
ENDBRANCH  11  13
ENDBRANCH  10  11
ENDBRANCH   9  10
ENDBRANCH   7   9
ENDBRANCH   6   7
BRANCH   6  22
HETATM   22  C   UNL     1      -9.297  10.376  66.411  1.00  0.00    -0.164 C  
HETATM   23  H   UNL     1      -7.560   8.724  65.132  1.00  0.00     0.000 H  
HETATM   24  S   UNL     1      -8.015  10.037  65.155  1.00  0.00    -0.149 SA 
ENDBRANCH   6  22
ENDBRANCH   4   6
ENDBRANCH   3   4
ENDBRANCH   2   3
TORSDOF 13
ENDMDL
MODEL      124
REMARK 921   NORMALIZED FREE ENERGY PREDICTED BY IDOCK:   -4.02 KCAL/MOL
REMARK 922        TOTAL FREE ENERGY PREDICTED BY IDOCK:   -7.67 KCAL/MOL
REMARK 923 INTER-LIGAND FREE ENERGY PREDICTED BY IDOCK:   -7.01 KCAL/MOL
REMARK 924 INTRA-LIGAND FREE ENERGY PREDICTED BY IDOCK:   -0.66 KCAL/MOL
REMARK 927      BINDING AFFINITY PREDICTED BY RF-SCORE:    0.00 PKD
ROOT
HETATM    1  C   UNL     1      -6.309  21.219  63.401  1.00  0.00    -0.312 C  
HETATM    2  C   UNL     1      -5.846  20.282  64.496  1.00  0.00    -0.247 C  
ENDROOT
BRANCH   2   3
HETATM    3  O   UNL     1      -6.625  20.481  65.685  1.00  0.00    -0.237 OA 
BRANCH   3   4
HETATM    4  C   UNL     1      -6.689  19.420  66.538  1.00  0.00    -0.190 C  
HETATM    5  O   UNL     1      -5.738  18.946  67.149  1.00  0.00    -0.156 OA 
BRANCH   4   6
HETATM    6  C   UNL     1      -8.142  18.915  66.623  1.00  0.00    -0.280 C  
BRANCH   6   7
HETATM    7  N   UNL     1      -8.263  17.607  65.923  1.00  0.00    -0.547 NA 
HETATM    8  H   UNL     1      -7.376  17.355  65.485  1.00  0.00     0.000 HD 
BRANCH   7   9
HETATM    9  C   UNL     1      -8.745  16.510  66.768  1.00  0.00    -0.226 C  
BRANCH   9  10
HETATM   10  C   UNL     1      -9.827  15.643  66.086  1.00  0.00    -0.314 C  
BRANCH  10  11
HETATM   11  N   UNL     1     -11.036  15.411  66.894  1.00  0.00    -0.315 NA 
HETATM   12  H   UNL     1     -11.828  15.925  66.506  1.00  0.00     0.000 HD 
BRANCH  11  13
HETATM   13  C   UNL     1     -11.386  13.971  67.076  1.00  0.00    -0.330 C  
BRANCH  13  14
HETATM   14  C   UNL     1     -11.899  13.645  68.495  1.00  0.00    -0.371 C  
HETATM   15  H   UNL     1     -12.028  14.665  71.002  1.00  0.00     0.000 H  
HETATM   16  S   UNL     1     -11.566  14.958  69.724  1.00  0.00    -0.323 SA 
ENDBRANCH  13  14
BRANCH  13  17
HETATM   17  C   UNL     1     -12.437  13.556  66.023  1.00  0.00    -0.399 C  
HETATM   18  O   UNL     1     -13.301  14.288  65.555  1.00  0.00    -0.608 OA 
BRANCH  17  19
HETATM   19  O   UNL     1     -12.259  12.248  65.674  1.00  0.00    -0.605 OA 
BRANCH  19  20
HETATM   20  C   UNL     1     -11.001  11.926  65.067  1.00  0.00    -0.312 C  
HETATM   21  C   UNL     1     -11.031  12.219  63.582  1.00  0.00    -0.532 C  
ENDBRANCH  19  20
ENDBRANCH  17  19
ENDBRANCH  13  17
ENDBRANCH  11  13
ENDBRANCH  10  11
ENDBRANCH   9  10
ENDBRANCH   7   9
ENDBRANCH   6   7
BRANCH   6  22
HETATM   22  C   UNL     1      -8.600  18.935  68.095  1.00  0.00    -0.316 C  
HETATM   23  H   UNL     1     -10.693  19.622  69.686  1.00  0.00     0.000 H  
HETATM   24  S   UNL     1     -10.279  19.604  68.359  1.00  0.00    -0.396 SA 
ENDBRANCH   6  22
ENDBRANCH   4   6
ENDBRANCH   3   4
ENDBRANCH   2   3
TORSDOF 13
ENDMDL
MODEL      125
REMARK 921   NORMALIZED FREE ENERGY PREDICTED BY IDOCK:   -4.02 KCAL/MOL
REMARK 922        TOTAL FREE ENERGY PREDICTED BY IDOCK:   -7.67 KCAL/MOL
REMARK 923 INTER-LIGAND FREE ENERGY PREDICTED BY IDOCK:   -6.90 KCAL/MOL
REMARK 924 INTRA-LIGAND FREE ENERGY PREDICTED BY IDOCK:   -0.77 KCAL/MOL
REMARK 927      BINDING AFFINITY PREDICTED BY RF-SCORE:    0.00 PKD
ROOT
HETATM    1  C   UNL     1     -10.951   4.741  73.633  1.00  0.00    -0.391 C  
HETATM    2  C   UNL     1     -10.383   6.118  73.905  1.00  0.00    -0.294 C  
ENDROOT
BRANCH   2   3
HETATM    3  O   UNL     1     -11.253   7.129  73.372  1.00  0.00    -0.223 OA 
BRANCH   3   4
HETATM    4  C   UNL     1     -10.693   7.971  72.457  1.00  0.00    -0.341 C  
HETATM    5  O   UNL     1      -9.648   8.590  72.614  1.00  0.00    -0.280 OA 
BRANCH   4   6
HETATM    6  C   UNL     1     -11.574   8.015  71.194  1.00  0.00    -0.282 C  
BRANCH   6   7
HETATM    7  N   UNL     1     -10.778   7.591  70.010  1.00  0.00    -0.238 NA 
HETATM    8  H   UNL     1     -11.319   6.948  69.431  1.00  0.00     0.000 HD 
BRANCH   7   9
HETATM    9  C   UNL     1     -10.259   8.697  69.200  1.00  0.00    -0.208 C  
BRANCH   9  10
HETATM   10  C   UNL     1     -11.084   9.997  69.339  1.00  0.00    -0.223 C  
BRANCH  10  11
HETATM   11  N   UNL     1     -11.670  10.496  68.084  1.00  0.00    -0.760 NA 
HETATM   12  H   UNL     1     -12.432  11.145  68.280  1.00  0.00     0.000 HD 
BRANCH  11  13
HETATM   13  C   UNL     1     -10.684  11.114  67.149  1.00  0.00    -0.259 C  
BRANCH  13  14
HETATM   14  C   UNL     1     -10.315  10.198  65.961  1.00  0.00    -0.164 C  
HETATM   15  H   UNL     1      -8.593   9.995  63.880  1.00  0.00     0.000 H  
HETATM   16  S   UNL     1      -8.925  10.819  64.949  1.00  0.00    -0.157 SA 
ENDBRANCH  13  14
BRANCH  13  17
HETATM   17  C   UNL     1     -11.235  12.460  66.630  1.00  0.00    -0.315 C  
HETATM   18  O   UNL     1     -10.738  13.560  66.843  1.00  0.00    -0.272 OA 
BRANCH  17  19
HETATM   19  O   UNL     1     -12.359  12.250  65.883  1.00  0.00    -0.618 OA 
BRANCH  19  20
HETATM   20  C   UNL     1     -12.580  13.173  64.809  1.00  0.00    -0.364 C  
HETATM   21  C   UNL     1     -12.120  12.585  63.492  1.00  0.00    -0.653 C  
ENDBRANCH  19  20
ENDBRANCH  17  19
ENDBRANCH  13  17
ENDBRANCH  11  13
ENDBRANCH  10  11
ENDBRANCH   9  10
ENDBRANCH   7   9
ENDBRANCH   6   7
BRANCH   6  22
HETATM   22  C   UNL     1     -12.871   7.221  71.453  1.00  0.00    -0.382 C  
HETATM   23  H   UNL     1     -15.514   7.538  71.994  1.00  0.00     0.000 H  
HETATM   24  S   UNL     1     -14.345   8.253  71.762  1.00  0.00    -0.483 SA 
ENDBRANCH   6  22
ENDBRANCH   4   6
ENDBRANCH   3   4
ENDBRANCH   2   3
TORSDOF 13
ENDMDL
MODEL      126
REMARK 921   NORMALIZED FREE ENERGY PREDICTED BY IDOCK:   -4.02 KCAL/MOL
REMARK 922        TOTAL FREE ENERGY PREDICTED BY IDOCK:   -7.67 KCAL/MOL
REMARK 923 INTER-LIGAND FREE ENERGY PREDICTED BY IDOCK:   -6.87 KCAL/MOL
REMARK 924 INTRA-LIGAND FREE ENERGY PREDICTED BY IDOCK:   -0.80 KCAL/MOL
REMARK 927      BINDING AFFINITY PREDICTED BY RF-SCORE:    0.00 PKD
ROOT
HETATM    1  C   UNL     1     -10.889   6.129  67.712  1.00  0.00    -0.413 C  
HETATM    2  C   UNL     1     -10.774   5.900  69.203  1.00  0.00    -0.324 C  
ENDROOT
BRANCH   2   3
HETATM    3  O   UNL     1     -11.967   6.343  69.868  1.00  0.00    -0.304 OA 
BRANCH   3   4
HETATM    4  C   UNL     1     -11.784   6.947  71.077  1.00  0.00    -0.345 C  
HETATM    5  O   UNL     1     -11.989   6.425  72.165  1.00  0.00    -0.325 OA 
BRANCH   4   6
HETATM    6  C   UNL     1     -11.269   8.383  70.860  1.00  0.00    -0.262 C  
BRANCH   6   7
HETATM    7  N   UNL     1     -12.418   9.327  70.800  1.00  0.00    -0.495 NA 
HETATM    8  H   UNL     1     -12.839   9.433  71.723  1.00  0.00     0.000 HD 
BRANCH   7   9
HETATM    9  C   UNL     1     -12.097  10.638  70.229  1.00  0.00    -0.338 C  
BRANCH   9  10
HETATM   10  C   UNL     1     -11.524  10.559  68.796  1.00  0.00    -0.224 C  
BRANCH  10  11
HETATM   11  N   UNL     1     -12.025  11.589  67.871  1.00  0.00    -0.641 NA 
HETATM   12  H   UNL     1     -12.759  12.141  68.316  1.00  0.00     0.000 HD 
BRANCH  11  13
HETATM   13  C   UNL     1     -10.965  12.481  67.314  1.00  0.00    -0.261 C  
BRANCH  13  14
HETATM   14  C   UNL     1     -10.791  12.337  65.786  1.00  0.00    -0.278 C  
HETATM   15  H   UNL     1     -12.152  12.562  63.455  1.00  0.00     0.000 H  
HETATM   16  S   UNL     1     -12.309  12.692  64.830  1.00  0.00    -0.471 SA 
ENDBRANCH  13  14
BRANCH  13  17
HETATM   17  C   UNL     1     -11.279  13.949  67.677  1.00  0.00    -0.295 C  
HETATM   18  O   UNL     1     -10.742  14.933  67.180  1.00  0.00    -0.284 OA 
BRANCH  17  19
HETATM   19  O   UNL     1     -12.257  13.998  68.629  1.00  0.00    -0.332 OA 
BRANCH  19  20
HETATM   20  C   UNL     1     -12.026  14.901  69.718  1.00  0.00    -0.323 C  
HETATM   21  C   UNL     1     -12.369  14.246  71.040  1.00  0.00    -0.431 C  
ENDBRANCH  19  20
ENDBRANCH  17  19
ENDBRANCH  13  17
ENDBRANCH  11  13
ENDBRANCH  10  11
ENDBRANCH   9  10
ENDBRANCH   7   9
ENDBRANCH   6   7
BRANCH   6  22
HETATM   22  C   UNL     1     -10.193   8.700  71.919  1.00  0.00    -0.334 C  
HETATM   23  H   UNL     1      -7.509   8.968  72.243  1.00  0.00     0.000 H  
HETATM   24  S   UNL     1      -8.479   8.682  71.289  1.00  0.00    -0.191 SA 
ENDBRANCH   6  22
ENDBRANCH   4   6
ENDBRANCH   3   4
ENDBRANCH   2   3
TORSDOF 13
ENDMDL
MODEL      127
REMARK 921   NORMALIZED FREE ENERGY PREDICTED BY IDOCK:   -4.02 KCAL/MOL
REMARK 922        TOTAL FREE ENERGY PREDICTED BY IDOCK:   -7.67 KCAL/MOL
REMARK 923 INTER-LIGAND FREE ENERGY PREDICTED BY IDOCK:   -6.81 KCAL/MOL
REMARK 924 INTRA-LIGAND FREE ENERGY PREDICTED BY IDOCK:   -0.86 KCAL/MOL
REMARK 927      BINDING AFFINITY PREDICTED BY RF-SCORE:    0.00 PKD
ROOT
HETATM    1  C   UNL     1     -13.724  13.364  72.331  1.00  0.00    -0.698 C  
HETATM    2  C   UNL     1     -12.627  13.426  71.290  1.00  0.00    -0.322 C  
ENDROOT
BRANCH   2   3
HETATM    3  O   UNL     1     -12.909  14.458  70.332  1.00  0.00    -0.350 OA 
BRANCH   3   4
HETATM    4  C   UNL     1     -11.957  15.426  70.205  1.00  0.00    -0.349 C  
HETATM    5  O   UNL     1     -11.654  16.237  71.071  1.00  0.00    -0.410 OA 
BRANCH   4   6
HETATM    6  C   UNL     1     -11.315  15.333  68.807  1.00  0.00    -0.308 C  
BRANCH   6   7
HETATM    7  N   UNL     1     -12.216  14.587  67.887  1.00  0.00    -0.622 NA 
HETATM    8  H   UNL     1     -13.027  15.157  67.644  1.00  0.00     0.000 HD 
BRANCH   7   9
HETATM    9  C   UNL     1     -11.562  14.083  66.675  1.00  0.00    -0.382 C  
BRANCH   9  10
HETATM   10  C   UNL     1     -11.976  12.640  66.311  1.00  0.00    -0.374 C  
BRANCH  10  11
HETATM   11  N   UNL     1     -10.856  11.714  66.078  1.00  0.00    -0.285 NA 
HETATM   12  H   UNL     1      -9.965  12.199  66.182  1.00  0.00     0.000 HD 
BRANCH  11  13
HETATM   13  C   UNL     1     -10.886  10.489  66.931  1.00  0.00    -0.187 C  
BRANCH  13  14
HETATM   14  C   UNL     1     -10.062   9.321  66.346  1.00  0.00    -0.267 C  
HETATM   15  H   UNL     1      -8.225   8.754  64.438  1.00  0.00     0.000 H  
HETATM   16  S   UNL     1      -8.966   9.806  64.965  1.00  0.00    -0.223 SA 
ENDBRANCH  13  14
BRANCH  13  17
HETATM   17  C   UNL     1     -10.384  10.833  68.351  1.00  0.00    -0.180 C  
HETATM   18  O   UNL     1      -9.264  11.248  68.627  1.00  0.00    -0.179 OA 
BRANCH  17  19
HETATM   19  O   UNL     1     -11.377  10.618  69.264  1.00  0.00    -0.244 OA 
BRANCH  19  20
HETATM   20  C   UNL     1     -11.031   9.791  70.383  1.00  0.00    -0.312 C  
HETATM   21  C   UNL     1     -12.102   9.859  71.451  1.00  0.00    -0.501 C  
ENDBRANCH  19  20
ENDBRANCH  17  19
ENDBRANCH  13  17
ENDBRANCH  11  13
ENDBRANCH  10  11
ENDBRANCH   9  10
ENDBRANCH   7   9
ENDBRANCH   6   7
BRANCH   6  22
HETATM   22  C   UNL     1     -10.902  16.746  68.345  1.00  0.00    -0.355 C  
HETATM   23  H   UNL     1      -8.730  18.329  67.951  1.00  0.00     0.000 H  
HETATM   24  S   UNL     1      -9.102  17.057  68.368  1.00  0.00    -0.262 SA 
ENDBRANCH   6  22
ENDBRANCH   4   6
ENDBRANCH   3   4
ENDBRANCH   2   3
TORSDOF 13
ENDMDL
MODEL      128
REMARK 921   NORMALIZED FREE ENERGY PREDICTED BY IDOCK:   -4.02 KCAL/MOL
REMARK 922        TOTAL FREE ENERGY PREDICTED BY IDOCK:   -7.67 KCAL/MOL
REMARK 923 INTER-LIGAND FREE ENERGY PREDICTED BY IDOCK:   -6.69 KCAL/MOL
REMARK 924 INTRA-LIGAND FREE ENERGY PREDICTED BY IDOCK:   -0.97 KCAL/MOL
REMARK 927      BINDING AFFINITY PREDICTED BY RF-SCORE:    0.00 PKD
ROOT
HETATM    1  C   UNL     1     -11.712  13.362  68.443  1.00  0.00    -0.390 C  
HETATM    2  C   UNL     1     -11.242  12.437  67.340  1.00  0.00    -0.297 C  
ENDROOT
BRANCH   2   3
HETATM    3  O   UNL     1     -12.266  12.291  66.344  1.00  0.00    -0.613 OA 
BRANCH   3   4
HETATM    4  C   UNL     1     -12.484  13.380  65.553  1.00  0.00    -0.483 C  
HETATM    5  O   UNL     1     -13.513  14.044  65.534  1.00  0.00    -0.677 OA 
BRANCH   4   6
HETATM    6  C   UNL     1     -11.233  13.651  64.696  1.00  0.00    -0.373 C  
BRANCH   6   7
HETATM    7  N   UNL     1     -11.409  13.052  63.345  1.00  0.00    -0.623 NA 
HETATM    8  H   UNL     1     -10.917  13.606  62.644  1.00  0.00     0.000 HD 
BRANCH   7   9
HETATM    9  C   UNL     1     -11.015  11.642  63.251  1.00  0.00    -0.279 C  
BRANCH   9  10
HETATM   10  C   UNL     1      -9.514  11.444  62.944  1.00  0.00    -0.345 C  
BRANCH  10  11
HETATM   11  N   UNL     1      -8.729  10.856  64.042  1.00  0.00    -0.359 NA 
HETATM   12  H   UNL     1      -9.171  11.051  64.940  1.00  0.00     0.000 HD 
BRANCH  11  13
HETATM   13  C   UNL     1      -8.470   9.393  63.895  1.00  0.00    -0.197 C  
BRANCH  13  14
HETATM   14  C   UNL     1      -7.074   9.079  63.312  1.00  0.00    -0.088 C  
HETATM   15  H   UNL     1      -4.481   9.850  63.457  1.00  0.00     0.000 H  
HETATM   16  S   UNL     1      -5.738  10.132  63.981  1.00  0.00    -0.144 SA 
ENDBRANCH  13  14
BRANCH  13  17
HETATM   17  C   UNL     1      -8.644   8.695  65.262  1.00  0.00    -0.180 C  
HETATM   18  O   UNL     1      -7.898   7.837  65.720  1.00  0.00    -0.094 OA 
BRANCH  17  19
HETATM   19  O   UNL     1      -9.750   9.180  65.898  1.00  0.00    -0.270 OA 
BRANCH  19  20
HETATM   20  C   UNL     1     -10.319   8.331  66.903  1.00  0.00    -0.320 C  
HETATM   21  C   UNL     1     -10.062   8.891  68.287  1.00  0.00    -0.219 C  
ENDBRANCH  19  20
ENDBRANCH  17  19
ENDBRANCH  13  17
ENDBRANCH  11  13
ENDBRANCH  10  11
ENDBRANCH   9  10
ENDBRANCH   7   9
ENDBRANCH   6   7
BRANCH   6  22
HETATM   22  C   UNL     1     -10.915  15.160  64.726  1.00  0.00    -0.377 C  
HETATM   23  H   UNL     1      -9.463  17.024  66.066  1.00  0.00     0.000 H  
HETATM   24  S   UNL     1      -9.749  15.665  66.039  1.00  0.00    -0.367 SA 
ENDBRANCH   6  22
ENDBRANCH   4   6
ENDBRANCH   3   4
ENDBRANCH   2   3
TORSDOF 13
ENDMDL
MODEL      129
REMARK 921   NORMALIZED FREE ENERGY PREDICTED BY IDOCK:   -4.02 KCAL/MOL
REMARK 922        TOTAL FREE ENERGY PREDICTED BY IDOCK:   -7.67 KCAL/MOL
REMARK 923 INTER-LIGAND FREE ENERGY PREDICTED BY IDOCK:   -6.83 KCAL/MOL
REMARK 924 INTRA-LIGAND FREE ENERGY PREDICTED BY IDOCK:   -0.84 KCAL/MOL
REMARK 927      BINDING AFFINITY PREDICTED BY RF-SCORE:    0.00 PKD
ROOT
HETATM    1  C   UNL     1     -14.349  14.970  71.977  1.00  0.00    -0.666 C  
HETATM    2  C   UNL     1     -13.592  13.664  72.084  1.00  0.00    -0.538 C  
ENDROOT
BRANCH   2   3
HETATM    3  O   UNL     1     -12.660  13.540  70.999  1.00  0.00    -0.353 OA 
BRANCH   3   4
HETATM    4  C   UNL     1     -12.363  12.266  70.614  1.00  0.00    -0.286 C  
HETATM    5  O   UNL     1     -12.607  11.257  71.264  1.00  0.00    -0.387 OA 
BRANCH   4   6
HETATM    6  C   UNL     1     -11.682  12.292  69.232  1.00  0.00    -0.330 C  
BRANCH   6   7
HETATM    7  N   UNL     1     -12.137  11.127  68.425  1.00  0.00    -0.727 NA 
HETATM    8  H   UNL     1     -12.668  11.442  67.613  1.00  0.00     0.000 HD 
BRANCH   7   9
HETATM    9  C   UNL     1     -11.061  10.219  68.012  1.00  0.00    -0.274 C  
BRANCH   9  10
HETATM   10  C   UNL     1     -10.366   9.513  69.197  1.00  0.00    -0.207 C  
BRANCH  10  11
HETATM   11  N   UNL     1     -10.677   8.081  69.335  1.00  0.00    -0.349 NA 
HETATM   12  H   UNL     1     -10.232   7.547  68.588  1.00  0.00     0.000 HD 
BRANCH  11  13
HETATM   13  C   UNL     1     -10.331   7.503  70.667  1.00  0.00    -0.208 C  
BRANCH  13  14
HETATM   14  C   UNL     1     -11.296   7.943  71.789  1.00  0.00    -0.264 C  
HETATM   15  H   UNL     1     -13.881   7.746  72.577  1.00  0.00     0.000 H  
HETATM   16  S   UNL     1     -13.012   7.350  71.566  1.00  0.00    -0.358 SA 
ENDBRANCH  13  14
BRANCH  13  17
HETATM   17  C   UNL     1     -10.296   5.962  70.571  1.00  0.00    -0.235 C  
HETATM   18  O   UNL     1     -10.685   5.301  69.614  1.00  0.00    -0.273 OA 
BRANCH  17  19
HETATM   19  O   UNL     1      -9.755   5.434  71.708  1.00  0.00    -0.156 OA 
BRANCH  19  20
HETATM   20  C   UNL     1     -10.382   4.244  72.206  1.00  0.00    -0.143 C  
HETATM   21  C   UNL     1     -11.179   4.542  73.459  1.00  0.00    -0.388 C  
ENDBRANCH  19  20
ENDBRANCH  17  19
ENDBRANCH  13  17
ENDBRANCH  11  13
ENDBRANCH  10  11
ENDBRANCH   9  10
ENDBRANCH   7   9
ENDBRANCH   6   7
BRANCH   6  22
HETATM   22  C   UNL     1     -11.894  13.678  68.590  1.00  0.00    -0.374 C  
HETATM   23  H   UNL     1     -12.389  14.890  66.209  1.00  0.00     0.000 H  
HETATM   24  S   UNL     1     -12.198  13.641  66.789  1.00  0.00    -0.315 SA 
ENDBRANCH   6  22
ENDBRANCH   4   6
ENDBRANCH   3   4
ENDBRANCH   2   3
TORSDOF 13
ENDMDL
MODEL      130
REMARK 921   NORMALIZED FREE ENERGY PREDICTED BY IDOCK:   -4.02 KCAL/MOL
REMARK 922        TOTAL FREE ENERGY PREDICTED BY IDOCK:   -7.67 KCAL/MOL
REMARK 923 INTER-LIGAND FREE ENERGY PREDICTED BY IDOCK:   -7.08 KCAL/MOL
REMARK 924 INTRA-LIGAND FREE ENERGY PREDICTED BY IDOCK:   -0.59 KCAL/MOL
REMARK 927      BINDING AFFINITY PREDICTED BY RF-SCORE:    0.00 PKD
ROOT
HETATM    1  C   UNL     1      -6.256  20.728  63.835  1.00  0.00    -0.331 C  
HETATM    2  C   UNL     1      -6.387  20.576  65.336  1.00  0.00    -0.260 C  
ENDROOT
BRANCH   2   3
HETATM    3  O   UNL     1      -7.657  19.995  65.667  1.00  0.00    -0.334 OA 
BRANCH   3   4
HETATM    4  C   UNL     1      -7.613  18.760  66.243  1.00  0.00    -0.262 C  
HETATM    5  O   UNL     1      -7.468  17.704  65.640  1.00  0.00    -0.508 OA 
BRANCH   4   6
HETATM    6  C   UNL     1      -7.765  18.900  67.770  1.00  0.00    -0.242 C  
BRANCH   6   7
HETATM    7  N   UNL     1      -8.766  17.917  68.268  1.00  0.00    -0.269 NA 
HETATM    8  H   UNL     1      -8.730  17.859  69.287  1.00  0.00     0.000 HD 
BRANCH   7   9
HETATM    9  C   UNL     1     -10.139  18.169  67.818  1.00  0.00    -0.362 C  
BRANCH   9  10
HETATM   10  C   UNL     1     -11.018  16.899  67.794  1.00  0.00    -0.212 C  
BRANCH  10  11
HETATM   11  N   UNL     1     -10.738  15.931  68.868  1.00  0.00    -0.238 NA 
HETATM   12  H   UNL     1     -10.251  16.386  69.640  1.00  0.00     0.000 HD 
BRANCH  11  13
HETATM   13  C   UNL     1     -11.942  15.203  69.366  1.00  0.00    -0.307 C  
BRANCH  13  14
HETATM   14  C   UNL     1     -11.801  13.667  69.285  1.00  0.00    -0.346 C  
HETATM   15  H   UNL     1     -11.729  11.625  67.507  1.00  0.00     0.000 H  
HETATM   16  S   UNL     1     -11.856  13.007  67.580  1.00  0.00    -0.318 SA 
ENDBRANCH  13  14
BRANCH  13  17
HETATM   17  C   UNL     1     -12.244  15.632  70.819  1.00  0.00    -0.418 C  
HETATM   18  O   UNL     1     -11.403  15.936  71.658  1.00  0.00    -0.369 OA 
BRANCH  17  19
HETATM   19  O   UNL     1     -13.592  15.635  71.037  1.00  0.00    -0.588 OA 
BRANCH  19  20
HETATM   20  C   UNL     1     -14.027  15.073  72.282  1.00  0.00    -0.509 C  
HETATM   21  C   UNL     1     -14.026  13.560  72.217  1.00  0.00    -0.638 C  
ENDBRANCH  19  20
ENDBRANCH  17  19
ENDBRANCH  13  17
ENDBRANCH  11  13
ENDBRANCH  10  11
ENDBRANCH   9  10
ENDBRANCH   7   9
ENDBRANCH   6   7
BRANCH   6  22
HETATM   22  C   UNL     1      -6.371  18.830  68.426  1.00  0.00    -0.216 C  
HETATM   23  H   UNL     1      -4.788  20.079  70.247  1.00  0.00     0.000 H  
HETATM   24  S   UNL     1      -6.044  20.141  69.656  1.00  0.00    -0.353 SA 
ENDBRANCH   6  22
ENDBRANCH   4   6
ENDBRANCH   3   4
ENDBRANCH   2   3
TORSDOF 13
ENDMDL
MODEL      131
REMARK 921   NORMALIZED FREE ENERGY PREDICTED BY IDOCK:   -4.02 KCAL/MOL
REMARK 922        TOTAL FREE ENERGY PREDICTED BY IDOCK:   -7.66 KCAL/MOL
REMARK 923 INTER-LIGAND FREE ENERGY PREDICTED BY IDOCK:   -6.89 KCAL/MOL
REMARK 924 INTRA-LIGAND FREE ENERGY PREDICTED BY IDOCK:   -0.77 KCAL/MOL
REMARK 927      BINDING AFFINITY PREDICTED BY RF-SCORE:    0.00 PKD
ROOT
HETATM    1  C   UNL     1      -6.059  19.097  64.863  1.00  0.00    -0.312 C  
HETATM    2  C   UNL     1      -6.985  20.198  65.336  1.00  0.00    -0.296 C  
ENDROOT
BRANCH   2   3
HETATM    3  O   UNL     1      -7.562  19.852  66.604  1.00  0.00    -0.249 OA 
BRANCH   3   4
HETATM    4  C   UNL     1      -8.850  19.404  66.568  1.00  0.00    -0.352 C  
HETATM    5  O   UNL     1      -9.811  20.048  66.165  1.00  0.00    -0.430 OA 
BRANCH   4   6
HETATM    6  C   UNL     1      -8.907  17.960  67.102  1.00  0.00    -0.247 C  
BRANCH   6   7
HETATM    7  N   UNL     1      -9.077  17.010  65.969  1.00  0.00    -0.510 NA 
HETATM    8  H   UNL     1      -8.443  16.217  66.072  1.00  0.00     0.000 HD 
BRANCH   7   9
HETATM    9  C   UNL     1     -10.453  16.543  65.771  1.00  0.00    -0.329 C  
BRANCH   9  10
HETATM   10  C   UNL     1     -10.960  15.631  66.910  1.00  0.00    -0.243 C  
BRANCH  10  11
HETATM   11  N   UNL     1     -11.969  14.638  66.506  1.00  0.00    -0.324 NA 
HETATM   12  H   UNL     1     -12.597  15.032  65.806  1.00  0.00     0.000 HD 
BRANCH  11  13
HETATM   13  C   UNL     1     -11.399  13.344  66.027  1.00  0.00    -0.309 C  
BRANCH  13  14
HETATM   14  C   UNL     1     -11.708  12.159  66.967  1.00  0.00    -0.303 C  
HETATM   15  H   UNL     1     -11.719  11.460  69.585  1.00  0.00     0.000 H  
HETATM   16  S   UNL     1     -11.441  12.528  68.738  1.00  0.00    -0.333 SA 
ENDBRANCH  13  14
BRANCH  13  17
HETATM   17  C   UNL     1     -11.919  13.043  64.604  1.00  0.00    -0.392 C  
HETATM   18  O   UNL     1     -12.454  13.855  63.857  1.00  0.00    -0.698 OA 
BRANCH  17  19
HETATM   19  O   UNL     1     -11.687  11.736  64.287  1.00  0.00    -0.317 OA 
BRANCH  19  20
HETATM   20  C   UNL     1     -10.547  11.484  63.455  1.00  0.00    -0.423 C  
HETATM   21  C   UNL     1      -9.659  10.422  64.068  1.00  0.00    -0.376 C  
ENDBRANCH  19  20
ENDBRANCH  17  19
ENDBRANCH  13  17
ENDBRANCH  11  13
ENDBRANCH  10  11
ENDBRANCH   9  10
ENDBRANCH   7   9
ENDBRANCH   6   7
BRANCH   6  22
HETATM   22  C   UNL     1      -7.687  17.709  68.013  1.00  0.00    -0.232 C  
HETATM   23  H   UNL     1      -6.653  15.916  69.773  1.00  0.00     0.000 H  
HETATM   24  S   UNL     1      -7.752  16.144  68.953  1.00  0.00    -0.217 SA 
ENDBRANCH   6  22
ENDBRANCH   4   6
ENDBRANCH   3   4
ENDBRANCH   2   3
TORSDOF 13
ENDMDL
MODEL      132
REMARK 921   NORMALIZED FREE ENERGY PREDICTED BY IDOCK:   -4.01 KCAL/MOL
REMARK 922        TOTAL FREE ENERGY PREDICTED BY IDOCK:   -7.66 KCAL/MOL
REMARK 923 INTER-LIGAND FREE ENERGY PREDICTED BY IDOCK:   -6.99 KCAL/MOL
REMARK 924 INTRA-LIGAND FREE ENERGY PREDICTED BY IDOCK:   -0.67 KCAL/MOL
REMARK 927      BINDING AFFINITY PREDICTED BY RF-SCORE:    0.00 PKD
ROOT
HETATM    1  C   UNL     1     -12.461  11.950  63.306  1.00  0.00    -0.506 C  
HETATM    2  C   UNL     1     -11.474  12.116  64.442  1.00  0.00    -0.350 C  
ENDROOT
BRANCH   2   3
HETATM    3  O   UNL     1     -12.171  12.336  65.678  1.00  0.00    -0.605 OA 
BRANCH   3   4
HETATM    4  C   UNL     1     -12.430  13.639  65.989  1.00  0.00    -0.426 C  
HETATM    5  O   UNL     1     -13.269  14.342  65.440  1.00  0.00    -0.607 OA 
BRANCH   4   6
HETATM    6  C   UNL     1     -11.512  14.083  67.143  1.00  0.00    -0.352 C  
BRANCH   6   7
HETATM    7  N   UNL     1     -12.031  15.343  67.743  1.00  0.00    -0.313 NA 
HETATM    8  H   UNL     1     -12.887  15.161  68.266  1.00  0.00     0.000 HD 
BRANCH   7   9
HETATM    9  C   UNL     1     -11.063  16.060  68.579  1.00  0.00    -0.347 C  
BRANCH   9  10
HETATM   10  C   UNL     1     -10.579  17.387  67.954  1.00  0.00    -0.383 C  
BRANCH  10  11
HETATM   11  N   UNL     1      -9.496  17.250  66.966  1.00  0.00    -0.254 NA 
HETATM   12  H   UNL     1      -9.857  17.380  66.021  1.00  0.00     0.000 HD 
BRANCH  11  13
HETATM   13  C   UNL     1      -8.328  18.148  67.207  1.00  0.00    -0.241 C  
BRANCH  13  14
HETATM   14  C   UNL     1      -7.876  18.174  68.684  1.00  0.00    -0.295 C  
HETATM   15  H   UNL     1      -6.258  19.513  70.394  1.00  0.00     0.000 H  
HETATM   16  S   UNL     1      -6.665  19.490  69.065  1.00  0.00    -0.339 SA 
ENDBRANCH  13  14
BRANCH  13  17
HETATM   17  C   UNL     1      -7.152  17.726  66.299  1.00  0.00    -0.294 C  
HETATM   18  O   UNL     1      -6.388  16.792  66.517  1.00  0.00    -0.244 OA 
BRANCH  17  19
HETATM   19  O   UNL     1      -7.090  18.539  65.205  1.00  0.00    -0.483 OA 
BRANCH  19  20
HETATM   20  C   UNL     1      -6.758  19.910  65.460  1.00  0.00    -0.289 C  
HETATM   21  C   UNL     1      -5.257  20.109  65.454  1.00  0.00    -0.187 C  
ENDBRANCH  19  20
ENDBRANCH  17  19
ENDBRANCH  13  17
ENDBRANCH  11  13
ENDBRANCH  10  11
ENDBRANCH   9  10
ENDBRANCH   7   9
ENDBRANCH   6   7
BRANCH   6  22
HETATM   22  C   UNL     1     -11.318  12.904  68.119  1.00  0.00    -0.289 C  
HETATM   23  H   UNL     1      -9.409  11.308  69.209  1.00  0.00     0.000 H  
HETATM   24  S   UNL     1      -9.584  12.370  68.330  1.00  0.00    -0.186 SA 
ENDBRANCH   6  22
ENDBRANCH   4   6
ENDBRANCH   3   4
ENDBRANCH   2   3
TORSDOF 13
ENDMDL
MODEL      133
REMARK 921   NORMALIZED FREE ENERGY PREDICTED BY IDOCK:   -4.01 KCAL/MOL
REMARK 922        TOTAL FREE ENERGY PREDICTED BY IDOCK:   -7.65 KCAL/MOL
REMARK 923 INTER-LIGAND FREE ENERGY PREDICTED BY IDOCK:   -7.02 KCAL/MOL
REMARK 924 INTRA-LIGAND FREE ENERGY PREDICTED BY IDOCK:   -0.64 KCAL/MOL
REMARK 927      BINDING AFFINITY PREDICTED BY RF-SCORE:    0.00 PKD
ROOT
HETATM    1  C   UNL     1     -11.599   6.592  70.398  1.00  0.00    -0.470 C  
HETATM    2  C   UNL     1     -11.563   7.472  71.629  1.00  0.00    -0.268 C  
ENDROOT
BRANCH   2   3
HETATM    3  O   UNL     1     -10.696   8.595  71.412  1.00  0.00    -0.230 OA 
BRANCH   3   4
HETATM    4  C   UNL     1     -11.303   9.740  70.985  1.00  0.00    -0.387 C  
HETATM    5  O   UNL     1     -12.242  10.292  71.545  1.00  0.00    -0.374 OA 
BRANCH   4   6
HETATM    6  C   UNL     1     -10.617  10.235  69.698  1.00  0.00    -0.256 C  
BRANCH   6   7
HETATM    7  N   UNL     1     -10.729  11.717  69.606  1.00  0.00    -0.447 NA 
HETATM    8  H   UNL     1      -9.849  12.120  69.282  1.00  0.00     0.000 HD 
BRANCH   7   9
HETATM    9  C   UNL     1     -11.844  12.190  68.778  1.00  0.00    -0.303 C  
BRANCH   9  10
HETATM   10  C   UNL     1     -11.632  13.615  68.222  1.00  0.00    -0.339 C  
BRANCH  10  11
HETATM   11  N   UNL     1     -12.328  13.897  66.956  1.00  0.00    -0.494 NA 
HETATM   12  H   UNL     1     -12.719  14.840  66.967  1.00  0.00     0.000 HD 
BRANCH  11  13
HETATM   13  C   UNL     1     -11.491  13.692  65.737  1.00  0.00    -0.315 C  
BRANCH  13  14
HETATM   14  C   UNL     1     -11.653  12.286  65.119  1.00  0.00    -0.351 C  
HETATM   15  H   UNL     1     -10.272  10.015  64.599  1.00  0.00     0.000 H  
HETATM   16  S   UNL     1     -10.126  11.280  65.155  1.00  0.00    -0.292 SA 
ENDBRANCH  13  14
BRANCH  13  17
HETATM   17  C   UNL     1     -11.828  14.775  64.688  1.00  0.00    -0.436 C  
HETATM   18  O   UNL     1     -12.890  14.871  64.083  1.00  0.00    -0.668 OA 
BRANCH  17  19
HETATM   19  O   UNL     1     -10.771  15.625  64.537  1.00  0.00    -0.388 OA 
BRANCH  19  20
HETATM   20  C   UNL     1      -9.860  15.697  65.641  1.00  0.00    -0.333 C  
HETATM   21  C   UNL     1      -9.842  17.091  66.232  1.00  0.00    -0.310 C  
ENDBRANCH  19  20
ENDBRANCH  17  19
ENDBRANCH  13  17
ENDBRANCH  11  13
ENDBRANCH  10  11
ENDBRANCH   9  10
ENDBRANCH   7   9
ENDBRANCH   6   7
BRANCH   6  22
HETATM   22  C   UNL     1      -9.185   9.665  69.634  1.00  0.00    -0.211 C  
HETATM   23  H   UNL     1      -7.552   8.124  68.105  1.00  0.00     0.000 H  
HETATM   24  S   UNL     1      -8.842   8.638  68.163  1.00  0.00    -0.142 SA 
ENDBRANCH   6  22
ENDBRANCH   4   6
ENDBRANCH   3   4
ENDBRANCH   2   3
TORSDOF 13
ENDMDL
MODEL      134
REMARK 921   NORMALIZED FREE ENERGY PREDICTED BY IDOCK:   -4.01 KCAL/MOL
REMARK 922        TOTAL FREE ENERGY PREDICTED BY IDOCK:   -7.65 KCAL/MOL
REMARK 923 INTER-LIGAND FREE ENERGY PREDICTED BY IDOCK:   -6.72 KCAL/MOL
REMARK 924 INTRA-LIGAND FREE ENERGY PREDICTED BY IDOCK:   -0.94 KCAL/MOL
REMARK 927      BINDING AFFINITY PREDICTED BY RF-SCORE:    0.00 PKD
ROOT
HETATM    1  C   UNL     1      -9.208  11.566  62.952  1.00  0.00    -0.229 C  
HETATM    2  C   UNL     1     -10.587  11.345  63.536  1.00  0.00    -0.402 C  
ENDROOT
BRANCH   2   3
HETATM    3  O   UNL     1     -10.485  10.798  64.859  1.00  0.00    -0.311 OA 
BRANCH   3   4
HETATM    4  C   UNL     1     -11.266  11.390  65.808  1.00  0.00    -0.090 C  
HETATM    5  O   UNL     1     -12.205  12.143  65.581  1.00  0.00    -0.571 OA 
BRANCH   4   6
HETATM    6  C   UNL     1     -10.790  10.956  67.207  1.00  0.00    -0.287 C  
BRANCH   6   7
HETATM    7  N   UNL     1     -11.966  10.751  68.097  1.00  0.00    -0.801 NA 
HETATM    8  H   UNL     1     -12.093   9.758  68.295  1.00  0.00     0.000 HD 
BRANCH   7   9
HETATM    9  C   UNL     1     -11.923  11.520  69.345  1.00  0.00    -0.325 C  
BRANCH   9  10
HETATM   10  C   UNL     1     -11.970  13.048  69.124  1.00  0.00    -0.271 C  
BRANCH  10  11
HETATM   11  N   UNL     1     -10.746  13.768  69.511  1.00  0.00    -0.446 NA 
HETATM   12  H   UNL     1      -9.940  13.143  69.483  1.00  0.00     0.000 HD 
BRANCH  11  13
HETATM   13  C   UNL     1     -10.479  14.999  68.709  1.00  0.00    -0.238 C  
BRANCH  13  14
HETATM   14  C   UNL     1     -11.037  14.920  67.271  1.00  0.00    -0.336 C  
HETATM   15  H   UNL     1     -10.285  15.146  64.678  1.00  0.00     0.000 H  
HETATM   16  S   UNL     1      -9.783  15.216  65.973  1.00  0.00    -0.347 SA 
ENDBRANCH  13  14
BRANCH  13  17
HETATM   17  C   UNL     1     -11.063  16.230  69.438  1.00  0.00    -0.328 C  
HETATM   18  O   UNL     1     -11.328  16.287  70.634  1.00  0.00    -0.386 OA 
BRANCH  17  19
HETATM   19  O   UNL     1     -11.234  17.258  68.557  1.00  0.00    -0.138 OA 
BRANCH  19  20
HETATM   20  C   UNL     1     -10.194  18.245  68.534  1.00  0.00    -0.379 C  
HETATM   21  C   UNL     1     -10.356  19.168  67.345  1.00  0.00    -0.522 C  
ENDBRANCH  19  20
ENDBRANCH  17  19
ENDBRANCH  13  17
ENDBRANCH  11  13
ENDBRANCH  10  11
ENDBRANCH   9  10
ENDBRANCH   7   9
ENDBRANCH   6   7
BRANCH   6  22
HETATM   22  C   UNL     1      -9.835   9.753  67.068  1.00  0.00    -0.193 C  
HETATM   23  H   UNL     1      -7.736   8.524  68.277  1.00  0.00     0.000 H  
HETATM   24  S   UNL     1      -8.597   9.607  68.403  1.00  0.00    -0.120 SA 
ENDBRANCH   6  22
ENDBRANCH   4   6
ENDBRANCH   3   4
ENDBRANCH   2   3
TORSDOF 13
ENDMDL
MODEL      135
REMARK 921   NORMALIZED FREE ENERGY PREDICTED BY IDOCK:   -4.01 KCAL/MOL
REMARK 922        TOTAL FREE ENERGY PREDICTED BY IDOCK:   -7.65 KCAL/MOL
REMARK 923 INTER-LIGAND FREE ENERGY PREDICTED BY IDOCK:   -6.49 KCAL/MOL
REMARK 924 INTRA-LIGAND FREE ENERGY PREDICTED BY IDOCK:   -1.16 KCAL/MOL
REMARK 927      BINDING AFFINITY PREDICTED BY RF-SCORE:    0.00 PKD
ROOT
HETATM    1  C   UNL     1     -13.062  10.192  71.808  1.00  0.00    -0.568 C  
HETATM    2  C   UNL     1     -11.843   9.297  71.753  1.00  0.00    -0.384 C  
ENDROOT
BRANCH   2   3
HETATM    3  O   UNL     1     -11.941   8.392  70.643  1.00  0.00    -0.183 OA 
BRANCH   3   4
HETATM    4  C   UNL     1     -12.082   7.073  70.963  1.00  0.00    -0.368 C  
HETATM    5  O   UNL     1     -12.828   6.632  71.828  1.00  0.00    -0.335 OA 
BRANCH   4   6
HETATM    6  C   UNL     1     -11.165   6.226  70.060  1.00  0.00    -0.412 C  
BRANCH   6   7
HETATM    7  N   UNL     1     -11.475   6.498  68.630  1.00  0.00    -0.562 NA 
HETATM    8  H   UNL     1     -12.211   7.201  68.553  1.00  0.00     0.000 HD 
BRANCH   7   9
HETATM    9  C   UNL     1     -10.315   6.880  67.820  1.00  0.00    -0.203 C  
BRANCH   9  10
HETATM   10  C   UNL     1     -10.521   8.197  67.038  1.00  0.00    -0.326 C  
BRANCH  10  11
HETATM   11  N   UNL     1     -11.031   9.321  67.840  1.00  0.00    -0.500 NA 
HETATM   12  H   UNL     1     -11.235   9.016  68.792  1.00  0.00     0.000 HD 
BRANCH  11  13
HETATM   13  C   UNL     1     -10.138  10.518  67.856  1.00  0.00    -0.176 C  
BRANCH  13  14
HETATM   14  C   UNL     1      -8.638  10.156  67.908  1.00  0.00    -0.118 C  
HETATM   15  H   UNL     1      -6.643   9.580  69.649  1.00  0.00     0.000 H  
HETATM   16  S   UNL     1      -7.994   9.905  69.601  1.00  0.00    -0.176 SA 
ENDBRANCH  13  14
BRANCH  13  17
HETATM   17  C   UNL     1     -10.429  11.399  66.621  1.00  0.00    -0.243 C  
HETATM   18  O   UNL     1      -9.585  11.840  65.849  1.00  0.00    -0.224 OA 
BRANCH  17  19
HETATM   19  O   UNL     1     -11.773  11.610  66.502  1.00  0.00    -0.498 OA 
BRANCH  19  20
HETATM   20  C   UNL     1     -12.165  12.691  65.646  1.00  0.00    -0.411 C  
HETATM   21  C   UNL     1     -12.238  13.990  66.420  1.00  0.00    -0.492 C  
ENDBRANCH  19  20
ENDBRANCH  17  19
ENDBRANCH  13  17
ENDBRANCH  11  13
ENDBRANCH  10  11
ENDBRANCH   9  10
ENDBRANCH   7   9
ENDBRANCH   6   7
BRANCH   6  22
HETATM   22  C   UNL     1      -9.697   6.443  70.482  1.00  0.00    -0.168 C  
HETATM   23  H   UNL     1      -7.660   5.279  71.852  1.00  0.00     0.000 H  
HETATM   24  S   UNL     1      -8.983   5.084  71.471  1.00  0.00    -0.138 SA 
ENDBRANCH   6  22
ENDBRANCH   4   6
ENDBRANCH   3   4
ENDBRANCH   2   3
TORSDOF 13
ENDMDL
MODEL      136
REMARK 921   NORMALIZED FREE ENERGY PREDICTED BY IDOCK:   -4.01 KCAL/MOL
REMARK 922        TOTAL FREE ENERGY PREDICTED BY IDOCK:   -7.64 KCAL/MOL
REMARK 923 INTER-LIGAND FREE ENERGY PREDICTED BY IDOCK:   -6.93 KCAL/MOL
REMARK 924 INTRA-LIGAND FREE ENERGY PREDICTED BY IDOCK:   -0.72 KCAL/MOL
REMARK 927      BINDING AFFINITY PREDICTED BY RF-SCORE:    0.00 PKD
ROOT
HETATM    1  C   UNL     1     -10.993  11.507  63.555  1.00  0.00    -0.453 C  
HETATM    2  C   UNL     1     -12.328  12.201  63.387  1.00  0.00    -0.538 C  
ENDROOT
BRANCH   2   3
HETATM    3  O   UNL     1     -12.695  12.874  64.601  1.00  0.00    -0.654 OA 
BRANCH   3   4
HETATM    4  C   UNL     1     -12.421  14.209  64.645  1.00  0.00    -0.350 C  
HETATM    5  O   UNL     1     -12.660  15.009  63.749  1.00  0.00    -0.776 OA 
BRANCH   4   6
HETATM    6  C   UNL     1     -11.775  14.556  66.000  1.00  0.00    -0.345 C  
BRANCH   6   7
HETATM    7  N   UNL     1     -11.348  13.307  66.688  1.00  0.00    -0.310 NA 
HETATM    8  H   UNL     1     -10.332  13.217  66.664  1.00  0.00     0.000 HD 
BRANCH   7   9
HETATM    9  C   UNL     1     -11.841  13.175  68.063  1.00  0.00    -0.358 C  
BRANCH   9  10
HETATM   10  C   UNL     1     -11.464  11.829  68.721  1.00  0.00    -0.291 C  
BRANCH  10  11
HETATM   11  N   UNL     1     -11.957  10.634  68.017  1.00  0.00    -0.737 NA 
HETATM   12  H   UNL     1     -12.459  10.902  67.170  1.00  0.00     0.000 HD 
BRANCH  11  13
HETATM   13  C   UNL     1     -10.901   9.627  67.703  1.00  0.00    -0.212 C  
BRANCH  13  14
HETATM   14  C   UNL     1      -9.660  10.241  67.020  1.00  0.00    -0.171 C  
HETATM   15  H   UNL     1      -7.922   9.824  64.984  1.00  0.00     0.000 H  
HETATM   16  S   UNL     1      -9.040   9.272  65.598  1.00  0.00    -0.229 SA 
ENDBRANCH  13  14
BRANCH  13  17
HETATM   17  C   UNL     1     -10.486   8.890  68.995  1.00  0.00    -0.214 C  
HETATM   18  O   UNL     1     -11.251   8.531  69.884  1.00  0.00    -0.172 OA 
BRANCH  17  19
HETATM   19  O   UNL     1      -9.137   8.682  69.003  1.00  0.00    -0.144 OA 
BRANCH  19  20
HETATM   20  C   UNL     1      -8.459   9.008  70.224  1.00  0.00    -0.168 C  
HETATM   21  C   UNL     1      -7.351  10.009  69.971  1.00  0.00    -0.172 C  
ENDBRANCH  19  20
ENDBRANCH  17  19
ENDBRANCH  13  17
ENDBRANCH  11  13
ENDBRANCH  10  11
ENDBRANCH   9  10
ENDBRANCH   7   9
ENDBRANCH   6   7
BRANCH   6  22
HETATM   22  C   UNL     1     -10.672  15.612  65.780  1.00  0.00    -0.341 C  
HETATM   23  H   UNL     1      -9.298  17.580  67.051  1.00  0.00     0.000 H  
HETATM   24  S   UNL     1     -10.291  16.629  67.249  1.00  0.00    -0.293 SA 
ENDBRANCH   6  22
ENDBRANCH   4   6
ENDBRANCH   3   4
ENDBRANCH   2   3
TORSDOF 13
ENDMDL
MODEL      137
REMARK 921   NORMALIZED FREE ENERGY PREDICTED BY IDOCK:   -4.00 KCAL/MOL
REMARK 922        TOTAL FREE ENERGY PREDICTED BY IDOCK:   -7.64 KCAL/MOL
REMARK 923 INTER-LIGAND FREE ENERGY PREDICTED BY IDOCK:   -6.84 KCAL/MOL
REMARK 924 INTRA-LIGAND FREE ENERGY PREDICTED BY IDOCK:   -0.80 KCAL/MOL
REMARK 927      BINDING AFFINITY PREDICTED BY RF-SCORE:    0.00 PKD
ROOT
HETATM    1  C   UNL     1     -10.361   7.559  67.907  1.00  0.00    -0.266 C  
HETATM    2  C   UNL     1      -9.274   8.108  68.807  1.00  0.00    -0.144 C  
ENDROOT
BRANCH   2   3
HETATM    3  O   UNL     1      -9.734   9.291  69.478  1.00  0.00    -0.162 OA 
BRANCH   3   4
HETATM    4  C   UNL     1      -9.812   9.209  70.837  1.00  0.00    -0.291 C  
HETATM    5  O   UNL     1      -8.913   8.826  71.575  1.00  0.00    -0.205 OA 
BRANCH   4   6
HETATM    6  C   UNL     1     -11.204   9.681  71.300  1.00  0.00    -0.376 C  
BRANCH   6   7
HETATM    7  N   UNL     1     -11.994  10.145  70.127  1.00  0.00    -0.419 NA 
HETATM    8  H   UNL     1     -12.898   9.673  70.099  1.00  0.00     0.000 HD 
BRANCH   7   9
HETATM    9  C   UNL     1     -12.172  11.598  70.053  1.00  0.00    -0.263 C  
BRANCH   9  10
HETATM   10  C   UNL     1     -11.451  12.243  68.848  1.00  0.00    -0.304 C  
BRANCH  10  11
HETATM   11  N   UNL     1     -11.961  11.834  67.529  1.00  0.00    -0.607 NA 
HETATM   12  H   UNL     1     -12.953  12.057  67.445  1.00  0.00     0.000 HD 
BRANCH  11  13
HETATM   13  C   UNL     1     -11.201  12.399  66.375  1.00  0.00    -0.319 C  
BRANCH  13  14
HETATM   14  C   UNL     1     -10.788  11.331  65.339  1.00  0.00    -0.188 C  
HETATM   15  H   UNL     1      -9.864  11.063  62.806  1.00  0.00     0.000 H  
HETATM   16  S   UNL     1     -10.236  12.024  63.739  1.00  0.00    -0.432 SA 
ENDBRANCH  13  14
BRANCH  13  17
HETATM   17  C   UNL     1     -12.037  13.504  65.693  1.00  0.00    -0.430 C  
HETATM   18  O   UNL     1     -13.146  13.350  65.195  1.00  0.00    -0.724 OA 
BRANCH  17  19
HETATM   19  O   UNL     1     -11.365  14.692  65.734  1.00  0.00    -0.335 OA 
BRANCH  19  20
HETATM   20  C   UNL     1     -10.189  14.720  66.553  1.00  0.00    -0.276 C  
HETATM   21  C   UNL     1      -9.147  15.648  65.965  1.00  0.00    -0.346 C  
ENDBRANCH  19  20
ENDBRANCH  17  19
ENDBRANCH  13  17
ENDBRANCH  11  13
ENDBRANCH  10  11
ENDBRANCH   9  10
ENDBRANCH   7   9
ENDBRANCH   6   7
BRANCH   6  22
HETATM   22  C   UNL     1     -11.856   8.575  72.155  1.00  0.00    -0.379 C  
HETATM   23  H   UNL     1     -12.638   5.975  72.071  1.00  0.00     0.000 H  
HETATM   24  S   UNL     1     -12.051   6.971  71.301  1.00  0.00    -0.377 SA 
ENDBRANCH   6  22
ENDBRANCH   4   6
ENDBRANCH   3   4
ENDBRANCH   2   3
TORSDOF 13
ENDMDL
MODEL      138
REMARK 921   NORMALIZED FREE ENERGY PREDICTED BY IDOCK:   -4.00 KCAL/MOL
REMARK 922        TOTAL FREE ENERGY PREDICTED BY IDOCK:   -7.64 KCAL/MOL
REMARK 923 INTER-LIGAND FREE ENERGY PREDICTED BY IDOCK:   -6.57 KCAL/MOL
REMARK 924 INTRA-LIGAND FREE ENERGY PREDICTED BY IDOCK:   -1.07 KCAL/MOL
REMARK 927      BINDING AFFINITY PREDICTED BY RF-SCORE:    0.00 PKD
ROOT
HETATM    1  C   UNL     1     -12.056  12.944  63.659  1.00  0.00    -0.611 C  
HETATM    2  C   UNL     1     -12.581  13.292  65.035  1.00  0.00    -0.423 C  
ENDROOT
BRANCH   2   3
HETATM    3  O   UNL     1     -12.267  12.246  65.967  1.00  0.00    -0.646 OA 
BRANCH   3   4
HETATM    4  C   UNL     1     -10.989  12.238  66.441  1.00  0.00    -0.287 C  
HETATM    5  O   UNL     1     -10.157  11.368  66.216  1.00  0.00    -0.211 OA 
BRANCH   4   6
HETATM    6  C   UNL     1     -10.751  13.497  67.297  1.00  0.00    -0.267 C  
BRANCH   6   7
HETATM    7  N   UNL     1     -10.515  13.106  68.713  1.00  0.00    -0.376 NA 
HETATM    8  H   UNL     1      -9.945  13.809  69.185  1.00  0.00     0.000 HD 
BRANCH   7   9
HETATM    9  C   UNL     1     -11.737  12.839  69.480  1.00  0.00    -0.318 C  
BRANCH   9  10
HETATM   10  C   UNL     1     -11.928  11.345  69.825  1.00  0.00    -0.353 C  
BRANCH  10  11
HETATM   11  N   UNL     1     -10.680  10.593  70.036  1.00  0.00    -0.448 NA 
HETATM   12  H   UNL     1     -10.509  10.459  71.033  1.00  0.00     0.000 HD 
BRANCH  11  13
HETATM   13  C   UNL     1     -10.622   9.286  69.317  1.00  0.00    -0.222 C  
BRANCH  13  14
HETATM   14  C   UNL     1      -9.253   9.017  68.655  1.00  0.00    -0.136 C  
HETATM   15  H   UNL     1      -6.775  10.075  68.379  1.00  0.00     0.000 H  
HETATM   16  S   UNL     1      -8.007  10.317  68.975  1.00  0.00    -0.136 SA 
ENDBRANCH  13  14
BRANCH  13  17
HETATM   17  C   UNL     1     -10.975   8.141  70.292  1.00  0.00    -0.240 C  
HETATM   18  O   UNL     1     -11.302   7.005  69.965  1.00  0.00    -0.281 OA 
BRANCH  17  19
HETATM   19  O   UNL     1     -10.859   8.572  71.582  1.00  0.00    -0.245 OA 
BRANCH  19  20
HETATM   20  C   UNL     1     -11.894   8.149  72.480  1.00  0.00    -0.376 C  
HETATM   21  C   UNL     1     -13.148   8.975  72.281  1.00  0.00    -0.508 C  
ENDBRANCH  19  20
ENDBRANCH  17  19
ENDBRANCH  13  17
ENDBRANCH  11  13
ENDBRANCH  10  11
ENDBRANCH   9  10
ENDBRANCH   7   9
ENDBRANCH   6   7
BRANCH   6  22
HETATM   22  C   UNL     1      -9.647  14.353  66.642  1.00  0.00    -0.281 C  
HETATM   23  H   UNL     1      -7.078  15.167  66.979  1.00  0.00     0.000 H  
HETATM   24  S   UNL     1      -8.073  14.397  67.568  1.00  0.00    -0.201 SA 
ENDBRANCH   6  22
ENDBRANCH   4   6
ENDBRANCH   3   4
ENDBRANCH   2   3
TORSDOF 13
ENDMDL
MODEL      139
REMARK 921   NORMALIZED FREE ENERGY PREDICTED BY IDOCK:   -3.99 KCAL/MOL
REMARK 922        TOTAL FREE ENERGY PREDICTED BY IDOCK:   -7.61 KCAL/MOL
REMARK 923 INTER-LIGAND FREE ENERGY PREDICTED BY IDOCK:   -6.99 KCAL/MOL
REMARK 924 INTRA-LIGAND FREE ENERGY PREDICTED BY IDOCK:   -0.63 KCAL/MOL
REMARK 927      BINDING AFFINITY PREDICTED BY RF-SCORE:    0.00 PKD
ROOT
HETATM    1  C   UNL     1      -7.274   8.686  68.820  1.00  0.00    -0.075 C  
HETATM    2  C   UNL     1      -8.415   7.973  69.513  1.00  0.00    -0.131 C  
ENDROOT
BRANCH   2   3
HETATM    3  O   UNL     1      -9.432   8.912  69.892  1.00  0.00    -0.161 OA 
BRANCH   3   4
HETATM    4  C   UNL     1      -9.653   9.040  71.232  1.00  0.00    -0.291 C  
HETATM    5  O   UNL     1      -8.794   8.952  72.100  1.00  0.00    -0.381 OA 
BRANCH   4   6
HETATM    6  C   UNL     1     -11.147   9.320  71.482  1.00  0.00    -0.373 C  
BRANCH   6   7
HETATM    7  N   UNL     1     -11.840   9.547  70.184  1.00  0.00    -0.466 NA 
HETATM    8  H   UNL     1     -12.549   8.829  70.030  1.00  0.00     0.000 HD 
BRANCH   7   9
HETATM    9  C   UNL     1     -12.425  10.884  70.035  1.00  0.00    -0.263 C  
BRANCH   9  10
HETATM   10  C   UNL     1     -11.547  11.846  69.205  1.00  0.00    -0.315 C  
BRANCH  10  11
HETATM   11  N   UNL     1     -12.029  12.103  67.838  1.00  0.00    -0.512 NA 
HETATM   12  H   UNL     1     -12.964  11.714  67.711  1.00  0.00     0.000 HD 
BRANCH  11  13
HETATM   13  C   UNL     1     -12.003  13.541  67.438  1.00  0.00    -0.357 C  
BRANCH  13  14
HETATM   14  C   UNL     1     -10.672  14.244  67.785  1.00  0.00    -0.251 C  
HETATM   15  H   UNL     1      -9.683  16.472  68.966  1.00  0.00     0.000 H  
HETATM   16  S   UNL     1     -10.881  15.839  68.654  1.00  0.00    -0.296 SA 
ENDBRANCH  13  14
BRANCH  13  17
HETATM   17  C   UNL     1     -12.291  13.664  65.926  1.00  0.00    -0.471 C  
HETATM   18  O   UNL     1     -13.212  14.302  65.428  1.00  0.00    -0.688 OA 
BRANCH  17  19
HETATM   19  O   UNL     1     -11.360  12.965  65.213  1.00  0.00    -0.290 OA 
BRANCH  19  20
HETATM   20  C   UNL     1     -11.501  13.006  63.787  1.00  0.00    -0.429 C  
HETATM   21  C   UNL     1     -12.348  11.850  63.299  1.00  0.00    -0.508 C  
ENDBRANCH  19  20
ENDBRANCH  17  19
ENDBRANCH  13  17
ENDBRANCH  11  13
ENDBRANCH  10  11
ENDBRANCH   9  10
ENDBRANCH   7   9
ENDBRANCH   6   7
BRANCH   6  22
HETATM   22  C   UNL     1     -11.731   8.202  72.369  1.00  0.00    -0.399 C  
HETATM   23  H   UNL     1     -13.150   5.888  72.255  1.00  0.00     0.000 H  
HETATM   24  S   UNL     1     -12.624   6.896  71.456  1.00  0.00    -0.333 SA 
ENDBRANCH   6  22
ENDBRANCH   4   6
ENDBRANCH   3   4
ENDBRANCH   2   3
TORSDOF 13
ENDMDL
MODEL      140
REMARK 921   NORMALIZED FREE ENERGY PREDICTED BY IDOCK:   -3.99 KCAL/MOL
REMARK 922        TOTAL FREE ENERGY PREDICTED BY IDOCK:   -7.61 KCAL/MOL
REMARK 923 INTER-LIGAND FREE ENERGY PREDICTED BY IDOCK:   -6.90 KCAL/MOL
REMARK 924 INTRA-LIGAND FREE ENERGY PREDICTED BY IDOCK:   -0.71 KCAL/MOL
REMARK 927      BINDING AFFINITY PREDICTED BY RF-SCORE:    0.00 PKD
ROOT
HETATM    1  C   UNL     1     -14.074  13.757  72.269  1.00  0.00    -0.627 C  
HETATM    2  C   UNL     1     -14.291  15.205  71.882  1.00  0.00    -0.596 C  
ENDROOT
BRANCH   2   3
HETATM    3  O   UNL     1     -13.349  15.595  70.871  1.00  0.00    -0.556 OA 
BRANCH   3   4
HETATM    4  C   UNL     1     -12.070  15.796  71.298  1.00  0.00    -0.437 C  
HETATM    5  O   UNL     1     -11.752  16.334  72.352  1.00  0.00    -0.495 OA 
BRANCH   4   6
HETATM    6  C   UNL     1     -11.086  15.232  70.254  1.00  0.00    -0.293 C  
BRANCH   6   7
HETATM    7  N   UNL     1     -10.988  13.754  70.402  1.00  0.00    -0.068 NA 
HETATM    8  H   UNL     1     -11.109  13.486  71.379  1.00  0.00     0.000 HD 
BRANCH   7   9
HETATM    9  C   UNL     1     -11.906  12.997  69.546  1.00  0.00    -0.323 C  
BRANCH   9  10
HETATM   10  C   UNL     1     -11.315  11.661  69.045  1.00  0.00    -0.275 C  
BRANCH  10  11
HETATM   11  N   UNL     1     -11.822  11.209  67.739  1.00  0.00    -0.622 NA 
HETATM   12  H   UNL     1     -12.825  11.381  67.667  1.00  0.00     0.000 HD 
BRANCH  11  13
HETATM   13  C   UNL     1     -11.106  11.795  66.567  1.00  0.00    -0.310 C  
BRANCH  13  14
HETATM   14  C   UNL     1     -11.669  13.167  66.135  1.00  0.00    -0.381 C  
HETATM   15  H   UNL     1     -13.260  14.328  64.275  1.00  0.00     0.000 H  
HETATM   16  S   UNL     1     -12.754  13.093  64.664  1.00  0.00    -0.189 SA 
ENDBRANCH  13  14
BRANCH  13  17
HETATM   17  C   UNL     1      -9.600  11.916  66.886  1.00  0.00    -0.200 C  
HETATM   18  O   UNL     1      -8.857  10.983  67.173  1.00  0.00    -0.138 OA 
BRANCH  17  19
HETATM   19  O   UNL     1      -9.204  13.220  66.793  1.00  0.00    -0.238 OA 
BRANCH  19  20
HETATM   20  C   UNL     1      -8.313  13.679  67.817  1.00  0.00    -0.181 C  
HETATM   21  C   UNL     1      -7.546  14.900  67.353  1.00  0.00    -0.232 C  
ENDBRANCH  19  20
ENDBRANCH  17  19
ENDBRANCH  13  17
ENDBRANCH  11  13
ENDBRANCH  10  11
ENDBRANCH   9  10
ENDBRANCH   7   9
ENDBRANCH   6   7
BRANCH   6  22
HETATM   22  C   UNL     1     -11.485  15.742  68.854  1.00  0.00    -0.378 C  
HETATM   23  H   UNL     1     -10.900  17.656  67.018  1.00  0.00     0.000 H  
HETATM   24  S   UNL     1     -10.541  17.196  68.279  1.00  0.00    -0.365 SA 
ENDBRANCH   6  22
ENDBRANCH   4   6
ENDBRANCH   3   4
ENDBRANCH   2   3
TORSDOF 13
ENDMDL
MODEL      141
REMARK 921   NORMALIZED FREE ENERGY PREDICTED BY IDOCK:   -3.99 KCAL/MOL
REMARK 922        TOTAL FREE ENERGY PREDICTED BY IDOCK:   -7.61 KCAL/MOL
REMARK 923 INTER-LIGAND FREE ENERGY PREDICTED BY IDOCK:   -6.90 KCAL/MOL
REMARK 924 INTRA-LIGAND FREE ENERGY PREDICTED BY IDOCK:   -0.71 KCAL/MOL
REMARK 927      BINDING AFFINITY PREDICTED BY RF-SCORE:    0.00 PKD
ROOT
HETATM    1  C   UNL     1     -13.335  11.929  72.039  1.00  0.00    -0.425 C  
HETATM    2  C   UNL     1     -13.644  13.381  72.336  1.00  0.00    -0.606 C  
ENDROOT
BRANCH   2   3
HETATM    3  O   UNL     1     -12.532  14.211  71.969  1.00  0.00    -0.300 OA 
BRANCH   3   4
HETATM    4  C   UNL     1     -12.740  15.049  70.913  1.00  0.00    -0.375 C  
HETATM    5  O   UNL     1     -13.763  15.691  70.712  1.00  0.00    -0.490 OA 
BRANCH   4   6
HETATM    6  C   UNL     1     -11.485  15.070  70.020  1.00  0.00    -0.276 C  
BRANCH   6   7
HETATM    7  N   UNL     1     -11.051  13.676  69.729  1.00  0.00    -0.465 NA 
HETATM    8  H   UNL     1     -10.983  13.137  70.593  1.00  0.00     0.000 HD 
BRANCH   7   9
HETATM    9  C   UNL     1     -11.888  12.972  68.752  1.00  0.00    -0.317 C  
BRANCH   9  10
HETATM   10  C   UNL     1     -11.908  11.440  68.953  1.00  0.00    -0.347 C  
BRANCH  10  11
HETATM   11  N   UNL     1     -11.896  10.652  67.710  1.00  0.00    -0.645 NA 
HETATM   12  H   UNL     1     -12.362  11.162  66.959  1.00  0.00     0.000 HD 
BRANCH  11  13
HETATM   13  C   UNL     1     -10.538  10.210  67.276  1.00  0.00    -0.261 C  
BRANCH  13  14
HETATM   14  C   UNL     1     -10.422   8.680  67.105  1.00  0.00    -0.289 C  
HETATM   15  H   UNL     1      -9.433   6.468  68.318  1.00  0.00     0.000 H  
HETATM   16  S   UNL     1      -9.538   7.846  68.472  1.00  0.00    -0.153 SA 
ENDBRANCH  13  14
BRANCH  13  17
HETATM   17  C   UNL     1     -10.157  10.922  65.959  1.00  0.00    -0.249 C  
HETATM   18  O   UNL     1     -10.088  12.136  65.803  1.00  0.00    -0.236 OA 
BRANCH  17  19
HETATM   19  O   UNL     1      -9.894  10.000  64.988  1.00  0.00    -0.310 OA 
BRANCH  19  20
HETATM   20  C   UNL     1      -8.728  10.244  64.190  1.00  0.00    -0.204 C  
HETATM   21  C   UNL     1      -8.741   9.385  62.943  1.00  0.00    -0.228 C  
ENDBRANCH  19  20
ENDBRANCH  17  19
ENDBRANCH  13  17
ENDBRANCH  11  13
ENDBRANCH  10  11
ENDBRANCH   9  10
ENDBRANCH   7   9
ENDBRANCH   6   7
BRANCH   6  22
HETATM   22  C   UNL     1     -11.753  15.961  68.790  1.00  0.00    -0.349 C  
HETATM   23  H   UNL     1     -10.624  17.891  67.248  1.00  0.00     0.000 H  
HETATM   24  S   UNL     1     -10.383  17.088  68.356  1.00  0.00    -0.373 SA 
ENDBRANCH   6  22
ENDBRANCH   4   6
ENDBRANCH   3   4
ENDBRANCH   2   3
TORSDOF 13
ENDMDL
MODEL      142
REMARK 921   NORMALIZED FREE ENERGY PREDICTED BY IDOCK:   -3.98 KCAL/MOL
REMARK 922        TOTAL FREE ENERGY PREDICTED BY IDOCK:   -7.60 KCAL/MOL
REMARK 923 INTER-LIGAND FREE ENERGY PREDICTED BY IDOCK:   -7.15 KCAL/MOL
REMARK 924 INTRA-LIGAND FREE ENERGY PREDICTED BY IDOCK:   -0.45 KCAL/MOL
REMARK 927      BINDING AFFINITY PREDICTED BY RF-SCORE:    0.00 PKD
ROOT
HETATM    1  C   UNL     1      -5.766  20.491  69.499  1.00  0.00    -0.395 C  
HETATM    2  C   UNL     1      -6.348  19.095  69.438  1.00  0.00    -0.298 C  
ENDROOT
BRANCH   2   3
HETATM    3  O   UNL     1      -7.656  19.126  68.847  1.00  0.00    -0.339 OA 
BRANCH   3   4
HETATM    4  C   UNL     1      -7.694  19.346  67.501  1.00  0.00    -0.256 C  
HETATM    5  O   UNL     1      -8.075  20.379  66.965  1.00  0.00    -0.321 OA 
BRANCH   4   6
HETATM    6  C   UNL     1      -7.174  18.098  66.763  1.00  0.00    -0.206 C  
BRANCH   6   7
HETATM    7  N   UNL     1      -8.240  17.556  65.877  1.00  0.00    -0.553 NA 
HETATM    8  H   UNL     1      -7.834  16.953  65.160  1.00  0.00     0.000 HD 
BRANCH   7   9
HETATM    9  C   UNL     1      -9.317  16.855  66.584  1.00  0.00    -0.258 C  
BRANCH   9  10
HETATM   10  C   UNL     1     -10.248  16.056  65.645  1.00  0.00    -0.386 C  
BRANCH  10  11
HETATM   11  N   UNL     1      -9.858  14.653  65.433  1.00  0.00    -0.491 NA 
HETATM   12  H   UNL     1      -8.948  14.468  65.855  1.00  0.00     0.000 HD 
BRANCH  11  13
HETATM   13  C   UNL     1     -10.865  13.658  65.907  1.00  0.00    -0.275 C  
BRANCH  13  14
HETATM   14  C   UNL     1     -11.710  14.167  67.095  1.00  0.00    -0.403 C  
HETATM   15  H   UNL     1     -12.523  13.474  69.585  1.00  0.00     0.000 H  
HETATM   16  S   UNL     1     -11.762  13.016  68.515  1.00  0.00    -0.347 SA 
ENDBRANCH  13  14
BRANCH  13  17
HETATM   17  C   UNL     1     -11.787  13.254  64.735  1.00  0.00    -0.371 C  
HETATM   18  O   UNL     1     -13.002  13.413  64.700  1.00  0.00    -0.675 OA 
BRANCH  17  19
HETATM   19  O   UNL     1     -11.049  12.699  63.729  1.00  0.00    -0.402 OA 
BRANCH  19  20
HETATM   20  C   UNL     1     -10.625  11.345  63.935  1.00  0.00    -0.392 C  
HETATM   21  C   UNL     1      -9.631  10.927  62.872  1.00  0.00    -0.371 C  
ENDBRANCH  19  20
ENDBRANCH  17  19
ENDBRANCH  13  17
ENDBRANCH  11  13
ENDBRANCH  10  11
ENDBRANCH   9  10
ENDBRANCH   7   9
ENDBRANCH   6   7
BRANCH   6  22
HETATM   22  C   UNL     1      -5.836  18.438  66.074  1.00  0.00    -0.185 C  
HETATM   23  H   UNL     1      -4.801  19.597  63.846  1.00  0.00     0.000 H  
HETATM   24  S   UNL     1      -6.005  19.291  64.467  1.00  0.00    -0.223 SA 
ENDBRANCH   6  22
ENDBRANCH   4   6
ENDBRANCH   3   4
ENDBRANCH   2   3
TORSDOF 13
ENDMDL
MODEL      143
REMARK 921   NORMALIZED FREE ENERGY PREDICTED BY IDOCK:   -3.98 KCAL/MOL
REMARK 922        TOTAL FREE ENERGY PREDICTED BY IDOCK:   -7.60 KCAL/MOL
REMARK 923 INTER-LIGAND FREE ENERGY PREDICTED BY IDOCK:   -7.00 KCAL/MOL
REMARK 924 INTRA-LIGAND FREE ENERGY PREDICTED BY IDOCK:   -0.60 KCAL/MOL
REMARK 927      BINDING AFFINITY PREDICTED BY RF-SCORE:    0.00 PKD
ROOT
HETATM    1  C   UNL     1     -12.529  11.351  70.918  1.00  0.00    -0.478 C  
HETATM    2  C   UNL     1     -11.585  10.898  69.825  1.00  0.00    -0.322 C  
ENDROOT
BRANCH   2   3
HETATM    3  O   UNL     1     -11.606  11.829  68.732  1.00  0.00    -0.255 OA 
BRANCH   3   4
HETATM    4  C   UNL     1     -11.335  11.306  67.502  1.00  0.00    -0.288 C  
HETATM    5  O   UNL     1     -11.015  10.145  67.283  1.00  0.00    -0.266 OA 
BRANCH   4   6
HETATM    6  C   UNL     1     -11.501  12.402  66.431  1.00  0.00    -0.373 C  
BRANCH   6   7
HETATM    7  N   UNL     1     -10.844  13.657  66.888  1.00  0.00    -0.282 NA 
HETATM    8  H   UNL     1      -9.862  13.663  66.614  1.00  0.00     0.000 HD 
BRANCH   7   9
HETATM    9  C   UNL     1     -11.509  14.886  66.443  1.00  0.00    -0.280 C  
BRANCH   9  10
HETATM   10  C   UNL     1     -10.849  15.522  65.199  1.00  0.00    -0.436 C  
BRANCH  10  11
HETATM   11  N   UNL     1      -9.970  16.669  65.483  1.00  0.00    -0.573 NA 
HETATM   12  H   UNL     1     -10.107  17.404  64.788  1.00  0.00     0.000 HD 
BRANCH  11  13
HETATM   13  C   UNL     1     -10.108  17.222  66.862  1.00  0.00    -0.304 C  
BRANCH  13  14
HETATM   14  C   UNL     1      -8.986  16.758  67.818  1.00  0.00    -0.216 C  
HETATM   15  H   UNL     1      -6.627  15.427  67.849  1.00  0.00     0.000 H  
HETATM   16  S   UNL     1      -7.637  15.844  66.989  1.00  0.00    -0.217 SA 
ENDBRANCH  13  14
BRANCH  13  17
HETATM   17  C   UNL     1     -10.149  18.765  66.802  1.00  0.00    -0.369 C  
HETATM   18  O   UNL     1     -11.145  19.456  66.985  1.00  0.00    -0.420 OA 
BRANCH  17  19
HETATM   19  O   UNL     1      -8.906  19.256  66.524  1.00  0.00    -0.319 OA 
BRANCH  19  20
HETATM   20  C   UNL     1      -8.500  20.403  67.282  1.00  0.00    -0.331 C  
HETATM   21  C   UNL     1      -7.058  20.758  66.988  1.00  0.00    -0.383 C  
ENDBRANCH  19  20
ENDBRANCH  17  19
ENDBRANCH  13  17
ENDBRANCH  11  13
ENDBRANCH  10  11
ENDBRANCH   9  10
ENDBRANCH   7   9
ENDBRANCH   6   7
BRANCH   6  22
HETATM   22  C   UNL     1     -11.030  11.854  65.069  1.00  0.00    -0.312 C  
HETATM   23  H   UNL     1     -11.717  11.745  62.443  1.00  0.00     0.000 H  
HETATM   24  S   UNL     1     -12.141  12.238  63.671  1.00  0.00    -0.572 SA 
ENDBRANCH   6  22
ENDBRANCH   4   6
ENDBRANCH   3   4
ENDBRANCH   2   3
TORSDOF 13
ENDMDL
MODEL      144
REMARK 921   NORMALIZED FREE ENERGY PREDICTED BY IDOCK:   -3.98 KCAL/MOL
REMARK 922        TOTAL FREE ENERGY PREDICTED BY IDOCK:   -7.59 KCAL/MOL
REMARK 923 INTER-LIGAND FREE ENERGY PREDICTED BY IDOCK:   -6.87 KCAL/MOL
REMARK 924 INTRA-LIGAND FREE ENERGY PREDICTED BY IDOCK:   -0.72 KCAL/MOL
REMARK 927      BINDING AFFINITY PREDICTED BY RF-SCORE:    0.00 PKD
ROOT
HETATM    1  C   UNL     1      -9.515   4.566  71.753  1.00  0.00    -0.206 C  
HETATM    2  C   UNL     1      -9.899   4.839  70.314  1.00  0.00    -0.242 C  
ENDROOT
BRANCH   2   3
HETATM    3  O   UNL     1      -9.594   6.198  69.967  1.00  0.00    -0.158 OA 
BRANCH   3   4
HETATM    4  C   UNL     1     -10.654   6.964  69.579  1.00  0.00    -0.236 C  
HETATM    5  O   UNL     1     -11.708   6.534  69.127  1.00  0.00    -0.193 OA 
BRANCH   4   6
HETATM    6  C   UNL     1     -10.323   8.451  69.808  1.00  0.00    -0.216 C  
BRANCH   6   7
HETATM    7  N   UNL     1     -11.374   9.302  69.185  1.00  0.00    -0.429 NA 
HETATM    8  H   UNL     1     -12.280   8.834  69.225  1.00  0.00     0.000 HD 
BRANCH   7   9
HETATM    9  C   UNL     1     -11.471  10.653  69.747  1.00  0.00    -0.302 C  
BRANCH   9  10
HETATM   10  C   UNL     1     -11.038  11.760  68.760  1.00  0.00    -0.241 C  
BRANCH  10  11
HETATM   11  N   UNL     1     -11.874  11.878  67.554  1.00  0.00    -0.597 NA 
HETATM   12  H   UNL     1     -12.725  11.325  67.655  1.00  0.00     0.000 HD 
BRANCH  11  13
HETATM   13  C   UNL     1     -12.207  13.283  67.174  1.00  0.00    -0.227 C  
BRANCH  13  14
HETATM   14  C   UNL     1     -11.042  14.268  67.411  1.00  0.00    -0.304 C  
HETATM   15  H   UNL     1      -8.711  15.116  66.322  1.00  0.00     0.000 H  
HETATM   16  S   UNL     1      -9.759  14.229  66.108  1.00  0.00    -0.279 SA 
ENDBRANCH  13  14
BRANCH  13  17
HETATM   17  C   UNL     1     -12.648  13.329  65.694  1.00  0.00    -0.406 C  
HETATM   18  O   UNL     1     -13.125  14.304  65.126  1.00  0.00    -0.704 OA 
BRANCH  17  19
HETATM   19  O   UNL     1     -12.419  12.121  65.099  1.00  0.00    -0.508 OA 
BRANCH  19  20
HETATM   20  C   UNL     1     -12.045  12.164  63.716  1.00  0.00    -0.525 C  
HETATM   21  C   UNL     1     -10.724  11.459  63.495  1.00  0.00    -0.453 C  
ENDBRANCH  19  20
ENDBRANCH  17  19
ENDBRANCH  13  17
ENDBRANCH  11  13
ENDBRANCH  10  11
ENDBRANCH   9  10
ENDBRANCH   7   9
ENDBRANCH   6   7
BRANCH   6  22
HETATM   22  C   UNL     1     -10.069   8.689  71.311  1.00  0.00    -0.242 C  
HETATM   23  H   UNL     1     -11.103   8.181  73.771  1.00  0.00     0.000 H  
HETATM   24  S   UNL     1     -11.332   7.968  72.417  1.00  0.00    -0.404 SA 
ENDBRANCH   6  22
ENDBRANCH   4   6
ENDBRANCH   3   4
ENDBRANCH   2   3
TORSDOF 13
ENDMDL
MODEL      145
REMARK 921   NORMALIZED FREE ENERGY PREDICTED BY IDOCK:   -3.97 KCAL/MOL
REMARK 922        TOTAL FREE ENERGY PREDICTED BY IDOCK:   -7.59 KCAL/MOL
REMARK 923 INTER-LIGAND FREE ENERGY PREDICTED BY IDOCK:   -6.86 KCAL/MOL
REMARK 924 INTRA-LIGAND FREE ENERGY PREDICTED BY IDOCK:   -0.72 KCAL/MOL
REMARK 927      BINDING AFFINITY PREDICTED BY RF-SCORE:    0.00 PKD
ROOT
HETATM    1  C   UNL     1      -7.091  11.615  67.371  1.00  0.00    -0.124 C  
HETATM    2  C   UNL     1      -8.028  10.646  66.683  1.00  0.00    -0.134 C  
ENDROOT
BRANCH   2   3
HETATM    3  O   UNL     1      -8.523   9.680  67.623  1.00  0.00    -0.124 OA 
BRANCH   3   4
HETATM    4  C   UNL     1      -9.879   9.542  67.674  1.00  0.00    -0.165 C  
HETATM    5  O   UNL     1     -10.512   8.606  67.203  1.00  0.00    -0.285 OA 
BRANCH   4   6
HETATM    6  C   UNL     1     -10.489  10.742  68.425  1.00  0.00    -0.183 C  
BRANCH   6   7
HETATM    7  N   UNL     1     -11.663  11.262  67.673  1.00  0.00    -0.605 NA 
HETATM    8  H   UNL     1     -12.315  11.724  68.307  1.00  0.00     0.000 HD 
BRANCH   7   9
HETATM    9  C   UNL     1     -11.322  12.148  66.555  1.00  0.00    -0.350 C  
BRANCH   9  10
HETATM   10  C   UNL     1     -11.970  13.546  66.662  1.00  0.00    -0.404 C  
BRANCH  10  11
HETATM   11  N   UNL     1     -11.502  14.525  65.667  1.00  0.00    -0.338 NA 
HETATM   12  H   UNL     1     -12.290  14.904  65.141  1.00  0.00     0.000 HD 
BRANCH  11  13
HETATM   13  C   UNL     1     -10.674  15.629  66.234  1.00  0.00    -0.295 C  
BRANCH  13  14
HETATM   14  C   UNL     1      -9.223  15.201  66.549  1.00  0.00    -0.287 C  
HETATM   15  H   UNL     1      -7.568  14.638  68.619  1.00  0.00     0.000 H  
HETATM   16  S   UNL     1      -8.874  15.024  68.335  1.00  0.00    -0.185 SA 
ENDBRANCH  13  14
BRANCH  13  17
HETATM   17  C   UNL     1     -10.673  16.830  65.263  1.00  0.00    -0.169 C  
HETATM   18  O   UNL     1     -11.325  16.905  64.227  1.00  0.00    -1.202 OA 
BRANCH  17  19
HETATM   19  O   UNL     1      -9.846  17.810  65.730  1.00  0.00    -0.541 OA 
BRANCH  19  20
HETATM   20  C   UNL     1     -10.477  18.866  66.466  1.00  0.00    -0.432 C  
HETATM   21  C   UNL     1      -9.518  19.467  67.472  1.00  0.00    -0.395 C  
ENDBRANCH  19  20
ENDBRANCH  17  19
ENDBRANCH  13  17
ENDBRANCH  11  13
ENDBRANCH  10  11
ENDBRANCH   9  10
ENDBRANCH   7   9
ENDBRANCH   6   7
BRANCH   6  22
HETATM   22  C   UNL     1     -10.753  10.340  69.891  1.00  0.00    -0.294 C  
HETATM   23  H   UNL     1     -12.678  10.353  71.808  1.00  0.00     0.000 H  
HETATM   24  S   UNL     1     -12.439  10.714  70.488  1.00  0.00    -0.352 SA 
ENDBRANCH   6  22
ENDBRANCH   4   6
ENDBRANCH   3   4
ENDBRANCH   2   3
TORSDOF 13
ENDMDL
MODEL      146
REMARK 921   NORMALIZED FREE ENERGY PREDICTED BY IDOCK:   -3.97 KCAL/MOL
REMARK 922        TOTAL FREE ENERGY PREDICTED BY IDOCK:   -7.58 KCAL/MOL
REMARK 923 INTER-LIGAND FREE ENERGY PREDICTED BY IDOCK:   -6.69 KCAL/MOL
REMARK 924 INTRA-LIGAND FREE ENERGY PREDICTED BY IDOCK:   -0.89 KCAL/MOL
REMARK 927      BINDING AFFINITY PREDICTED BY RF-SCORE:    0.00 PKD
ROOT
HETATM    1  C   UNL     1     -10.825   6.320  67.571  1.00  0.00    -0.436 C  
HETATM    2  C   UNL     1     -10.605   6.501  69.058  1.00  0.00    -0.245 C  
ENDROOT
BRANCH   2   3
HETATM    3  O   UNL     1     -11.865   6.553  69.744  1.00  0.00    -0.345 OA 
BRANCH   3   4
HETATM    4  C   UNL     1     -11.900   7.333  70.862  1.00  0.00    -0.316 C  
HETATM    5  O   UNL     1     -12.425   7.023  71.924  1.00  0.00    -0.329 OA 
BRANCH   4   6
HETATM    6  C   UNL     1     -11.168   8.660  70.584  1.00  0.00    -0.252 C  
BRANCH   6   7
HETATM    7  N   UNL     1     -12.139   9.678  70.097  1.00  0.00    -0.467 NA 
HETATM    8  H   UNL     1     -12.976   9.679  70.681  1.00  0.00     0.000 HD 
BRANCH   7   9
HETATM    9  C   UNL     1     -11.591  11.034  69.987  1.00  0.00    -0.344 C  
BRANCH   9  10
HETATM   10  C   UNL     1     -10.520  11.174  68.883  1.00  0.00    -0.207 C  
BRANCH  10  11
HETATM   11  N   UNL     1     -10.447  12.503  68.254  1.00  0.00    -0.228 NA 
HETATM   12  H   UNL     1      -9.906  12.459  67.390  1.00  0.00     0.000 HD 
BRANCH  11  13
HETATM   13  C   UNL     1     -11.775  13.138  68.006  1.00  0.00    -0.355 C  
BRANCH  13  14
HETATM   14  C   UNL     1     -11.906  14.540  68.639  1.00  0.00    -0.320 C  
HETATM   15  H   UNL     1     -10.577  16.302  70.209  1.00  0.00     0.000 H  
HETATM   16  S   UNL     1     -10.459  15.040  69.639  1.00  0.00    -0.176 SA 
ENDBRANCH  13  14
BRANCH  13  17
HETATM   17  C   UNL     1     -12.038  13.215  66.485  1.00  0.00    -0.358 C  
HETATM   18  O   UNL     1     -12.390  12.278  65.778  1.00  0.00    -0.622 OA 
BRANCH  17  19
HETATM   19  O   UNL     1     -11.832  14.488  66.038  1.00  0.00    -0.373 OA 
BRANCH  19  20
HETATM   20  C   UNL     1     -10.686  14.681  65.199  1.00  0.00    -0.414 C  
HETATM   21  C   UNL     1      -9.657  15.554  65.886  1.00  0.00    -0.383 C  
ENDBRANCH  19  20
ENDBRANCH  17  19
ENDBRANCH  13  17
ENDBRANCH  11  13
ENDBRANCH  10  11
ENDBRANCH   9  10
ENDBRANCH   7   9
ENDBRANCH   6   7
BRANCH   6  22
HETATM   22  C   UNL     1     -10.347   9.056  71.828  1.00  0.00    -0.337 C  
HETATM   23  H   UNL     1      -7.870   8.845  72.924  1.00  0.00     0.000 H  
HETATM   24  S   UNL     1      -8.610   8.489  71.803  1.00  0.00    -0.185 SA 
ENDBRANCH   6  22
ENDBRANCH   4   6
ENDBRANCH   3   4
ENDBRANCH   2   3
TORSDOF 13
ENDMDL
MODEL      147
REMARK 921   NORMALIZED FREE ENERGY PREDICTED BY IDOCK:   -3.96 KCAL/MOL
REMARK 922        TOTAL FREE ENERGY PREDICTED BY IDOCK:   -7.57 KCAL/MOL
REMARK 923 INTER-LIGAND FREE ENERGY PREDICTED BY IDOCK:   -6.82 KCAL/MOL
REMARK 924 INTRA-LIGAND FREE ENERGY PREDICTED BY IDOCK:   -0.75 KCAL/MOL
REMARK 927      BINDING AFFINITY PREDICTED BY RF-SCORE:    0.00 PKD
ROOT
HETATM    1  C   UNL     1      -9.085  10.274  63.712  1.00  0.00    -0.285 C  
HETATM    2  C   UNL     1     -10.144  11.281  63.319  1.00  0.00    -0.386 C  
ENDROOT
BRANCH   2   3
HETATM    3  O   UNL     1     -11.198  11.300  64.294  1.00  0.00    -0.299 OA 
BRANCH   3   4
HETATM    4  C   UNL     1     -12.114  12.301  64.159  1.00  0.00    -0.436 C  
HETATM    5  O   UNL     1     -12.910  12.410  63.235  1.00  0.00    -0.696 OA 
BRANCH   4   6
HETATM    6  C   UNL     1     -11.998  13.268  65.354  1.00  0.00    -0.395 C  
BRANCH   6   7
HETATM    7  N   UNL     1     -11.906  12.492  66.621  1.00  0.00    -0.520 NA 
HETATM    8  H   UNL     1     -11.083  11.889  66.609  1.00  0.00     0.000 HD 
BRANCH   7   9
HETATM    9  C   UNL     1     -11.921  13.313  67.836  1.00  0.00    -0.309 C  
BRANCH   9  10
HETATM   10  C   UNL     1     -10.552  13.377  68.549  1.00  0.00    -0.253 C  
BRANCH  10  11
HETATM   11  N   UNL     1     -10.438  14.421  69.581  1.00  0.00    -0.445 NA 
HETATM   12  H   UNL     1     -10.270  14.001  70.496  1.00  0.00     0.000 HD 
BRANCH  11  13
HETATM   13  C   UNL     1      -9.411  15.464  69.289  1.00  0.00    -0.254 C  
BRANCH  13  14
HETATM   14  C   UNL     1      -8.162  14.903  68.573  1.00  0.00    -0.153 C  
HETATM   15  H   UNL     1      -5.519  14.440  68.945  1.00  0.00     0.000 H  
HETATM   16  S   UNL     1      -6.643  14.945  69.590  1.00  0.00    -0.171 SA 
ENDBRANCH  13  14
BRANCH  13  17
HETATM   17  C   UNL     1     -10.043  16.593  68.446  1.00  0.00    -0.268 C  
HETATM   18  O   UNL     1     -11.242  16.730  68.228  1.00  0.00    -0.333 OA 
BRANCH  17  19
HETATM   19  O   UNL     1      -9.071  17.432  67.982  1.00  0.00    -0.247 OA 
BRANCH  19  20
HETATM   20  C   UNL     1      -9.023  18.732  68.586  1.00  0.00    -0.333 C  
HETATM   21  C   UNL     1      -9.462  19.797  67.604  1.00  0.00    -0.461 C  
ENDBRANCH  19  20
ENDBRANCH  17  19
ENDBRANCH  13  17
ENDBRANCH  11  13
ENDBRANCH  10  11
ENDBRANCH   9  10
ENDBRANCH   7   9
ENDBRANCH   6   7
BRANCH   6  22
HETATM   22  C   UNL     1     -10.850  14.264  65.090  1.00  0.00    -0.378 C  
HETATM   23  H   UNL     1     -10.361  16.849  64.415  1.00  0.00     0.000 H  
HETATM   24  S   UNL     1     -11.395  15.951  64.652  1.00  0.00    -0.201 SA 
ENDBRANCH   6  22
ENDBRANCH   4   6
ENDBRANCH   3   4
ENDBRANCH   2   3
TORSDOF 13
ENDMDL
MODEL      148
REMARK 921   NORMALIZED FREE ENERGY PREDICTED BY IDOCK:   -3.96 KCAL/MOL
REMARK 922        TOTAL FREE ENERGY PREDICTED BY IDOCK:   -7.57 KCAL/MOL
REMARK 923 INTER-LIGAND FREE ENERGY PREDICTED BY IDOCK:   -6.90 KCAL/MOL
REMARK 924 INTRA-LIGAND FREE ENERGY PREDICTED BY IDOCK:   -0.67 KCAL/MOL
REMARK 927      BINDING AFFINITY PREDICTED BY RF-SCORE:    0.00 PKD
ROOT
HETATM    1  C   UNL     1     -10.090   6.577  74.176  1.00  0.00    -0.374 C  
HETATM    2  C   UNL     1     -10.799   5.492  73.394  1.00  0.00    -0.288 C  
ENDROOT
BRANCH   2   3
HETATM    3  O   UNL     1     -10.739   5.773  71.987  1.00  0.00    -0.218 OA 
BRANCH   3   4
HETATM    4  C   UNL     1     -11.736   6.564  71.497  1.00  0.00    -0.324 C  
HETATM    5  O   UNL     1     -12.880   6.609  71.931  1.00  0.00    -0.328 OA 
BRANCH   4   6
HETATM    6  C   UNL     1     -11.196   7.398  70.320  1.00  0.00    -0.247 C  
BRANCH   6   7
HETATM    7  N   UNL     1     -11.902   8.708  70.265  1.00  0.00    -0.464 NA 
HETATM    8  H   UNL     1     -12.239   8.968  71.192  1.00  0.00     0.000 HD 
BRANCH   7   9
HETATM    9  C   UNL     1     -11.113   9.798  69.683  1.00  0.00    -0.217 C  
BRANCH   9  10
HETATM   10  C   UNL     1     -11.939  11.074  69.410  1.00  0.00    -0.337 C  
BRANCH  10  11
HETATM   11  N   UNL     1     -11.953  11.515  68.006  1.00  0.00    -0.627 NA 
HETATM   12  H   UNL     1     -12.768  11.138  67.521  1.00  0.00     0.000 HD 
BRANCH  11  13
HETATM   13  C   UNL     1     -11.878  12.995  67.827  1.00  0.00    -0.347 C  
BRANCH  13  14
HETATM   14  C   UNL     1     -10.620  13.622  68.467  1.00  0.00    -0.250 C  
HETATM   15  H   UNL     1      -7.920  13.406  68.516  1.00  0.00     0.000 H  
HETATM   16  S   UNL     1      -9.053  12.842  67.939  1.00  0.00    -0.208 SA 
ENDBRANCH  13  14
BRANCH  13  17
HETATM   17  C   UNL     1     -11.935  13.340  66.322  1.00  0.00    -0.417 C  
HETATM   18  O   UNL     1     -11.664  14.431  65.833  1.00  0.00    -0.360 OA 
BRANCH  17  19
HETATM   19  O   UNL     1     -12.323  12.244  65.605  1.00  0.00    -0.619 OA 
BRANCH  19  20
HETATM   20  C   UNL     1     -12.263  12.375  64.178  1.00  0.00    -0.468 C  
HETATM   21  C   UNL     1     -10.995  11.751  63.635  1.00  0.00    -0.513 C  
ENDBRANCH  19  20
ENDBRANCH  17  19
ENDBRANCH  13  17
ENDBRANCH  11  13
ENDBRANCH  10  11
ENDBRANCH   9  10
ENDBRANCH   7   9
ENDBRANCH   6   7
BRANCH   6  22
HETATM   22  C   UNL     1      -9.657   7.467  70.411  1.00  0.00    -0.168 C  
HETATM   23  H   UNL     1      -7.393   6.784  69.074  1.00  0.00     0.000 H  
HETATM   24  S   UNL     1      -8.779   6.722  68.993  1.00  0.00    -0.130 SA 
ENDBRANCH   6  22
ENDBRANCH   4   6
ENDBRANCH   3   4
ENDBRANCH   2   3
TORSDOF 13
ENDMDL
MODEL      149
REMARK 921   NORMALIZED FREE ENERGY PREDICTED BY IDOCK:   -3.96 KCAL/MOL
REMARK 922        TOTAL FREE ENERGY PREDICTED BY IDOCK:   -7.57 KCAL/MOL
REMARK 923 INTER-LIGAND FREE ENERGY PREDICTED BY IDOCK:   -6.72 KCAL/MOL
REMARK 924 INTRA-LIGAND FREE ENERGY PREDICTED BY IDOCK:   -0.85 KCAL/MOL
REMARK 927      BINDING AFFINITY PREDICTED BY RF-SCORE:    0.00 PKD
ROOT
HETATM    1  C   UNL     1      -9.203   5.358  70.353  1.00  0.00    -0.190 C  
HETATM    2  C   UNL     1     -10.312   5.528  69.337  1.00  0.00    -0.278 C  
ENDROOT
BRANCH   2   3
HETATM    3  O   UNL     1     -10.657   6.916  69.205  1.00  0.00    -0.204 OA 
BRANCH   3   4
HETATM    4  C   UNL     1     -10.767   7.381  67.928  1.00  0.00    -0.149 C  
HETATM    5  O   UNL     1     -11.199   6.739  66.977  1.00  0.00    -0.393 OA 
BRANCH   4   6
HETATM    6  C   UNL     1     -10.275   8.839  67.868  1.00  0.00    -0.219 C  
BRANCH   6   7
HETATM    7  N   UNL     1     -11.383   9.760  68.245  1.00  0.00    -0.521 NA 
HETATM    8  H   UNL     1     -12.214   9.228  68.506  1.00  0.00     0.000 HD 
BRANCH   7   9
HETATM    9  C   UNL     1     -11.039  10.721  69.298  1.00  0.00    -0.256 C  
BRANCH   9  10
HETATM   10  C   UNL     1     -11.050  12.188  68.815  1.00  0.00    -0.250 C  
BRANCH  10  11
HETATM   11  N   UNL     1     -12.032  12.486  67.759  1.00  0.00    -0.429 NA 
HETATM   12  H   UNL     1     -12.965  12.589  68.159  1.00  0.00     0.000 HD 
BRANCH  11  13
HETATM   13  C   UNL     1     -11.690  13.673  66.921  1.00  0.00    -0.389 C  
BRANCH  13  14
HETATM   14  C   UNL     1     -10.172  13.829  66.680  1.00  0.00    -0.276 C  
HETATM   15  H   UNL     1      -8.303  15.660  65.978  1.00  0.00     0.000 H  
HETATM   16  S   UNL     1      -9.669  15.519  66.195  1.00  0.00    -0.346 SA 
ENDBRANCH  13  14
BRANCH  13  17
HETATM   17  C   UNL     1     -12.436  13.587  65.571  1.00  0.00    -0.491 C  
HETATM   18  O   UNL     1     -12.899  14.540  64.954  1.00  0.00    -0.588 OA 
BRANCH  17  19
HETATM   19  O   UNL     1     -12.498  12.289  65.152  1.00  0.00    -0.563 OA 
BRANCH  19  20
HETATM   20  C   UNL     1     -12.356  12.078  63.741  1.00  0.00    -0.496 C  
HETATM   21  C   UNL     1     -10.940  11.662  63.401  1.00  0.00    -0.442 C  
ENDBRANCH  19  20
ENDBRANCH  17  19
ENDBRANCH  13  17
ENDBRANCH  11  13
ENDBRANCH  10  11
ENDBRANCH   9  10
ENDBRANCH   7   9
ENDBRANCH   6   7
BRANCH   6  22
HETATM   22  C   UNL     1      -8.980   8.971  68.695  1.00  0.00    -0.137 C  
HETATM   23  H   UNL     1      -6.347   8.304  68.685  1.00  0.00     0.000 H  
HETATM   24  S   UNL     1      -7.514   8.185  67.940  1.00  0.00    -0.099 SA 
ENDBRANCH   6  22
ENDBRANCH   4   6
ENDBRANCH   3   4
ENDBRANCH   2   3
TORSDOF 13
ENDMDL
MODEL      150
REMARK 921   NORMALIZED FREE ENERGY PREDICTED BY IDOCK:   -3.95 KCAL/MOL
REMARK 922        TOTAL FREE ENERGY PREDICTED BY IDOCK:   -7.55 KCAL/MOL
REMARK 923 INTER-LIGAND FREE ENERGY PREDICTED BY IDOCK:   -7.01 KCAL/MOL
REMARK 924 INTRA-LIGAND FREE ENERGY PREDICTED BY IDOCK:   -0.54 KCAL/MOL
REMARK 927      BINDING AFFINITY PREDICTED BY RF-SCORE:    0.00 PKD
ROOT
HETATM    1  C   UNL     1     -13.951  13.795  72.285  1.00  0.00    -0.672 C  
HETATM    2  C   UNL     1     -14.383  15.185  71.867  1.00  0.00    -0.596 C  
ENDROOT
BRANCH   2   3
HETATM    3  O   UNL     1     -13.508  15.692  70.848  1.00  0.00    -0.569 OA 
BRANCH   3   4
HETATM    4  C   UNL     1     -12.213  15.895  71.224  1.00  0.00    -0.422 C  
HETATM    5  O   UNL     1     -11.856  16.434  72.264  1.00  0.00    -0.534 OA 
BRANCH   4   6
HETATM    6  C   UNL     1     -11.270  15.332  70.143  1.00  0.00    -0.291 C  
BRANCH   6   7
HETATM    7  N   UNL     1     -11.124  13.861  70.319  1.00  0.00    -0.411 NA 
HETATM    8  H   UNL     1     -11.408  13.585  71.260  1.00  0.00     0.000 HD 
BRANCH   7   9
HETATM    9  C   UNL     1     -11.830  13.058  69.316  1.00  0.00    -0.316 C  
BRANCH   9  10
HETATM   10  C   UNL     1     -11.462  11.558  69.362  1.00  0.00    -0.309 C  
BRANCH  10  11
HETATM   11  N   UNL     1     -11.801  10.798  68.148  1.00  0.00    -0.782 NA 
HETATM   12  H   UNL     1     -12.267  11.401  67.469  1.00  0.00     0.000 HD 
BRANCH  11  13
HETATM   13  C   UNL     1     -10.643  10.099  67.517  1.00  0.00    -0.273 C  
BRANCH  13  14
HETATM   14  C   UNL     1      -9.608  11.069  66.906  1.00  0.00    -0.182 C  
HETATM   15  H   UNL     1      -8.272  11.591  64.607  1.00  0.00     0.000 H  
HETATM   16  S   UNL     1      -9.204  10.718  65.157  1.00  0.00    -0.217 SA 
ENDBRANCH  13  14
BRANCH  13  17
HETATM   17  C   UNL     1      -9.962   9.182  68.556  1.00  0.00    -0.174 C  
HETATM   18  O   UNL     1     -10.477   8.203  69.085  1.00  0.00    -0.220 OA 
BRANCH  17  19
HETATM   19  O   UNL     1      -8.689   9.612  68.798  1.00  0.00    -0.120 OA 
BRANCH  19  20
HETATM   20  C   UNL     1      -8.188   9.379  70.121  1.00  0.00    -0.168 C  
HETATM   21  C   UNL     1      -6.681   9.523  70.158  1.00  0.00    -0.078 C  
ENDBRANCH  19  20
ENDBRANCH  17  19
ENDBRANCH  13  17
ENDBRANCH  11  13
ENDBRANCH  10  11
ENDBRANCH   9  10
ENDBRANCH   7   9
ENDBRANCH   6   7
BRANCH   6  22
HETATM   22  C   UNL     1     -11.755  15.798  68.755  1.00  0.00    -0.378 C  
HETATM   23  H   UNL     1     -10.933  16.107  66.185  1.00  0.00     0.000 H  
HETATM   24  S   UNL     1     -10.497  15.687  67.435  1.00  0.00    -0.295 SA 
ENDBRANCH   6  22
ENDBRANCH   4   6
ENDBRANCH   3   4
ENDBRANCH   2   3
TORSDOF 13
ENDMDL
MODEL      151
REMARK 921   NORMALIZED FREE ENERGY PREDICTED BY IDOCK:   -3.95 KCAL/MOL
REMARK 922        TOTAL FREE ENERGY PREDICTED BY IDOCK:   -7.55 KCAL/MOL
REMARK 923 INTER-LIGAND FREE ENERGY PREDICTED BY IDOCK:   -6.82 KCAL/MOL
REMARK 924 INTRA-LIGAND FREE ENERGY PREDICTED BY IDOCK:   -0.73 KCAL/MOL
REMARK 927      BINDING AFFINITY PREDICTED BY RF-SCORE:    0.00 PKD
ROOT
HETATM    1  C   UNL     1      -9.882   5.399  68.706  1.00  0.00    -0.208 C  
HETATM    2  C   UNL     1     -10.636   5.400  70.019  1.00  0.00    -0.284 C  
ENDROOT
BRANCH   2   3
HETATM    3  O   UNL     1     -11.572   6.488  70.054  1.00  0.00    -0.407 OA 
BRANCH   3   4
HETATM    4  C   UNL     1     -11.641   7.174  71.231  1.00  0.00    -0.294 C  
HETATM    5  O   UNL     1     -11.995   6.702  72.304  1.00  0.00    -0.284 OA 
BRANCH   4   6
HETATM    6  C   UNL     1     -11.195   8.631  71.002  1.00  0.00    -0.271 C  
BRANCH   6   7
HETATM    7  N   UNL     1     -12.149   9.560  71.668  1.00  0.00    -0.378 NA 
HETATM    8  H   UNL     1     -11.653  10.174  72.315  1.00  0.00     0.000 HD 
BRANCH   7   9
HETATM    9  C   UNL     1     -12.973  10.346  70.745  1.00  0.00    -0.341 C  
BRANCH   9  10
HETATM   10  C   UNL     1     -12.146  11.239  69.794  1.00  0.00    -0.325 C  
BRANCH  10  11
HETATM   11  N   UNL     1     -11.562  12.437  70.419  1.00  0.00    -0.493 NA 
HETATM   12  H   UNL     1     -10.686  12.204  70.888  1.00  0.00     0.000 HD 
BRANCH  11  13
HETATM   13  C   UNL     1     -11.363  13.583  69.482  1.00  0.00    -0.202 C  
BRANCH  13  14
HETATM   14  C   UNL     1     -12.017  13.358  68.101  1.00  0.00    -0.321 C  
HETATM   15  H   UNL     1     -11.575  13.711  65.452  1.00  0.00     0.000 H  
HETATM   16  S   UNL     1     -10.987  13.913  66.695  1.00  0.00    -0.305 SA 
ENDBRANCH  13  14
BRANCH  13  17
HETATM   17  C   UNL     1     -11.909  14.878  70.124  1.00  0.00    -0.308 C  
HETATM   18  O   UNL     1     -12.106  15.934  69.533  1.00  0.00    -0.329 OA 
BRANCH  17  19
HETATM   19  O   UNL     1     -12.155  14.675  71.452  1.00  0.00    -0.330 OA 
BRANCH  19  20
HETATM   20  C   UNL     1     -11.945  15.806  72.308  1.00  0.00    -0.493 C  
HETATM   21  C   UNL     1     -12.332  15.478  73.734  1.00  0.00    -0.734 C  
ENDBRANCH  19  20
ENDBRANCH  17  19
ENDBRANCH  13  17
ENDBRANCH  11  13
ENDBRANCH  10  11
ENDBRANCH   9  10
ENDBRANCH   7   9
ENDBRANCH   6   7
BRANCH   6  22
HETATM   22  C   UNL     1      -9.716   8.778  71.413  1.00  0.00    -0.280 C  
HETATM   23  H   UNL     1      -7.325   9.721  70.533  1.00  0.00     0.000 H  
HETATM   24  S   UNL     1      -8.658   9.588  70.163  1.00  0.00    -0.231 SA 
ENDBRANCH   6  22
ENDBRANCH   4   6
ENDBRANCH   3   4
ENDBRANCH   2   3
TORSDOF 13
ENDMDL
MODEL      152
REMARK 921   NORMALIZED FREE ENERGY PREDICTED BY IDOCK:   -3.95 KCAL/MOL
REMARK 922        TOTAL FREE ENERGY PREDICTED BY IDOCK:   -7.54 KCAL/MOL
REMARK 923 INTER-LIGAND FREE ENERGY PREDICTED BY IDOCK:   -6.68 KCAL/MOL
REMARK 924 INTRA-LIGAND FREE ENERGY PREDICTED BY IDOCK:   -0.86 KCAL/MOL
REMARK 927      BINDING AFFINITY PREDICTED BY RF-SCORE:    0.00 PKD
ROOT
HETATM    1  C   UNL     1     -13.928  14.234  71.955  1.00  0.00    -0.595 C  
HETATM    2  C   UNL     1     -12.700  14.685  71.192  1.00  0.00    -0.339 C  
ENDROOT
BRANCH   2   3
HETATM    3  O   UNL     1     -12.445  13.799  70.092  1.00  0.00    -0.323 OA 
BRANCH   3   4
HETATM    4  C   UNL     1     -11.907  14.375  68.979  1.00  0.00    -0.323 C  
HETATM    5  O   UNL     1     -11.722  15.576  68.824  1.00  0.00    -0.348 OA 
BRANCH   4   6
HETATM    6  C   UNL     1     -11.558  13.280  67.953  1.00  0.00    -0.334 C  
BRANCH   6   7
HETATM    7  N   UNL     1     -12.025  11.957  68.449  1.00  0.00    -0.453 NA 
HETATM    8  H   UNL     1     -13.042  11.892  68.386  1.00  0.00     0.000 HD 
BRANCH   7   9
HETATM    9  C   UNL     1     -11.397  10.806  67.792  1.00  0.00    -0.279 C  
BRANCH   9  10
HETATM   10  C   UNL     1     -10.437  10.023  68.714  1.00  0.00    -0.208 C  
BRANCH  10  11
HETATM   11  N   UNL     1     -10.571   8.558  68.648  1.00  0.00    -0.369 NA 
HETATM   12  H   UNL     1      -9.666   8.126  68.460  1.00  0.00     0.000 HD 
BRANCH  11  13
HETATM   13  C   UNL     1     -11.202   7.945  69.853  1.00  0.00    -0.046 C  
BRANCH  13  14
HETATM   14  C   UNL     1     -11.351   6.411  69.747  1.00  0.00    -0.427 C  
HETATM   15  H   UNL     1     -10.410   4.268  68.384  1.00  0.00     0.000 H  
HETATM   16  S   UNL     1     -10.276   5.648  68.480  1.00  0.00    -0.196 SA 
ENDBRANCH  13  14
BRANCH  13  17
HETATM   17  C   UNL     1     -10.386   8.313  71.112  1.00  0.00    -0.202 C  
HETATM   18  O   UNL     1      -9.272   7.881  71.386  1.00  0.00    -0.132 OA 
BRANCH  17  19
HETATM   19  O   UNL     1     -11.081   9.204  71.878  1.00  0.00    -0.364 OA 
BRANCH  19  20
HETATM   20  C   UNL     1     -12.507   9.179  71.730  1.00  0.00    -0.372 C  
HETATM   21  C   UNL     1     -13.079  10.579  71.806  1.00  0.00    -0.570 C  
ENDBRANCH  19  20
ENDBRANCH  17  19
ENDBRANCH  13  17
ENDBRANCH  11  13
ENDBRANCH  10  11
ENDBRANCH   9  10
ENDBRANCH   7   9
ENDBRANCH   6   7
BRANCH   6  22
HETATM   22  C   UNL     1     -12.084  13.700  66.565  1.00  0.00    -0.423 C  
HETATM   23  H   UNL     1     -11.255  14.386  64.070  1.00  0.00     0.000 H  
HETATM   24  S   UNL     1     -10.782  14.008  65.321  1.00  0.00    -0.382 SA 
ENDBRANCH   6  22
ENDBRANCH   4   6
ENDBRANCH   3   4
ENDBRANCH   2   3
TORSDOF 13
ENDMDL
MODEL      153
REMARK 921   NORMALIZED FREE ENERGY PREDICTED BY IDOCK:   -3.95 KCAL/MOL
REMARK 922        TOTAL FREE ENERGY PREDICTED BY IDOCK:   -7.54 KCAL/MOL
REMARK 923 INTER-LIGAND FREE ENERGY PREDICTED BY IDOCK:   -6.87 KCAL/MOL
REMARK 924 INTRA-LIGAND FREE ENERGY PREDICTED BY IDOCK:   -0.67 KCAL/MOL
REMARK 927      BINDING AFFINITY PREDICTED BY RF-SCORE:    0.00 PKD
ROOT
HETATM    1  C   UNL     1     -10.430   7.835  67.824  1.00  0.00    -0.277 C  
HETATM    2  C   UNL     1     -10.240   7.055  69.108  1.00  0.00    -0.187 C  
ENDROOT
BRANCH   2   3
HETATM    3  O   UNL     1     -11.169   7.508  70.105  1.00  0.00    -0.259 OA 
BRANCH   3   4
HETATM    4  C   UNL     1     -10.664   8.361  71.042  1.00  0.00    -0.223 C  
HETATM    5  O   UNL     1      -9.516   8.345  71.466  1.00  0.00    -0.165 OA 
BRANCH   4   6
HETATM    6  C   UNL     1     -11.760   9.354  71.474  1.00  0.00    -0.394 C  
BRANCH   6   7
HETATM    7  N   UNL     1     -12.324  10.035  70.276  1.00  0.00    -0.493 NA 
HETATM    8  H   UNL     1     -13.169  10.550  70.525  1.00  0.00     0.000 HD 
BRANCH   7   9
HETATM    9  C   UNL     1     -11.379  10.910  69.575  1.00  0.00    -0.283 C  
BRANCH   9  10
HETATM   10  C   UNL     1     -11.956  12.308  69.261  1.00  0.00    -0.253 C  
BRANCH  10  11
HETATM   11  N   UNL     1     -11.745  13.317  70.312  1.00  0.00    -0.539 NA 
HETATM   12  H   UNL     1     -10.755  13.381  70.550  1.00  0.00     0.000 HD 
BRANCH  11  13
HETATM   13  C   UNL     1     -12.292  14.667  69.985  1.00  0.00    -0.315 C  
BRANCH  13  14
HETATM   14  C   UNL     1     -13.085  15.299  71.150  1.00  0.00    -0.479 C  
HETATM   15  H   UNL     1     -14.445  14.652  73.401  1.00  0.00     0.000 H  
HETATM   16  S   UNL     1     -13.731  14.083  72.353  1.00  0.00    -0.572 SA 
ENDBRANCH  13  14
BRANCH  13  17
HETATM   17  C   UNL     1     -11.141  15.604  69.557  1.00  0.00    -0.298 C  
HETATM   18  O   UNL     1     -10.010  15.601  70.031  1.00  0.00    -0.290 OA 
BRANCH  17  19
HETATM   19  O   UNL     1     -11.560  16.436  68.559  1.00  0.00    -0.302 OA 
BRANCH  19  20
HETATM   20  C   UNL     1     -10.538  16.937  67.688  1.00  0.00    -0.325 C  
HETATM   21  C   UNL     1     -10.658  18.437  67.525  1.00  0.00    -0.447 C  
ENDBRANCH  19  20
ENDBRANCH  17  19
ENDBRANCH  13  17
ENDBRANCH  11  13
ENDBRANCH  10  11
ENDBRANCH   9  10
ENDBRANCH   7   9
ENDBRANCH   6   7
BRANCH   6  22
HETATM   22  C   UNL     1     -12.779   8.625  72.374  1.00  0.00    -0.362 C  
HETATM   23  H   UNL     1     -15.329   7.688  72.412  1.00  0.00     0.000 H  
HETATM   24  S   UNL     1     -14.411   8.346  71.602  1.00  0.00    -0.408 SA 
ENDBRANCH   6  22
ENDBRANCH   4   6
ENDBRANCH   3   4
ENDBRANCH   2   3
TORSDOF 13
ENDMDL
MODEL      154
REMARK 921   NORMALIZED FREE ENERGY PREDICTED BY IDOCK:   -3.94 KCAL/MOL
REMARK 922        TOTAL FREE ENERGY PREDICTED BY IDOCK:   -7.53 KCAL/MOL
REMARK 923 INTER-LIGAND FREE ENERGY PREDICTED BY IDOCK:   -6.48 KCAL/MOL
REMARK 924 INTRA-LIGAND FREE ENERGY PREDICTED BY IDOCK:   -1.05 KCAL/MOL
REMARK 927      BINDING AFFINITY PREDICTED BY RF-SCORE:    0.00 PKD
ROOT
HETATM    1  C   UNL     1     -10.382   5.436  66.678  1.00  0.00    -0.325 C  
HETATM    2  C   UNL     1     -11.104   6.632  67.261  1.00  0.00    -0.345 C  
ENDROOT
BRANCH   2   3
HETATM    3  O   UNL     1     -11.077   6.579  68.696  1.00  0.00    -0.293 OA 
BRANCH   3   4
HETATM    4  C   UNL     1     -10.496   7.643  69.318  1.00  0.00    -0.218 C  
HETATM    5  O   UNL     1      -9.696   8.414  68.802  1.00  0.00    -0.158 OA 
BRANCH   4   6
HETATM    6  C   UNL     1     -11.008   7.732  70.769  1.00  0.00    -0.252 C  
BRANCH   6   7
HETATM    7  N   UNL     1     -12.135   8.702  70.846  1.00  0.00    -0.454 NA 
HETATM    8  H   UNL     1     -12.801   8.417  71.564  1.00  0.00     0.000 HD 
BRANCH   7   9
HETATM    9  C   UNL     1     -11.723  10.094  71.054  1.00  0.00    -0.382 C  
BRANCH   9  10
HETATM   10  C   UNL     1     -12.152  11.038  69.909  1.00  0.00    -0.361 C  
BRANCH  10  11
HETATM   11  N   UNL     1     -11.277  11.014  68.725  1.00  0.00    -0.242 NA 
HETATM   12  H   UNL     1     -11.753  10.571  67.939  1.00  0.00     0.000 HD 
BRANCH  11  13
HETATM   13  C   UNL     1     -10.747  12.352  68.327  1.00  0.00    -0.230 C  
BRANCH  13  14
HETATM   14  C   UNL     1      -9.384  12.275  67.604  1.00  0.00    -0.186 C  
HETATM   15  H   UNL     1      -7.407  13.838  66.611  1.00  0.00     0.000 H  
HETATM   16  S   UNL     1      -8.634  13.907  67.262  1.00  0.00    -0.202 SA 
ENDBRANCH  13  14
BRANCH  13  17
HETATM   17  C   UNL     1     -11.781  13.076  67.436  1.00  0.00    -0.374 C  
HETATM   18  O   UNL     1     -12.231  14.198  67.640  1.00  0.00    -0.351 OA 
BRANCH  17  19
HETATM   19  O   UNL     1     -12.117  12.288  66.374  1.00  0.00    -0.623 OA 
BRANCH  19  20
HETATM   20  C   UNL     1     -12.295  12.964  65.122  1.00  0.00    -0.493 C  
HETATM   21  C   UNL     1     -11.690  12.163  63.989  1.00  0.00    -0.515 C  
ENDBRANCH  19  20
ENDBRANCH  17  19
ENDBRANCH  13  17
ENDBRANCH  11  13
ENDBRANCH  10  11
ENDBRANCH   9  10
ENDBRANCH   7   9
ENDBRANCH   6   7
BRANCH   6  22
HETATM   22  C   UNL     1     -11.308   6.311  71.288  1.00  0.00    -0.297 C  
HETATM   23  H   UNL     1     -10.106   4.093  72.295  1.00  0.00     0.000 H  
HETATM   24  S   UNL     1      -9.836   5.373  71.827  1.00  0.00    -0.179 SA 
ENDBRANCH   6  22
ENDBRANCH   4   6
ENDBRANCH   3   4
ENDBRANCH   2   3
TORSDOF 13
ENDMDL
MODEL      155
REMARK 921   NORMALIZED FREE ENERGY PREDICTED BY IDOCK:   -3.94 KCAL/MOL
REMARK 922        TOTAL FREE ENERGY PREDICTED BY IDOCK:   -7.52 KCAL/MOL
REMARK 923 INTER-LIGAND FREE ENERGY PREDICTED BY IDOCK:   -6.79 KCAL/MOL
REMARK 924 INTRA-LIGAND FREE ENERGY PREDICTED BY IDOCK:   -0.74 KCAL/MOL
REMARK 927      BINDING AFFINITY PREDICTED BY RF-SCORE:    0.00 PKD
ROOT
HETATM    1  C   UNL     1     -13.505   9.271  72.304  1.00  0.00    -0.548 C  
HETATM    2  C   UNL     1     -12.102   8.911  71.865  1.00  0.00    -0.373 C  
ENDROOT
BRANCH   2   3
HETATM    3  O   UNL     1     -11.741   9.657  70.692  1.00  0.00    -0.269 OA 
BRANCH   3   4
HETATM    4  C   UNL     1     -10.495   9.413  70.194  1.00  0.00    -0.240 C  
HETATM    5  O   UNL     1      -9.481   9.271  70.867  1.00  0.00    -0.258 OA 
BRANCH   4   6
HETATM    6  C   UNL     1     -10.563   9.335  68.657  1.00  0.00    -0.187 C  
BRANCH   6   7
HETATM    7  N   UNL     1     -11.637  10.234  68.154  1.00  0.00    -0.696 NA 
HETATM    8  H   UNL     1     -12.392  10.302  68.837  1.00  0.00     0.000 HD 
BRANCH   7   9
HETATM    9  C   UNL     1     -11.176  11.570  67.766  1.00  0.00    -0.279 C  
BRANCH   9  10
HETATM   10  C   UNL     1     -11.874  12.709  68.543  1.00  0.00    -0.300 C  
BRANCH  10  11
HETATM   11  N   UNL     1     -12.297  13.854  67.720  1.00  0.00    -0.455 NA 
HETATM   12  H   UNL     1     -12.918  14.465  68.251  1.00  0.00     0.000 HD 
BRANCH  11  13
HETATM   13  C   UNL     1     -11.169  14.637  67.134  1.00  0.00    -0.344 C  
BRANCH  13  14
HETATM   14  C   UNL     1     -11.347  14.923  65.626  1.00  0.00    -0.325 C  
HETATM   15  H   UNL     1     -12.220  13.784  63.329  1.00  0.00     0.000 H  
HETATM   16  S   UNL     1     -12.059  13.526  64.686  1.00  0.00    -0.419 SA 
ENDBRANCH  13  14
BRANCH  13  17
HETATM   17  C   UNL     1     -10.999  15.962  67.909  1.00  0.00    -0.327 C  
HETATM   18  O   UNL     1     -10.296  16.904  67.561  1.00  0.00    -0.301 OA 
BRANCH  17  19
HETATM   19  O   UNL     1     -11.759  15.942  69.043  1.00  0.00    -0.385 OA 
BRANCH  19  20
HETATM   20  C   UNL     1     -11.067  16.222  70.267  1.00  0.00    -0.332 C  
HETATM   21  C   UNL     1     -11.699  15.476  71.424  1.00  0.00    -0.470 C  
ENDBRANCH  19  20
ENDBRANCH  17  19
ENDBRANCH  13  17
ENDBRANCH  11  13
ENDBRANCH  10  11
ENDBRANCH   9  10
ENDBRANCH   7   9
ENDBRANCH   6   7
BRANCH   6  22
HETATM   22  C   UNL     1      -9.155   9.578  68.075  1.00  0.00    -0.123 C  
HETATM   23  H   UNL     1      -7.597   9.024  65.920  1.00  0.00     0.000 H  
HETATM   24  S   UNL     1      -8.864   8.805  66.445  1.00  0.00    -0.157 SA 
ENDBRANCH   6  22
ENDBRANCH   4   6
ENDBRANCH   3   4
ENDBRANCH   2   3
TORSDOF 13
ENDMDL
MODEL      156
REMARK 921   NORMALIZED FREE ENERGY PREDICTED BY IDOCK:   -3.92 KCAL/MOL
REMARK 922        TOTAL FREE ENERGY PREDICTED BY IDOCK:   -7.49 KCAL/MOL
REMARK 923 INTER-LIGAND FREE ENERGY PREDICTED BY IDOCK:   -6.80 KCAL/MOL
REMARK 924 INTRA-LIGAND FREE ENERGY PREDICTED BY IDOCK:   -0.69 KCAL/MOL
REMARK 927      BINDING AFFINITY PREDICTED BY RF-SCORE:    0.00 PKD
ROOT
HETATM    1  C   UNL     1     -10.465   4.626  72.558  1.00  0.00    -0.257 C  
HETATM    2  C   UNL     1     -11.518   5.709  72.659  1.00  0.00    -0.285 C  
ENDROOT
BRANCH   2   3
HETATM    3  O   UNL     1     -11.799   6.252  71.360  1.00  0.00    -0.304 OA 
BRANCH   3   4
HETATM    4  C   UNL     1     -11.980   7.603  71.308  1.00  0.00    -0.306 C  
HETATM    5  O   UNL     1     -12.902   8.212  71.836  1.00  0.00    -0.320 OA 
BRANCH   4   6
HETATM    6  C   UNL     1     -10.840   8.243  70.493  1.00  0.00    -0.232 C  
BRANCH   6   7
HETATM    7  N   UNL     1     -11.409   9.146  69.455  1.00  0.00    -0.435 NA 
HETATM    8  H   UNL     1     -12.425   9.189  69.540  1.00  0.00     0.000 HD 
BRANCH   7   9
HETATM    9  C   UNL     1     -10.839  10.497  69.448  1.00  0.00    -0.249 C  
BRANCH   9  10
HETATM   10  C   UNL     1     -11.906  11.613  69.484  1.00  0.00    -0.348 C  
BRANCH  10  11
HETATM   11  N   UNL     1     -11.380  12.966  69.727  1.00  0.00    -0.497 NA 
HETATM   12  H   UNL     1     -10.365  12.977  69.629  1.00  0.00     0.000 HD 
BRANCH  11  13
HETATM   13  C   UNL     1     -11.998  14.026  68.876  1.00  0.00    -0.352 C  
BRANCH  13  14
HETATM   14  C   UNL     1     -11.758  15.454  69.415  1.00  0.00    -0.351 C  
HETATM   15  H   UNL     1     -11.889  16.925  71.686  1.00  0.00     0.000 H  
HETATM   16  S   UNL     1     -12.104  15.640  71.201  1.00  0.00    -0.442 SA 
ENDBRANCH  13  14
BRANCH  13  17
HETATM   17  C   UNL     1     -11.465  13.908  67.431  1.00  0.00    -0.348 C  
HETATM   18  O   UNL     1     -10.286  13.788  67.117  1.00  0.00    -0.258 OA 
BRANCH  17  19
HETATM   19  O   UNL     1     -12.503  13.945  66.545  1.00  0.00    -0.424 OA 
BRANCH  19  20
HETATM   20  C   UNL     1     -12.143  13.988  65.158  1.00  0.00    -0.410 C  
HETATM   21  C   UNL     1     -12.326  12.630  64.514  1.00  0.00    -0.537 C  
ENDBRANCH  19  20
ENDBRANCH  17  19
ENDBRANCH  13  17
ENDBRANCH  11  13
ENDBRANCH  10  11
ENDBRANCH   9  10
ENDBRANCH   7   9
ENDBRANCH   6   7
BRANCH   6  22
HETATM   22  C   UNL     1      -9.825   8.886  71.460  1.00  0.00    -0.314 C  
HETATM   23  H   UNL     1      -7.425   8.450  72.656  1.00  0.00     0.000 H  
HETATM   24  S   UNL     1      -8.341   7.872  71.785  1.00  0.00    -0.128 SA 
ENDBRANCH   6  22
ENDBRANCH   4   6
ENDBRANCH   3   4
ENDBRANCH   2   3
TORSDOF 13
ENDMDL
MODEL      157
REMARK 921   NORMALIZED FREE ENERGY PREDICTED BY IDOCK:   -3.91 KCAL/MOL
REMARK 922        TOTAL FREE ENERGY PREDICTED BY IDOCK:   -7.48 KCAL/MOL
REMARK 923 INTER-LIGAND FREE ENERGY PREDICTED BY IDOCK:   -6.43 KCAL/MOL
REMARK 924 INTRA-LIGAND FREE ENERGY PREDICTED BY IDOCK:   -1.05 KCAL/MOL
REMARK 927      BINDING AFFINITY PREDICTED BY RF-SCORE:    0.00 PKD
ROOT
HETATM    1  C   UNL     1      -9.701   7.776  66.427  1.00  0.00    -0.219 C  
HETATM    2  C   UNL     1     -10.500   8.853  67.130  1.00  0.00    -0.274 C  
ENDROOT
BRANCH   2   3
HETATM    3  O   UNL     1     -10.450   8.661  68.552  1.00  0.00    -0.209 OA 
BRANCH   3   4
HETATM    4  C   UNL     1      -9.512   9.394  69.216  1.00  0.00    -0.164 C  
HETATM    5  O   UNL     1      -8.740   8.955  70.060  1.00  0.00    -0.130 OA 
BRANCH   4   6
HETATM    6  C   UNL     1      -9.567  10.856  68.734  1.00  0.00    -0.189 C  
BRANCH   6   7
HETATM    7  N   UNL     1     -10.517  11.630  69.579  1.00  0.00    -0.429 NA 
HETATM    8  H   UNL     1     -10.096  12.514  69.869  1.00  0.00     0.000 HD 
BRANCH   7   9
HETATM    9  C   UNL     1     -11.826  11.865  68.962  1.00  0.00    -0.308 C  
BRANCH   9  10
HETATM   10  C   UNL     1     -11.774  12.847  67.771  1.00  0.00    -0.362 C  
BRANCH  10  11
HETATM   11  N   UNL     1     -12.092  12.253  66.462  1.00  0.00    -0.599 NA 
HETATM   12  H   UNL     1     -13.031  11.855  66.470  1.00  0.00     0.000 HD 
BRANCH  11  13
HETATM   13  C   UNL     1     -11.930  13.186  65.308  1.00  0.00    -0.398 C  
BRANCH  13  14
HETATM   14  C   UNL     1     -10.656  14.055  65.403  1.00  0.00    -0.341 C  
HETATM   15  H   UNL     1      -9.801  16.616  65.187  1.00  0.00     0.000 H  
HETATM   16  S   UNL     1     -10.948  15.834  65.102  1.00  0.00    -0.351 SA 
ENDBRANCH  13  14
BRANCH  13  17
HETATM   17  C   UNL     1     -11.929  12.385  63.988  1.00  0.00    -0.460 C  
HETATM   18  O   UNL     1     -12.926  12.072  63.347  1.00  0.00    -0.772 OA 
BRANCH  17  19
HETATM   19  O   UNL     1     -10.648  12.079  63.626  1.00  0.00    -0.371 OA 
BRANCH  19  20
HETATM   20  C   UNL     1     -10.242  10.721  63.841  1.00  0.00    -0.309 C  
HETATM   21  C   UNL     1      -9.181  10.314  62.841  1.00  0.00    -0.316 C  
ENDBRANCH  19  20
ENDBRANCH  17  19
ENDBRANCH  13  17
ENDBRANCH  11  13
ENDBRANCH  10  11
ENDBRANCH   9  10
ENDBRANCH   7   9
ENDBRANCH   6   7
BRANCH   6  22
HETATM   22  C   UNL     1      -8.132  11.417  68.650  1.00  0.00    -0.141 C  
HETATM   23  H   UNL     1      -5.824  11.209  67.233  1.00  0.00     0.000 H  
HETATM   24  S   UNL     1      -7.117  10.704  67.309  1.00  0.00    -0.093 SA 
ENDBRANCH   6  22
ENDBRANCH   4   6
ENDBRANCH   3   4
ENDBRANCH   2   3
TORSDOF 13
ENDMDL
MODEL      158
REMARK 921   NORMALIZED FREE ENERGY PREDICTED BY IDOCK:   -3.91 KCAL/MOL
REMARK 922        TOTAL FREE ENERGY PREDICTED BY IDOCK:   -7.48 KCAL/MOL
REMARK 923 INTER-LIGAND FREE ENERGY PREDICTED BY IDOCK:   -6.78 KCAL/MOL
REMARK 924 INTRA-LIGAND FREE ENERGY PREDICTED BY IDOCK:   -0.70 KCAL/MOL
REMARK 927      BINDING AFFINITY PREDICTED BY RF-SCORE:    0.00 PKD
ROOT
HETATM    1  C   UNL     1      -9.972   9.059  66.103  1.00  0.00    -0.311 C  
HETATM    2  C   UNL     1     -10.096   7.796  66.929  1.00  0.00    -0.286 C  
ENDROOT
BRANCH   2   3
HETATM    3  O   UNL     1     -10.314   8.125  68.310  1.00  0.00    -0.202 OA 
BRANCH   3   4
HETATM    4  C   UNL     1     -10.858   7.137  69.076  1.00  0.00    -0.146 C  
HETATM    5  O   UNL     1     -11.225   6.044  68.663  1.00  0.00    -0.307 OA 
BRANCH   4   6
HETATM    6  C   UNL     1     -10.928   7.604  70.542  1.00  0.00    -0.249 C  
BRANCH   6   7
HETATM    7  N   UNL     1     -12.047   8.571  70.709  1.00  0.00    -0.483 NA 
HETATM    8  H   UNL     1     -12.751   8.194  71.345  1.00  0.00     0.000 HD 
BRANCH   7   9
HETATM    9  C   UNL     1     -11.633   9.910  71.141  1.00  0.00    -0.389 C  
BRANCH   9  10
HETATM   10  C   UNL     1     -12.393  11.047  70.423  1.00  0.00    -0.356 C  
BRANCH  10  11
HETATM   11  N   UNL     1     -11.689  12.340  70.391  1.00  0.00    -0.534 NA 
HETATM   12  H   UNL     1     -10.685  12.202  70.505  1.00  0.00     0.000 HD 
BRANCH  11  13
HETATM   13  C   UNL     1     -11.969  13.161  69.177  1.00  0.00    -0.281 C  
BRANCH  13  14
HETATM   14  C   UNL     1     -11.627  14.656  69.362  1.00  0.00    -0.305 C  
HETATM   15  H   UNL     1     -12.144  16.778  70.964  1.00  0.00     0.000 H  
HETATM   16  S   UNL     1     -12.452  15.433  70.798  1.00  0.00    -0.448 SA 
ENDBRANCH  13  14
BRANCH  13  17
HETATM   17  C   UNL     1     -11.195  12.585  67.970  1.00  0.00    -0.270 C  
HETATM   18  O   UNL     1      -9.990  12.363  67.941  1.00  0.00    -0.193 OA 
BRANCH  17  19
HETATM   19  O   UNL     1     -12.052  12.347  66.935  1.00  0.00    -0.564 OA 
BRANCH  19  20
HETATM   20  C   UNL     1     -11.477  12.389  65.622  1.00  0.00    -0.367 C  
HETATM   21  C   UNL     1     -12.464  12.952  64.622  1.00  0.00    -0.499 C  
ENDBRANCH  19  20
ENDBRANCH  17  19
ENDBRANCH  13  17
ENDBRANCH  11  13
ENDBRANCH  10  11
ENDBRANCH   9  10
ENDBRANCH   7   9
ENDBRANCH   6   7
BRANCH   6  22
HETATM   22  C   UNL     1     -10.962   6.370  71.467  1.00  0.00    -0.263 C  
HETATM   23  H   UNL     1     -10.631   5.614  74.055  1.00  0.00     0.000 H  
HETATM   24  S   UNL     1     -10.601   6.726  73.222  1.00  0.00    -0.321 SA 
ENDBRANCH   6  22
ENDBRANCH   4   6
ENDBRANCH   3   4
ENDBRANCH   2   3
TORSDOF 13
ENDMDL
MODEL      159
REMARK 921   NORMALIZED FREE ENERGY PREDICTED BY IDOCK:   -3.91 KCAL/MOL
REMARK 922        TOTAL FREE ENERGY PREDICTED BY IDOCK:   -7.47 KCAL/MOL
REMARK 923 INTER-LIGAND FREE ENERGY PREDICTED BY IDOCK:   -6.73 KCAL/MOL
REMARK 924 INTRA-LIGAND FREE ENERGY PREDICTED BY IDOCK:   -0.74 KCAL/MOL
REMARK 927      BINDING AFFINITY PREDICTED BY RF-SCORE:    0.00 PKD
ROOT
HETATM    1  C   UNL     1      -9.820  10.409  69.117  1.00  0.00    -0.237 C  
HETATM    2  C   UNL     1     -10.540   9.638  68.032  1.00  0.00    -0.243 C  
ENDROOT
BRANCH   2   3
HETATM    3  O   UNL     1     -11.062  10.541  67.044  1.00  0.00    -0.236 OA 
BRANCH   3   4
HETATM    4  C   UNL     1     -10.349  10.628  65.885  1.00  0.00    -0.224 C  
HETATM    5  O   UNL     1     -10.012   9.678  65.189  1.00  0.00    -0.263 OA 
BRANCH   4   6
HETATM    6  C   UNL     1     -10.044  12.107  65.581  1.00  0.00    -0.248 C  
BRANCH   6   7
HETATM    7  N   UNL     1      -8.708  12.469  66.129  1.00  0.00    -0.401 NA 
HETATM    8  H   UNL     1      -8.033  12.586  65.373  1.00  0.00     0.000 HD 
BRANCH   7   9
HETATM    9  C   UNL     1      -8.709  13.648  67.001  1.00  0.00    -0.192 C  
BRANCH   9  10
HETATM   10  C   UNL     1      -9.507  14.837  66.421  1.00  0.00    -0.301 C  
BRANCH  10  11
HETATM   11  N   UNL     1      -9.191  16.145  67.018  1.00  0.00    -0.205 NA 
HETATM   12  H   UNL     1      -8.642  16.710  66.369  1.00  0.00     0.000 HD 
BRANCH  11  13
HETATM   13  C   UNL     1     -10.383  16.907  67.494  1.00  0.00    -0.318 C  
BRANCH  13  14
HETATM   14  C   UNL     1     -10.346  17.211  69.008  1.00  0.00    -0.331 C  
HETATM   15  H   UNL     1     -10.715  16.046  71.425  1.00  0.00     0.000 H  
HETATM   16  S   UNL     1     -10.749  15.773  70.063  1.00  0.00    -0.350 SA 
ENDBRANCH  13  14
BRANCH  13  17
HETATM   17  C   UNL     1     -10.514  18.221  66.692  1.00  0.00    -0.360 C  
HETATM   18  O   UNL     1     -10.483  18.312  65.469  1.00  0.00    -0.616 OA 
BRANCH  17  19
HETATM   19  O   UNL     1     -10.682  19.275  67.543  1.00  0.00    -0.463 OA 
BRANCH  19  20
HETATM   20  C   UNL     1      -9.919  20.451  67.243  1.00  0.00    -0.424 C  
HETATM   21  C   UNL     1      -8.442  20.204  67.469  1.00  0.00    -0.394 C  
ENDBRANCH  19  20
ENDBRANCH  17  19
ENDBRANCH  13  17
ENDBRANCH  11  13
ENDBRANCH  10  11
ENDBRANCH   9  10
ENDBRANCH   7   9
ENDBRANCH   6   7
BRANCH   6  22
HETATM   22  C   UNL     1     -10.244  12.367  64.073  1.00  0.00    -0.375 C  
HETATM   23  H   UNL     1     -12.165  12.829  62.209  1.00  0.00     0.000 H  
HETATM   24  S   UNL     1     -11.984  12.596  63.567  1.00  0.00    -0.549 SA 
ENDBRANCH   6  22
ENDBRANCH   4   6
ENDBRANCH   3   4
ENDBRANCH   2   3
TORSDOF 13
ENDMDL
MODEL      160
REMARK 921   NORMALIZED FREE ENERGY PREDICTED BY IDOCK:   -3.90 KCAL/MOL
REMARK 922        TOTAL FREE ENERGY PREDICTED BY IDOCK:   -7.46 KCAL/MOL
REMARK 923 INTER-LIGAND FREE ENERGY PREDICTED BY IDOCK:   -6.49 KCAL/MOL
REMARK 924 INTRA-LIGAND FREE ENERGY PREDICTED BY IDOCK:   -0.97 KCAL/MOL
REMARK 927      BINDING AFFINITY PREDICTED BY RF-SCORE:    0.00 PKD
ROOT
HETATM    1  C   UNL     1      -6.115  20.638  68.240  1.00  0.00    -0.368 C  
HETATM    2  C   UNL     1      -7.391  19.824  68.237  1.00  0.00    -0.314 C  
ENDROOT
BRANCH   2   3
HETATM    3  O   UNL     1      -7.961  19.796  66.919  1.00  0.00    -0.271 OA 
BRANCH   3   4
HETATM    4  C   UNL     1      -7.809  18.627  66.232  1.00  0.00    -0.262 C  
HETATM    5  O   UNL     1      -6.989  18.431  65.345  1.00  0.00    -0.519 OA 
BRANCH   4   6
HETATM    6  C   UNL     1      -8.823  17.591  66.753  1.00  0.00    -0.256 C  
BRANCH   6   7
HETATM    7  N   UNL     1      -9.948  17.456  65.788  1.00  0.00    -0.567 NA 
HETATM    8  H   UNL     1      -9.593  17.423  64.831  1.00  0.00     0.000 HD 
BRANCH   7   9
HETATM    9  C   UNL     1     -10.835  16.318  66.045  1.00  0.00    -0.123 C  
BRANCH   9  10
HETATM   10  C   UNL     1     -11.017  15.395  64.819  1.00  0.00    -0.393 C  
BRANCH  10  11
HETATM   11  N   UNL     1     -10.185  14.181  64.828  1.00  0.00    -0.579 NA 
HETATM   12  H   UNL     1      -9.228  14.406  65.103  1.00  0.00     0.000 HD 
BRANCH  11  13
HETATM   13  C   UNL     1     -10.724  13.073  65.671  1.00  0.00    -0.275 C  
BRANCH  13  14
HETATM   14  C   UNL     1     -11.052  11.798  64.863  1.00  0.00    -0.285 C  
HETATM   15  H   UNL     1     -12.541  10.921  62.777  1.00  0.00     0.000 H  
HETATM   16  S   UNL     1     -12.245  12.069  63.504  1.00  0.00    -0.486 SA 
ENDBRANCH  13  14
BRANCH  13  17
HETATM   17  C   UNL     1      -9.720  12.744  66.798  1.00  0.00    -0.243 C  
HETATM   18  O   UNL     1      -8.573  12.344  66.633  1.00  0.00    -0.169 OA 
BRANCH  17  19
HETATM   19  O   UNL     1     -10.292  12.973  68.017  1.00  0.00    -0.221 OA 
BRANCH  19  20
HETATM   20  C   UNL     1     -11.682  13.324  68.001  1.00  0.00    -0.359 C  
HETATM   21  C   UNL     1     -12.034  14.174  69.203  1.00  0.00    -0.388 C  
ENDBRANCH  19  20
ENDBRANCH  17  19
ENDBRANCH  13  17
ENDBRANCH  11  13
ENDBRANCH  10  11
ENDBRANCH   9  10
ENDBRANCH   7   9
ENDBRANCH   6   7
BRANCH   6  22
HETATM   22  C   UNL     1      -8.078  16.286  67.104  1.00  0.00    -0.188 C  
HETATM   23  H   UNL     1      -7.595  14.572  69.155  1.00  0.00     0.000 H  
HETATM   24  S   UNL     1      -8.265  15.747  68.839  1.00  0.00    -0.226 SA 
ENDBRANCH   6  22
ENDBRANCH   4   6
ENDBRANCH   3   4
ENDBRANCH   2   3
TORSDOF 13
ENDMDL
MODEL      161
REMARK 921   NORMALIZED FREE ENERGY PREDICTED BY IDOCK:   -3.90 KCAL/MOL
REMARK 922        TOTAL FREE ENERGY PREDICTED BY IDOCK:   -7.46 KCAL/MOL
REMARK 923 INTER-LIGAND FREE ENERGY PREDICTED BY IDOCK:   -6.40 KCAL/MOL
REMARK 924 INTRA-LIGAND FREE ENERGY PREDICTED BY IDOCK:   -1.06 KCAL/MOL
REMARK 927      BINDING AFFINITY PREDICTED BY RF-SCORE:    0.00 PKD
ROOT
HETATM    1  C   UNL     1     -10.613  19.617  66.808  1.00  0.00    -0.602 C  
HETATM    2  C   UNL     1      -9.133  19.795  66.545  1.00  0.00    -0.376 C  
ENDROOT
BRANCH   2   3
HETATM    3  O   UNL     1      -8.408  18.634  66.979  1.00  0.00    -0.257 OA 
BRANCH   3   4
HETATM    4  C   UNL     1      -7.907  18.686  68.246  1.00  0.00    -0.307 C  
HETATM    5  O   UNL     1      -7.478  19.694  68.794  1.00  0.00    -0.339 OA 
BRANCH   4   6
HETATM    6  C   UNL     1      -7.974  17.285  68.883  1.00  0.00    -0.196 C  
BRANCH   6   7
HETATM    7  N   UNL     1      -9.140  16.539  68.336  1.00  0.00    -0.215 NA 
HETATM    8  H   UNL     1      -8.879  15.574  68.130  1.00  0.00     0.000 HD 
BRANCH   7   9
HETATM    9  C   UNL     1     -10.336  16.576  69.183  1.00  0.00    -0.316 C  
BRANCH   9  10
HETATM   10  C   UNL     1     -11.615  16.103  68.459  1.00  0.00    -0.265 C  
BRANCH  10  11
HETATM   11  N   UNL     1     -12.129  14.795  68.898  1.00  0.00    -0.539 NA 
HETATM   12  H   UNL     1     -13.097  14.880  69.211  1.00  0.00     0.000 HD 
BRANCH  11  13
HETATM   13  C   UNL     1     -12.003  13.712  67.879  1.00  0.00    -0.347 C  
BRANCH  13  14
HETATM   14  C   UNL     1     -12.280  14.197  66.439  1.00  0.00    -0.446 C  
HETATM   15  H   UNL     1     -12.467  13.305  63.888  1.00  0.00     0.000 H  
HETATM   16  S   UNL     1     -12.218  12.869  65.184  1.00  0.00    -0.489 SA 
ENDBRANCH  13  14
BRANCH  13  17
HETATM   17  C   UNL     1     -10.596  13.080  67.965  1.00  0.00    -0.235 C  
HETATM   18  O   UNL     1      -9.639  13.380  67.259  1.00  0.00    -0.221 OA 
BRANCH  17  19
HETATM   19  O   UNL     1     -10.565  12.139  68.953  1.00  0.00    -0.212 OA 
BRANCH  19  20
HETATM   20  C   UNL     1     -11.603  11.151  68.913  1.00  0.00    -0.317 C  
HETATM   21  C   UNL     1     -11.945  10.675  70.308  1.00  0.00    -0.425 C  
ENDBRANCH  19  20
ENDBRANCH  17  19
ENDBRANCH  13  17
ENDBRANCH  11  13
ENDBRANCH  10  11
ENDBRANCH   9  10
ENDBRANCH   7   9
ENDBRANCH   6   7
BRANCH   6  22
HETATM   22  C   UNL     1      -6.603  16.594  68.733  1.00  0.00    -0.169 C  
HETATM   23  H   UNL     1      -5.357  14.201  69.047  1.00  0.00     0.000 H  
HETATM   24  S   UNL     1      -6.592  14.824  69.182  1.00  0.00    -0.124 SA 
ENDBRANCH   6  22
ENDBRANCH   4   6
ENDBRANCH   3   4
ENDBRANCH   2   3
TORSDOF 13
ENDMDL
MODEL      162
REMARK 921   NORMALIZED FREE ENERGY PREDICTED BY IDOCK:   -3.89 KCAL/MOL
REMARK 922        TOTAL FREE ENERGY PREDICTED BY IDOCK:   -7.44 KCAL/MOL
REMARK 923 INTER-LIGAND FREE ENERGY PREDICTED BY IDOCK:   -6.80 KCAL/MOL
REMARK 924 INTRA-LIGAND FREE ENERGY PREDICTED BY IDOCK:   -0.65 KCAL/MOL
REMARK 927      BINDING AFFINITY PREDICTED BY RF-SCORE:    0.00 PKD
ROOT
HETATM    1  C   UNL     1      -9.212   6.236  70.006  1.00  0.00    -0.157 C  
HETATM    2  C   UNL     1      -9.940   6.375  71.326  1.00  0.00    -0.182 C  
ENDROOT
BRANCH   2   3
HETATM    3  O   UNL     1     -10.976   7.364  71.221  1.00  0.00    -0.238 OA 
BRANCH   3   4
HETATM    4  C   UNL     1     -10.682   8.589  71.741  1.00  0.00    -0.303 C  
HETATM    5  O   UNL     1      -9.606   8.909  72.233  1.00  0.00    -0.295 OA 
BRANCH   4   6
HETATM    6  C   UNL     1     -11.908   9.512  71.605  1.00  0.00    -0.397 C  
BRANCH   6   7
HETATM    7  N   UNL     1     -12.250   9.687  70.167  1.00  0.00    -0.460 NA 
HETATM    8  H   UNL     1     -13.109  10.229  70.070  1.00  0.00     0.000 HD 
BRANCH   7   9
HETATM    9  C   UNL     1     -11.179  10.276  69.357  1.00  0.00    -0.239 C  
BRANCH   9  10
HETATM   10  C   UNL     1     -11.554  11.644  68.746  1.00  0.00    -0.313 C  
BRANCH  10  11
HETATM   11  N   UNL     1     -11.225  12.809  69.585  1.00  0.00    -0.476 NA 
HETATM   12  H   UNL     1     -10.333  13.212  69.300  1.00  0.00     0.000 HD 
BRANCH  11  13
HETATM   13  C   UNL     1     -12.286  13.859  69.620  1.00  0.00    -0.321 C  
BRANCH  13  14
HETATM   14  C   UNL     1     -12.552  14.406  71.039  1.00  0.00    -0.349 C  
HETATM   15  H   UNL     1     -13.661  13.723  73.415  1.00  0.00     0.000 H  
HETATM   16  S   UNL     1     -13.421  13.230  72.137  1.00  0.00    -0.547 SA 
ENDBRANCH  13  14
BRANCH  13  17
HETATM   17  C   UNL     1     -11.904  15.014  68.668  1.00  0.00    -0.296 C  
HETATM   18  O   UNL     1     -11.552  16.135  69.018  1.00  0.00    -0.353 OA 
BRANCH  17  19
HETATM   19  O   UNL     1     -12.004  14.604  67.370  1.00  0.00    -0.384 OA 
BRANCH  19  20
HETATM   20  C   UNL     1     -11.057  15.174  66.457  1.00  0.00    -0.305 C  
HETATM   21  C   UNL     1      -9.918  14.212  66.195  1.00  0.00    -0.328 C  
ENDBRANCH  19  20
ENDBRANCH  17  19
ENDBRANCH  13  17
ENDBRANCH  11  13
ENDBRANCH  10  11
ENDBRANCH   9  10
ENDBRANCH   7   9
ENDBRANCH   6   7
BRANCH   6  22
HETATM   22  C   UNL     1     -13.043   8.983  72.506  1.00  0.00    -0.385 C  
HETATM   23  H   UNL     1     -15.364   7.573  72.434  1.00  0.00     0.000 H  
HETATM   24  S   UNL     1     -14.341   8.050  71.623  1.00  0.00    -0.470 SA 
ENDBRANCH   6  22
ENDBRANCH   4   6
ENDBRANCH   3   4
ENDBRANCH   2   3
TORSDOF 13
ENDMDL
MODEL      163
REMARK 921   NORMALIZED FREE ENERGY PREDICTED BY IDOCK:   -3.89 KCAL/MOL
REMARK 922        TOTAL FREE ENERGY PREDICTED BY IDOCK:   -7.44 KCAL/MOL
REMARK 923 INTER-LIGAND FREE ENERGY PREDICTED BY IDOCK:   -6.85 KCAL/MOL
REMARK 924 INTRA-LIGAND FREE ENERGY PREDICTED BY IDOCK:   -0.59 KCAL/MOL
REMARK 927      BINDING AFFINITY PREDICTED BY RF-SCORE:    0.00 PKD
ROOT
HETATM    1  C   UNL     1     -14.241   7.239  71.554  1.00  0.00    -0.540 C  
HETATM    2  C   UNL     1     -12.748   7.000  71.616  1.00  0.00    -0.377 C  
ENDROOT
BRANCH   2   3
HETATM    3  O   UNL     1     -12.251   6.620  70.323  1.00  0.00    -0.294 OA 
BRANCH   3   4
HETATM    4  C   UNL     1     -10.985   6.114  70.299  1.00  0.00    -0.349 C  
HETATM    5  O   UNL     1     -10.629   5.074  70.840  1.00  0.00    -0.188 OA 
BRANCH   4   6
HETATM    6  C   UNL     1     -10.075   7.048  69.479  1.00  0.00    -0.173 C  
BRANCH   6   7
HETATM    7  N   UNL     1     -10.891   8.123  68.852  1.00  0.00    -0.425 NA 
HETATM    8  H   UNL     1     -11.765   8.249  69.364  1.00  0.00     0.000 HD 
BRANCH   7   9
HETATM    9  C   UNL     1     -10.195   9.406  68.706  1.00  0.00    -0.203 C  
BRANCH   9  10
HETATM   10  C   UNL     1     -10.853  10.345  67.671  1.00  0.00    -0.306 C  
BRANCH  10  11
HETATM   11  N   UNL     1     -12.051  11.053  68.150  1.00  0.00    -0.780 NA 
HETATM   12  H   UNL     1     -12.210  10.856  69.138  1.00  0.00     0.000 HD 
BRANCH  11  13
HETATM   13  C   UNL     1     -12.031  12.526  67.907  1.00  0.00    -0.223 C  
BRANCH  13  14
HETATM   14  C   UNL     1     -11.037  13.278  68.819  1.00  0.00    -0.266 C  
HETATM   15  H   UNL     1     -10.922  15.237  70.686  1.00  0.00     0.000 H  
HETATM   16  S   UNL     1     -11.816  14.560  69.866  1.00  0.00    -0.336 SA 
ENDBRANCH  13  14
BRANCH  13  17
HETATM   17  C   UNL     1     -11.705  12.803  66.423  1.00  0.00    -0.403 C  
HETATM   18  O   UNL     1     -12.420  12.510  65.472  1.00  0.00    -0.646 OA 
BRANCH  17  19
HETATM   19  O   UNL     1     -10.500  13.437  66.319  1.00  0.00    -0.280 OA 
BRANCH  19  20
HETATM   20  C   UNL     1     -10.294  14.201  65.123  1.00  0.00    -0.405 C  
HETATM   21  C   UNL     1     -10.322  15.685  65.423  1.00  0.00    -0.421 C  
ENDBRANCH  19  20
ENDBRANCH  17  19
ENDBRANCH  13  17
ENDBRANCH  11  13
ENDBRANCH  10  11
ENDBRANCH   9  10
ENDBRANCH   7   9
ENDBRANCH   6   7
BRANCH   6  22
HETATM   22  C   UNL     1      -8.905   7.522  70.365  1.00  0.00    -0.145 C  
HETATM   23  H   UNL     1      -6.341   6.926  71.039  1.00  0.00     0.000 H  
HETATM   24  S   UNL     1      -7.396   6.499  70.242  1.00  0.00    -0.091 SA 
ENDBRANCH   6  22
ENDBRANCH   4   6
ENDBRANCH   3   4
ENDBRANCH   2   3
TORSDOF 13
ENDMDL
MODEL      164
REMARK 921   NORMALIZED FREE ENERGY PREDICTED BY IDOCK:   -3.88 KCAL/MOL
REMARK 922        TOTAL FREE ENERGY PREDICTED BY IDOCK:   -7.43 KCAL/MOL
REMARK 923 INTER-LIGAND FREE ENERGY PREDICTED BY IDOCK:   -6.58 KCAL/MOL
REMARK 924 INTRA-LIGAND FREE ENERGY PREDICTED BY IDOCK:   -0.85 KCAL/MOL
REMARK 927      BINDING AFFINITY PREDICTED BY RF-SCORE:    0.00 PKD
ROOT
HETATM    1  C   UNL     1     -11.428  16.060  64.469  1.00  0.00    -0.274 C  
HETATM    2  C   UNL     1     -11.317  14.857  65.380  1.00  0.00    -0.346 C  
ENDROOT
BRANCH   2   3
HETATM    3  O   UNL     1     -12.582  14.186  65.474  1.00  0.00    -0.485 OA 
BRANCH   3   4
HETATM    4  C   UNL     1     -12.564  12.845  65.223  1.00  0.00    -0.439 C  
HETATM    5  O   UNL     1     -13.407  12.236  64.577  1.00  0.00    -0.769 OA 
BRANCH   4   6
HETATM    6  C   UNL     1     -11.312  12.220  65.868  1.00  0.00    -0.360 C  
BRANCH   6   7
HETATM    7  N   UNL     1     -11.616  11.818  67.269  1.00  0.00    -0.531 NA 
HETATM    8  H   UNL     1     -11.804  10.816  67.318  1.00  0.00     0.000 HD 
BRANCH   7   9
HETATM    9  C   UNL     1     -10.587  12.194  68.244  1.00  0.00    -0.217 C  
BRANCH   9  10
HETATM   10  C   UNL     1     -10.424  13.722  68.403  1.00  0.00    -0.252 C  
BRANCH  10  11
HETATM   11  N   UNL     1      -9.034  14.185  68.548  1.00  0.00    -0.222 NA 
HETATM   12  H   UNL     1      -8.624  14.374  67.633  1.00  0.00     0.000 HD 
BRANCH  11  13
HETATM   13  C   UNL     1      -8.871  15.366  69.447  1.00  0.00    -0.251 C  
BRANCH  13  14
HETATM   14  C   UNL     1      -7.401  15.815  69.599  1.00  0.00    -0.118 C  
HETATM   15  H   UNL     1      -4.983  14.942  70.453  1.00  0.00     0.000 H  
HETATM   16  S   UNL     1      -6.307  14.538  70.316  1.00  0.00    -0.133 SA 
ENDBRANCH  13  14
BRANCH  13  17
HETATM   17  C   UNL     1      -9.733  16.537  68.926  1.00  0.00    -0.257 C  
HETATM   18  O   UNL     1     -10.640  17.081  69.545  1.00  0.00    -0.316 OA 
BRANCH  17  19
HETATM   19  O   UNL     1      -9.331  16.893  67.670  1.00  0.00    -0.230 OA 
BRANCH  19  20
HETATM   20  C   UNL     1      -9.124  18.294  67.451  1.00  0.00    -0.253 C  
HETATM   21  C   UNL     1     -10.244  18.878  66.617  1.00  0.00    -0.462 C  
ENDBRANCH  19  20
ENDBRANCH  17  19
ENDBRANCH  13  17
ENDBRANCH  11  13
ENDBRANCH  10  11
ENDBRANCH   9  10
ENDBRANCH   7   9
ENDBRANCH   6   7
BRANCH   6  22
HETATM   22  C   UNL     1     -10.773  11.103  64.950  1.00  0.00    -0.248 C  
HETATM   23  H   UNL     1      -9.477  10.694  62.598  1.00  0.00     0.000 H  
HETATM   24  S   UNL     1      -9.963  11.699  63.425  1.00  0.00    -0.418 SA 
ENDBRANCH   6  22
ENDBRANCH   4   6
ENDBRANCH   3   4
ENDBRANCH   2   3
TORSDOF 13
ENDMDL
MODEL      165
REMARK 921   NORMALIZED FREE ENERGY PREDICTED BY IDOCK:   -3.88 KCAL/MOL
REMARK 922        TOTAL FREE ENERGY PREDICTED BY IDOCK:   -7.42 KCAL/MOL
REMARK 923 INTER-LIGAND FREE ENERGY PREDICTED BY IDOCK:   -6.32 KCAL/MOL
REMARK 924 INTRA-LIGAND FREE ENERGY PREDICTED BY IDOCK:   -1.10 KCAL/MOL
REMARK 927      BINDING AFFINITY PREDICTED BY RF-SCORE:    0.00 PKD
ROOT
HETATM    1  C   UNL     1     -13.828  13.624  72.302  1.00  0.00    -0.689 C  
HETATM    2  C   UNL     1     -12.774  13.358  71.249  1.00  0.00    -0.338 C  
ENDROOT
BRANCH   2   3
HETATM    3  O   UNL     1     -12.880  14.318  70.186  1.00  0.00    -0.281 OA 
BRANCH   3   4
HETATM    4  C   UNL     1     -11.871  15.233  70.110  1.00  0.00    -0.323 C  
HETATM    5  O   UNL     1     -11.469  15.920  71.041  1.00  0.00    -0.363 OA 
BRANCH   4   6
HETATM    6  C   UNL     1     -11.310  15.260  68.676  1.00  0.00    -0.317 C  
BRANCH   6   7
HETATM    7  N   UNL     1     -12.231  14.532  67.761  1.00  0.00    -0.623 NA 
HETATM    8  H   UNL     1     -13.196  14.628  68.078  1.00  0.00     0.000 HD 
BRANCH   7   9
HETATM    9  C   UNL     1     -12.114  14.917  66.351  1.00  0.00     0.015 C  
BRANCH   9  10
HETATM   10  C   UNL     1     -11.941  13.712  65.400  1.00  0.00    -0.378 C  
BRANCH  10  11
HETATM   11  N   UNL     1     -10.704  12.939  65.597  1.00  0.00    -0.270 NA 
HETATM   12  H   UNL     1     -10.168  13.317  66.378  1.00  0.00     0.000 HD 
BRANCH  11  13
HETATM   13  C   UNL     1     -10.918  11.472  65.772  1.00  0.00    -0.246 C  
BRANCH  13  14
HETATM   14  C   UNL     1      -9.802  10.615  65.135  1.00  0.00    -0.284 C  
HETATM   15  H   UNL     1      -8.819   9.841  62.732  1.00  0.00     0.000 H  
HETATM   16  S   UNL     1      -9.823  10.613  63.306  1.00  0.00    -0.257 SA 
ENDBRANCH  13  14
BRANCH  13  17
HETATM   17  C   UNL     1     -11.047  11.143  67.276  1.00  0.00    -0.302 C  
HETATM   18  O   UNL     1     -12.018  11.400  67.978  1.00  0.00    -0.613 OA 
BRANCH  17  19
HETATM   19  O   UNL     1      -9.920  10.509  67.715  1.00  0.00    -0.165 OA 
BRANCH  19  20
HETATM   20  C   UNL     1      -9.311  11.055  68.893  1.00  0.00    -0.145 C  
HETATM   21  C   UNL     1      -7.824  10.775  68.907  1.00  0.00    -0.136 C  
ENDBRANCH  19  20
ENDBRANCH  17  19
ENDBRANCH  13  17
ENDBRANCH  11  13
ENDBRANCH  10  11
ENDBRANCH   9  10
ENDBRANCH   7   9
ENDBRANCH   6   7
BRANCH   6  22
HETATM   22  C   UNL     1     -10.988  16.717  68.285  1.00  0.00    -0.341 C  
HETATM   23  H   UNL     1      -8.942  18.497  68.129  1.00  0.00     0.000 H  
HETATM   24  S   UNL     1      -9.233  17.185  68.481  1.00  0.00    -0.266 SA 
ENDBRANCH   6  22
ENDBRANCH   4   6
ENDBRANCH   3   4
ENDBRANCH   2   3
TORSDOF 13
ENDMDL
MODEL      166
REMARK 921   NORMALIZED FREE ENERGY PREDICTED BY IDOCK:   -3.87 KCAL/MOL
REMARK 922        TOTAL FREE ENERGY PREDICTED BY IDOCK:   -7.41 KCAL/MOL
REMARK 923 INTER-LIGAND FREE ENERGY PREDICTED BY IDOCK:   -6.40 KCAL/MOL
REMARK 924 INTRA-LIGAND FREE ENERGY PREDICTED BY IDOCK:   -1.01 KCAL/MOL
REMARK 927      BINDING AFFINITY PREDICTED BY RF-SCORE:    0.00 PKD
ROOT
HETATM    1  C   UNL     1     -10.551  13.770  64.709  1.00  0.00    -0.444 C  
HETATM    2  C   UNL     1     -10.179  13.533  66.157  1.00  0.00    -0.302 C  
ENDROOT
BRANCH   2   3
HETATM    3  O   UNL     1     -11.310  13.773  67.007  1.00  0.00    -0.304 OA 
BRANCH   3   4
HETATM    4  C   UNL     1     -11.774  12.692  67.697  1.00  0.00    -0.361 C  
HETATM    5  O   UNL     1     -11.996  11.589  67.216  1.00  0.00    -0.605 OA 
BRANCH   4   6
HETATM    6  C   UNL     1     -11.963  13.072  69.179  1.00  0.00    -0.271 C  
BRANCH   6   7
HETATM    7  N   UNL     1     -11.566  11.930  70.046  1.00  0.00    -0.501 NA 
HETATM    8  H   UNL     1     -10.783  12.194  70.645  1.00  0.00     0.000 HD 
BRANCH   7   9
HETATM    9  C   UNL     1     -12.658  11.370  70.848  1.00  0.00    -0.356 C  
BRANCH   9  10
HETATM   10  C   UNL     1     -12.299  10.023  71.516  1.00  0.00    -0.419 C  
BRANCH  10  11
HETATM   11  N   UNL     1     -11.607   9.063  70.641  1.00  0.00    -0.358 NA 
HETATM   12  H   UNL     1     -11.339   9.508  69.764  1.00  0.00     0.000 HD 
BRANCH  11  13
HETATM   13  C   UNL     1     -10.427   8.399  71.271  1.00  0.00    -0.216 C  
BRANCH  13  14
HETATM   14  C   UNL     1     -10.270   6.919  70.856  1.00  0.00    -0.197 C  
HETATM   15  H   UNL     1     -11.220   5.083  69.106  1.00  0.00     0.000 H  
HETATM   16  S   UNL     1     -11.362   6.415  69.479  1.00  0.00    -0.330 SA 
ENDBRANCH  13  14
BRANCH  13  17
HETATM   17  C   UNL     1      -9.143   9.186  70.927  1.00  0.00    -0.252 C  
HETATM   18  O   UNL     1      -8.058   9.049  71.479  1.00  0.00    -0.303 OA 
BRANCH  17  19
HETATM   19  O   UNL     1      -9.388  10.057  69.904  1.00  0.00    -0.220 OA 
BRANCH  19  20
HETATM   20  C   UNL     1      -8.629   9.847  68.706  1.00  0.00    -0.130 C  
HETATM   21  C   UNL     1      -9.283   8.796  67.834  1.00  0.00    -0.149 C  
ENDBRANCH  19  20
ENDBRANCH  17  19
ENDBRANCH  13  17
ENDBRANCH  11  13
ENDBRANCH  10  11
ENDBRANCH   9  10
ENDBRANCH   7   9
ENDBRANCH   6   7
BRANCH   6  22
HETATM   22  C   UNL     1     -11.243  14.408  69.455  1.00  0.00    -0.281 C  
HETATM   23  H   UNL     1     -11.360  16.630  71.014  1.00  0.00     0.000 H  
HETATM   24  S   UNL     1     -12.008  15.426  70.765  1.00  0.00    -0.399 SA 
ENDBRANCH   6  22
ENDBRANCH   4   6
ENDBRANCH   3   4
ENDBRANCH   2   3
TORSDOF 13
ENDMDL
MODEL      167
REMARK 921   NORMALIZED FREE ENERGY PREDICTED BY IDOCK:   -3.87 KCAL/MOL
REMARK 922        TOTAL FREE ENERGY PREDICTED BY IDOCK:   -7.40 KCAL/MOL
REMARK 923 INTER-LIGAND FREE ENERGY PREDICTED BY IDOCK:   -6.48 KCAL/MOL
REMARK 924 INTRA-LIGAND FREE ENERGY PREDICTED BY IDOCK:   -0.92 KCAL/MOL
REMARK 927      BINDING AFFINITY PREDICTED BY RF-SCORE:    0.00 PKD
ROOT
HETATM    1  C   UNL     1     -11.492  15.918  64.377  1.00  0.00    -0.268 C  
HETATM    2  C   UNL     1     -12.055  14.540  64.651  1.00  0.00    -0.473 C  
ENDROOT
BRANCH   2   3
HETATM    3  O   UNL     1     -11.093  13.741  65.356  1.00  0.00    -0.294 OA 
BRANCH   3   4
HETATM    4  C   UNL     1     -11.588  12.973  66.369  1.00  0.00    -0.363 C  
HETATM    5  O   UNL     1     -12.278  11.972  66.224  1.00  0.00    -0.548 OA 
BRANCH   4   6
HETATM    6  C   UNL     1     -11.134  13.554  67.722  1.00  0.00    -0.268 C  
BRANCH   6   7
HETATM    7  N   UNL     1     -12.281  14.226  68.391  1.00  0.00    -0.595 NA 
HETATM    8  H   UNL     1     -12.732  13.589  69.049  1.00  0.00     0.000 HD 
BRANCH   7   9
HETATM    9  C   UNL     1     -11.941  15.489  69.054  1.00  0.00    -0.301 C  
BRANCH   9  10
HETATM   10  C   UNL     1     -11.148  16.460  68.151  1.00  0.00    -0.320 C  
BRANCH  10  11
HETATM   11  N   UNL     1     -10.291  17.417  68.870  1.00  0.00    -0.348 NA 
HETATM   12  H   UNL     1     -10.373  17.280  69.878  1.00  0.00     0.000 HD 
BRANCH  11  13
HETATM   13  C   UNL     1      -8.858  17.389  68.455  1.00  0.00    -0.277 C  
BRANCH  13  14
HETATM   14  C   UNL     1      -8.336  15.964  68.166  1.00  0.00    -0.162 C  
HETATM   15  H   UNL     1      -6.123  14.419  68.392  1.00  0.00     0.000 H  
HETATM   16  S   UNL     1      -6.593  15.701  68.652  1.00  0.00    -0.115 SA 
ENDBRANCH  13  14
BRANCH  13  17
HETATM   17  C   UNL     1      -8.659  18.289  67.215  1.00  0.00    -0.254 C  
HETATM   18  O   UNL     1      -8.647  17.901  66.052  1.00  0.00    -0.494 OA 
BRANCH  17  19
HETATM   19  O   UNL     1      -8.509  19.590  67.599  1.00  0.00    -0.295 OA 
BRANCH  19  20
HETATM   20  C   UNL     1      -7.740  20.420  66.718  1.00  0.00    -0.262 C  
HETATM   21  C   UNL     1      -6.550  21.014  67.443  1.00  0.00    -0.439 C  
ENDBRANCH  19  20
ENDBRANCH  17  19
ENDBRANCH  13  17
ENDBRANCH  11  13
ENDBRANCH  10  11
ENDBRANCH   9  10
ENDBRANCH   7   9
ENDBRANCH   6   7
BRANCH   6  22
HETATM   22  C   UNL     1     -10.433  12.449  68.538  1.00  0.00    -0.228 C  
HETATM   23  H   UNL     1      -8.202  10.900  68.586  1.00  0.00     0.000 H  
HETATM   24  S   UNL     1      -8.834  11.896  67.851  1.00  0.00    -0.179 SA 
ENDBRANCH   6  22
ENDBRANCH   4   6
ENDBRANCH   3   4
ENDBRANCH   2   3
TORSDOF 13
ENDMDL
MODEL      168
REMARK 921   NORMALIZED FREE ENERGY PREDICTED BY IDOCK:   -3.86 KCAL/MOL
REMARK 922        TOTAL FREE ENERGY PREDICTED BY IDOCK:   -7.39 KCAL/MOL
REMARK 923 INTER-LIGAND FREE ENERGY PREDICTED BY IDOCK:   -6.81 KCAL/MOL
REMARK 924 INTRA-LIGAND FREE ENERGY PREDICTED BY IDOCK:   -0.57 KCAL/MOL
REMARK 927      BINDING AFFINITY PREDICTED BY RF-SCORE:    0.00 PKD
ROOT
HETATM    1  C   UNL     1      -7.142  19.930  65.386  1.00  0.00    -0.289 C  
HETATM    2  C   UNL     1      -7.657  18.950  66.417  1.00  0.00    -0.262 C  
ENDROOT
BRANCH   2   3
HETATM    3  O   UNL     1      -8.256  17.816  65.771  1.00  0.00    -0.538 OA 
BRANCH   3   4
HETATM    4  C   UNL     1      -9.562  17.577  66.083  1.00  0.00    -0.182 C  
HETATM    5  O   UNL     1     -10.523  18.164  65.600  1.00  0.00    -0.626 OA 
BRANCH   4   6
HETATM    6  C   UNL     1      -9.642  16.448  67.128  1.00  0.00    -0.235 C  
BRANCH   6   7
HETATM    7  N   UNL     1     -11.059  16.031  67.311  1.00  0.00    -0.201 NA 
HETATM    8  H   UNL     1     -11.154  15.024  67.174  1.00  0.00     0.000 HD 
BRANCH   7   9
HETATM    9  C   UNL     1     -11.647  16.430  68.594  1.00  0.00    -0.127 C  
BRANCH   9  10
HETATM   10  C   UNL     1     -11.457  15.377  69.709  1.00  0.00    -0.324 C  
BRANCH  10  11
HETATM   11  N   UNL     1     -12.692  14.708  70.147  1.00  0.00    -0.544 NA 
HETATM   12  H   UNL     1     -13.036  14.081  69.419  1.00  0.00     0.000 HD 
BRANCH  11  13
HETATM   13  C   UNL     1     -12.569  13.982  71.446  1.00  0.00    -0.372 C  
BRANCH  13  14
HETATM   14  C   UNL     1     -13.563  14.481  72.517  1.00  0.00    -0.487 C  
HETATM   15  H   UNL     1     -13.812  16.298  74.512  1.00  0.00     0.000 H  
HETATM   16  S   UNL     1     -12.917  15.848  73.547  1.00  0.00    -0.580 SA 
ENDBRANCH  13  14
BRANCH  13  17
HETATM   17  C   UNL     1     -12.757  12.466  71.213  1.00  0.00    -0.248 C  
HETATM   18  O   UNL     1     -13.308  11.692  71.988  1.00  0.00    -0.481 OA 
BRANCH  17  19
HETATM   19  O   UNL     1     -12.228  12.108  70.006  1.00  0.00    -0.269 OA 
BRANCH  19  20
HETATM   20  C   UNL     1     -12.345  10.723  69.656  1.00  0.00    -0.192 C  
HETATM   21  C   UNL     1     -11.044   9.992  69.916  1.00  0.00    -0.336 C  
ENDBRANCH  19  20
ENDBRANCH  17  19
ENDBRANCH  13  17
ENDBRANCH  11  13
ENDBRANCH  10  11
ENDBRANCH   9  10
ENDBRANCH   7   9
ENDBRANCH   6   7
BRANCH   6  22
HETATM   22  C   UNL     1      -8.656  15.327  66.739  1.00  0.00    -0.265 C  
HETATM   23  H   UNL     1      -8.389  12.624  66.684  1.00  0.00     0.000 H  
HETATM   24  S   UNL     1      -9.277  13.634  67.034  1.00  0.00    -0.255 SA 
ENDBRANCH   6  22
ENDBRANCH   4   6
ENDBRANCH   3   4
ENDBRANCH   2   3
TORSDOF 13
ENDMDL
MODEL      169
REMARK 921   NORMALIZED FREE ENERGY PREDICTED BY IDOCK:   -3.86 KCAL/MOL
REMARK 922        TOTAL FREE ENERGY PREDICTED BY IDOCK:   -7.38 KCAL/MOL
REMARK 923 INTER-LIGAND FREE ENERGY PREDICTED BY IDOCK:   -6.69 KCAL/MOL
REMARK 924 INTRA-LIGAND FREE ENERGY PREDICTED BY IDOCK:   -0.69 KCAL/MOL
REMARK 927      BINDING AFFINITY PREDICTED BY RF-SCORE:    0.00 PKD
ROOT
HETATM    1  C   UNL     1     -13.228   9.101  72.096  1.00  0.00    -0.524 C  
HETATM    2  C   UNL     1     -13.136  10.608  71.990  1.00  0.00    -0.396 C  
ENDROOT
BRANCH   2   3
HETATM    3  O   UNL     1     -12.436  10.981  70.794  1.00  0.00    -0.344 OA 
BRANCH   3   4
HETATM    4  C   UNL     1     -12.386  12.318  70.528  1.00  0.00    -0.264 C  
HETATM    5  O   UNL     1     -12.771  13.203  71.281  1.00  0.00    -0.363 OA 
BRANCH   4   6
HETATM    6  C   UNL     1     -11.761  12.541  69.137  1.00  0.00    -0.321 C  
BRANCH   6   7
HETATM    7  N   UNL     1     -10.584  13.444  69.253  1.00  0.00    -0.444 NA 
HETATM    8  H   UNL     1      -9.804  13.084  68.703  1.00  0.00     0.000 HD 
BRANCH   7   9
HETATM    9  C   UNL     1     -10.855  14.842  68.901  1.00  0.00    -0.254 C  
BRANCH   9  10
HETATM   10  C   UNL     1      -9.861  15.838  69.537  1.00  0.00    -0.283 C  
BRANCH  10  11
HETATM   11  N   UNL     1      -8.626  16.059  68.766  1.00  0.00    -0.209 NA 
HETATM   12  H   UNL     1      -8.529  15.351  68.038  1.00  0.00     0.000 HD 
BRANCH  11  13
HETATM   13  C   UNL     1      -8.504  17.428  68.184  1.00  0.00    -0.241 C  
BRANCH  13  14
HETATM   14  C   UNL     1      -7.062  17.981  68.229  1.00  0.00    -0.241 C  
HETATM   15  H   UNL     1      -4.754  17.802  69.636  1.00  0.00     0.000 H  
HETATM   16  S   UNL     1      -6.051  17.304  69.594  1.00  0.00    -0.225 SA 
ENDBRANCH  13  14
BRANCH  13  17
HETATM   17  C   UNL     1      -9.024  17.422  66.729  1.00  0.00    -0.254 C  
HETATM   18  O   UNL     1      -8.352  17.167  65.736  1.00  0.00    -0.519 OA 
BRANCH  17  19
HETATM   19  O   UNL     1     -10.354  17.732  66.706  1.00  0.00    -0.338 OA 
BRANCH  19  20
HETATM   20  C   UNL     1     -10.701  19.040  67.178  1.00  0.00    -0.456 C  
HETATM   21  C   UNL     1     -10.232  20.103  66.207  1.00  0.00    -0.541 C  
ENDBRANCH  19  20
ENDBRANCH  17  19
ENDBRANCH  13  17
ENDBRANCH  11  13
ENDBRANCH  10  11
ENDBRANCH   9  10
ENDBRANCH   7   9
ENDBRANCH   6   7
BRANCH   6  22
HETATM   22  C   UNL     1     -11.496  11.173  68.475  1.00  0.00    -0.302 C  
HETATM   23  H   UNL     1      -9.495   9.466  67.797  1.00  0.00     0.000 H  
HETATM   24  S   UNL     1      -9.734  10.698  68.393  1.00  0.00    -0.173 SA 
ENDBRANCH   6  22
ENDBRANCH   4   6
ENDBRANCH   3   4
ENDBRANCH   2   3
TORSDOF 13
ENDMDL
MODEL      170
REMARK 921   NORMALIZED FREE ENERGY PREDICTED BY IDOCK:   -3.84 KCAL/MOL
REMARK 922        TOTAL FREE ENERGY PREDICTED BY IDOCK:   -7.35 KCAL/MOL
REMARK 923 INTER-LIGAND FREE ENERGY PREDICTED BY IDOCK:   -6.56 KCAL/MOL
REMARK 924 INTRA-LIGAND FREE ENERGY PREDICTED BY IDOCK:   -0.80 KCAL/MOL
REMARK 927      BINDING AFFINITY PREDICTED BY RF-SCORE:    0.00 PKD
ROOT
HETATM    1  C   UNL     1      -7.078   8.178  72.893  1.00  0.00    -0.130 C  
HETATM    2  C   UNL     1      -8.381   8.191  73.664  1.00  0.00    -0.242 C  
ENDROOT
BRANCH   2   3
HETATM    3  O   UNL     1      -9.480   8.454  72.779  1.00  0.00    -0.272 OA 
BRANCH   3   4
HETATM    4  C   UNL     1     -10.616   7.738  73.014  1.00  0.00    -0.379 C  
HETATM    5  O   UNL     1     -10.693   6.752  73.738  1.00  0.00    -0.325 OA 
BRANCH   4   6
HETATM    6  C   UNL     1     -11.789   8.366  72.238  1.00  0.00    -0.389 C  
BRANCH   6   7
HETATM    7  N   UNL     1     -11.326   9.593  71.532  1.00  0.00    -0.380 NA 
HETATM    8  H   UNL     1     -10.485   9.394  70.990  1.00  0.00     0.000 HD 
BRANCH   7   9
HETATM    9  C   UNL     1     -12.343  10.226  70.687  1.00  0.00    -0.325 C  
BRANCH   9  10
HETATM   10  C   UNL     1     -12.220  11.765  70.629  1.00  0.00    -0.349 C  
BRANCH  10  11
HETATM   11  N   UNL     1     -11.309  12.275  69.590  1.00  0.00    -0.471 NA 
HETATM   12  H   UNL     1     -10.688  11.534  69.265  1.00  0.00     0.000 HD 
BRANCH  11  13
HETATM   13  C   UNL     1     -11.998  12.923  68.435  1.00  0.00    -0.248 C  
BRANCH  13  14
HETATM   14  C   UNL     1     -11.756  14.447  68.361  1.00  0.00    -0.332 C  
HETATM   15  H   UNL     1      -9.810  16.312  68.633  1.00  0.00     0.000 H  
HETATM   16  S   UNL     1     -10.028  14.940  68.699  1.00  0.00    -0.229 SA 
ENDBRANCH  13  14
BRANCH  13  17
HETATM   17  C   UNL     1     -11.550  12.250  67.119  1.00  0.00    -0.353 C  
HETATM   18  O   UNL     1     -12.213  12.194  66.089  1.00  0.00    -0.611 OA 
BRANCH  17  19
HETATM   19  O   UNL     1     -10.296  11.730  67.262  1.00  0.00    -0.201 OA 
BRANCH  19  20
HETATM   20  C   UNL     1     -10.094  10.418  66.719  1.00  0.00    -0.214 C  
HETATM   21  C   UNL     1     -10.480   9.356  67.727  1.00  0.00    -0.310 C  
ENDBRANCH  19  20
ENDBRANCH  17  19
ENDBRANCH  13  17
ENDBRANCH  11  13
ENDBRANCH  10  11
ENDBRANCH   9  10
ENDBRANCH   7   9
ENDBRANCH   6   7
BRANCH   6  22
HETATM   22  C   UNL     1     -12.446   7.288  71.351  1.00  0.00    -0.383 C  
HETATM   23  H   UNL     1     -11.911   5.542  69.340  1.00  0.00     0.000 H  
HETATM   24  S   UNL     1     -11.320   6.514  70.139  1.00  0.00    -0.414 SA 
ENDBRANCH   6  22
ENDBRANCH   4   6
ENDBRANCH   3   4
ENDBRANCH   2   3
TORSDOF 13
ENDMDL
MODEL      171
REMARK 921   NORMALIZED FREE ENERGY PREDICTED BY IDOCK:   -3.84 KCAL/MOL
REMARK 922        TOTAL FREE ENERGY PREDICTED BY IDOCK:   -7.35 KCAL/MOL
REMARK 923 INTER-LIGAND FREE ENERGY PREDICTED BY IDOCK:   -6.53 KCAL/MOL
REMARK 924 INTRA-LIGAND FREE ENERGY PREDICTED BY IDOCK:   -0.82 KCAL/MOL
REMARK 927      BINDING AFFINITY PREDICTED BY RF-SCORE:    0.00 PKD
ROOT
HETATM    1  C   UNL     1      -9.023  17.034  66.314  1.00  0.00    -0.282 C  
HETATM    2  C   UNL     1     -10.418  16.779  65.784  1.00  0.00    -0.292 C  
ENDROOT
BRANCH   2   3
HETATM    3  O   UNL     1     -10.384  15.780  64.754  1.00  0.00    -0.461 OA 
BRANCH   3   4
HETATM    4  C   UNL     1     -11.591  15.430  64.225  1.00  0.00    -0.191 C  
HETATM    5  O   UNL     1     -12.462  16.216  63.873  1.00  0.00    -0.824 OA 
BRANCH   4   6
HETATM    6  C   UNL     1     -11.685  13.895  64.131  1.00  0.00    -0.340 C  
BRANCH   6   7
HETATM    7  N   UNL     1     -10.318  13.312  64.047  1.00  0.00    -0.690 NA 
HETATM    8  H   UNL     1      -9.771  13.569  64.868  1.00  0.00     0.000 HD 
BRANCH   7   9
HETATM    9  C   UNL     1     -10.291  11.859  63.848  1.00  0.00    -0.389 C  
BRANCH   9  10
HETATM   10  C   UNL     1      -9.349  11.125  64.829  1.00  0.00    -0.185 C  
BRANCH  10  11
HETATM   11  N   UNL     1      -9.977  10.032  65.590  1.00  0.00    -0.288 NA 
HETATM   12  H   UNL     1      -9.950   9.164  65.055  1.00  0.00     0.000 HD 
BRANCH  11  13
HETATM   13  C   UNL     1      -9.402   9.824  66.952  1.00  0.00    -0.149 C  
BRANCH  13  14
HETATM   14  C   UNL     1      -9.095  11.145  67.690  1.00  0.00    -0.147 C  
HETATM   15  H   UNL     1      -7.156  12.390  69.114  1.00  0.00     0.000 H  
HETATM   16  S   UNL     1      -7.432  11.201  68.449  1.00  0.00    -0.110 SA 
ENDBRANCH  13  14
BRANCH  13  17
HETATM   17  C   UNL     1     -10.363   8.956  67.794  1.00  0.00    -0.242 C  
HETATM   18  O   UNL     1     -10.643   7.784  67.568  1.00  0.00    -0.260 OA 
BRANCH  17  19
HETATM   19  O   UNL     1     -10.854   9.681  68.841  1.00  0.00    -0.221 OA 
BRANCH  19  20
HETATM   20  C   UNL     1     -10.938   8.994  70.096  1.00  0.00    -0.233 C  
HETATM   21  C   UNL     1      -9.636   9.111  70.860  1.00  0.00    -0.347 C  
ENDBRANCH  19  20
ENDBRANCH  17  19
ENDBRANCH  13  17
ENDBRANCH  11  13
ENDBRANCH  10  11
ENDBRANCH   9  10
ENDBRANCH   7   9
ENDBRANCH   6   7
BRANCH   6  22
HETATM   22  C   UNL     1     -12.570  13.370  65.279  1.00  0.00    -0.464 C  
HETATM   23  H   UNL     1     -12.660  13.123  67.983  1.00  0.00     0.000 H  
HETATM   24  S   UNL     1     -11.862  13.596  66.948  1.00  0.00    -0.419 SA 
ENDBRANCH   6  22
ENDBRANCH   4   6
ENDBRANCH   3   4
ENDBRANCH   2   3
TORSDOF 13
ENDMDL
MODEL      172
REMARK 921   NORMALIZED FREE ENERGY PREDICTED BY IDOCK:   -3.84 KCAL/MOL
REMARK 922        TOTAL FREE ENERGY PREDICTED BY IDOCK:   -7.34 KCAL/MOL
REMARK 923 INTER-LIGAND FREE ENERGY PREDICTED BY IDOCK:   -6.28 KCAL/MOL
REMARK 924 INTRA-LIGAND FREE ENERGY PREDICTED BY IDOCK:   -1.06 KCAL/MOL
REMARK 927      BINDING AFFINITY PREDICTED BY RF-SCORE:    0.00 PKD
ROOT
HETATM    1  C   UNL     1     -11.940  13.119  64.287  1.00  0.00    -0.470 C  
HETATM    2  C   UNL     1     -12.546  13.698  65.548  1.00  0.00    -0.496 C  
ENDROOT
BRANCH   2   3
HETATM    3  O   UNL     1     -12.173  12.907  66.687  1.00  0.00    -0.434 OA 
BRANCH   3   4
HETATM    4  C   UNL     1     -11.253  13.468  67.523  1.00  0.00    -0.283 C  
HETATM    5  O   UNL     1     -10.081  13.681  67.242  1.00  0.00    -0.235 OA 
BRANCH   4   6
HETATM    6  C   UNL     1     -11.921  13.801  68.871  1.00  0.00    -0.359 C  
BRANCH   6   7
HETATM    7  N   UNL     1     -11.309  12.981  69.952  1.00  0.00    -0.501 NA 
HETATM    8  H   UNL     1     -10.953  13.582  70.696  1.00  0.00     0.000 HD 
BRANCH   7   9
HETATM    9  C   UNL     1     -12.193  11.951  70.506  1.00  0.00    -0.336 C  
BRANCH   9  10
HETATM   10  C   UNL     1     -11.572  10.536  70.488  1.00  0.00    -0.350 C  
BRANCH  10  11
HETATM   11  N   UNL     1     -10.162  10.484  70.068  1.00  0.00    -0.434 NA 
HETATM   12  H   UNL     1      -9.565  10.230  70.855  1.00  0.00     0.000 HD 
BRANCH  11  13
HETATM   13  C   UNL     1      -9.902   9.586  68.904  1.00  0.00    -0.174 C  
BRANCH  13  14
HETATM   14  C   UNL     1      -9.291  10.323  67.692  1.00  0.00    -0.144 C  
HETATM   15  H   UNL     1      -9.530  10.572  65.006  1.00  0.00     0.000 H  
HETATM   16  S   UNL     1     -10.080   9.908  66.096  1.00  0.00    -0.216 SA 
ENDBRANCH  13  14
BRANCH  13  17
HETATM   17  C   UNL     1      -8.980   8.426  69.340  1.00  0.00    -0.153 C  
HETATM   18  O   UNL     1      -7.791   8.319  69.057  1.00  0.00    -0.100 OA 
BRANCH  17  19
HETATM   19  O   UNL     1      -9.678   7.532  70.100  1.00  0.00    -0.172 OA 
BRANCH  19  20
HETATM   20  C   UNL     1     -10.814   6.925  69.471  1.00  0.00    -0.252 C  
HETATM   21  C   UNL     1     -11.910   6.661  70.481  1.00  0.00    -0.430 C  
ENDBRANCH  19  20
ENDBRANCH  17  19
ENDBRANCH  13  17
ENDBRANCH  11  13
ENDBRANCH  10  11
ENDBRANCH   9  10
ENDBRANCH   7   9
ENDBRANCH   6   7
BRANCH   6  22
HETATM   22  C   UNL     1     -11.892  15.328  69.087  1.00  0.00    -0.321 C  
HETATM   23  H   UNL     1     -11.440  17.222  70.982  1.00  0.00     0.000 H  
HETATM   24  S   UNL     1     -11.467  15.846  70.787  1.00  0.00    -0.422 SA 
ENDBRANCH   6  22
ENDBRANCH   4   6
ENDBRANCH   3   4
ENDBRANCH   2   3
TORSDOF 13
ENDMDL
MODEL      173
REMARK 921   NORMALIZED FREE ENERGY PREDICTED BY IDOCK:   -3.83 KCAL/MOL
REMARK 922        TOTAL FREE ENERGY PREDICTED BY IDOCK:   -7.34 KCAL/MOL
REMARK 923 INTER-LIGAND FREE ENERGY PREDICTED BY IDOCK:   -6.88 KCAL/MOL
REMARK 924 INTRA-LIGAND FREE ENERGY PREDICTED BY IDOCK:   -0.45 KCAL/MOL
REMARK 927      BINDING AFFINITY PREDICTED BY RF-SCORE:    0.00 PKD
ROOT
HETATM    1  C   UNL     1     -10.870   8.019  67.216  1.00  0.00    -0.159 C  
HETATM    2  C   UNL     1     -10.144   7.698  68.505  1.00  0.00    -0.190 C  
ENDROOT
BRANCH   2   3
HETATM    3  O   UNL     1     -10.883   8.199  69.629  1.00  0.00    -0.232 OA 
BRANCH   3   4
HETATM    4  C   UNL     1     -10.360   9.300  70.240  1.00  0.00    -0.229 C  
HETATM    5  O   UNL     1      -9.188   9.651  70.181  1.00  0.00    -0.226 OA 
BRANCH   4   6
HETATM    6  C   UNL     1     -11.473  10.039  71.007  1.00  0.00    -0.383 C  
BRANCH   6   7
HETATM    7  N   UNL     1     -12.500  10.535  70.050  1.00  0.00    -0.508 NA 
HETATM    8  H   UNL     1     -13.260  10.995  70.551  1.00  0.00     0.000 HD 
BRANCH   7   9
HETATM    9  C   UNL     1     -11.975  11.411  68.998  1.00  0.00    -0.320 C  
BRANCH   9  10
HETATM   10  C   UNL     1     -11.942  12.902  69.403  1.00  0.00    -0.269 C  
BRANCH  10  11
HETATM   11  N   UNL     1     -10.654  13.578  69.173  1.00  0.00    -0.432 NA 
HETATM   12  H   UNL     1     -10.315  13.387  68.230  1.00  0.00     0.000 HD 
BRANCH  11  13
HETATM   13  C   UNL     1     -10.679  15.048  69.432  1.00  0.00    -0.261 C  
BRANCH  13  14
HETATM   14  C   UNL     1     -10.921  15.886  68.158  1.00  0.00    -0.335 C  
HETATM   15  H   UNL     1     -10.773  15.747  65.456  1.00  0.00     0.000 H  
HETATM   16  S   UNL     1     -10.556  14.993  66.604  1.00  0.00    -0.307 SA 
ENDBRANCH  13  14
BRANCH  13  17
HETATM   17  C   UNL     1     -11.755  15.370  70.492  1.00  0.00    -0.325 C  
HETATM   18  O   UNL     1     -12.938  15.594  70.257  1.00  0.00    -0.315 OA 
BRANCH  17  19
HETATM   19  O   UNL     1     -11.202  15.361  71.740  1.00  0.00    -0.398 OA 
BRANCH  19  20
HETATM   20  C   UNL     1     -11.919  16.083  72.750  1.00  0.00    -0.518 C  
HETATM   21  C   UNL     1     -12.605  15.130  73.706  1.00  0.00    -0.712 C  
ENDBRANCH  19  20
ENDBRANCH  17  19
ENDBRANCH  13  17
ENDBRANCH  11  13
ENDBRANCH  10  11
ENDBRANCH   9  10
ENDBRANCH   7   9
ENDBRANCH   6   7
BRANCH   6  22
HETATM   22  C   UNL     1     -11.994   9.134  72.142  1.00  0.00    -0.294 C  
HETATM   23  H   UNL     1     -14.276   8.096  73.188  1.00  0.00     0.000 H  
HETATM   24  S   UNL     1     -13.807   8.912  72.165  1.00  0.00    -0.468 SA 
ENDBRANCH   6  22
ENDBRANCH   4   6
ENDBRANCH   3   4
ENDBRANCH   2   3
TORSDOF 13
ENDMDL
MODEL      174
REMARK 921   NORMALIZED FREE ENERGY PREDICTED BY IDOCK:   -3.83 KCAL/MOL
REMARK 922        TOTAL FREE ENERGY PREDICTED BY IDOCK:   -7.33 KCAL/MOL
REMARK 923 INTER-LIGAND FREE ENERGY PREDICTED BY IDOCK:   -6.57 KCAL/MOL
REMARK 924 INTRA-LIGAND FREE ENERGY PREDICTED BY IDOCK:   -0.76 KCAL/MOL
REMARK 927      BINDING AFFINITY PREDICTED BY RF-SCORE:    0.00 PKD
ROOT
HETATM    1  C   UNL     1      -9.668   8.879  71.146  1.00  0.00    -0.344 C  
HETATM    2  C   UNL     1     -10.903   9.364  70.418  1.00  0.00    -0.269 C  
ENDROOT
BRANCH   2   3
HETATM    3  O   UNL     1     -10.690  10.688  69.904  1.00  0.00    -0.259 OA 
BRANCH   3   4
HETATM    4  C   UNL     1     -10.013  10.764  68.723  1.00  0.00    -0.193 C  
HETATM    5  O   UNL     1      -8.846  11.114  68.599  1.00  0.00    -0.159 OA 
BRANCH   4   6
HETATM    6  C   UNL     1     -10.940  10.330  67.571  1.00  0.00    -0.280 C  
BRANCH   6   7
HETATM    7  N   UNL     1     -11.458  11.532  66.862  1.00  0.00    -0.483 NA 
HETATM    8  H   UNL     1     -12.151  11.261  66.164  1.00  0.00     0.000 HD 
BRANCH   7   9
HETATM    9  C   UNL     1     -11.999  12.570  67.745  1.00  0.00    -0.223 C  
BRANCH   9  10
HETATM   10  C   UNL     1     -11.854  13.998  67.172  1.00  0.00    -0.411 C  
BRANCH  10  11
HETATM   11  N   UNL     1     -12.119  15.081  68.132  1.00  0.00    -0.544 NA 
HETATM   12  H   UNL     1     -13.122  15.180  68.291  1.00  0.00     0.000 HD 
BRANCH  11  13
HETATM   13  C   UNL     1     -11.396  14.940  69.431  1.00  0.00    -0.290 C  
BRANCH  13  14
HETATM   14  C   UNL     1     -10.386  16.080  69.691  1.00  0.00    -0.283 C  
HETATM   15  H   UNL     1      -9.699  18.556  68.834  1.00  0.00     0.000 H  
HETATM   16  S   UNL     1     -10.609  17.531  68.600  1.00  0.00    -0.210 SA 
ENDBRANCH  13  14
BRANCH  13  17
HETATM   17  C   UNL     1     -12.417  14.862  70.587  1.00  0.00    -0.352 C  
HETATM   18  O   UNL     1     -13.252  15.719  70.857  1.00  0.00    -0.560 OA 
BRANCH  17  19
HETATM   19  O   UNL     1     -12.266  13.687  71.267  1.00  0.00    -0.318 OA 
BRANCH  19  20
HETATM   20  C   UNL     1     -13.430  13.203  71.950  1.00  0.00    -0.424 C  
HETATM   21  C   UNL     1     -13.393  11.694  72.068  1.00  0.00    -0.405 C  
ENDBRANCH  19  20
ENDBRANCH  17  19
ENDBRANCH  13  17
ENDBRANCH  11  13
ENDBRANCH  10  11
ENDBRANCH   9  10
ENDBRANCH   7   9
ENDBRANCH   6   7
BRANCH   6  22
HETATM   22  C   UNL     1     -10.207   9.295  66.693  1.00  0.00    -0.253 C  
HETATM   23  H   UNL     1      -9.884   6.621  66.339  1.00  0.00     0.000 H  
HETATM   24  S   UNL     1     -10.544   7.554  67.130  1.00  0.00    -0.313 SA 
ENDBRANCH   6  22
ENDBRANCH   4   6
ENDBRANCH   3   4
ENDBRANCH   2   3
TORSDOF 13
ENDMDL
MODEL      175
REMARK 921   NORMALIZED FREE ENERGY PREDICTED BY IDOCK:   -3.82 KCAL/MOL
REMARK 922        TOTAL FREE ENERGY PREDICTED BY IDOCK:   -7.33 KCAL/MOL
REMARK 923 INTER-LIGAND FREE ENERGY PREDICTED BY IDOCK:   -6.00 KCAL/MOL
REMARK 924 INTRA-LIGAND FREE ENERGY PREDICTED BY IDOCK:   -1.32 KCAL/MOL
REMARK 927      BINDING AFFINITY PREDICTED BY RF-SCORE:    0.00 PKD
ROOT
HETATM    1  C   UNL     1     -12.188  10.738  70.553  1.00  0.00    -0.457 C  
HETATM    2  C   UNL     1     -10.985  10.418  69.690  1.00  0.00    -0.277 C  
ENDROOT
BRANCH   2   3
HETATM    3  O   UNL     1     -11.260  10.734  68.317  1.00  0.00    -0.254 OA 
BRANCH   3   4
HETATM    4  C   UNL     1     -10.652   9.938  67.392  1.00  0.00    -0.277 C  
HETATM    5  O   UNL     1     -10.664   8.714  67.396  1.00  0.00    -0.264 OA 
BRANCH   4   6
HETATM    6  C   UNL     1      -9.957  10.819  66.335  1.00  0.00    -0.216 C  
BRANCH   6   7
HETATM    7  N   UNL     1      -8.600  11.201  66.812  1.00  0.00    -0.151 NA 
HETATM    8  H   UNL     1      -7.886  10.835  66.182  1.00  0.00     0.000 HD 
BRANCH   7   9
HETATM    9  C   UNL     1      -8.412  12.640  67.017  1.00  0.00    -0.150 C  
BRANCH   9  10
HETATM   10  C   UNL     1      -8.592  13.078  68.487  1.00  0.00    -0.049 C  
BRANCH  10  11
HETATM   11  N   UNL     1      -9.959  13.485  68.851  1.00  0.00    -0.429 NA 
HETATM   12  H   UNL     1      -9.989  13.813  69.816  1.00  0.00     0.000 HD 
BRANCH  11  13
HETATM   13  C   UNL     1     -10.562  14.498  67.936  1.00  0.00    -0.243 C  
BRANCH  13  14
HETATM   14  C   UNL     1     -11.773  13.958  67.144  1.00  0.00    -0.388 C  
HETATM   15  H   UNL     1     -12.770  13.781  64.631  1.00  0.00     0.000 H  
HETATM   16  S   UNL     1     -11.679  14.267  65.344  1.00  0.00    -0.366 SA 
ENDBRANCH  13  14
BRANCH  13  17
HETATM   17  C   UNL     1     -10.971  15.750  68.744  1.00  0.00    -0.291 C  
HETATM   18  O   UNL     1     -11.138  16.871  68.279  1.00  0.00    -0.349 OA 
BRANCH  17  19
HETATM   19  O   UNL     1     -11.132  15.425  70.061  1.00  0.00    -0.257 OA 
BRANCH  19  20
HETATM   20  C   UNL     1     -12.480  15.427  70.547  1.00  0.00    -0.422 C  
HETATM   21  C   UNL     1     -12.697  14.297  71.532  1.00  0.00    -0.425 C  
ENDBRANCH  19  20
ENDBRANCH  17  19
ENDBRANCH  13  17
ENDBRANCH  11  13
ENDBRANCH  10  11
ENDBRANCH   9  10
ENDBRANCH   7   9
ENDBRANCH   6   7
BRANCH   6  22
HETATM   22  C   UNL     1     -10.014  10.108  64.967  1.00  0.00    -0.305 C  
HETATM   23  H   UNL     1     -10.100  10.594  62.296  1.00  0.00     0.000 H  
HETATM   24  S   UNL     1     -10.049  11.234  63.528  1.00  0.00    -0.432 SA 
ENDBRANCH   6  22
ENDBRANCH   4   6
ENDBRANCH   3   4
ENDBRANCH   2   3
TORSDOF 13
ENDMDL
MODEL      176
REMARK 921   NORMALIZED FREE ENERGY PREDICTED BY IDOCK:   -3.82 KCAL/MOL
REMARK 922        TOTAL FREE ENERGY PREDICTED BY IDOCK:   -7.33 KCAL/MOL
REMARK 923 INTER-LIGAND FREE ENERGY PREDICTED BY IDOCK:   -6.13 KCAL/MOL
REMARK 924 INTRA-LIGAND FREE ENERGY PREDICTED BY IDOCK:   -1.20 KCAL/MOL
REMARK 927      BINDING AFFINITY PREDICTED BY RF-SCORE:    0.00 PKD
ROOT
HETATM    1  C   UNL     1     -12.399  10.163  71.047  1.00  0.00    -0.474 C  
HETATM    2  C   UNL     1     -11.950  11.367  70.247  1.00  0.00    -0.373 C  
ENDROOT
BRANCH   2   3
HETATM    3  O   UNL     1     -12.312  11.210  68.867  1.00  0.00    -0.512 OA 
BRANCH   3   4
HETATM    4  C   UNL     1     -11.276  11.189  67.980  1.00  0.00    -0.296 C  
HETATM    5  O   UNL     1     -10.425  10.311  67.910  1.00  0.00    -0.182 OA 
BRANCH   4   6
HETATM    6  C   UNL     1     -11.350  12.433  67.074  1.00  0.00    -0.327 C  
BRANCH   6   7
HETATM    7  N   UNL     1     -10.240  13.366  67.409  1.00  0.00    -0.235 NA 
HETATM    8  H   UNL     1      -9.644  12.964  68.133  1.00  0.00     0.000 HD 
BRANCH   7   9
HETATM    9  C   UNL     1      -9.434  13.787  66.258  1.00  0.00    -0.202 C  
BRANCH   9  10
HETATM   10  C   UNL     1      -9.632  15.272  65.883  1.00  0.00    -0.342 C  
BRANCH  10  11
HETATM   11  N   UNL     1     -10.643  15.984  66.682  1.00  0.00    -0.316 NA 
HETATM   12  H   UNL     1     -11.282  15.322  67.121  1.00  0.00     0.000 HD 
BRANCH  11  13
HETATM   13  C   UNL     1     -10.074  16.915  67.701  1.00  0.00    -0.278 C  
BRANCH  13  14
HETATM   14  C   UNL     1     -10.769  18.294  67.720  1.00  0.00    -0.333 C  
HETATM   15  H   UNL     1     -10.390  20.862  68.494  1.00  0.00     0.000 H  
HETATM   16  S   UNL     1      -9.764  19.621  68.476  1.00  0.00    -0.394 SA 
ENDBRANCH  13  14
BRANCH  13  17
HETATM   17  C   UNL     1     -10.151  16.263  69.099  1.00  0.00    -0.264 C  
HETATM   18  O   UNL     1     -11.088  16.370  69.882  1.00  0.00    -0.349 OA 
BRANCH  17  19
HETATM   19  O   UNL     1      -9.021  15.535  69.339  1.00  0.00    -0.257 OA 
BRANCH  19  20
HETATM   20  C   UNL     1      -7.778  16.211  69.109  1.00  0.00    -0.230 C  
HETATM   21  C   UNL     1      -6.701  15.229  68.697  1.00  0.00    -0.101 C  
ENDBRANCH  19  20
ENDBRANCH  17  19
ENDBRANCH  13  17
ENDBRANCH  11  13
ENDBRANCH  10  11
ENDBRANCH   9  10
ENDBRANCH   7   9
ENDBRANCH   6   7
BRANCH   6  22
HETATM   22  C   UNL     1     -11.429  11.983  65.601  1.00  0.00    -0.316 C  
HETATM   23  H   UNL     1     -12.724  12.486  63.267  1.00  0.00     0.000 H  
HETATM   24  S   UNL     1     -12.653  12.891  64.594  1.00  0.00    -0.344 SA 
ENDBRANCH   6  22
ENDBRANCH   4   6
ENDBRANCH   3   4
ENDBRANCH   2   3
TORSDOF 13
ENDMDL
MODEL      177
REMARK 921   NORMALIZED FREE ENERGY PREDICTED BY IDOCK:   -3.82 KCAL/MOL
REMARK 922        TOTAL FREE ENERGY PREDICTED BY IDOCK:   -7.32 KCAL/MOL
REMARK 923 INTER-LIGAND FREE ENERGY PREDICTED BY IDOCK:   -6.28 KCAL/MOL
REMARK 924 INTRA-LIGAND FREE ENERGY PREDICTED BY IDOCK:   -1.05 KCAL/MOL
REMARK 927      BINDING AFFINITY PREDICTED BY RF-SCORE:    0.00 PKD
ROOT
HETATM    1  C   UNL     1      -9.466   7.990  67.167  1.00  0.00    -0.207 C  
HETATM    2  C   UNL     1      -9.906   9.073  66.205  1.00  0.00    -0.291 C  
ENDROOT
BRANCH   2   3
HETATM    3  O   UNL     1     -10.422  10.201  66.929  1.00  0.00    -0.233 OA 
BRANCH   3   4
HETATM    4  C   UNL     1     -10.207  11.421  66.360  1.00  0.00    -0.230 C  
HETATM    5  O   UNL     1      -9.374  12.237  66.733  1.00  0.00    -0.205 OA 
BRANCH   4   6
HETATM    6  C   UNL     1     -11.166  11.607  65.169  1.00  0.00    -0.197 C  
BRANCH   6   7
HETATM    7  N   UNL     1     -12.399  12.308  65.621  1.00  0.00    -0.563 NA 
HETATM    8  H   UNL     1     -12.568  12.127  66.611  1.00  0.00     0.000 HD 
BRANCH   7   9
HETATM    9  C   UNL     1     -12.409  13.750  65.355  1.00  0.00    -0.475 C  
BRANCH   9  10
HETATM   10  C   UNL     1     -11.990  14.601  66.574  1.00  0.00    -0.268 C  
BRANCH  10  11
HETATM   11  N   UNL     1     -10.564  14.962  66.618  1.00  0.00    -0.299 NA 
HETATM   12  H   UNL     1     -10.192  15.059  65.673  1.00  0.00     0.000 HD 
BRANCH  11  13
HETATM   13  C   UNL     1     -10.264  16.182  67.425  1.00  0.00    -0.272 C  
BRANCH  13  14
HETATM   14  C   UNL     1      -9.838  15.861  68.874  1.00  0.00    -0.226 C  
HETATM   15  H   UNL     1      -7.832  14.738  70.307  1.00  0.00     0.000 H  
HETATM   16  S   UNL     1      -8.216  15.026  69.002  1.00  0.00    -0.184 SA 
ENDBRANCH  13  14
BRANCH  13  17
HETATM   17  C   UNL     1      -9.170  17.014  66.721  1.00  0.00    -0.252 C  
HETATM   18  O   UNL     1      -8.488  16.635  65.775  1.00  0.00    -0.433 OA 
BRANCH  17  19
HETATM   19  O   UNL     1      -9.075  18.247  67.299  1.00  0.00    -0.252 OA 
BRANCH  19  20
HETATM   20  C   UNL     1      -9.191  19.367  66.411  1.00  0.00    -0.360 C  
HETATM   21  C   UNL     1      -9.800  20.556  67.124  1.00  0.00    -0.567 C  
ENDBRANCH  19  20
ENDBRANCH  17  19
ENDBRANCH  13  17
ENDBRANCH  11  13
ENDBRANCH  10  11
ENDBRANCH   9  10
ENDBRANCH   7   9
ENDBRANCH   6   7
BRANCH   6  22
HETATM   22  C   UNL     1     -10.404  12.272  64.004  1.00  0.00    -0.397 C  
HETATM   23  H   UNL     1      -8.742  11.715  61.929  1.00  0.00     0.000 H  
HETATM   24  S   UNL     1      -9.428  11.117  62.978  1.00  0.00    -0.367 SA 
ENDBRANCH   6  22
ENDBRANCH   4   6
ENDBRANCH   3   4
ENDBRANCH   2   3
TORSDOF 13
ENDMDL
MODEL      178
REMARK 921   NORMALIZED FREE ENERGY PREDICTED BY IDOCK:   -3.81 KCAL/MOL
REMARK 922        TOTAL FREE ENERGY PREDICTED BY IDOCK:   -7.29 KCAL/MOL
REMARK 923 INTER-LIGAND FREE ENERGY PREDICTED BY IDOCK:   -6.28 KCAL/MOL
REMARK 924 INTRA-LIGAND FREE ENERGY PREDICTED BY IDOCK:   -1.02 KCAL/MOL
REMARK 927      BINDING AFFINITY PREDICTED BY RF-SCORE:    0.00 PKD
ROOT
HETATM    1  C   UNL     1     -13.205  11.613  71.945  1.00  0.00    -0.475 C  
HETATM    2  C   UNL     1     -13.183  10.100  71.953  1.00  0.00    -0.452 C  
ENDROOT
BRANCH   2   3
HETATM    3  O   UNL     1     -12.195   9.611  71.033  1.00  0.00    -0.303 OA 
BRANCH   3   4
HETATM    4  C   UNL     1     -11.551   8.468  71.404  1.00  0.00    -0.289 C  
HETATM    5  O   UNL     1     -11.535   8.003  72.537  1.00  0.00    -0.359 OA 
BRANCH   4   6
HETATM    6  C   UNL     1     -10.858   7.847  70.177  1.00  0.00    -0.243 C  
BRANCH   6   7
HETATM    7  N   UNL     1      -9.383   8.005  70.298  1.00  0.00    -0.159 NA 
HETATM    8  H   UNL     1      -8.910   7.539  69.523  1.00  0.00     0.000 HD 
BRANCH   7   9
HETATM    9  C   UNL     1      -8.929   9.395  70.412  1.00  0.00    -0.250 C  
BRANCH   9  10
HETATM   10  C   UNL     1      -9.275  10.255  69.176  1.00  0.00    -0.194 C  
BRANCH  10  11
HETATM   11  N   UNL     1     -10.265  11.318  69.417  1.00  0.00    -0.435 NA 
HETATM   12  H   UNL     1     -10.205  11.649  70.380  1.00  0.00     0.000 HD 
BRANCH  11  13
HETATM   13  C   UNL     1     -10.179  12.464  68.465  1.00  0.00    -0.205 C  
BRANCH  13  14
HETATM   14  C   UNL     1      -8.993  12.349  67.481  1.00  0.00    -0.183 C  
HETATM   15  H   UNL     1      -6.599  13.469  66.888  1.00  0.00     0.000 H  
HETATM   16  S   UNL     1      -7.666  13.572  67.774  1.00  0.00    -0.180 SA 
ENDBRANCH  13  14
BRANCH  13  17
HETATM   17  C   UNL     1     -11.506  12.591  67.684  1.00  0.00    -0.334 C  
HETATM   18  O   UNL     1     -12.007  11.714  66.989  1.00  0.00    -0.593 OA 
BRANCH  17  19
HETATM   19  O   UNL     1     -12.053  13.825  67.888  1.00  0.00    -0.365 OA 
BRANCH  19  20
HETATM   20  C   UNL     1     -12.386  14.148  69.244  1.00  0.00    -0.169 C  
HETATM   21  C   UNL     1     -11.959  15.561  69.580  1.00  0.00    -0.380 C  
ENDBRANCH  19  20
ENDBRANCH  17  19
ENDBRANCH  13  17
ENDBRANCH  11  13
ENDBRANCH  10  11
ENDBRANCH   9  10
ENDBRANCH   7   9
ENDBRANCH   6   7
BRANCH   6  22
HETATM   22  C   UNL     1     -11.365   6.403  69.984  1.00  0.00    -0.430 C  
HETATM   23  H   UNL     1     -10.543   3.815  70.015  1.00  0.00     0.000 H  
HETATM   24  S   UNL     1     -10.086   5.115  70.189  1.00  0.00    -0.281 SA 
ENDBRANCH   6  22
ENDBRANCH   4   6
ENDBRANCH   3   4
ENDBRANCH   2   3
TORSDOF 13
ENDMDL
MODEL      179
REMARK 921   NORMALIZED FREE ENERGY PREDICTED BY IDOCK:   -3.80 KCAL/MOL
REMARK 922        TOTAL FREE ENERGY PREDICTED BY IDOCK:   -7.29 KCAL/MOL
REMARK 923 INTER-LIGAND FREE ENERGY PREDICTED BY IDOCK:   -6.69 KCAL/MOL
REMARK 924 INTRA-LIGAND FREE ENERGY PREDICTED BY IDOCK:   -0.60 KCAL/MOL
REMARK 927      BINDING AFFINITY PREDICTED BY RF-SCORE:    0.00 PKD
ROOT
HETATM    1  C   UNL     1     -13.651  13.371  72.328  1.00  0.00    -0.703 C  
HETATM    2  C   UNL     1     -13.104  12.068  71.784  1.00  0.00    -0.355 C  
ENDROOT
BRANCH   2   3
HETATM    3  O   UNL     1     -12.299  12.313  70.622  1.00  0.00    -0.354 OA 
BRANCH   3   4
HETATM    4  C   UNL     1     -11.786  11.207  70.010  1.00  0.00    -0.361 C  
HETATM    5  O   UNL     1     -11.868  10.062  70.438  1.00  0.00    -0.266 OA 
BRANCH   4   6
HETATM    6  C   UNL     1     -11.099  11.620  68.695  1.00  0.00    -0.234 C  
BRANCH   6   7
HETATM    7  N   UNL     1      -9.696  12.034  68.969  1.00  0.00    -0.404 NA 
HETATM    8  H   UNL     1      -9.135  11.228  69.247  1.00  0.00     0.000 HD 
BRANCH   7   9
HETATM    9  C   UNL     1      -9.049  12.751  67.865  1.00  0.00    -0.204 C  
BRANCH   9  10
HETATM   10  C   UNL     1      -9.919  13.884  67.277  1.00  0.00    -0.242 C  
BRANCH  10  11
HETATM   11  N   UNL     1      -9.447  15.246  67.573  1.00  0.00    -0.201 NA 
HETATM   12  H   UNL     1      -8.707  15.516  66.923  1.00  0.00     0.000 HD 
BRANCH  11  13
HETATM   13  C   UNL     1     -10.524  16.279  67.593  1.00  0.00    -0.295 C  
BRANCH  13  14
HETATM   14  C   UNL     1     -11.733  15.878  68.468  1.00  0.00    -0.292 C  
HETATM   15  H   UNL     1     -12.447  15.434  71.043  1.00  0.00     0.000 H  
HETATM   16  S   UNL     1     -11.359  15.794  70.256  1.00  0.00    -0.393 SA 
ENDBRANCH  13  14
BRANCH  13  17
HETATM   17  C   UNL     1      -9.943  17.626  68.076  1.00  0.00    -0.326 C  
HETATM   18  O   UNL     1      -8.826  17.787  68.554  1.00  0.00    -0.282 OA 
BRANCH  17  19
HETATM   19  O   UNL     1     -10.854  18.625  67.883  1.00  0.00    -0.348 OA 
BRANCH  19  20
HETATM   20  C   UNL     1     -10.646  19.450  66.730  1.00  0.00    -0.472 C  
HETATM   21  C   UNL     1      -9.721  20.604  67.055  1.00  0.00    -0.485 C  
ENDBRANCH  19  20
ENDBRANCH  17  19
ENDBRANCH  13  17
ENDBRANCH  11  13
ENDBRANCH  10  11
ENDBRANCH   9  10
ENDBRANCH   7   9
ENDBRANCH   6   7
BRANCH   6  22
HETATM   22  C   UNL     1     -11.277  10.495  67.655  1.00  0.00    -0.265 C  
HETATM   23  H   UNL     1     -10.109   8.226  66.723  1.00  0.00     0.000 H  
HETATM   24  S   UNL     1      -9.949   9.240  67.659  1.00  0.00    -0.210 SA 
ENDBRANCH   6  22
ENDBRANCH   4   6
ENDBRANCH   3   4
ENDBRANCH   2   3
TORSDOF 13
ENDMDL
MODEL      180
REMARK 921   NORMALIZED FREE ENERGY PREDICTED BY IDOCK:   -3.80 KCAL/MOL
REMARK 922        TOTAL FREE ENERGY PREDICTED BY IDOCK:   -7.28 KCAL/MOL
REMARK 923 INTER-LIGAND FREE ENERGY PREDICTED BY IDOCK:   -6.47 KCAL/MOL
REMARK 924 INTRA-LIGAND FREE ENERGY PREDICTED BY IDOCK:   -0.81 KCAL/MOL
REMARK 927      BINDING AFFINITY PREDICTED BY RF-SCORE:    0.00 PKD
ROOT
HETATM    1  C   UNL     1     -10.616   7.353  67.170  1.00  0.00    -0.413 C  
HETATM    2  C   UNL     1     -10.965   6.469  68.348  1.00  0.00    -0.281 C  
ENDROOT
BRANCH   2   3
HETATM    3  O   UNL     1     -10.440   7.027  69.562  1.00  0.00    -0.205 OA 
BRANCH   3   4
HETATM    4  C   UNL     1     -11.366   7.458  70.466  1.00  0.00    -0.271 C  
HETATM    5  O   UNL     1     -12.374   6.844  70.792  1.00  0.00    -0.376 OA 
BRANCH   4   6
HETATM    6  C   UNL     1     -10.941   8.832  71.019  1.00  0.00    -0.268 C  
BRANCH   6   7
HETATM    7  N   UNL     1     -12.097   9.483  71.693  1.00  0.00    -0.378 NA 
HETATM    8  H   UNL     1     -11.788   9.977  72.531  1.00  0.00     0.000 HD 
BRANCH   7   9
HETATM    9  C   UNL     1     -12.878  10.376  70.831  1.00  0.00    -0.392 C  
BRANCH   9  10
HETATM   10  C   UNL     1     -12.012  11.167  69.826  1.00  0.00    -0.357 C  
BRANCH  10  11
HETATM   11  N   UNL     1     -12.174  10.767  68.418  1.00  0.00    -0.809 NA 
HETATM   12  H   UNL     1     -13.157  10.806  68.147  1.00  0.00     0.000 HD 
BRANCH  11  13
HETATM   13  C   UNL     1     -11.337  11.545  67.459  1.00  0.00    -0.299 C  
BRANCH  13  14
HETATM   14  C   UNL     1     -11.879  12.967  67.194  1.00  0.00    -0.373 C  
HETATM   15  H   UNL     1     -12.779  14.570  65.204  1.00  0.00     0.000 H  
HETATM   16  S   UNL     1     -12.291  13.289  65.442  1.00  0.00    -0.490 SA 
ENDBRANCH  13  14
BRANCH  13  17
HETATM   17  C   UNL     1      -9.884  11.619  67.979  1.00  0.00    -0.190 C  
HETATM   18  O   UNL     1      -9.148  10.657  68.166  1.00  0.00    -0.140 OA 
BRANCH  17  19
HETATM   19  O   UNL     1      -9.528  12.920  68.192  1.00  0.00    -0.210 OA 
BRANCH  19  20
HETATM   20  C   UNL     1      -8.259  13.318  67.659  1.00  0.00    -0.179 C  
HETATM   21  C   UNL     1      -8.249  14.800  67.346  1.00  0.00    -0.216 C  
ENDBRANCH  19  20
ENDBRANCH  17  19
ENDBRANCH  13  17
ENDBRANCH  11  13
ENDBRANCH  10  11
ENDBRANCH   9  10
ENDBRANCH   7   9
ENDBRANCH   6   7
BRANCH   6  22
HETATM   22  C   UNL     1      -9.671   8.662  71.877  1.00  0.00    -0.313 C  
HETATM   23  H   UNL     1      -8.721   7.386  74.079  1.00  0.00     0.000 H  
HETATM   24  S   UNL     1      -9.865   7.539  73.305  1.00  0.00    -0.311 SA 
ENDBRANCH   6  22
ENDBRANCH   4   6
ENDBRANCH   3   4
ENDBRANCH   2   3
TORSDOF 13
ENDMDL
MODEL      181
REMARK 921   NORMALIZED FREE ENERGY PREDICTED BY IDOCK:   -3.77 KCAL/MOL
REMARK 922        TOTAL FREE ENERGY PREDICTED BY IDOCK:   -7.23 KCAL/MOL
REMARK 923 INTER-LIGAND FREE ENERGY PREDICTED BY IDOCK:   -6.56 KCAL/MOL
REMARK 924 INTRA-LIGAND FREE ENERGY PREDICTED BY IDOCK:   -0.66 KCAL/MOL
REMARK 927      BINDING AFFINITY PREDICTED BY RF-SCORE:    0.00 PKD
ROOT
HETATM    1  C   UNL     1      -6.415  18.932  66.370  1.00  0.00    -0.218 C  
HETATM    2  C   UNL     1      -7.762  19.406  65.869  1.00  0.00    -0.248 C  
ENDROOT
BRANCH   2   3
HETATM    3  O   UNL     1      -8.778  19.141  66.848  1.00  0.00    -0.282 OA 
BRANCH   3   4
HETATM    4  C   UNL     1     -10.009  18.823  66.355  1.00  0.00    -0.392 C  
HETATM    5  O   UNL     1     -10.724  19.574  65.702  1.00  0.00    -0.491 OA 
BRANCH   4   6
HETATM    6  C   UNL     1     -10.355  17.371  66.736  1.00  0.00    -0.305 C  
BRANCH   6   7
HETATM    7  N   UNL     1     -10.083  16.469  65.583  1.00  0.00    -0.543 NA 
HETATM    8  H   UNL     1      -9.472  15.702  65.869  1.00  0.00     0.000 HD 
BRANCH   7   9
HETATM    9  C   UNL     1     -11.284  15.948  64.924  1.00  0.00    -0.337 C  
BRANCH   9  10
HETATM   10  C   UNL     1     -11.913  14.744  65.659  1.00  0.00    -0.164 C  
BRANCH  10  11
HETATM   11  N   UNL     1     -12.491  13.714  64.780  1.00  0.00    -0.587 NA 
HETATM   12  H   UNL     1     -12.618  14.081  63.836  1.00  0.00     0.000 HD 
BRANCH  11  13
HETATM   13  C   UNL     1     -11.721  12.436  64.743  1.00  0.00    -0.368 C  
BRANCH  13  14
HETATM   14  C   UNL     1     -10.499  12.489  63.800  1.00  0.00    -0.419 C  
HETATM   15  H   UNL     1      -8.887  10.904  62.308  1.00  0.00     0.000 H  
HETATM   16  S   UNL     1      -9.987  10.856  63.156  1.00  0.00    -0.265 SA 
ENDBRANCH  13  14
BRANCH  13  17
HETATM   17  C   UNL     1     -11.272  12.059  66.172  1.00  0.00    -0.343 C  
HETATM   18  O   UNL     1     -12.015  11.690  67.075  1.00  0.00    -0.593 OA 
BRANCH  17  19
HETATM   19  O   UNL     1      -9.918  12.186  66.287  1.00  0.00    -0.219 OA 
BRANCH  19  20
HETATM   20  C   UNL     1      -9.240  11.107  66.945  1.00  0.00    -0.169 C  
HETATM   21  C   UNL     1      -8.695  11.554  68.285  1.00  0.00    -0.162 C  
ENDBRANCH  19  20
ENDBRANCH  17  19
ENDBRANCH  13  17
ENDBRANCH  11  13
ENDBRANCH  10  11
ENDBRANCH   9  10
ENDBRANCH   7   9
ENDBRANCH   6   7
BRANCH   6  22
HETATM   22  C   UNL     1      -9.643  17.010  68.055  1.00  0.00    -0.260 C  
HETATM   23  H   UNL     1      -8.668  14.901  69.464  1.00  0.00     0.000 H  
HETATM   24  S   UNL     1      -9.310  15.227  68.275  1.00  0.00    -0.198 SA 
ENDBRANCH   6  22
ENDBRANCH   4   6
ENDBRANCH   3   4
ENDBRANCH   2   3
TORSDOF 13
ENDMDL
MODEL      182
REMARK 921   NORMALIZED FREE ENERGY PREDICTED BY IDOCK:   -3.76 KCAL/MOL
REMARK 922        TOTAL FREE ENERGY PREDICTED BY IDOCK:   -7.22 KCAL/MOL
REMARK 923 INTER-LIGAND FREE ENERGY PREDICTED BY IDOCK:   -6.60 KCAL/MOL
REMARK 924 INTRA-LIGAND FREE ENERGY PREDICTED BY IDOCK:   -0.61 KCAL/MOL
REMARK 927      BINDING AFFINITY PREDICTED BY RF-SCORE:    0.00 PKD
ROOT
HETATM    1  C   UNL     1      -6.561  21.204  66.694  1.00  0.00    -0.323 C  
HETATM    2  C   UNL     1      -6.340  20.203  65.581  1.00  0.00    -0.228 C  
ENDROOT
BRANCH   2   3
HETATM    3  O   UNL     1      -7.442  19.285  65.511  1.00  0.00    -0.448 OA 
BRANCH   3   4
HETATM    4  C   UNL     1      -7.512  18.365  66.516  1.00  0.00    -0.237 C  
HETATM    5  O   UNL     1      -6.558  17.758  66.986  1.00  0.00    -0.152 OA 
BRANCH   4   6
HETATM    6  C   UNL     1      -8.976  18.216  66.973  1.00  0.00    -0.263 C  
BRANCH   6   7
HETATM    7  N   UNL     1      -9.734  17.407  65.980  1.00  0.00    -0.506 NA 
HETATM    8  H   UNL     1      -9.716  17.860  65.066  1.00  0.00     0.000 HD 
BRANCH   7   9
HETATM    9  C   UNL     1      -9.292  16.013  65.870  1.00  0.00    -0.300 C  
BRANCH   9  10
HETATM   10  C   UNL     1     -10.198  15.155  64.959  1.00  0.00    -0.297 C  
BRANCH  10  11
HETATM   11  N   UNL     1     -10.483  13.803  65.465  1.00  0.00    -0.305 NA 
HETATM   12  H   UNL     1      -9.864  13.575  66.243  1.00  0.00     0.000 HD 
BRANCH  11  13
HETATM   13  C   UNL     1     -11.908  13.580  65.850  1.00  0.00    -0.372 C  
BRANCH  13  14
HETATM   14  C   UNL     1     -12.670  12.671  64.860  1.00  0.00    -0.370 C  
HETATM   15  H   UNL     1     -12.310  11.173  62.632  1.00  0.00     0.000 H  
HETATM   16  S   UNL     1     -11.624  11.991  63.523  1.00  0.00    -0.445 SA 
ENDBRANCH  13  14
BRANCH  13  17
HETATM   17  C   UNL     1     -11.975  12.986  67.275  1.00  0.00    -0.321 C  
HETATM   18  O   UNL     1     -11.910  13.631  68.316  1.00  0.00    -0.338 OA 
BRANCH  17  19
HETATM   19  O   UNL     1     -12.127  11.631  67.211  1.00  0.00    -0.595 OA 
BRANCH  19  20
HETATM   20  C   UNL     1     -11.090  10.853  67.823  1.00  0.00    -0.309 C  
HETATM   21  C   UNL     1     -10.592   9.783  66.875  1.00  0.00    -0.243 C  
ENDBRANCH  19  20
ENDBRANCH  17  19
ENDBRANCH  13  17
ENDBRANCH  11  13
ENDBRANCH  10  11
ENDBRANCH   9  10
ENDBRANCH   7   9
ENDBRANCH   6   7
BRANCH   6  22
HETATM   22  C   UNL     1      -9.002  17.695  68.425  1.00  0.00    -0.280 C  
HETATM   23  H   UNL     1     -10.651  16.601  70.285  1.00  0.00     0.000 H  
HETATM   24  S   UNL     1     -10.627  17.070  68.978  1.00  0.00    -0.271 SA 
ENDBRANCH   6  22
ENDBRANCH   4   6
ENDBRANCH   3   4
ENDBRANCH   2   3
TORSDOF 13
ENDMDL
MODEL      183
REMARK 921   NORMALIZED FREE ENERGY PREDICTED BY IDOCK:   -3.76 KCAL/MOL
REMARK 922        TOTAL FREE ENERGY PREDICTED BY IDOCK:   -7.21 KCAL/MOL
REMARK 923 INTER-LIGAND FREE ENERGY PREDICTED BY IDOCK:   -6.44 KCAL/MOL
REMARK 924 INTRA-LIGAND FREE ENERGY PREDICTED BY IDOCK:   -0.77 KCAL/MOL
REMARK 927      BINDING AFFINITY PREDICTED BY RF-SCORE:    0.00 PKD
ROOT
HETATM    1  C   UNL     1     -12.426  14.157  71.005  1.00  0.00    -0.438 C  
HETATM    2  C   UNL     1     -12.055  14.903  69.741  1.00  0.00    -0.314 C  
ENDROOT
BRANCH   2   3
HETATM    3  O   UNL     1     -12.284  14.076  68.590  1.00  0.00    -0.332 OA 
BRANCH   3   4
HETATM    4  C   UNL     1     -11.497  14.335  67.506  1.00  0.00    -0.345 C  
HETATM    5  O   UNL     1     -11.118  15.447  67.159  1.00  0.00    -0.327 OA 
BRANCH   4   6
HETATM    6  C   UNL     1     -11.152  13.014  66.794  1.00  0.00    -0.286 C  
BRANCH   6   7
HETATM    7  N   UNL     1     -12.009  11.918  67.323  1.00  0.00    -0.599 NA 
HETATM    8  H   UNL     1     -12.550  11.494  66.569  1.00  0.00     0.000 HD 
BRANCH   7   9
HETATM    9  C   UNL     1     -11.282  10.888  68.073  1.00  0.00    -0.314 C  
BRANCH   9  10
HETATM   10  C   UNL     1     -11.720  10.784  69.551  1.00  0.00    -0.312 C  
BRANCH  10  11
HETATM   11  N   UNL     1     -11.918   9.411  70.044  1.00  0.00    -0.444 NA 
HETATM   12  H   UNL     1     -12.566   8.905  69.439  1.00  0.00     0.000 HD 
BRANCH  11  13
HETATM   13  C   UNL     1     -10.656   8.634  70.221  1.00  0.00    -0.223 C  
BRANCH  13  14
HETATM   14  C   UNL     1     -10.063   8.755  71.643  1.00  0.00    -0.319 C  
HETATM   15  H   UNL     1      -7.921   8.020  73.129  1.00  0.00     0.000 H  
HETATM   16  S   UNL     1      -8.454   7.912  71.849  1.00  0.00    -0.133 SA 
ENDBRANCH  13  14
BRANCH  13  17
HETATM   17  C   UNL     1     -10.906   7.150  69.875  1.00  0.00    -0.254 C  
HETATM   18  O   UNL     1     -11.707   6.414  70.440  1.00  0.00    -0.396 OA 
BRANCH  17  19
HETATM   19  O   UNL     1     -10.108   6.772  68.833  1.00  0.00    -0.154 OA 
BRANCH  19  20
HETATM   20  C   UNL     1     -10.664   6.945  67.523  1.00  0.00    -0.298 C  
HETATM   21  C   UNL     1      -9.698   7.688  66.624  1.00  0.00    -0.283 C  
ENDBRANCH  19  20
ENDBRANCH  17  19
ENDBRANCH  13  17
ENDBRANCH  11  13
ENDBRANCH  10  11
ENDBRANCH   9  10
ENDBRANCH   7   9
ENDBRANCH   6   7
BRANCH   6  22
HETATM   22  C   UNL     1     -11.205  13.232  65.268  1.00  0.00    -0.295 C  
HETATM   23  H   UNL     1     -10.883  11.939  62.900  1.00  0.00     0.000 H  
HETATM   24  S   UNL     1     -10.835  11.743  64.275  1.00  0.00    -0.377 SA 
ENDBRANCH   6  22
ENDBRANCH   4   6
ENDBRANCH   3   4
ENDBRANCH   2   3
TORSDOF 13
ENDMDL
MODEL      184
REMARK 921   NORMALIZED FREE ENERGY PREDICTED BY IDOCK:   -3.76 KCAL/MOL
REMARK 922        TOTAL FREE ENERGY PREDICTED BY IDOCK:   -7.21 KCAL/MOL
REMARK 923 INTER-LIGAND FREE ENERGY PREDICTED BY IDOCK:   -6.47 KCAL/MOL
REMARK 924 INTRA-LIGAND FREE ENERGY PREDICTED BY IDOCK:   -0.74 KCAL/MOL
REMARK 927      BINDING AFFINITY PREDICTED BY RF-SCORE:    0.00 PKD
ROOT
HETATM    1  C   UNL     1      -5.340  15.730  70.264  1.00  0.00    -0.146 C  
HETATM    2  C   UNL     1      -6.683  15.046  70.122  1.00  0.00    -0.097 C  
ENDROOT
BRANCH   2   3
HETATM    3  O   UNL     1      -7.181  15.202  68.785  1.00  0.00    -0.115 OA 
BRANCH   3   4
HETATM    4  C   UNL     1      -8.497  14.894  68.602  1.00  0.00    -0.166 C  
HETATM    5  O   UNL     1      -9.408  15.209  69.358  1.00  0.00    -0.218 OA 
BRANCH   4   6
HETATM    6  C   UNL     1      -8.661  14.097  67.294  1.00  0.00    -0.218 C  
BRANCH   6   7
HETATM    7  N   UNL     1      -8.591  15.021  66.129  1.00  0.00    -0.374 NA 
HETATM    8  H   UNL     1      -8.386  14.501  65.275  1.00  0.00     0.000 HD 
BRANCH   7   9
HETATM    9  C   UNL     1      -9.782  15.857  65.946  1.00  0.00    -0.351 C  
BRANCH   9  10
HETATM   10  C   UNL     1     -10.724  15.345  64.835  1.00  0.00    -0.393 C  
BRANCH  10  11
HETATM   11  N   UNL     1     -10.390  14.014  64.302  1.00  0.00    -0.641 NA 
HETATM   12  H   UNL     1      -9.693  13.559  64.892  1.00  0.00     0.000 HD 
BRANCH  11  13
HETATM   13  C   UNL     1     -11.568  13.119  64.102  1.00  0.00    -0.410 C  
BRANCH  13  14
HETATM   14  C   UNL     1     -11.178  11.643  63.870  1.00  0.00    -0.397 C  
HETATM   15  H   UNL     1      -9.159   9.883  64.277  1.00  0.00     0.000 H  
HETATM   16  S   UNL     1      -9.511  11.212  64.486  1.00  0.00    -0.197 SA 
ENDBRANCH  13  14
BRANCH  13  17
HETATM   17  C   UNL     1     -12.518  13.233  65.315  1.00  0.00    -0.489 C  
HETATM   18  O   UNL     1     -13.491  13.976  65.388  1.00  0.00    -0.679 OA 
BRANCH  17  19
HETATM   19  O   UNL     1     -12.125  12.374  66.301  1.00  0.00    -0.612 OA 
BRANCH  19  20
HETATM   20  C   UNL     1     -11.911  12.957  67.593  1.00  0.00    -0.346 C  
HETATM   21  C   UNL     1     -11.846  11.886  68.661  1.00  0.00    -0.365 C  
ENDBRANCH  19  20
ENDBRANCH  17  19
ENDBRANCH  13  17
ENDBRANCH  11  13
ENDBRANCH  10  11
ENDBRANCH   9  10
ENDBRANCH   7   9
ENDBRANCH   6   7
BRANCH   6  22
HETATM   22  C   UNL     1      -7.656  12.926  67.284  1.00  0.00    -0.099 C  
HETATM   23  H   UNL     1      -7.258  10.428  68.274  1.00  0.00     0.000 H  
HETATM   24  S   UNL     1      -8.163  11.483  68.282  1.00  0.00    -0.157 SA 
ENDBRANCH   6  22
ENDBRANCH   4   6
ENDBRANCH   3   4
ENDBRANCH   2   3
TORSDOF 13
ENDMDL
MODEL      185
REMARK 921   NORMALIZED FREE ENERGY PREDICTED BY IDOCK:   -3.76 KCAL/MOL
REMARK 922        TOTAL FREE ENERGY PREDICTED BY IDOCK:   -7.21 KCAL/MOL
REMARK 923 INTER-LIGAND FREE ENERGY PREDICTED BY IDOCK:   -6.14 KCAL/MOL
REMARK 924 INTRA-LIGAND FREE ENERGY PREDICTED BY IDOCK:   -1.07 KCAL/MOL
REMARK 927      BINDING AFFINITY PREDICTED BY RF-SCORE:    0.00 PKD
ROOT
HETATM    1  C   UNL     1      -9.722  10.471  63.299  1.00  0.00    -0.361 C  
HETATM    2  C   UNL     1      -9.230  10.153  64.695  1.00  0.00    -0.252 C  
ENDROOT
BRANCH   2   3
HETATM    3  O   UNL     1     -10.095  10.746  65.675  1.00  0.00    -0.244 OA 
BRANCH   3   4
HETATM    4  C   UNL     1     -10.196  10.079  66.859  1.00  0.00    -0.238 C  
HETATM    5  O   UNL     1     -10.494   8.897  66.981  1.00  0.00    -0.274 OA 
BRANCH   4   6
HETATM    6  C   UNL     1      -9.865  11.038  68.019  1.00  0.00    -0.171 C  
BRANCH   6   7
HETATM    7  N   UNL     1     -10.768  12.220  67.967  1.00  0.00    -0.211 NA 
HETATM    8  H   UNL     1     -11.605  12.053  68.527  1.00  0.00     0.000 HD 
BRANCH   7   9
HETATM    9  C   UNL     1     -10.136  13.484  68.357  1.00  0.00    -0.240 C  
BRANCH   9  10
HETATM   10  C   UNL     1      -9.077  13.977  67.346  1.00  0.00    -0.209 C  
BRANCH  10  11
HETATM   11  N   UNL     1      -9.398  13.712  65.934  1.00  0.00    -0.499 NA 
HETATM   12  H   UNL     1      -9.946  12.856  65.847  1.00  0.00     0.000 HD 
BRANCH  11  13
HETATM   13  C   UNL     1     -10.082  14.842  65.238  1.00  0.00    -0.345 C  
BRANCH  13  14
HETATM   14  C   UNL     1     -11.622  14.726  65.258  1.00  0.00    -0.338 C  
HETATM   15  H   UNL     1     -13.649  13.123  64.445  1.00  0.00     0.000 H  
HETATM   16  S   UNL     1     -12.263  13.228  64.427  1.00  0.00    -0.379 SA 
ENDBRANCH  13  14
BRANCH  13  17
HETATM   17  C   UNL     1      -9.642  16.182  65.869  1.00  0.00    -0.324 C  
HETATM   18  O   UNL     1      -8.551  16.717  65.710  1.00  0.00    -0.485 OA 
BRANCH  17  19
HETATM   19  O   UNL     1     -10.654  16.697  66.627  1.00  0.00    -0.286 OA 
BRANCH  19  20
HETATM   20  C   UNL     1     -10.307  17.804  67.469  1.00  0.00    -0.369 C  
HETATM   21  C   UNL     1     -10.268  17.381  68.923  1.00  0.00    -0.352 C  
ENDBRANCH  19  20
ENDBRANCH  17  19
ENDBRANCH  13  17
ENDBRANCH  11  13
ENDBRANCH  10  11
ENDBRANCH   9  10
ENDBRANCH   7   9
ENDBRANCH   6   7
BRANCH   6  22
HETATM   22  C   UNL     1      -9.865  10.250  69.345  1.00  0.00    -0.227 C  
HETATM   23  H   UNL     1     -11.455   9.565  71.438  1.00  0.00     0.000 H  
HETATM   24  S   UNL     1     -11.455  10.275  70.243  1.00  0.00    -0.337 SA 
ENDBRANCH   6  22
ENDBRANCH   4   6
ENDBRANCH   3   4
ENDBRANCH   2   3
TORSDOF 13
ENDMDL
MODEL      186
REMARK 921   NORMALIZED FREE ENERGY PREDICTED BY IDOCK:   -3.76 KCAL/MOL
REMARK 922        TOTAL FREE ENERGY PREDICTED BY IDOCK:   -7.20 KCAL/MOL
REMARK 923 INTER-LIGAND FREE ENERGY PREDICTED BY IDOCK:   -6.50 KCAL/MOL
REMARK 924 INTRA-LIGAND FREE ENERGY PREDICTED BY IDOCK:   -0.71 KCAL/MOL
REMARK 927      BINDING AFFINITY PREDICTED BY RF-SCORE:    0.00 PKD
ROOT
HETATM    1  C   UNL     1     -11.482  12.053  65.257  1.00  0.00    -0.358 C  
HETATM    2  C   UNL     1     -12.354  13.291  65.244  1.00  0.00    -0.476 C  
ENDROOT
BRANCH   2   3
HETATM    3  O   UNL     1     -12.509  13.803  66.576  1.00  0.00    -0.404 OA 
BRANCH   3   4
HETATM    4  C   UNL     1     -11.489  14.583  67.035  1.00  0.00    -0.370 C  
HETATM    5  O   UNL     1     -10.791  15.313  66.342  1.00  0.00    -0.315 OA 
BRANCH   4   6
HETATM    6  C   UNL     1     -11.358  14.412  68.561  1.00  0.00    -0.282 C  
BRANCH   6   7
HETATM    7  N   UNL     1      -9.982  13.958  68.900  1.00  0.00    -0.410 NA 
HETATM    8  H   UNL     1      -9.845  13.964  69.912  1.00  0.00     0.000 HD 
BRANCH   7   9
HETATM    9  C   UNL     1      -9.619  12.652  68.342  1.00  0.00    -0.173 C  
BRANCH   9  10
HETATM   10  C   UNL     1     -10.646  11.543  68.660  1.00  0.00    -0.208 C  
BRANCH  10  11
HETATM   11  N   UNL     1     -10.377  10.784  69.892  1.00  0.00    -0.437 NA 
HETATM   12  H   UNL     1     -10.815  11.238  70.694  1.00  0.00     0.000 HD 
BRANCH  11  13
HETATM   13  C   UNL     1     -10.774   9.346  69.826  1.00  0.00    -0.234 C  
BRANCH  13  14
HETATM   14  C   UNL     1      -9.718   8.456  69.135  1.00  0.00    -0.171 C  
HETATM   15  H   UNL     1      -9.374   6.825  66.999  1.00  0.00     0.000 H  
HETATM   16  S   UNL     1     -10.324   7.627  67.621  1.00  0.00    -0.245 SA 
ENDBRANCH  13  14
BRANCH  13  17
HETATM   17  C   UNL     1     -11.061   8.821  71.250  1.00  0.00    -0.278 C  
HETATM   18  O   UNL     1     -10.474   7.893  71.796  1.00  0.00    -0.209 OA 
BRANCH  17  19
HETATM   19  O   UNL     1     -12.063   9.548  71.825  1.00  0.00    -0.370 OA 
BRANCH  19  20
HETATM   20  C   UNL     1     -13.318   9.545  71.132  1.00  0.00    -0.247 C  
HETATM   21  C   UNL     1     -14.341   8.716  71.879  1.00  0.00    -0.492 C  
ENDBRANCH  19  20
ENDBRANCH  17  19
ENDBRANCH  13  17
ENDBRANCH  11  13
ENDBRANCH  10  11
ENDBRANCH   9  10
ENDBRANCH   7   9
ENDBRANCH   6   7
BRANCH   6  22
HETATM   22  C   UNL     1     -11.832  15.704  69.258  1.00  0.00    -0.363 C  
HETATM   23  H   UNL     1     -12.142  16.832  71.710  1.00  0.00     0.000 H  
HETATM   24  S   UNL     1     -11.716  15.669  71.081  1.00  0.00    -0.456 SA 
ENDBRANCH   6  22
ENDBRANCH   4   6
ENDBRANCH   3   4
ENDBRANCH   2   3
TORSDOF 13
ENDMDL
MODEL      187
REMARK 921   NORMALIZED FREE ENERGY PREDICTED BY IDOCK:   -3.76 KCAL/MOL
REMARK 922        TOTAL FREE ENERGY PREDICTED BY IDOCK:   -7.20 KCAL/MOL
REMARK 923 INTER-LIGAND FREE ENERGY PREDICTED BY IDOCK:   -6.65 KCAL/MOL
REMARK 924 INTRA-LIGAND FREE ENERGY PREDICTED BY IDOCK:   -0.55 KCAL/MOL
REMARK 927      BINDING AFFINITY PREDICTED BY RF-SCORE:    0.00 PKD
ROOT
HETATM    1  C   UNL     1      -7.696   7.988  66.785  1.00  0.00    -0.098 C  
HETATM    2  C   UNL     1      -8.913   7.559  67.576  1.00  0.00    -0.126 C  
ENDROOT
BRANCH   2   3
HETATM    3  O   UNL     1      -9.207   8.523  68.598  1.00  0.00    -0.142 OA 
BRANCH   3   4
HETATM    4  C   UNL     1     -10.118   9.482  68.266  1.00  0.00    -0.183 C  
HETATM    5  O   UNL     1     -10.803   9.483  67.250  1.00  0.00    -0.251 OA 
BRANCH   4   6
HETATM    6  C   UNL     1     -10.159  10.555  69.370  1.00  0.00    -0.209 C  
BRANCH   6   7
HETATM    7  N   UNL     1     -10.021  11.907  68.763  1.00  0.00    -0.381 NA 
HETATM    8  H   UNL     1      -9.476  11.856  67.901  1.00  0.00     0.000 HD 
BRANCH   7   9
HETATM    9  C   UNL     1     -11.292  12.598  68.523  1.00  0.00    -0.296 C  
BRANCH   9  10
HETATM   10  C   UNL     1     -11.491  13.020  67.051  1.00  0.00    -0.333 C  
BRANCH  10  11
HETATM   11  N   UNL     1     -10.328  13.676  66.431  1.00  0.00    -0.281 NA 
HETATM   12  H   UNL     1      -9.564  13.010  66.314  1.00  0.00     0.000 HD 
BRANCH  11  13
HETATM   13  C   UNL     1     -10.626  14.360  65.138  1.00  0.00    -0.410 C  
BRANCH  13  14
HETATM   14  C   UNL     1     -11.975  13.931  64.521  1.00  0.00    -0.437 C  
HETATM   15  H   UNL     1     -13.072  12.093  62.860  1.00  0.00     0.000 H  
HETATM   16  S   UNL     1     -11.857  12.479  63.416  1.00  0.00    -0.457 SA 
ENDBRANCH  13  14
BRANCH  13  17
HETATM   17  C   UNL     1     -10.598  15.891  65.342  1.00  0.00    -0.419 C  
HETATM   18  O   UNL     1     -11.083  16.718  64.578  1.00  0.00    -0.989 OA 
BRANCH  17  19
HETATM   19  O   UNL     1      -9.961  16.196  66.510  1.00  0.00    -0.253 OA 
BRANCH  19  20
HETATM   20  C   UNL     1     -10.739  16.905  67.483  1.00  0.00    -0.270 C  
HETATM   21  C   UNL     1     -10.401  18.381  67.469  1.00  0.00    -0.416 C  
ENDBRANCH  19  20
ENDBRANCH  17  19
ENDBRANCH  13  17
ENDBRANCH  11  13
ENDBRANCH  10  11
ENDBRANCH   9  10
ENDBRANCH   7   9
ENDBRANCH   6   7
BRANCH   6  22
HETATM   22  C   UNL     1     -11.412  10.336  70.243  1.00  0.00    -0.317 C  
HETATM   23  H   UNL     1     -12.333   8.898  72.356  1.00  0.00     0.000 H  
HETATM   24  S   UNL     1     -11.205   9.096  71.568  1.00  0.00    -0.381 SA 
ENDBRANCH   6  22
ENDBRANCH   4   6
ENDBRANCH   3   4
ENDBRANCH   2   3
TORSDOF 13
ENDMDL
MODEL      188
REMARK 921   NORMALIZED FREE ENERGY PREDICTED BY IDOCK:   -3.75 KCAL/MOL
REMARK 922        TOTAL FREE ENERGY PREDICTED BY IDOCK:   -7.19 KCAL/MOL
REMARK 923 INTER-LIGAND FREE ENERGY PREDICTED BY IDOCK:   -6.42 KCAL/MOL
REMARK 924 INTRA-LIGAND FREE ENERGY PREDICTED BY IDOCK:   -0.77 KCAL/MOL
REMARK 927      BINDING AFFINITY PREDICTED BY RF-SCORE:    0.00 PKD
ROOT
HETATM    1  C   UNL     1     -11.411   6.079  72.448  1.00  0.00    -0.357 C  
HETATM    2  C   UNL     1     -11.544   7.587  72.462  1.00  0.00    -0.303 C  
ENDROOT
BRANCH   2   3
HETATM    3  O   UNL     1     -12.163   8.043  71.249  1.00  0.00    -0.304 OA 
BRANCH   3   4
HETATM    4  C   UNL     1     -12.089   9.384  71.012  1.00  0.00    -0.298 C  
HETATM    5  O   UNL     1     -12.517  10.257  71.757  1.00  0.00    -0.397 OA 
BRANCH   4   6
HETATM    6  C   UNL     1     -11.375   9.629  69.670  1.00  0.00    -0.073 C  
BRANCH   6   7
HETATM    7  N   UNL     1     -12.067  10.714  68.922  1.00  0.00    -0.756 NA 
HETATM    8  H   UNL     1     -13.058  10.736  69.164  1.00  0.00     0.000 HD 
BRANCH   7   9
HETATM    9  C   UNL     1     -11.470  12.043  69.090  1.00  0.00    -0.300 C  
BRANCH   9  10
HETATM   10  C   UNL     1     -11.492  12.892  67.800  1.00  0.00    -0.323 C  
BRANCH  10  11
HETATM   11  N   UNL     1     -12.009  12.197  66.609  1.00  0.00    -0.629 NA 
HETATM   12  H   UNL     1     -13.001  11.986  66.722  1.00  0.00     0.000 HD 
BRANCH  11  13
HETATM   13  C   UNL     1     -11.772  12.921  65.325  1.00  0.00    -0.364 C  
BRANCH  13  14
HETATM   14  C   UNL     1     -11.226  14.352  65.526  1.00  0.00    -0.330 C  
HETATM   15  H   UNL     1     -11.453  16.874  64.565  1.00  0.00     0.000 H  
HETATM   16  S   UNL     1     -11.945  15.586  64.384  1.00  0.00    -0.021 SA 
ENDBRANCH  13  14
BRANCH  13  17
HETATM   17  C   UNL     1     -10.805  12.103  64.439  1.00  0.00    -0.328 C  
HETATM   18  O   UNL     1     -10.087  12.565  63.560  1.00  0.00    -0.393 OA 
BRANCH  17  19
HETATM   19  O   UNL     1     -10.857  10.783  64.784  1.00  0.00    -0.204 OA 
BRANCH  19  20
HETATM   20  C   UNL     1      -9.594  10.145  65.013  1.00  0.00    -0.299 C  
HETATM   21  C   UNL     1      -9.710   9.102  66.105  1.00  0.00    -0.357 C  
ENDBRANCH  19  20
ENDBRANCH  17  19
ENDBRANCH  13  17
ENDBRANCH  11  13
ENDBRANCH  10  11
ENDBRANCH   9  10
ENDBRANCH   7   9
ENDBRANCH   6   7
BRANCH   6  22
HETATM   22  C   UNL     1      -9.870   9.846  69.928  1.00  0.00    -0.245 C  
HETATM   23  H   UNL     1      -7.482   8.550  69.933  1.00  0.00     0.000 H  
HETATM   24  S   UNL     1      -8.838   8.355  69.701  1.00  0.00    -0.142 SA 
ENDBRANCH   6  22
ENDBRANCH   4   6
ENDBRANCH   3   4
ENDBRANCH   2   3
TORSDOF 13
ENDMDL
MODEL      189
REMARK 921   NORMALIZED FREE ENERGY PREDICTED BY IDOCK:   -3.75 KCAL/MOL
REMARK 922        TOTAL FREE ENERGY PREDICTED BY IDOCK:   -7.19 KCAL/MOL
REMARK 923 INTER-LIGAND FREE ENERGY PREDICTED BY IDOCK:   -6.47 KCAL/MOL
REMARK 924 INTRA-LIGAND FREE ENERGY PREDICTED BY IDOCK:   -0.72 KCAL/MOL
REMARK 927      BINDING AFFINITY PREDICTED BY RF-SCORE:    0.00 PKD
ROOT
HETATM    1  C   UNL     1     -13.187   8.697  71.937  1.00  0.00    -0.411 C  
HETATM    2  C   UNL     1     -11.701   8.637  72.220  1.00  0.00    -0.358 C  
ENDROOT
BRANCH   2   3
HETATM    3  O   UNL     1     -11.038   7.838  71.229  1.00  0.00    -0.240 OA 
BRANCH   3   4
HETATM    4  C   UNL     1     -11.235   6.491  71.323  1.00  0.00    -0.288 C  
HETATM    5  O   UNL     1     -11.471   5.883  72.359  1.00  0.00    -0.292 OA 
BRANCH   4   6
HETATM    6  C   UNL     1     -11.125   5.858  69.923  1.00  0.00    -0.347 C  
BRANCH   6   7
HETATM    7  N   UNL     1     -11.580   6.831  68.892  1.00  0.00    -0.530 NA 
HETATM    8  H   UNL     1     -11.905   7.691  69.335  1.00  0.00     0.000 HD 
BRANCH   7   9
HETATM    9  C   UNL     1     -10.583   7.132  67.861  1.00  0.00    -0.208 C  
BRANCH   9  10
HETATM   10  C   UNL     1     -10.130   8.609  67.858  1.00  0.00    -0.203 C  
BRANCH  10  11
HETATM   11  N   UNL     1     -10.451   9.354  66.630  1.00  0.00    -0.208 NA 
HETATM   12  H   UNL     1     -11.446   9.277  66.416  1.00  0.00     0.000 HD 
BRANCH  11  13
HETATM   13  C   UNL     1     -10.031  10.787  66.654  1.00  0.00    -0.206 C  
BRANCH  13  14
HETATM   14  C   UNL     1      -9.206  11.198  65.415  1.00  0.00    -0.205 C  
HETATM   15  H   UNL     1      -8.136  10.196  63.137  1.00  0.00     0.000 H  
HETATM   16  S   UNL     1      -8.880   9.826  64.252  1.00  0.00    -0.240 SA 
ENDBRANCH  13  14
BRANCH  13  17
HETATM   17  C   UNL     1     -11.277  11.691  66.786  1.00  0.00    -0.308 C  
HETATM   18  O   UNL     1     -12.117  11.616  67.676  1.00  0.00    -0.615 OA 
BRANCH  17  19
HETATM   19  O   UNL     1     -11.306  12.600  65.767  1.00  0.00    -0.305 OA 
BRANCH  19  20
HETATM   20  C   UNL     1     -12.530  12.669  65.023  1.00  0.00    -0.487 C  
HETATM   21  C   UNL     1     -12.282  12.389  63.556  1.00  0.00    -0.661 C  
ENDBRANCH  19  20
ENDBRANCH  17  19
ENDBRANCH  13  17
ENDBRANCH  11  13
ENDBRANCH  10  11
ENDBRANCH   9  10
ENDBRANCH   7   9
ENDBRANCH   6   7
BRANCH   6  22
HETATM   22  C   UNL     1      -9.702   5.294  69.732  1.00  0.00    -0.189 C  
HETATM   23  H   UNL     1      -8.215   3.049  70.091  1.00  0.00     0.000 H  
HETATM   24  S   UNL     1      -9.497   3.558  70.263  1.00  0.00    -0.168 SA 
ENDBRANCH   6  22
ENDBRANCH   4   6
ENDBRANCH   3   4
ENDBRANCH   2   3
TORSDOF 13
ENDMDL
MODEL      190
REMARK 921   NORMALIZED FREE ENERGY PREDICTED BY IDOCK:   -3.75 KCAL/MOL
REMARK 922        TOTAL FREE ENERGY PREDICTED BY IDOCK:   -7.19 KCAL/MOL
REMARK 923 INTER-LIGAND FREE ENERGY PREDICTED BY IDOCK:   -6.65 KCAL/MOL
REMARK 924 INTRA-LIGAND FREE ENERGY PREDICTED BY IDOCK:   -0.54 KCAL/MOL
REMARK 927      BINDING AFFINITY PREDICTED BY RF-SCORE:    0.00 PKD
ROOT
HETATM    1  C   UNL     1      -6.579  20.356  64.883  1.00  0.00    -0.327 C  
HETATM    2  C   UNL     1      -7.106  19.777  66.179  1.00  0.00    -0.269 C  
ENDROOT
BRANCH   2   3
HETATM    3  O   UNL     1      -8.193  18.876  65.915  1.00  0.00    -0.477 OA 
BRANCH   3   4
HETATM    4  C   UNL     1      -9.379  19.187  66.511  1.00  0.00    -0.348 C  
HETATM    5  O   UNL     1      -9.764  20.320  66.770  1.00  0.00    -0.411 OA 
BRANCH   4   6
HETATM    6  C   UNL     1     -10.165  17.892  66.796  1.00  0.00    -0.360 C  
BRANCH   6   7
HETATM    7  N   UNL     1      -9.646  16.790  65.942  1.00  0.00    -0.509 NA 
HETATM    8  H   UNL     1      -9.368  15.995  66.518  1.00  0.00     0.000 HD 
BRANCH   7   9
HETATM    9  C   UNL     1     -10.565  16.358  64.884  1.00  0.00    -0.090 C  
BRANCH   9  10
HETATM   10  C   UNL     1     -11.080  14.914  65.072  1.00  0.00    -0.414 C  
BRANCH  10  11
HETATM   11  N   UNL     1     -10.057  13.866  64.926  1.00  0.00    -0.606 NA 
HETATM   12  H   UNL     1      -9.216  14.115  65.447  1.00  0.00     0.000 HD 
BRANCH  11  13
HETATM   13  C   UNL     1     -10.520  12.498  65.303  1.00  0.00    -0.287 C  
BRANCH  13  14
HETATM   14  C   UNL     1     -12.058  12.357  65.303  1.00  0.00    -0.391 C  
HETATM   15  H   UNL     1     -14.155  11.883  63.654  1.00  0.00     0.000 H  
HETATM   16  S   UNL     1     -12.770  12.010  63.654  1.00  0.00    -0.288 SA 
ENDBRANCH  13  14
BRANCH  13  17
HETATM   17  C   UNL     1      -9.891  11.457  64.352  1.00  0.00    -0.261 C  
HETATM   18  O   UNL     1      -9.326  11.711  63.294  1.00  0.00    -0.255 OA 
BRANCH  17  19
HETATM   19  O   UNL     1     -10.045  10.201  64.865  1.00  0.00    -0.330 OA 
BRANCH  19  20
HETATM   20  C   UNL     1      -8.842   9.435  65.021  1.00  0.00    -0.196 C  
HETATM   21  C   UNL     1      -8.133   9.806  66.306  1.00  0.00    -0.113 C  
ENDBRANCH  19  20
ENDBRANCH  17  19
ENDBRANCH  13  17
ENDBRANCH  11  13
ENDBRANCH  10  11
ENDBRANCH   9  10
ENDBRANCH   7   9
ENDBRANCH   6   7
BRANCH   6  22
HETATM   22  C   UNL     1     -10.163  17.624  68.315  1.00  0.00    -0.374 C  
HETATM   23  H   UNL     1     -11.022  15.849  70.184  1.00  0.00     0.000 H  
HETATM   24  S   UNL     1     -11.023  16.092  68.816  1.00  0.00    -0.341 SA 
ENDBRANCH   6  22
ENDBRANCH   4   6
ENDBRANCH   3   4
ENDBRANCH   2   3
TORSDOF 13
ENDMDL
MODEL      191
REMARK 921   NORMALIZED FREE ENERGY PREDICTED BY IDOCK:   -3.74 KCAL/MOL
REMARK 922        TOTAL FREE ENERGY PREDICTED BY IDOCK:   -7.17 KCAL/MOL
REMARK 923 INTER-LIGAND FREE ENERGY PREDICTED BY IDOCK:   -6.47 KCAL/MOL
REMARK 924 INTRA-LIGAND FREE ENERGY PREDICTED BY IDOCK:   -0.70 KCAL/MOL
REMARK 927      BINDING AFFINITY PREDICTED BY RF-SCORE:    0.00 PKD
ROOT
HETATM    1  C   UNL     1     -10.421  19.551  66.049  1.00  0.00    -0.611 C  
HETATM    2  C   UNL     1      -9.980  20.415  67.212  1.00  0.00    -0.424 C  
ENDROOT
BRANCH   2   3
HETATM    3  O   UNL     1      -9.683  19.597  68.354  1.00  0.00    -0.361 OA 
BRANCH   3   4
HETATM    4  C   UNL     1      -8.376  19.234  68.500  1.00  0.00    -0.366 C  
HETATM    5  O   UNL     1      -7.414  19.971  68.320  1.00  0.00    -0.295 OA 
BRANCH   4   6
HETATM    6  C   UNL     1      -8.299  17.759  68.936  1.00  0.00    -0.131 C  
BRANCH   6   7
HETATM    7  N   UNL     1      -9.673  17.204  69.080  1.00  0.00    -0.246 NA 
HETATM    8  H   UNL     1     -10.299  17.622  68.390  1.00  0.00     0.000 HD 
BRANCH   7   9
HETATM    9  C   UNL     1      -9.746  15.741  69.016  1.00  0.00    -0.242 C  
BRANCH   9  10
HETATM   10  C   UNL     1     -11.105  15.217  68.502  1.00  0.00    -0.282 C  
BRANCH  10  11
HETATM   11  N   UNL     1     -11.060  14.563  67.184  1.00  0.00    -0.311 NA 
HETATM   12  H   UNL     1     -10.124  14.201  66.998  1.00  0.00     0.000 HD 
BRANCH  11  13
HETATM   13  C   UNL     1     -12.081  13.491  66.995  1.00  0.00    -0.354 C  
BRANCH  13  14
HETATM   14  C   UNL     1     -12.636  13.428  65.556  1.00  0.00    -0.465 C  
HETATM   15  H   UNL     1     -12.542  14.719  63.176  1.00  0.00     0.000 H  
HETATM   16  S   UNL     1     -12.042  14.775  64.472  1.00  0.00    -0.375 SA 
ENDBRANCH  13  14
BRANCH  13  17
HETATM   17  C   UNL     1     -11.479  12.125  67.393  1.00  0.00    -0.345 C  
HETATM   18  O   UNL     1     -12.059  11.253  68.031  1.00  0.00    -0.638 OA 
BRANCH  17  19
HETATM   19  O   UNL     1     -10.203  12.020  66.920  1.00  0.00    -0.206 OA 
BRANCH  19  20
HETATM   20  C   UNL     1      -9.936  10.889  66.081  1.00  0.00    -0.233 C  
HETATM   21  C   UNL     1      -8.478  10.857  65.671  1.00  0.00    -0.139 C  
ENDBRANCH  19  20
ENDBRANCH  17  19
ENDBRANCH  13  17
ENDBRANCH  11  13
ENDBRANCH  10  11
ENDBRANCH   9  10
ENDBRANCH   7   9
ENDBRANCH   6   7
BRANCH   6  22
HETATM   22  C   UNL     1      -7.363  16.995  67.977  1.00  0.00    -0.180 C  
HETATM   23  H   UNL     1      -7.081  16.269  65.374  1.00  0.00     0.000 H  
HETATM   24  S   UNL     1      -7.924  16.957  66.239  1.00  0.00    -0.265 SA 
ENDBRANCH   6  22
ENDBRANCH   4   6
ENDBRANCH   3   4
ENDBRANCH   2   3
TORSDOF 13
ENDMDL
MODEL      192
REMARK 921   NORMALIZED FREE ENERGY PREDICTED BY IDOCK:   -3.74 KCAL/MOL
REMARK 922        TOTAL FREE ENERGY PREDICTED BY IDOCK:   -7.17 KCAL/MOL
REMARK 923 INTER-LIGAND FREE ENERGY PREDICTED BY IDOCK:   -6.37 KCAL/MOL
REMARK 924 INTRA-LIGAND FREE ENERGY PREDICTED BY IDOCK:   -0.80 KCAL/MOL
REMARK 927      BINDING AFFINITY PREDICTED BY RF-SCORE:    0.00 PKD
ROOT
HETATM    1  C   UNL     1     -10.731  19.500  65.996  1.00  0.00    -0.529 C  
HETATM    2  C   UNL     1      -9.907  20.309  66.974  1.00  0.00    -0.467 C  
ENDROOT
BRANCH   2   3
HETATM    3  O   UNL     1      -8.518  19.966  66.858  1.00  0.00    -0.301 OA 
BRANCH   3   4
HETATM    4  C   UNL     1      -8.076  18.987  67.698  1.00  0.00    -0.269 C  
HETATM    5  O   UNL     1      -8.419  18.850  68.866  1.00  0.00    -0.318 OA 
BRANCH   4   6
HETATM    6  C   UNL     1      -7.085  18.076  66.948  1.00  0.00    -0.189 C  
BRANCH   6   7
HETATM    7  N   UNL     1      -7.804  17.315  65.890  1.00  0.00    -0.503 NA 
HETATM    8  H   UNL     1      -7.163  17.062  65.137  1.00  0.00     0.000 HD 
BRANCH   7   9
HETATM    9  C   UNL     1      -8.518  16.129  66.374  1.00  0.00    -0.334 C  
BRANCH   9  10
HETATM   10  C   UNL     1      -9.878  15.907  65.677  1.00  0.00    -0.302 C  
BRANCH  10  11
HETATM   11  N   UNL     1     -10.842  15.097  66.442  1.00  0.00    -0.324 NA 
HETATM   12  H   UNL     1     -11.752  15.558  66.469  1.00  0.00     0.000 HD 
BRANCH  11  13
HETATM   13  C   UNL     1     -10.982  13.692  65.959  1.00  0.00    -0.286 C  
BRANCH  13  14
HETATM   14  C   UNL     1     -10.713  13.540  64.445  1.00  0.00    -0.388 C  
HETATM   15  H   UNL     1     -11.816  12.563  62.172  1.00  0.00     0.000 H  
HETATM   16  S   UNL     1     -12.058  12.700  63.534  1.00  0.00    -0.544 SA 
ENDBRANCH  13  14
BRANCH  13  17
HETATM   17  C   UNL     1     -10.036  12.770  66.761  1.00  0.00    -0.236 C  
HETATM   18  O   UNL     1      -9.289  11.927  66.279  1.00  0.00    -0.221 OA 
BRANCH  17  19
HETATM   19  O   UNL     1     -10.143  13.038  68.096  1.00  0.00    -0.225 OA 
BRANCH  19  20
HETATM   20  C   UNL     1     -10.452  11.919  68.937  1.00  0.00    -0.136 C  
HETATM   21  C   UNL     1     -11.685  11.195  68.437  1.00  0.00    -0.349 C  
ENDBRANCH  19  20
ENDBRANCH  17  19
ENDBRANCH  13  17
ENDBRANCH  11  13
ENDBRANCH  10  11
ENDBRANCH   9  10
ENDBRANCH   7   9
ENDBRANCH   6   7
BRANCH   6  22
HETATM   22  C   UNL     1      -5.883  18.917  66.473  1.00  0.00    -0.161 C  
HETATM   23  H   UNL     1      -4.688  19.883  64.232  1.00  0.00     0.000 H  
HETATM   24  S   UNL     1      -5.771  19.125  64.661  1.00  0.00    -0.288 SA 
ENDBRANCH   6  22
ENDBRANCH   4   6
ENDBRANCH   3   4
ENDBRANCH   2   3
TORSDOF 13
ENDMDL
MODEL      193
REMARK 921   NORMALIZED FREE ENERGY PREDICTED BY IDOCK:   -3.72 KCAL/MOL
REMARK 922        TOTAL FREE ENERGY PREDICTED BY IDOCK:   -7.14 KCAL/MOL
REMARK 923 INTER-LIGAND FREE ENERGY PREDICTED BY IDOCK:   -6.54 KCAL/MOL
REMARK 924 INTRA-LIGAND FREE ENERGY PREDICTED BY IDOCK:   -0.60 KCAL/MOL
REMARK 927      BINDING AFFINITY PREDICTED BY RF-SCORE:    0.00 PKD
ROOT
HETATM    1  C   UNL     1     -12.393  11.779  63.379  1.00  0.00    -0.476 C  
HETATM    2  C   UNL     1     -12.030  13.244  63.488  1.00  0.00    -0.474 C  
ENDROOT
BRANCH   2   3
HETATM    3  O   UNL     1     -11.453  13.519  64.774  1.00  0.00    -0.323 OA 
BRANCH   3   4
HETATM    4  C   UNL     1     -12.334  13.839  65.764  1.00  0.00    -0.486 C  
HETATM    5  O   UNL     1     -13.504  14.158  65.592  1.00  0.00    -0.576 OA 
BRANCH   4   6
HETATM    6  C   UNL     1     -11.632  13.727  67.131  1.00  0.00    -0.364 C  
BRANCH   6   7
HETATM    7  N   UNL     1     -12.527  14.247  68.201  1.00  0.00    -0.500 NA 
HETATM    8  H   UNL     1     -12.987  13.476  68.686  1.00  0.00     0.000 HD 
BRANCH   7   9
HETATM    9  C   UNL     1     -11.870  15.138  69.162  1.00  0.00    -0.313 C  
BRANCH   9  10
HETATM   10  C   UNL     1     -10.565  15.766  68.621  1.00  0.00    -0.250 C  
BRANCH  10  11
HETATM   11  N   UNL     1     -10.732  17.073  67.965  1.00  0.00    -0.369 NA 
HETATM   12  H   UNL     1     -10.938  17.795  68.655  1.00  0.00     0.000 HD 
BRANCH  11  13
HETATM   13  C   UNL     1      -9.578  17.482  67.110  1.00  0.00    -0.262 C  
BRANCH  13  14
HETATM   14  C   UNL     1      -9.495  19.009  66.892  1.00  0.00    -0.316 C  
HETATM   15  H   UNL     1     -10.282  21.363  67.976  1.00  0.00     0.000 H  
HETATM   16  S   UNL     1     -10.357  19.988  68.173  1.00  0.00    -0.279 SA 
ENDBRANCH  13  14
BRANCH  13  17
HETATM   17  C   UNL     1      -8.263  16.961  67.731  1.00  0.00    -0.189 C  
HETATM   18  O   UNL     1      -7.676  15.938  67.395  1.00  0.00    -0.144 OA 
BRANCH  17  19
HETATM   19  O   UNL     1      -7.836  17.815  68.707  1.00  0.00    -0.287 OA 
BRANCH  19  20
HETATM   20  C   UNL     1      -6.418  18.009  68.794  1.00  0.00    -0.228 C  
HETATM   21  C   UNL     1      -6.011  19.301  68.117  1.00  0.00    -0.232 C  
ENDBRANCH  19  20
ENDBRANCH  17  19
ENDBRANCH  13  17
ENDBRANCH  11  13
ENDBRANCH  10  11
ENDBRANCH   9  10
ENDBRANCH   7   9
ENDBRANCH   6   7
BRANCH   6  22
HETATM   22  C   UNL     1     -11.124  12.283  67.323  1.00  0.00    -0.275 C  
HETATM   23  H   UNL     1      -8.918  10.855  68.009  1.00  0.00     0.000 H  
HETATM   24  S   UNL     1      -9.376  12.156  67.836  1.00  0.00    -0.198 SA 
ENDBRANCH   6  22
ENDBRANCH   4   6
ENDBRANCH   3   4
ENDBRANCH   2   3
TORSDOF 13
ENDMDL
MODEL      194
REMARK 921   NORMALIZED FREE ENERGY PREDICTED BY IDOCK:   -3.71 KCAL/MOL
REMARK 922        TOTAL FREE ENERGY PREDICTED BY IDOCK:   -7.13 KCAL/MOL
REMARK 923 INTER-LIGAND FREE ENERGY PREDICTED BY IDOCK:   -6.43 KCAL/MOL
REMARK 924 INTRA-LIGAND FREE ENERGY PREDICTED BY IDOCK:   -0.69 KCAL/MOL
REMARK 927      BINDING AFFINITY PREDICTED BY RF-SCORE:    0.00 PKD
ROOT
HETATM    1  C   UNL     1     -12.174  15.908  71.969  1.00  0.00    -0.570 C  
HETATM    2  C   UNL     1     -12.399  14.488  71.495  1.00  0.00    -0.361 C  
ENDROOT
BRANCH   2   3
HETATM    3  O   UNL     1     -12.518  14.454  70.065  1.00  0.00    -0.335 OA 
BRANCH   3   4
HETATM    4  C   UNL     1     -11.908  13.405  69.443  1.00  0.00    -0.335 C  
HETATM    5  O   UNL     1     -11.822  12.270  69.894  1.00  0.00    -0.321 OA 
BRANCH   4   6
HETATM    6  C   UNL     1     -11.354  13.867  68.082  1.00  0.00    -0.295 C  
BRANCH   6   7
HETATM    7  N   UNL     1      -9.866  13.841  68.109  1.00  0.00    -0.232 NA 
HETATM    8  H   UNL     1      -9.529  12.879  68.164  1.00  0.00     0.000 HD 
BRANCH   7   9
HETATM    9  C   UNL     1      -9.227  14.545  66.992  1.00  0.00    -0.240 C  
BRANCH   9  10
HETATM   10  C   UNL     1      -9.091  16.066  67.225  1.00  0.00    -0.204 C  
BRANCH  10  11
HETATM   11  N   UNL     1      -7.744  16.611  66.986  1.00  0.00    -0.179 NA 
HETATM   12  H   UNL     1      -7.483  16.499  66.006  1.00  0.00     0.000 HD 
BRANCH  11  13
HETATM   13  C   UNL     1      -7.573  18.032  67.413  1.00  0.00    -0.204 C  
BRANCH  13  14
HETATM   14  C   UNL     1      -6.606  18.195  68.606  1.00  0.00    -0.233 C  
HETATM   15  H   UNL     1      -5.638  20.051  70.325  1.00  0.00     0.000 H  
HETATM   16  S   UNL     1      -6.508  19.904  69.251  1.00  0.00    -0.343 SA 
ENDBRANCH  13  14
BRANCH  13  17
HETATM   17  C   UNL     1      -7.087  18.878  66.215  1.00  0.00    -0.243 C  
HETATM   18  O   UNL     1      -5.923  18.982  65.846  1.00  0.00    -0.161 OA 
BRANCH  17  19
HETATM   19  O   UNL     1      -8.148  19.492  65.614  1.00  0.00    -0.409 OA 
BRANCH  19  20
HETATM   20  C   UNL     1      -9.213  19.899  66.484  1.00  0.00    -0.389 C  
HETATM   21  C   UNL     1     -10.558  19.519  65.900  1.00  0.00    -0.572 C  
ENDBRANCH  19  20
ENDBRANCH  17  19
ENDBRANCH  13  17
ENDBRANCH  11  13
ENDBRANCH  10  11
ENDBRANCH   9  10
ENDBRANCH   7   9
ENDBRANCH   6   7
BRANCH   6  22
HETATM   22  C   UNL     1     -12.021  13.047  66.958  1.00  0.00    -0.347 C  
HETATM   23  H   UNL     1     -13.257  13.305  64.553  1.00  0.00     0.000 H  
HETATM   24  S   UNL     1     -12.656  14.044  65.566  1.00  0.00    -0.460 SA 
ENDBRANCH   6  22
ENDBRANCH   4   6
ENDBRANCH   3   4
ENDBRANCH   2   3
TORSDOF 13
ENDMDL
MODEL      195
REMARK 921   NORMALIZED FREE ENERGY PREDICTED BY IDOCK:   -3.71 KCAL/MOL
REMARK 922        TOTAL FREE ENERGY PREDICTED BY IDOCK:   -7.12 KCAL/MOL
REMARK 923 INTER-LIGAND FREE ENERGY PREDICTED BY IDOCK:   -6.38 KCAL/MOL
REMARK 924 INTRA-LIGAND FREE ENERGY PREDICTED BY IDOCK:   -0.74 KCAL/MOL
REMARK 927      BINDING AFFINITY PREDICTED BY RF-SCORE:    0.00 PKD
ROOT
HETATM    1  C   UNL     1     -10.569   5.466  72.995  1.00  0.00    -0.274 C  
HETATM    2  C   UNL     1     -10.385   6.838  73.609  1.00  0.00    -0.344 C  
ENDROOT
BRANCH   2   3
HETATM    3  O   UNL     1     -11.126   7.818  72.866  1.00  0.00    -0.368 OA 
BRANCH   3   4
HETATM    4  C   UNL     1     -10.445   8.443  71.863  1.00  0.00    -0.296 C  
HETATM    5  O   UNL     1      -9.311   8.897  71.955  1.00  0.00    -0.324 OA 
BRANCH   4   6
HETATM    6  C   UNL     1     -11.319   8.478  70.595  1.00  0.00    -0.241 C  
BRANCH   6   7
HETATM    7  N   UNL     1     -11.814   9.862  70.363  1.00  0.00    -0.376 NA 
HETATM    8  H   UNL     1     -11.524  10.476  71.125  1.00  0.00     0.000 HD 
BRANCH   7   9
HETATM    9  C   UNL     1     -11.427  10.435  69.070  1.00  0.00    -0.193 C  
BRANCH   9  10
HETATM   10  C   UNL     1     -11.037  11.928  69.153  1.00  0.00    -0.228 C  
BRANCH  10  11
HETATM   11  N   UNL     1     -11.998  12.855  68.533  1.00  0.00    -0.289 NA 
HETATM   12  H   UNL     1     -12.366  13.505  69.229  1.00  0.00     0.000 HD 
BRANCH  11  13
HETATM   13  C   UNL     1     -11.461  13.599  67.356  1.00  0.00    -0.336 C  
BRANCH  13  14
HETATM   14  C   UNL     1      -9.929  13.471  67.204  1.00  0.00    -0.246 C  
HETATM   15  H   UNL     1      -7.619  14.793  67.710  1.00  0.00     0.000 H  
HETATM   16  S   UNL     1      -8.998  14.908  67.847  1.00  0.00    -0.181 SA 
ENDBRANCH  13  14
BRANCH  13  17
HETATM   17  C   UNL     1     -12.164  13.114  66.070  1.00  0.00    -0.414 C  
HETATM   18  O   UNL     1     -12.066  11.990  65.588  1.00  0.00    -0.508 OA 
BRANCH  17  19
HETATM   19  O   UNL     1     -12.926  14.118  65.545  1.00  0.00    -0.657 OA 
BRANCH  19  20
HETATM   20  C   UNL     1     -12.470  14.667  64.301  1.00  0.00    -0.239 C  
HETATM   21  C   UNL     1     -11.521  15.822  64.540  1.00  0.00    -0.292 C  
ENDBRANCH  19  20
ENDBRANCH  17  19
ENDBRANCH  13  17
ENDBRANCH  11  13
ENDBRANCH  10  11
ENDBRANCH   9  10
ENDBRANCH   7   9
ENDBRANCH   6   7
BRANCH   6  22
HETATM   22  C   UNL     1     -10.541   7.837  69.426  1.00  0.00    -0.208 C  
HETATM   23  H   UNL     1     -10.087   5.458  68.196  1.00  0.00     0.000 H  
HETATM   24  S   UNL     1     -10.787   6.036  69.249  1.00  0.00    -0.362 SA 
ENDBRANCH   6  22
ENDBRANCH   4   6
ENDBRANCH   3   4
ENDBRANCH   2   3
TORSDOF 13
ENDMDL
MODEL      196
REMARK 921   NORMALIZED FREE ENERGY PREDICTED BY IDOCK:   -3.71 KCAL/MOL
REMARK 922        TOTAL FREE ENERGY PREDICTED BY IDOCK:   -7.12 KCAL/MOL
REMARK 923 INTER-LIGAND FREE ENERGY PREDICTED BY IDOCK:   -6.41 KCAL/MOL
REMARK 924 INTRA-LIGAND FREE ENERGY PREDICTED BY IDOCK:   -0.71 KCAL/MOL
REMARK 927      BINDING AFFINITY PREDICTED BY RF-SCORE:    0.00 PKD
ROOT
HETATM    1  C   UNL     1      -8.904  16.986  66.817  1.00  0.00    -0.267 C  
HETATM    2  C   UNL     1     -10.130  16.996  65.930  1.00  0.00    -0.263 C  
ENDROOT
BRANCH   2   3
HETATM    3  O   UNL     1     -10.072  15.913  64.989  1.00  0.00    -0.444 OA 
BRANCH   3   4
HETATM    4  C   UNL     1     -11.264  15.530  64.450  1.00  0.00    -0.219 C  
HETATM    5  O   UNL     1     -12.030  16.262  63.836  1.00  0.00    -1.003 OA 
BRANCH   4   6
HETATM    6  C   UNL     1     -11.493  14.031  64.724  1.00  0.00    -0.369 C  
BRANCH   6   7
HETATM    7  N   UNL     1     -10.208  13.388  65.110  1.00  0.00    -0.436 NA 
HETATM    8  H   UNL     1      -9.797  13.867  65.912  1.00  0.00     0.000 HD 
BRANCH   7   9
HETATM    9  C   UNL     1     -10.304  11.948  65.369  1.00  0.00    -0.267 C  
BRANCH   9  10
HETATM   10  C   UNL     1      -9.922  11.559  66.815  1.00  0.00    -0.208 C  
BRANCH  10  11
HETATM   11  N   UNL     1     -10.963  10.829  67.556  1.00  0.00    -0.294 NA 
HETATM   12  H   UNL     1     -11.006   9.857  67.247  1.00  0.00     0.000 HD 
BRANCH  11  13
HETATM   13  C   UNL     1     -10.823  10.899  69.041  1.00  0.00    -0.230 C  
BRANCH  13  14
HETATM   14  C   UNL     1     -12.174  11.058  69.772  1.00  0.00    -0.318 C  
HETATM   15  H   UNL     1     -13.576  12.796  71.306  1.00  0.00     0.000 H  
HETATM   16  S   UNL     1     -12.360  12.653  70.647  1.00  0.00    -0.183 SA 
ENDBRANCH  13  14
BRANCH  13  17
HETATM   17  C   UNL     1     -10.087   9.640  69.553  1.00  0.00    -0.209 C  
HETATM   18  O   UNL     1      -9.038   9.640  70.186  1.00  0.00    -0.222 OA 
BRANCH  17  19
HETATM   19  O   UNL     1     -10.783   8.518  69.206  1.00  0.00    -0.213 OA 
BRANCH  19  20
HETATM   20  C   UNL     1     -10.926   7.526  70.231  1.00  0.00    -0.250 C  
HETATM   21  C   UNL     1     -11.091   6.148  69.626  1.00  0.00    -0.489 C  
ENDBRANCH  19  20
ENDBRANCH  17  19
ENDBRANCH  13  17
ENDBRANCH  11  13
ENDBRANCH  10  11
ENDBRANCH   9  10
ENDBRANCH   7   9
ENDBRANCH   6   7
BRANCH   6  22
HETATM   22  C   UNL     1     -12.653  13.871  65.727  1.00  0.00    -0.494 C  
HETATM   23  H   UNL     1     -13.317  14.286  68.329  1.00  0.00     0.000 H  
HETATM   24  S   UNL     1     -12.272  14.430  67.424  1.00  0.00    -0.031 SA 
ENDBRANCH   6  22
ENDBRANCH   4   6
ENDBRANCH   3   4
ENDBRANCH   2   3
TORSDOF 13
ENDMDL
MODEL      197
REMARK 921   NORMALIZED FREE ENERGY PREDICTED BY IDOCK:   -3.70 KCAL/MOL
REMARK 922        TOTAL FREE ENERGY PREDICTED BY IDOCK:   -7.10 KCAL/MOL
REMARK 923 INTER-LIGAND FREE ENERGY PREDICTED BY IDOCK:   -6.36 KCAL/MOL
REMARK 924 INTRA-LIGAND FREE ENERGY PREDICTED BY IDOCK:   -0.74 KCAL/MOL
REMARK 927      BINDING AFFINITY PREDICTED BY RF-SCORE:    0.00 PKD
ROOT
HETATM    1  C   UNL     1     -10.685  10.512  68.979  1.00  0.00    -0.259 C  
HETATM    2  C   UNL     1     -11.561  10.744  67.767  1.00  0.00    -0.069 C  
ENDROOT
BRANCH   2   3
HETATM    3  O   UNL     1     -11.702  12.150  67.517  1.00  0.00    -0.415 OA 
BRANCH   3   4
HETATM    4  C   UNL     1     -11.616  12.533  66.211  1.00  0.00    -0.394 C  
HETATM    5  O   UNL     1     -12.435  12.264  65.341  1.00  0.00    -0.596 OA 
BRANCH   4   6
HETATM    6  C   UNL     1     -10.334  13.362  66.002  1.00  0.00    -0.297 C  
BRANCH   6   7
HETATM    7  N   UNL     1      -9.143  12.472  66.060  1.00  0.00    -0.433 NA 
HETATM    8  H   UNL     1      -8.625  12.514  65.182  1.00  0.00     0.000 HD 
BRANCH   7   9
HETATM    9  C   UNL     1      -8.250  12.728  67.195  1.00  0.00    -0.146 C  
BRANCH   9  10
HETATM   10  C   UNL     1      -8.271  14.197  67.671  1.00  0.00    -0.186 C  
BRANCH  10  11
HETATM   11  N   UNL     1      -9.009  14.432  68.923  1.00  0.00    -0.342 NA 
HETATM   12  H   UNL     1      -8.366  14.471  69.714  1.00  0.00     0.000 HD 
BRANCH  11  13
HETATM   13  C   UNL     1      -9.884  15.641  68.902  1.00  0.00    -0.219 C  
BRANCH  13  14
HETATM   14  C   UNL     1     -10.725  15.806  70.187  1.00  0.00    -0.344 C  
HETATM   15  H   UNL     1     -12.988  14.917  71.381  1.00  0.00     0.000 H  
HETATM   16  S   UNL     1     -12.231  14.769  70.225  1.00  0.00    -0.355 SA 
ENDBRANCH  13  14
BRANCH  13  17
HETATM   17  C   UNL     1      -9.022  16.902  68.667  1.00  0.00    -0.266 C  
HETATM   18  O   UNL     1      -7.897  17.086  69.117  1.00  0.00    -0.205 OA 
BRANCH  17  19
HETATM   19  O   UNL     1      -9.692  17.785  67.870  1.00  0.00    -0.276 OA 
BRANCH  19  20
HETATM   20  C   UNL     1      -8.956  18.947  67.465  1.00  0.00    -0.284 C  
HETATM   21  C   UNL     1      -9.811  20.191  67.582  1.00  0.00    -0.567 C  
ENDBRANCH  19  20
ENDBRANCH  17  19
ENDBRANCH  13  17
ENDBRANCH  11  13
ENDBRANCH  10  11
ENDBRANCH   9  10
ENDBRANCH   7   9
ENDBRANCH   6   7
BRANCH   6  22
HETATM   22  C   UNL     1     -10.481  14.207  64.719  1.00  0.00    -0.408 C  
HETATM   23  H   UNL     1     -11.282  16.646  63.832  1.00  0.00     0.000 H  
HETATM   24  S   UNL     1     -11.150  15.885  64.988  1.00  0.00    -0.298 SA 
ENDBRANCH   6  22
ENDBRANCH   4   6
ENDBRANCH   3   4
ENDBRANCH   2   3
TORSDOF 13
ENDMDL
MODEL      198
REMARK 921   NORMALIZED FREE ENERGY PREDICTED BY IDOCK:   -3.70 KCAL/MOL
REMARK 922        TOTAL FREE ENERGY PREDICTED BY IDOCK:   -7.10 KCAL/MOL
REMARK 923 INTER-LIGAND FREE ENERGY PREDICTED BY IDOCK:   -6.43 KCAL/MOL
REMARK 924 INTRA-LIGAND FREE ENERGY PREDICTED BY IDOCK:   -0.67 KCAL/MOL
REMARK 927      BINDING AFFINITY PREDICTED BY RF-SCORE:    0.00 PKD
ROOT
HETATM    1  C   UNL     1      -7.459   6.113  70.242  1.00  0.00    -0.090 C  
HETATM    2  C   UNL     1      -8.944   5.988  69.974  1.00  0.00    -0.146 C  
ENDROOT
BRANCH   2   3
HETATM    3  O   UNL     1      -9.570   7.278  70.032  1.00  0.00    -0.167 OA 
BRANCH   3   4
HETATM    4  C   UNL     1     -10.902   7.279  70.326  1.00  0.00    -0.245 C  
HETATM    5  O   UNL     1     -11.660   6.330  70.169  1.00  0.00    -0.413 OA 
BRANCH   4   6
HETATM    6  C   UNL     1     -11.301   8.654  70.896  1.00  0.00    -0.272 C  
BRANCH   6   7
HETATM    7  N   UNL     1     -11.989   9.453  69.846  1.00  0.00    -0.365 NA 
HETATM    8  H   UNL     1     -12.782   9.956  70.245  1.00  0.00     0.000 HD 
BRANCH   7   9
HETATM    9  C   UNL     1     -11.114  10.375  69.115  1.00  0.00    -0.246 C  
BRANCH   9  10
HETATM   10  C   UNL     1     -11.737  11.773  68.903  1.00  0.00    -0.323 C  
BRANCH  10  11
HETATM   11  N   UNL     1     -12.023  12.118  67.501  1.00  0.00    -0.553 NA 
HETATM   12  H   UNL     1     -13.019  12.302  67.375  1.00  0.00     0.000 HD 
BRANCH  11  13
HETATM   13  C   UNL     1     -11.211  13.254  66.971  1.00  0.00    -0.292 C  
BRANCH  13  14
HETATM   14  C   UNL     1     -10.521  14.077  68.081  1.00  0.00    -0.243 C  
HETATM   15  H   UNL     1     -10.744  16.393  69.468  1.00  0.00     0.000 H  
HETATM   16  S   UNL     1     -11.365  15.652  68.470  1.00  0.00    -0.371 SA 
ENDBRANCH  13  14
BRANCH  13  17
HETATM   17  C   UNL     1     -10.159  12.719  65.975  1.00  0.00    -0.268 C  
HETATM   18  O   UNL     1      -9.167  12.063  66.274  1.00  0.00    -0.225 OA 
BRANCH  17  19
HETATM   19  O   UNL     1     -10.498  13.074  64.701  1.00  0.00    -0.343 OA 
BRANCH  19  20
HETATM   20  C   UNL     1     -10.730  11.992  63.789  1.00  0.00    -0.423 C  
HETATM   21  C   UNL     1     -12.206  11.862  63.475  1.00  0.00    -0.591 C  
ENDBRANCH  19  20
ENDBRANCH  17  19
ENDBRANCH  13  17
ENDBRANCH  11  13
ENDBRANCH  10  11
ENDBRANCH   9  10
ENDBRANCH   7   9
ENDBRANCH   6   7
BRANCH   6  22
HETATM   22  C   UNL     1     -12.086   8.450  72.208  1.00  0.00    -0.392 C  
HETATM   23  H   UNL     1     -14.468   8.995  73.394  1.00  0.00     0.000 H  
HETATM   24  S   UNL     1     -13.761   9.179  72.212  1.00  0.00    -0.462 SA 
ENDBRANCH   6  22
ENDBRANCH   4   6
ENDBRANCH   3   4
ENDBRANCH   2   3
TORSDOF 13
ENDMDL
MODEL      199
REMARK 921   NORMALIZED FREE ENERGY PREDICTED BY IDOCK:   -3.69 KCAL/MOL
REMARK 922        TOTAL FREE ENERGY PREDICTED BY IDOCK:   -7.10 KCAL/MOL
REMARK 923 INTER-LIGAND FREE ENERGY PREDICTED BY IDOCK:   -6.37 KCAL/MOL
REMARK 924 INTRA-LIGAND FREE ENERGY PREDICTED BY IDOCK:   -0.73 KCAL/MOL
REMARK 927      BINDING AFFINITY PREDICTED BY RF-SCORE:    0.00 PKD
ROOT
HETATM    1  C   UNL     1     -13.166  10.784  71.864  1.00  0.00    -0.524 C  
HETATM    2  C   UNL     1     -13.496   9.354  72.235  1.00  0.00    -0.465 C  
ENDROOT
BRANCH   2   3
HETATM    3  O   UNL     1     -12.835   8.444  71.343  1.00  0.00    -0.303 OA 
BRANCH   3   4
HETATM    4  C   UNL     1     -11.478   8.376  71.463  1.00  0.00    -0.278 C  
HETATM    5  O   UNL     1     -10.867   8.254  72.517  1.00  0.00    -0.333 OA 
BRANCH   4   6
HETATM    6  C   UNL     1     -10.834   8.466  70.066  1.00  0.00    -0.225 C  
BRANCH   6   7
HETATM    7  N   UNL     1     -10.489   9.881  69.761  1.00  0.00    -0.242 NA 
HETATM    8  H   UNL     1      -9.510   9.956  69.483  1.00  0.00     0.000 HD 
BRANCH   7   9
HETATM    9  C   UNL     1     -11.355  10.515  68.761  1.00  0.00    -0.249 C  
BRANCH   9  10
HETATM   10  C   UNL     1     -10.979  11.984  68.468  1.00  0.00    -0.240 C  
BRANCH  10  11
HETATM   11  N   UNL     1     -10.942  12.862  69.650  1.00  0.00    -0.443 NA 
HETATM   12  H   UNL     1     -10.055  13.365  69.692  1.00  0.00     0.000 HD 
BRANCH  11  13
HETATM   13  C   UNL     1     -12.088  13.814  69.743  1.00  0.00    -0.340 C  
BRANCH  13  14
HETATM   14  C   UNL     1     -12.316  14.350  71.174  1.00  0.00    -0.358 C  
HETATM   15  H   UNL     1     -14.245  15.348  72.793  1.00  0.00     0.000 H  
HETATM   16  S   UNL     1     -14.039  14.864  71.506  1.00  0.00    -0.521 SA 
ENDBRANCH  13  14
BRANCH  13  17
HETATM   17  C   UNL     1     -11.869  14.988  68.764  1.00  0.00    -0.301 C  
HETATM   18  O   UNL     1     -12.058  14.948  67.554  1.00  0.00    -0.246 OA 
BRANCH  17  19
HETATM   19  O   UNL     1     -11.440  16.092  69.445  1.00  0.00    -0.333 OA 
BRANCH  19  20
HETATM   20  C   UNL     1     -10.164  16.614  69.054  1.00  0.00    -0.301 C  
HETATM   21  C   UNL     1     -10.318  17.963  68.383  1.00  0.00    -0.380 C  
ENDBRANCH  19  20
ENDBRANCH  17  19
ENDBRANCH  13  17
ENDBRANCH  11  13
ENDBRANCH  10  11
ENDBRANCH   9  10
ENDBRANCH   7   9
ENDBRANCH   6   7
BRANCH   6  22
HETATM   22  C   UNL     1      -9.671   7.457  69.978  1.00  0.00    -0.175 C  
HETATM   23  H   UNL     1      -6.959   7.295  70.005  1.00  0.00     0.000 H  
HETATM   24  S   UNL     1      -8.008   8.204  70.084  1.00  0.00    -0.110 SA 
ENDBRANCH   6  22
ENDBRANCH   4   6
ENDBRANCH   3   4
ENDBRANCH   2   3
TORSDOF 13
ENDMDL
MODEL      200
REMARK 921   NORMALIZED FREE ENERGY PREDICTED BY IDOCK:   -3.69 KCAL/MOL
REMARK 922        TOTAL FREE ENERGY PREDICTED BY IDOCK:   -7.10 KCAL/MOL
REMARK 923 INTER-LIGAND FREE ENERGY PREDICTED BY IDOCK:   -6.50 KCAL/MOL
REMARK 924 INTRA-LIGAND FREE ENERGY PREDICTED BY IDOCK:   -0.60 KCAL/MOL
REMARK 927      BINDING AFFINITY PREDICTED BY RF-SCORE:    0.00 PKD
ROOT
HETATM    1  C   UNL     1      -8.158   6.254  70.995  1.00  0.00    -0.121 C  
HETATM    2  C   UNL     1      -8.806   7.203  70.009  1.00  0.00    -0.142 C  
ENDROOT
BRANCH   2   3
HETATM    3  O   UNL     1      -9.637   8.147  70.701  1.00  0.00    -0.164 OA 
BRANCH   3   4
HETATM    4  C   UNL     1     -10.982   7.944  70.594  1.00  0.00    -0.245 C  
HETATM    5  O   UNL     1     -11.509   6.958  70.094  1.00  0.00    -0.312 OA 
BRANCH   4   6
HETATM    6  C   UNL     1     -11.732   9.141  71.209  1.00  0.00    -0.326 C  
BRANCH   6   7
HETATM    7  N   UNL     1     -12.350   9.957  70.128  1.00  0.00    -0.490 NA 
HETATM    8  H   UNL     1     -13.299  10.229  70.387  1.00  0.00     0.000 HD 
BRANCH   7   9
HETATM    9  C   UNL     1     -11.569  11.133  69.735  1.00  0.00    -0.334 C  
BRANCH   9  10
HETATM   10  C   UNL     1     -11.301  11.210  68.215  1.00  0.00    -0.297 C  
BRANCH  10  11
HETATM   11  N   UNL     1     -12.115  12.201  67.492  1.00  0.00    -0.499 NA 
HETATM   12  H   UNL     1     -12.882  12.530  68.079  1.00  0.00     0.000 HD 
BRANCH  11  13
HETATM   13  C   UNL     1     -11.340  13.356  66.952  1.00  0.00    -0.323 C  
BRANCH  13  14
HETATM   14  C   UNL     1     -11.723  13.721  65.501  1.00  0.00    -0.346 C  
HETATM   15  H   UNL     1     -12.148  12.613  63.065  1.00  0.00     0.000 H  
HETATM   16  S   UNL     1     -11.802  12.285  64.372  1.00  0.00    -0.388 SA 
ENDBRANCH  13  14
BRANCH  13  17
HETATM   17  C   UNL     1     -11.524  14.582  67.874  1.00  0.00    -0.325 C  
HETATM   18  O   UNL     1     -12.003  14.556  69.002  1.00  0.00    -0.315 OA 
BRANCH  17  19
HETATM   19  O   UNL     1     -11.065  15.708  67.253  1.00  0.00    -0.309 OA 
BRANCH  19  20
HETATM   20  C   UNL     1     -10.911  16.865  68.086  1.00  0.00    -0.351 C  
HETATM   21  C   UNL     1     -10.094  17.928  67.382  1.00  0.00    -0.341 C  
ENDBRANCH  19  20
ENDBRANCH  17  19
ENDBRANCH  13  17
ENDBRANCH  11  13
ENDBRANCH  10  11
ENDBRANCH   9  10
ENDBRANCH   7   9
ENDBRANCH   6   7
BRANCH   6  22
HETATM   22  C   UNL     1     -12.696   8.628  72.299  1.00  0.00    -0.391 C  
HETATM   23  H   UNL     1     -15.268   7.854  72.701  1.00  0.00     0.000 H  
HETATM   24  S   UNL     1     -14.400   8.315  71.720  1.00  0.00    -0.483 SA 
ENDBRANCH   6  22
ENDBRANCH   4   6
ENDBRANCH   3   4
ENDBRANCH   2   3
TORSDOF 13
ENDMDL
MODEL      201
REMARK 921   NORMALIZED FREE ENERGY PREDICTED BY IDOCK:   -3.69 KCAL/MOL
REMARK 922        TOTAL FREE ENERGY PREDICTED BY IDOCK:   -7.09 KCAL/MOL
REMARK 923 INTER-LIGAND FREE ENERGY PREDICTED BY IDOCK:   -6.19 KCAL/MOL
REMARK 924 INTRA-LIGAND FREE ENERGY PREDICTED BY IDOCK:   -0.89 KCAL/MOL
REMARK 927      BINDING AFFINITY PREDICTED BY RF-SCORE:    0.00 PKD
ROOT
HETATM    1  C   UNL     1     -10.147   7.626  73.373  1.00  0.00    -0.379 C  
HETATM    2  C   UNL     1      -9.396   8.423  72.328  1.00  0.00    -0.286 C  
ENDROOT
BRANCH   2   3
HETATM    3  O   UNL     1     -10.314   9.176  71.521  1.00  0.00    -0.320 OA 
BRANCH   3   4
HETATM    4  C   UNL     1     -10.761   8.553  70.393  1.00  0.00    -0.228 C  
HETATM    5  O   UNL     1     -11.523   7.595  70.370  1.00  0.00    -0.259 OA 
BRANCH   4   6
HETATM    6  C   UNL     1     -10.167   9.249  69.154  1.00  0.00    -0.206 C  
BRANCH   6   7
HETATM    7  N   UNL     1      -9.569  10.554  69.547  1.00  0.00    -0.396 NA 
HETATM    8  H   UNL     1      -8.551  10.488  69.562  1.00  0.00     0.000 HD 
BRANCH   7   9
HETATM    9  C   UNL     1      -9.996  11.690  68.724  1.00  0.00    -0.135 C  
BRANCH   9  10
HETATM   10  C   UNL     1     -11.531  11.833  68.627  1.00  0.00    -0.288 C  
BRANCH  10  11
HETATM   11  N   UNL     1     -12.073  11.793  67.259  1.00  0.00    -0.499 NA 
HETATM   12  H   UNL     1     -13.057  12.061  67.257  1.00  0.00     0.000 HD 
BRANCH  11  13
HETATM   13  C   UNL     1     -11.307  12.610  66.272  1.00  0.00    -0.329 C  
BRANCH  13  14
HETATM   14  C   UNL     1     -11.047  11.869  64.942  1.00  0.00    -0.307 C  
HETATM   15  H   UNL     1      -9.740   9.731  63.913  1.00  0.00     0.000 H  
HETATM   16  S   UNL     1      -9.975  10.397  65.110  1.00  0.00    -0.315 SA 
ENDBRANCH  13  14
BRANCH  13  17
HETATM   17  C   UNL     1     -12.055  13.935  66.004  1.00  0.00    -0.437 C  
HETATM   18  O   UNL     1     -13.117  14.041  65.401  1.00  0.00    -0.763 OA 
BRANCH  17  19
HETATM   19  O   UNL     1     -11.365  14.980  66.548  1.00  0.00    -0.341 OA 
BRANCH  19  20
HETATM   20  C   UNL     1      -9.944  14.814  66.639  1.00  0.00    -0.264 C  
HETATM   21  C   UNL     1      -9.344  15.836  67.582  1.00  0.00    -0.216 C  
ENDBRANCH  19  20
ENDBRANCH  17  19
ENDBRANCH  13  17
ENDBRANCH  11  13
ENDBRANCH  10  11
ENDBRANCH   9  10
ENDBRANCH   7   9
ENDBRANCH   6   7
BRANCH   6  22
HETATM   22  C   UNL     1      -9.224   8.270  68.426  1.00  0.00    -0.135 C  
HETATM   23  H   UNL     1      -6.649   7.406  68.371  1.00  0.00     0.000 H  
HETATM   24  S   UNL     1      -7.499   8.288  69.026  1.00  0.00    -0.092 SA 
ENDBRANCH   6  22
ENDBRANCH   4   6
ENDBRANCH   3   4
ENDBRANCH   2   3
TORSDOF 13
ENDMDL
MODEL      202
REMARK 921   NORMALIZED FREE ENERGY PREDICTED BY IDOCK:   -3.68 KCAL/MOL
REMARK 922        TOTAL FREE ENERGY PREDICTED BY IDOCK:   -7.07 KCAL/MOL
REMARK 923 INTER-LIGAND FREE ENERGY PREDICTED BY IDOCK:   -6.33 KCAL/MOL
REMARK 924 INTRA-LIGAND FREE ENERGY PREDICTED BY IDOCK:   -0.74 KCAL/MOL
REMARK 927      BINDING AFFINITY PREDICTED BY RF-SCORE:    0.00 PKD
ROOT
HETATM    1  C   UNL     1      -7.194   9.531  70.218  1.00  0.00    -0.118 C  
HETATM    2  C   UNL     1      -8.426   8.705  70.518  1.00  0.00    -0.150 C  
ENDROOT
BRANCH   2   3
HETATM    3  O   UNL     1      -9.390   9.493  71.234  1.00  0.00    -0.229 OA 
BRANCH   3   4
HETATM    4  C   UNL     1     -10.332   8.791  71.927  1.00  0.00    -0.344 C  
HETATM    5  O   UNL     1     -10.101   8.017  72.847  1.00  0.00    -0.282 OA 
BRANCH   4   6
HETATM    6  C   UNL     1     -11.732   9.132  71.380  1.00  0.00    -0.343 C  
BRANCH   6   7
HETATM    7  N   UNL     1     -11.615   9.661  69.993  1.00  0.00    -0.422 NA 
HETATM    8  H   UNL     1     -11.888   8.948  69.316  1.00  0.00     0.000 HD 
BRANCH   7   9
HETATM    9  C   UNL     1     -12.356  10.904  69.754  1.00  0.00    -0.256 C  
BRANCH   9  10
HETATM   10  C   UNL     1     -12.527  11.768  71.023  1.00  0.00    -0.309 C  
BRANCH  10  11
HETATM   11  N   UNL     1     -11.926  13.109  70.945  1.00  0.00    -0.457 NA 
HETATM   12  H   UNL     1     -10.983  13.056  70.559  1.00  0.00     0.000 HD 
BRANCH  11  13
HETATM   13  C   UNL     1     -12.743  14.106  70.191  1.00  0.00    -0.172 C  
BRANCH  13  14
HETATM   14  C   UNL     1     -13.326  15.218  71.090  1.00  0.00    -0.498 C  
HETATM   15  H   UNL     1     -13.303  16.128  73.641  1.00  0.00     0.000 H  
HETATM   16  S   UNL     1     -12.778  15.127  72.832  1.00  0.00    -0.468 SA 
ENDBRANCH  13  14
BRANCH  13  17
HETATM   17  C   UNL     1     -11.891  14.727  69.062  1.00  0.00    -0.302 C  
HETATM   18  O   UNL     1     -11.754  15.928  68.855  1.00  0.00    -0.390 OA 
BRANCH  17  19
HETATM   19  O   UNL     1     -11.298  13.742  68.326  1.00  0.00    -0.255 OA 
BRANCH  19  20
HETATM   20  C   UNL     1      -9.978  14.027  67.844  1.00  0.00    -0.237 C  
HETATM   21  C   UNL     1      -9.918  13.902  66.337  1.00  0.00    -0.303 C  
ENDBRANCH  19  20
ENDBRANCH  17  19
ENDBRANCH  13  17
ENDBRANCH  11  13
ENDBRANCH  10  11
ENDBRANCH   9  10
ENDBRANCH   7   9
ENDBRANCH   6   7
BRANCH   6  22
HETATM   22  C   UNL     1     -12.657   7.911  71.557  1.00  0.00    -0.321 C  
HETATM   23  H   UNL     1     -15.228   7.223  72.101  1.00  0.00     0.000 H  
HETATM   24  S   UNL     1     -14.394   8.324  71.941  1.00  0.00    -0.472 SA 
ENDBRANCH   6  22
ENDBRANCH   4   6
ENDBRANCH   3   4
ENDBRANCH   2   3
TORSDOF 13
ENDMDL
MODEL      203
REMARK 921   NORMALIZED FREE ENERGY PREDICTED BY IDOCK:   -3.67 KCAL/MOL
REMARK 922        TOTAL FREE ENERGY PREDICTED BY IDOCK:   -7.06 KCAL/MOL
REMARK 923 INTER-LIGAND FREE ENERGY PREDICTED BY IDOCK:   -6.23 KCAL/MOL
REMARK 924 INTRA-LIGAND FREE ENERGY PREDICTED BY IDOCK:   -0.83 KCAL/MOL
REMARK 927      BINDING AFFINITY PREDICTED BY RF-SCORE:    0.00 PKD
ROOT
HETATM    1  C   UNL     1     -14.079  14.464  72.042  1.00  0.00    -0.620 C  
HETATM    2  C   UNL     1     -12.621  14.539  71.645  1.00  0.00    -0.348 C  
ENDROOT
BRANCH   2   3
HETATM    3  O   UNL     1     -12.494  14.537  70.215  1.00  0.00    -0.333 OA 
BRANCH   3   4
HETATM    4  C   UNL     1     -11.521  15.345  69.705  1.00  0.00    -0.320 C  
HETATM    5  O   UNL     1     -11.167  16.415  70.185  1.00  0.00    -0.354 OA 
BRANCH   4   6
HETATM    6  C   UNL     1     -10.929  14.698  68.438  1.00  0.00    -0.251 C  
BRANCH   6   7
HETATM    7  N   UNL     1     -11.590  13.388  68.186  1.00  0.00    -0.319 NA 
HETATM    8  H   UNL     1     -12.130  13.424  67.320  1.00  0.00     0.000 HD 
BRANCH   7   9
HETATM    9  C   UNL     1     -10.677  12.241  68.173  1.00  0.00    -0.216 C  
BRANCH   9  10
HETATM   10  C   UNL     1     -11.367  10.913  67.791  1.00  0.00    -0.292 C  
BRANCH  10  11
HETATM   11  N   UNL     1     -11.902  10.143  68.925  1.00  0.00    -0.564 NA 
HETATM   12  H   UNL     1     -12.427   9.334  68.591  1.00  0.00     0.000 HD 
BRANCH  11  13
HETATM   13  C   UNL     1     -10.872   9.721  69.920  1.00  0.00    -0.272 C  
BRANCH  13  14
HETATM   14  C   UNL     1     -11.422   9.623  71.360  1.00  0.00    -0.385 C  
HETATM   15  H   UNL     1     -13.483  10.444  72.915  1.00  0.00     0.000 H  
HETATM   16  S   UNL     1     -12.987  10.533  71.619  1.00  0.00    -0.470 SA 
ENDBRANCH  13  14
BRANCH  13  17
HETATM   17  C   UNL     1     -10.259   8.369  69.492  1.00  0.00    -0.207 C  
HETATM   18  O   UNL     1     -10.895   7.381  69.144  1.00  0.00    -0.199 OA 
BRANCH  17  19
HETATM   19  O   UNL     1      -8.897   8.434  69.548  1.00  0.00    -0.142 OA 
BRANCH  19  20
HETATM   20  C   UNL     1      -8.331   9.751  69.567  1.00  0.00    -0.161 C  
HETATM   21  C   UNL     1      -7.044   9.771  70.364  1.00  0.00    -0.146 C  
ENDBRANCH  19  20
ENDBRANCH  17  19
ENDBRANCH  13  17
ENDBRANCH  11  13
ENDBRANCH  10  11
ENDBRANCH   9  10
ENDBRANCH   7   9
ENDBRANCH   6   7
BRANCH   6  22
HETATM   22  C   UNL     1     -10.984  15.713  67.278  1.00  0.00    -0.275 C  
HETATM   23  H   UNL     1      -9.557  16.631  65.156  1.00  0.00     0.000 H  
HETATM   24  S   UNL     1      -9.508  15.717  66.202  1.00  0.00    -0.360 SA 
ENDBRANCH   6  22
ENDBRANCH   4   6
ENDBRANCH   3   4
ENDBRANCH   2   3
TORSDOF 13
ENDMDL
MODEL      204
REMARK 921   NORMALIZED FREE ENERGY PREDICTED BY IDOCK:   -3.67 KCAL/MOL
REMARK 922        TOTAL FREE ENERGY PREDICTED BY IDOCK:   -7.05 KCAL/MOL
REMARK 923 INTER-LIGAND FREE ENERGY PREDICTED BY IDOCK:   -6.45 KCAL/MOL
REMARK 924 INTRA-LIGAND FREE ENERGY PREDICTED BY IDOCK:   -0.60 KCAL/MOL
REMARK 927      BINDING AFFINITY PREDICTED BY RF-SCORE:    0.00 PKD
ROOT
HETATM    1  C   UNL     1     -10.528   5.836  70.697  1.00  0.00    -0.331 C  
HETATM    2  C   UNL     1     -11.668   6.792  70.417  1.00  0.00    -0.363 C  
ENDROOT
BRANCH   2   3
HETATM    3  O   UNL     1     -11.508   7.994  71.185  1.00  0.00    -0.268 OA 
BRANCH   3   4
HETATM    4  C   UNL     1     -12.649   8.705  71.420  1.00  0.00    -0.291 C  
HETATM    5  O   UNL     1     -13.710   8.230  71.804  1.00  0.00    -0.353 OA 
BRANCH   4   6
HETATM    6  C   UNL     1     -12.391  10.197  71.138  1.00  0.00    -0.385 C  
BRANCH   6   7
HETATM    7  N   UNL     1     -12.441  10.448  69.672  1.00  0.00    -0.588 NA 
HETATM    8  H   UNL     1     -13.278  10.980  69.431  1.00  0.00     0.000 HD 
BRANCH   7   9
HETATM    9  C   UNL     1     -11.246  11.100  69.127  1.00  0.00    -0.264 C  
BRANCH   9  10
HETATM   10  C   UNL     1     -10.788  10.509  67.776  1.00  0.00    -0.294 C  
BRANCH  10  11
HETATM   11  N   UNL     1     -10.024  11.434  66.921  1.00  0.00    -0.203 NA 
HETATM   12  H   UNL     1      -9.243  11.836  67.440  1.00  0.00     0.000 HD 
BRANCH  11  13
HETATM   13  C   UNL     1      -9.546  10.833  65.641  1.00  0.00    -0.216 C  
BRANCH  13  14
HETATM   14  C   UNL     1      -9.730   9.300  65.583  1.00  0.00    -0.232 C  
HETATM   15  H   UNL     1      -8.411   7.018  64.960  1.00  0.00     0.000 H  
HETATM   16  S   UNL     1      -8.246   8.397  65.013  1.00  0.00    -0.149 SA 
ENDBRANCH  13  14
BRANCH  13  17
HETATM   17  C   UNL     1     -10.273  11.500  64.452  1.00  0.00    -0.300 C  
HETATM   18  O   UNL     1     -10.394  11.015  63.332  1.00  0.00    -0.355 OA 
BRANCH  17  19
HETATM   19  O   UNL     1     -10.775  12.712  64.830  1.00  0.00    -0.283 OA 
BRANCH  19  20
HETATM   20  C   UNL     1     -12.180  12.903  64.617  1.00  0.00    -0.435 C  
HETATM   21  C   UNL     1     -12.739  13.912  65.597  1.00  0.00    -0.534 C  
ENDBRANCH  19  20
ENDBRANCH  17  19
ENDBRANCH  13  17
ENDBRANCH  11  13
ENDBRANCH  10  11
ENDBRANCH   9  10
ENDBRANCH   7   9
ENDBRANCH   6   7
BRANCH   6  22
HETATM   22  C   UNL     1     -13.347  11.048  71.999  1.00  0.00    -0.288 C  
HETATM   23  H   UNL     1     -13.950  13.618  72.638  1.00  0.00     0.000 H  
HETATM   24  S   UNL     1     -13.089  12.851  71.863  1.00  0.00    -0.320 SA 
ENDBRANCH   6  22
ENDBRANCH   4   6
ENDBRANCH   3   4
ENDBRANCH   2   3
TORSDOF 13
ENDMDL
MODEL      205
REMARK 921   NORMALIZED FREE ENERGY PREDICTED BY IDOCK:   -3.67 KCAL/MOL
REMARK 922        TOTAL FREE ENERGY PREDICTED BY IDOCK:   -7.05 KCAL/MOL
REMARK 923 INTER-LIGAND FREE ENERGY PREDICTED BY IDOCK:   -6.09 KCAL/MOL
REMARK 924 INTRA-LIGAND FREE ENERGY PREDICTED BY IDOCK:   -0.96 KCAL/MOL
REMARK 927      BINDING AFFINITY PREDICTED BY RF-SCORE:    0.00 PKD
ROOT
HETATM    1  C   UNL     1      -6.871  19.006  66.617  1.00  0.00    -0.209 C  
HETATM    2  C   UNL     1      -8.092  19.649  65.994  1.00  0.00    -0.313 C  
ENDROOT
BRANCH   2   3
HETATM    3  O   UNL     1      -9.250  19.411  66.809  1.00  0.00    -0.304 OA 
BRANCH   3   4
HETATM    4  C   UNL     1     -10.221  18.636  66.249  1.00  0.00    -0.427 C  
HETATM    5  O   UNL     1     -10.918  18.957  65.295  1.00  0.00    -0.521 OA 
BRANCH   4   6
HETATM    6  C   UNL     1     -10.297  17.290  66.995  1.00  0.00    -0.318 C  
BRANCH   6   7
HETATM    7  N   UNL     1      -9.617  16.233  66.198  1.00  0.00    -0.310 NA 
HETATM    8  H   UNL     1      -8.939  15.734  66.774  1.00  0.00     0.000 HD 
BRANCH   7   9
HETATM    9  C   UNL     1     -10.527  15.286  65.545  1.00  0.00    -0.374 C  
BRANCH   9  10
HETATM   10  C   UNL     1     -11.096  14.220  66.508  1.00  0.00    -0.323 C  
BRANCH  10  11
HETATM   11  N   UNL     1     -10.944  12.829  66.051  1.00  0.00    -0.274 NA 
HETATM   12  H   UNL     1     -10.630  12.804  65.081  1.00  0.00     0.000 HD 
BRANCH  11  13
HETATM   13  C   UNL     1     -10.051  11.995  66.910  1.00  0.00    -0.205 C  
BRANCH  13  14
HETATM   14  C   UNL     1      -9.159  12.833  67.852  1.00  0.00    -0.204 C  
HETATM   15  H   UNL     1      -6.564  13.400  68.386  1.00  0.00     0.000 H  
HETATM   16  S   UNL     1      -7.367  12.646  67.538  1.00  0.00    -0.147 SA 
ENDBRANCH  13  14
BRANCH  13  17
HETATM   17  C   UNL     1     -10.901  11.000  67.730  1.00  0.00    -0.249 C  
HETATM   18  O   UNL     1     -12.105  11.096  67.935  1.00  0.00    -0.627 OA 
BRANCH  17  19
HETATM   19  O   UNL     1     -10.115   9.981  68.189  1.00  0.00    -0.149 OA 
BRANCH  19  20
HETATM   20  C   UNL     1      -9.655   9.049  67.202  1.00  0.00    -0.167 C  
HETATM   21  C   UNL     1     -10.562   7.838  67.143  1.00  0.00    -0.401 C  
ENDBRANCH  19  20
ENDBRANCH  17  19
ENDBRANCH  13  17
ENDBRANCH  11  13
ENDBRANCH  10  11
ENDBRANCH   9  10
ENDBRANCH   7   9
ENDBRANCH   6   7
BRANCH   6  22
HETATM   22  C   UNL     1      -9.783  17.480  68.437  1.00  0.00    -0.316 C  
HETATM   23  H   UNL     1      -8.030  16.460  70.244  1.00  0.00     0.000 H  
HETATM   24  S   UNL     1      -8.494  16.289  68.946  1.00  0.00    -0.250 SA 
ENDBRANCH   6  22
ENDBRANCH   4   6
ENDBRANCH   3   4
ENDBRANCH   2   3
TORSDOF 13
ENDMDL
MODEL      206
REMARK 921   NORMALIZED FREE ENERGY PREDICTED BY IDOCK:   -3.66 KCAL/MOL
REMARK 922        TOTAL FREE ENERGY PREDICTED BY IDOCK:   -7.04 KCAL/MOL
REMARK 923 INTER-LIGAND FREE ENERGY PREDICTED BY IDOCK:   -6.31 KCAL/MOL
REMARK 924 INTRA-LIGAND FREE ENERGY PREDICTED BY IDOCK:   -0.73 KCAL/MOL
REMARK 927      BINDING AFFINITY PREDICTED BY RF-SCORE:    0.00 PKD
ROOT
HETATM    1  C   UNL     1      -7.839   6.182  64.382  1.00  0.00    -0.114 C  
HETATM    2  C   UNL     1      -7.196   7.537  64.592  1.00  0.00    -0.068 C  
ENDROOT
BRANCH   2   3
HETATM    3  O   UNL     1      -8.179   8.493  65.016  1.00  0.00    -0.142 OA 
BRANCH   3   4
HETATM    4  C   UNL     1      -7.749   9.784  65.110  1.00  0.00    -0.124 C  
HETATM    5  O   UNL     1      -6.724  10.226  64.605  1.00  0.00    -0.130 OA 
BRANCH   4   6
HETATM    6  C   UNL     1      -8.756  10.601  65.941  1.00  0.00    -0.177 C  
BRANCH   6   7
HETATM    7  N   UNL     1      -9.030  11.899  65.266  1.00  0.00    -0.393 NA 
HETATM    8  H   UNL     1      -8.225  12.187  64.709  1.00  0.00     0.000 HD 
BRANCH   7   9
HETATM    9  C   UNL     1     -10.248  11.913  64.450  1.00  0.00    -0.297 C  
BRANCH   9  10
HETATM   10  C   UNL     1     -11.001  13.261  64.497  1.00  0.00    -0.382 C  
BRANCH  10  11
HETATM   11  N   UNL     1     -10.140  14.454  64.464  1.00  0.00    -0.629 NA 
HETATM   12  H   UNL     1     -10.342  15.017  63.637  1.00  0.00     0.000 HD 
BRANCH  11  13
HETATM   13  C   UNL     1     -10.208  15.294  65.697  1.00  0.00    -0.372 C  
BRANCH  13  14
HETATM   14  C   UNL     1      -8.843  15.449  66.402  1.00  0.00    -0.305 C  
HETATM   15  H   UNL     1      -7.513  14.735  68.652  1.00  0.00     0.000 H  
HETATM   16  S   UNL     1      -8.742  14.596  68.017  1.00  0.00    -0.175 SA 
ENDBRANCH  13  14
BRANCH  13  17
HETATM   17  C   UNL     1     -10.785  16.684  65.347  1.00  0.00    -0.215 C  
HETATM   18  O   UNL     1     -11.391  16.962  64.318  1.00  0.00    -1.202 OA 
BRANCH  17  19
HETATM   19  O   UNL     1     -10.532  17.564  66.359  1.00  0.00    -0.334 OA 
BRANCH  19  20
HETATM   20  C   UNL     1     -10.575  18.953  66.008  1.00  0.00    -0.403 C  
HETATM   21  C   UNL     1      -9.208  19.587  66.156  1.00  0.00    -0.363 C  
ENDBRANCH  19  20
ENDBRANCH  17  19
ENDBRANCH  13  17
ENDBRANCH  11  13
ENDBRANCH  10  11
ENDBRANCH   9  10
ENDBRANCH   7   9
ENDBRANCH   6   7
BRANCH   6  22
HETATM   22  C   UNL     1      -9.991   9.727  66.243  1.00  0.00    -0.262 C  
HETATM   23  H   UNL     1     -11.507   8.785  68.291  1.00  0.00     0.000 H  
HETATM   24  S   UNL     1     -10.395   9.572  68.018  1.00  0.00    -0.226 SA 
ENDBRANCH   6  22
ENDBRANCH   4   6
ENDBRANCH   3   4
ENDBRANCH   2   3
TORSDOF 13
ENDMDL
MODEL      207
REMARK 921   NORMALIZED FREE ENERGY PREDICTED BY IDOCK:   -3.66 KCAL/MOL
REMARK 922        TOTAL FREE ENERGY PREDICTED BY IDOCK:   -7.04 KCAL/MOL
REMARK 923 INTER-LIGAND FREE ENERGY PREDICTED BY IDOCK:   -6.44 KCAL/MOL
REMARK 924 INTRA-LIGAND FREE ENERGY PREDICTED BY IDOCK:   -0.60 KCAL/MOL
REMARK 927      BINDING AFFINITY PREDICTED BY RF-SCORE:    0.00 PKD
ROOT
HETATM    1  C   UNL     1      -8.832  16.986  66.373  1.00  0.00    -0.313 C  
HETATM    2  C   UNL     1     -10.216  16.806  65.785  1.00  0.00    -0.291 C  
ENDROOT
BRANCH   2   3
HETATM    3  O   UNL     1     -10.300  15.555  65.085  1.00  0.00    -0.380 OA 
BRANCH   3   4
HETATM    4  C   UNL     1     -11.430  15.363  64.347  1.00  0.00    -0.255 C  
HETATM    5  O   UNL     1     -12.174  16.252  63.950  1.00  0.00    -0.945 OA 
BRANCH   4   6
HETATM    6  C   UNL     1     -11.619  13.858  64.080  1.00  0.00    -0.226 C  
BRANCH   6   7
HETATM    7  N   UNL     1     -10.291  13.193  63.980  1.00  0.00    -0.644 NA 
HETATM    8  H   UNL     1      -9.814  13.216  64.882  1.00  0.00     0.000 HD 
BRANCH   7   9
HETATM    9  C   UNL     1     -10.336  11.824  63.459  1.00  0.00    -0.448 C  
BRANCH   9  10
HETATM   10  C   UNL     1      -9.376  10.858  64.189  1.00  0.00    -0.234 C  
BRANCH  10  11
HETATM   11  N   UNL     1     -10.035   9.757  64.910  1.00  0.00    -0.394 NA 
HETATM   12  H   UNL     1     -10.101   8.931  64.315  1.00  0.00     0.000 HD 
BRANCH  11  13
HETATM   13  C   UNL     1      -9.398   9.411  66.215  1.00  0.00    -0.198 C  
BRANCH  13  14
HETATM   14  C   UNL     1     -10.405   9.347  67.384  1.00  0.00    -0.263 C  
HETATM   15  H   UNL     1     -10.609   9.793  70.049  1.00  0.00     0.000 H  
HETATM   16  S   UNL     1      -9.702   9.850  68.996  1.00  0.00    -0.204 SA 
ENDBRANCH  13  14
BRANCH  13  17
HETATM   17  C   UNL     1      -8.649   8.066  66.087  1.00  0.00    -0.148 C  
HETATM   18  O   UNL     1      -7.835   7.787  65.213  1.00  0.00    -0.101 OA 
BRANCH  17  19
HETATM   19  O   UNL     1      -9.015   7.227  67.099  1.00  0.00    -0.122 OA 
BRANCH  19  20
HETATM   20  C   UNL     1      -9.144   5.842  66.751  1.00  0.00    -0.128 C  
HETATM   21  C   UNL     1     -10.591   5.489  66.479  1.00  0.00    -0.343 C  
ENDBRANCH  19  20
ENDBRANCH  17  19
ENDBRANCH  13  17
ENDBRANCH  11  13
ENDBRANCH  10  11
ENDBRANCH   9  10
ENDBRANCH   7   9
ENDBRANCH   6   7
BRANCH   6  22
HETATM   22  C   UNL     1     -12.586  13.275  65.131  1.00  0.00    -0.453 C  
HETATM   23  H   UNL     1     -12.660  12.246  67.644  1.00  0.00     0.000 H  
HETATM   24  S   UNL     1     -11.790  12.771  66.697  1.00  0.00    -0.350 SA 
ENDBRANCH   6  22
ENDBRANCH   4   6
ENDBRANCH   3   4
ENDBRANCH   2   3
TORSDOF 13
ENDMDL
MODEL      208
REMARK 921   NORMALIZED FREE ENERGY PREDICTED BY IDOCK:   -3.66 KCAL/MOL
REMARK 922        TOTAL FREE ENERGY PREDICTED BY IDOCK:   -7.04 KCAL/MOL
REMARK 923 INTER-LIGAND FREE ENERGY PREDICTED BY IDOCK:   -6.24 KCAL/MOL
REMARK 924 INTRA-LIGAND FREE ENERGY PREDICTED BY IDOCK:   -0.80 KCAL/MOL
REMARK 927      BINDING AFFINITY PREDICTED BY RF-SCORE:    0.00 PKD
ROOT
HETATM    1  C   UNL     1      -6.353  20.993  66.632  1.00  0.00    -0.359 C  
HETATM    2  C   UNL     1      -6.886  20.771  68.031  1.00  0.00    -0.234 C  
ENDROOT
BRANCH   2   3
HETATM    3  O   UNL     1      -7.400  19.436  68.162  1.00  0.00    -0.275 OA 
BRANCH   3   4
HETATM    4  C   UNL     1      -8.690  19.255  67.759  1.00  0.00    -0.306 C  
HETATM    5  O   UNL     1      -9.593  20.072  67.892  1.00  0.00    -0.356 OA 
BRANCH   4   6
HETATM    6  C   UNL     1      -8.832  17.869  67.102  1.00  0.00    -0.247 C  
BRANCH   6   7
HETATM    7  N   UNL     1      -8.138  16.845  67.930  1.00  0.00    -0.185 NA 
HETATM    8  H   UNL     1      -7.441  17.287  68.531  1.00  0.00     0.000 HD 
BRANCH   7   9
HETATM    9  C   UNL     1      -9.034  15.998  68.723  1.00  0.00    -0.226 C  
BRANCH   9  10
HETATM   10  C   UNL     1      -8.600  14.516  68.761  1.00  0.00    -0.145 C  
BRANCH  10  11
HETATM   11  N   UNL     1      -9.701  13.552  68.926  1.00  0.00    -0.418 NA 
HETATM   12  H   UNL     1      -9.617  13.064  69.818  1.00  0.00     0.000 HD 
BRANCH  11  13
HETATM   13  C   UNL     1     -11.063  14.145  68.780  1.00  0.00    -0.262 C  
BRANCH  13  14
HETATM   14  C   UNL     1     -11.902  13.474  67.671  1.00  0.00    -0.363 C  
HETATM   15  H   UNL     1     -11.660  12.158  65.315  1.00  0.00     0.000 H  
HETATM   16  S   UNL     1     -10.904  12.762  66.314  1.00  0.00    -0.281 SA 
ENDBRANCH  13  14
BRANCH  13  17
HETATM   17  C   UNL     1     -11.809  14.068  70.131  1.00  0.00    -0.306 C  
HETATM   18  O   UNL     1     -12.301  13.054  70.613  1.00  0.00    -0.356 OA 
BRANCH  17  19
HETATM   19  O   UNL     1     -11.835  15.298  70.723  1.00  0.00    -0.283 OA 
BRANCH  19  20
HETATM   20  C   UNL     1     -13.072  15.670  71.343  1.00  0.00    -0.487 C  
HETATM   21  C   UNL     1     -12.889  15.861  72.834  1.00  0.00    -0.584 C  
ENDBRANCH  19  20
ENDBRANCH  17  19
ENDBRANCH  13  17
ENDBRANCH  11  13
ENDBRANCH  10  11
ENDBRANCH   9  10
ENDBRANCH   7   9
ENDBRANCH   6   7
BRANCH   6  22
HETATM   22  C   UNL     1     -10.322  17.598  66.808  1.00  0.00    -0.331 C  
HETATM   23  H   UNL     1     -11.968  16.186  65.171  1.00  0.00     0.000 H  
HETATM   24  S   UNL     1     -10.626  16.431  65.436  1.00  0.00    -0.239 SA 
ENDBRANCH   6  22
ENDBRANCH   4   6
ENDBRANCH   3   4
ENDBRANCH   2   3
TORSDOF 13
ENDMDL
MODEL      209
REMARK 921   NORMALIZED FREE ENERGY PREDICTED BY IDOCK:   -3.66 KCAL/MOL
REMARK 922        TOTAL FREE ENERGY PREDICTED BY IDOCK:   -7.03 KCAL/MOL
REMARK 923 INTER-LIGAND FREE ENERGY PREDICTED BY IDOCK:   -6.46 KCAL/MOL
REMARK 924 INTRA-LIGAND FREE ENERGY PREDICTED BY IDOCK:   -0.57 KCAL/MOL
REMARK 927      BINDING AFFINITY PREDICTED BY RF-SCORE:    0.00 PKD
ROOT
HETATM    1  C   UNL     1     -10.407   6.778  73.947  1.00  0.00    -0.397 C  
HETATM    2  C   UNL     1     -10.660   7.414  72.597  1.00  0.00    -0.275 C  
ENDROOT
BRANCH   2   3
HETATM    3  O   UNL     1      -9.931   8.646  72.482  1.00  0.00    -0.282 OA 
BRANCH   3   4
HETATM    4  C   UNL     1      -9.475   8.952  71.234  1.00  0.00    -0.272 C  
HETATM    5  O   UNL     1      -8.441   9.560  70.989  1.00  0.00    -0.284 OA 
BRANCH   4   6
HETATM    6  C   UNL     1     -10.459   8.406  70.181  1.00  0.00    -0.228 C  
BRANCH   6   7
HETATM    7  N   UNL     1     -11.179   9.535  69.532  1.00  0.00    -0.422 NA 
HETATM    8  H   UNL     1     -11.847   9.182  68.845  1.00  0.00     0.000 HD 
BRANCH   7   9
HETATM    9  C   UNL     1     -11.841  10.449  70.467  1.00  0.00    -0.337 C  
BRANCH   9  10
HETATM   10  C   UNL     1     -12.342  11.750  69.801  1.00  0.00    -0.111 C  
BRANCH  10  11
HETATM   11  N   UNL     1     -11.443  12.906  69.944  1.00  0.00    -0.515 NA 
HETATM   12  H   UNL     1     -10.495  12.658  69.659  1.00  0.00     0.000 HD 
BRANCH  11  13
HETATM   13  C   UNL     1     -11.899  14.132  69.224  1.00  0.00    -0.338 C  
BRANCH  13  14
HETATM   14  C   UNL     1     -12.076  15.352  70.153  1.00  0.00    -0.369 C  
HETATM   15  H   UNL     1     -13.509  16.220  72.282  1.00  0.00     0.000 H  
HETATM   16  S   UNL     1     -13.350  15.122  71.445  1.00  0.00    -0.503 SA 
ENDBRANCH  13  14
BRANCH  13  17
HETATM   17  C   UNL     1     -10.906  14.468  68.089  1.00  0.00    -0.240 C  
HETATM   18  O   UNL     1     -10.064  15.358  68.124  1.00  0.00    -0.219 OA 
BRANCH  17  19
HETATM   19  O   UNL     1     -11.092  13.619  67.037  1.00  0.00    -0.291 OA 
BRANCH  19  20
HETATM   20  C   UNL     1     -12.300  13.804  66.287  1.00  0.00    -0.433 C  
HETATM   21  C   UNL     1     -12.227  13.073  64.963  1.00  0.00    -0.501 C  
ENDBRANCH  19  20
ENDBRANCH  17  19
ENDBRANCH  13  17
ENDBRANCH  11  13
ENDBRANCH  10  11
ENDBRANCH   9  10
ENDBRANCH   7   9
ENDBRANCH   6   7
BRANCH   6  22
HETATM   22  C   UNL     1      -9.705   7.454  69.230  1.00  0.00    -0.165 C  
HETATM   23  H   UNL     1      -9.764   4.931  68.223  1.00  0.00     0.000 H  
HETATM   24  S   UNL     1     -10.443   5.789  69.080  1.00  0.00    -0.274 SA 
ENDBRANCH   6  22
ENDBRANCH   4   6
ENDBRANCH   3   4
ENDBRANCH   2   3
TORSDOF 13
ENDMDL
MODEL      210
REMARK 921   NORMALIZED FREE ENERGY PREDICTED BY IDOCK:   -3.66 KCAL/MOL
REMARK 922        TOTAL FREE ENERGY PREDICTED BY IDOCK:   -7.03 KCAL/MOL
REMARK 923 INTER-LIGAND FREE ENERGY PREDICTED BY IDOCK:   -6.25 KCAL/MOL
REMARK 924 INTRA-LIGAND FREE ENERGY PREDICTED BY IDOCK:   -0.78 KCAL/MOL
REMARK 927      BINDING AFFINITY PREDICTED BY RF-SCORE:    0.00 PKD
ROOT
HETATM    1  C   UNL     1      -9.345   3.892  70.100  1.00  0.00    -0.241 C  
HETATM    2  C   UNL     1     -10.018   4.746  71.153  1.00  0.00    -0.202 C  
ENDROOT
BRANCH   2   3
HETATM    3  O   UNL     1     -10.973   5.627  70.543  1.00  0.00    -0.273 OA 
BRANCH   3   4
HETATM    4  C   UNL     1     -11.559   6.535  71.375  1.00  0.00    -0.318 C  
HETATM    5  O   UNL     1     -12.375   6.267  72.249  1.00  0.00    -0.268 OA 
BRANCH   4   6
HETATM    6  C   UNL     1     -11.030   7.945  71.052  1.00  0.00    -0.244 C  
BRANCH   6   7
HETATM    7  N   UNL     1     -12.142   8.798  70.552  1.00  0.00    -0.479 NA 
HETATM    8  H   UNL     1     -13.021   8.280  70.565  1.00  0.00     0.000 HD 
BRANCH   7   9
HETATM    9  C   UNL     1     -12.290  10.076  71.255  1.00  0.00    -0.398 C  
BRANCH   9  10
HETATM   10  C   UNL     1     -12.350  11.294  70.307  1.00  0.00    -0.307 C  
BRANCH  10  11
HETATM   11  N   UNL     1     -12.237  10.971  68.875  1.00  0.00    -0.712 NA 
HETATM   12  H   UNL     1     -13.084  11.250  68.379  1.00  0.00     0.000 HD 
BRANCH  11  13
HETATM   13  C   UNL     1     -11.030  11.545  68.210  1.00  0.00    -0.224 C  
BRANCH  13  14
HETATM   14  C   UNL     1      -9.974  10.478  67.844  1.00  0.00    -0.169 C  
HETATM   15  H   UNL     1      -7.387   9.804  68.277  1.00  0.00     0.000 H  
HETATM   16  S   UNL     1      -8.337  10.763  68.607  1.00  0.00    -0.147 SA 
ENDBRANCH  13  14
BRANCH  13  17
HETATM   17  C   UNL     1     -11.455  12.327  66.948  1.00  0.00    -0.356 C  
HETATM   18  O   UNL     1     -12.027  11.848  65.975  1.00  0.00    -0.511 OA 
BRANCH  17  19
HETATM   19  O   UNL     1     -11.110  13.642  67.073  1.00  0.00    -0.291 OA 
BRANCH  19  20
HETATM   20  C   UNL     1     -12.104  14.499  67.649  1.00  0.00    -0.231 C  
HETATM   21  C   UNL     1     -11.466  15.520  68.567  1.00  0.00    -0.369 C  
ENDBRANCH  19  20
ENDBRANCH  17  19
ENDBRANCH  13  17
ENDBRANCH  11  13
ENDBRANCH  10  11
ENDBRANCH   9  10
ENDBRANCH   7   9
ENDBRANCH   6   7
BRANCH   6  22
HETATM   22  C   UNL     1     -10.262   8.490  72.274  1.00  0.00    -0.325 C  
HETATM   23  H   UNL     1      -7.759   8.748  73.298  1.00  0.00     0.000 H  
HETATM   24  S   UNL     1      -8.451   8.257  72.198  1.00  0.00    -0.186 SA 
ENDBRANCH   6  22
ENDBRANCH   4   6
ENDBRANCH   3   4
ENDBRANCH   2   3
TORSDOF 13
ENDMDL
MODEL      211
REMARK 921   NORMALIZED FREE ENERGY PREDICTED BY IDOCK:   -3.65 KCAL/MOL
REMARK 922        TOTAL FREE ENERGY PREDICTED BY IDOCK:   -7.01 KCAL/MOL
REMARK 923 INTER-LIGAND FREE ENERGY PREDICTED BY IDOCK:   -6.38 KCAL/MOL
REMARK 924 INTRA-LIGAND FREE ENERGY PREDICTED BY IDOCK:   -0.63 KCAL/MOL
REMARK 927      BINDING AFFINITY PREDICTED BY RF-SCORE:    0.00 PKD
ROOT
HETATM    1  C   UNL     1     -13.145   9.803  72.015  1.00  0.00    -0.546 C  
HETATM    2  C   UNL     1     -11.819   9.079  71.926  1.00  0.00    -0.376 C  
ENDROOT
BRANCH   2   3
HETATM    3  O   UNL     1     -11.860   8.092  70.884  1.00  0.00    -0.285 OA 
BRANCH   3   4
HETATM    4  C   UNL     1     -11.671   6.801  71.281  1.00  0.00    -0.336 C  
HETATM    5  O   UNL     1     -11.828   6.383  72.421  1.00  0.00    -0.281 OA 
BRANCH   4   6
HETATM    6  C   UNL     1     -11.240   5.950  70.071  1.00  0.00    -0.270 C  
BRANCH   6   7
HETATM    7  N   UNL     1     -11.494   6.701  68.811  1.00  0.00    -0.591 NA 
HETATM    8  H   UNL     1     -11.420   7.706  68.975  1.00  0.00     0.000 HD 
BRANCH   7   9
HETATM    9  C   UNL     1     -10.644   6.302  67.685  1.00  0.00    -0.271 C  
BRANCH   9  10
HETATM   10  C   UNL     1      -9.674   7.413  67.226  1.00  0.00    -0.157 C  
BRANCH  10  11
HETATM   11  N   UNL     1     -10.123   8.182  66.053  1.00  0.00    -0.379 NA 
HETATM   12  H   UNL     1     -11.064   7.899  65.781  1.00  0.00     0.000 HD 
BRANCH  11  13
HETATM   13  C   UNL     1     -10.052   9.663  66.226  1.00  0.00    -0.252 C  
BRANCH  13  14
HETATM   14  C   UNL     1      -8.980  10.105  67.247  1.00  0.00    -0.135 C  
HETATM   15  H   UNL     1      -8.705  11.174  69.720  1.00  0.00     0.000 H  
HETATM   16  S   UNL     1      -9.670  10.776  68.802  1.00  0.00    -0.193 SA 
ENDBRANCH  13  14
BRANCH  13  17
HETATM   17  C   UNL     1      -9.791  10.333  64.859  1.00  0.00    -0.336 C  
HETATM   18  O   UNL     1      -9.174   9.828  63.927  1.00  0.00    -0.256 OA 
BRANCH  17  19
HETATM   19  O   UNL     1     -10.358  11.574  64.830  1.00  0.00    -0.257 OA 
BRANCH  19  20
HETATM   20  C   UNL     1     -10.601  12.123  63.527  1.00  0.00    -0.458 C  
HETATM   21  C   UNL     1     -12.014  12.656  63.425  1.00  0.00    -0.613 C  
ENDBRANCH  19  20
ENDBRANCH  17  19
ENDBRANCH  13  17
ENDBRANCH  11  13
ENDBRANCH  10  11
ENDBRANCH   9  10
ENDBRANCH   7   9
ENDBRANCH   6   7
BRANCH   6  22
HETATM   22  C   UNL     1      -9.791   5.465  70.283  1.00  0.00    -0.206 C  
HETATM   23  H   UNL     1      -8.344   3.333  71.143  1.00  0.00     0.000 H  
HETATM   24  S   UNL     1      -9.649   3.771  70.952  1.00  0.00    -0.181 SA 
ENDBRANCH   6  22
ENDBRANCH   4   6
ENDBRANCH   3   4
ENDBRANCH   2   3
TORSDOF 13
ENDMDL
MODEL      212
REMARK 921   NORMALIZED FREE ENERGY PREDICTED BY IDOCK:   -3.64 KCAL/MOL
REMARK 922        TOTAL FREE ENERGY PREDICTED BY IDOCK:   -6.99 KCAL/MOL
REMARK 923 INTER-LIGAND FREE ENERGY PREDICTED BY IDOCK:   -6.28 KCAL/MOL
REMARK 924 INTRA-LIGAND FREE ENERGY PREDICTED BY IDOCK:   -0.71 KCAL/MOL
REMARK 927      BINDING AFFINITY PREDICTED BY RF-SCORE:    0.00 PKD
ROOT
HETATM    1  C   UNL     1     -12.232   8.020  71.365  1.00  0.00    -0.335 C  
HETATM    2  C   UNL     1     -12.064   9.475  71.746  1.00  0.00    -0.384 C  
ENDROOT
BRANCH   2   3
HETATM    3  O   UNL     1     -11.738  10.258  70.587  1.00  0.00    -0.295 OA 
BRANCH   3   4
HETATM    4  C   UNL     1     -12.262  11.517  70.555  1.00  0.00    -0.377 C  
HETATM    5  O   UNL     1     -12.907  12.037  71.458  1.00  0.00    -0.376 OA 
BRANCH   4   6
HETATM    6  C   UNL     1     -11.908  12.186  69.214  1.00  0.00    -0.313 C  
BRANCH   6   7
HETATM    7  N   UNL     1     -11.041  13.372  69.456  1.00  0.00    -0.460 NA 
HETATM    8  H   UNL     1     -10.182  13.302  68.909  1.00  0.00     0.000 HD 
BRANCH   7   9
HETATM    9  C   UNL     1     -11.697  14.661  69.215  1.00  0.00    -0.312 C  
BRANCH   9  10
HETATM   10  C   UNL     1     -11.035  15.835  69.971  1.00  0.00    -0.338 C  
BRANCH  10  11
HETATM   11  N   UNL     1     -10.643  16.974  69.125  1.00  0.00    -0.328 NA 
HETATM   12  H   UNL     1      -9.938  17.542  69.596  1.00  0.00     0.000 HD 
BRANCH  11  13
HETATM   13  C   UNL     1     -10.177  16.593  67.759  1.00  0.00    -0.292 C  
BRANCH  13  14
HETATM   14  C   UNL     1     -10.529  17.642  66.682  1.00  0.00    -0.286 C  
HETATM   15  H   UNL     1     -10.861  20.307  66.331  1.00  0.00     0.000 H  
HETATM   16  S   UNL     1     -10.544  19.363  67.300  1.00  0.00    -0.490 SA 
ENDBRANCH  13  14
BRANCH  13  17
HETATM   17  C   UNL     1      -8.652  16.345  67.781  1.00  0.00    -0.168 C  
HETATM   18  O   UNL     1      -8.047  15.574  67.044  1.00  0.00    -0.199 OA 
BRANCH  17  19
HETATM   19  O   UNL     1      -8.065  17.123  68.738  1.00  0.00    -0.264 OA 
BRANCH  19  20
HETATM   20  C   UNL     1      -6.886  17.832  68.334  1.00  0.00    -0.221 C  
HETATM   21  C   UNL     1      -5.880  17.886  69.464  1.00  0.00    -0.238 C  
ENDBRANCH  19  20
ENDBRANCH  17  19
ENDBRANCH  13  17
ENDBRANCH  11  13
ENDBRANCH  10  11
ENDBRANCH   9  10
ENDBRANCH   7   9
ENDBRANCH   6   7
BRANCH   6  22
HETATM   22  C   UNL     1     -11.338  11.123  68.252  1.00  0.00    -0.297 C  
HETATM   23  H   UNL     1     -10.534  10.761  65.683  1.00  0.00     0.000 H  
HETATM   24  S   UNL     1     -11.046  11.718  66.549  1.00  0.00    -0.309 SA 
ENDBRANCH   6  22
ENDBRANCH   4   6
ENDBRANCH   3   4
ENDBRANCH   2   3
TORSDOF 13
ENDMDL
MODEL      213
REMARK 921   NORMALIZED FREE ENERGY PREDICTED BY IDOCK:   -3.63 KCAL/MOL
REMARK 922        TOTAL FREE ENERGY PREDICTED BY IDOCK:   -6.99 KCAL/MOL
REMARK 923 INTER-LIGAND FREE ENERGY PREDICTED BY IDOCK:   -6.17 KCAL/MOL
REMARK 924 INTRA-LIGAND FREE ENERGY PREDICTED BY IDOCK:   -0.81 KCAL/MOL
REMARK 927      BINDING AFFINITY PREDICTED BY RF-SCORE:    0.00 PKD
ROOT
HETATM    1  C   UNL     1     -10.634   7.417  73.228  1.00  0.00    -0.442 C  
HETATM    2  C   UNL     1     -11.751   7.960  72.362  1.00  0.00    -0.367 C  
ENDROOT
BRANCH   2   3
HETATM    3  O   UNL     1     -11.451   9.300  71.946  1.00  0.00    -0.372 OA 
BRANCH   3   4
HETATM    4  C   UNL     1     -11.198   9.466  70.616  1.00  0.00    -0.284 C  
HETATM    5  O   UNL     1     -10.633   8.650  69.897  1.00  0.00    -0.219 OA 
BRANCH   4   6
HETATM    6  C   UNL     1     -11.741  10.832  70.156  1.00  0.00    -0.339 C  
BRANCH   6   7
HETATM    7  N   UNL     1     -12.276  10.721  68.772  1.00  0.00    -0.814 NA 
HETATM    8  H   UNL     1     -13.291  10.832  68.773  1.00  0.00     0.000 HD 
BRANCH   7   9
HETATM    9  C   UNL     1     -11.662  11.641  67.809  1.00  0.00    -0.245 C  
BRANCH   9  10
HETATM   10  C   UNL     1     -10.202  11.276  67.459  1.00  0.00    -0.189 C  
BRANCH  10  11
HETATM   11  N   UNL     1      -9.428  12.357  66.827  1.00  0.00    -0.222 NA 
HETATM   12  H   UNL     1      -9.694  12.461  65.847  1.00  0.00     0.000 HD 
BRANCH  11  13
HETATM   13  C   UNL     1      -9.514  13.668  67.534  1.00  0.00    -0.222 C  
BRANCH  13  14
HETATM   14  C   UNL     1      -8.182  14.094  68.189  1.00  0.00    -0.149 C  
HETATM   15  H   UNL     1      -5.531  13.537  68.186  1.00  0.00     0.000 H  
HETATM   16  S   UNL     1      -6.730  13.154  67.596  1.00  0.00    -0.153 SA 
ENDBRANCH  13  14
BRANCH  13  17
HETATM   17  C   UNL     1      -9.993  14.758  66.550  1.00  0.00    -0.271 C  
HETATM   18  O   UNL     1      -9.356  15.178  65.590  1.00  0.00    -0.268 OA 
BRANCH  17  19
HETATM   19  O   UNL     1     -11.243  15.185  66.896  1.00  0.00    -0.330 OA 
BRANCH  19  20
HETATM   20  C   UNL     1     -11.502  15.292  68.302  1.00  0.00    -0.347 C  
HETATM   21  C   UNL     1     -10.926  16.577  68.858  1.00  0.00    -0.325 C  
ENDBRANCH  19  20
ENDBRANCH  17  19
ENDBRANCH  13  17
ENDBRANCH  11  13
ENDBRANCH  10  11
ENDBRANCH   9  10
ENDBRANCH   7   9
ENDBRANCH   6   7
BRANCH   6  22
HETATM   22  C   UNL     1     -12.726  11.368  71.216  1.00  0.00    -0.393 C  
HETATM   23  H   UNL     1     -13.703  13.674  72.269  1.00  0.00     0.000 H  
HETATM   24  S   UNL     1     -12.817  13.190  71.315  1.00  0.00    -0.221 SA 
ENDBRANCH   6  22
ENDBRANCH   4   6
ENDBRANCH   3   4
ENDBRANCH   2   3
TORSDOF 13
ENDMDL
MODEL      214
REMARK 921   NORMALIZED FREE ENERGY PREDICTED BY IDOCK:   -3.63 KCAL/MOL
REMARK 922        TOTAL FREE ENERGY PREDICTED BY IDOCK:   -6.98 KCAL/MOL
REMARK 923 INTER-LIGAND FREE ENERGY PREDICTED BY IDOCK:   -6.17 KCAL/MOL
REMARK 924 INTRA-LIGAND FREE ENERGY PREDICTED BY IDOCK:   -0.80 KCAL/MOL
REMARK 927      BINDING AFFINITY PREDICTED BY RF-SCORE:    0.00 PKD
ROOT
HETATM    1  C   UNL     1     -13.097   9.428  71.961  1.00  0.00    -0.516 C  
HETATM    2  C   UNL     1     -12.840  10.782  71.334  1.00  0.00    -0.452 C  
ENDROOT
BRANCH   2   3
HETATM    3  O   UNL     1     -12.326  10.623  70.002  1.00  0.00    -0.311 OA 
BRANCH   3   4
HETATM    4  C   UNL     1     -11.617  11.679  69.510  1.00  0.00    -0.331 C  
HETATM    5  O   UNL     1     -11.899  12.859  69.679  1.00  0.00    -0.311 OA 
BRANCH   4   6
HETATM    6  C   UNL     1     -10.402  11.158  68.719  1.00  0.00    -0.205 C  
BRANCH   6   7
HETATM    7  N   UNL     1      -9.318  12.178  68.731  1.00  0.00    -0.399 NA 
HETATM    8  H   UNL     1      -8.615  11.940  69.431  1.00  0.00     0.000 HD 
BRANCH   7   9
HETATM    9  C   UNL     1      -8.687  12.406  67.427  1.00  0.00    -0.183 C  
BRANCH   9  10
HETATM   10  C   UNL     1      -9.307  13.586  66.645  1.00  0.00    -0.245 C  
BRANCH  10  11
HETATM   11  N   UNL     1      -9.720  13.268  65.269  1.00  0.00    -0.518 NA 
HETATM   12  H   UNL     1      -8.905  13.064  64.690  1.00  0.00     0.000 HD 
BRANCH  11  13
HETATM   13  C   UNL     1     -10.722  12.166  65.168  1.00  0.00    -0.292 C  
BRANCH  13  14
HETATM   14  C   UNL     1     -12.132  12.661  64.778  1.00  0.00    -0.436 C  
HETATM   15  H   UNL     1     -13.912  14.640  65.282  1.00  0.00     0.000 H  
HETATM   16  S   UNL     1     -12.643  14.195  65.633  1.00  0.00    -0.398 SA 
ENDBRANCH  13  14
BRANCH  13  17
HETATM   17  C   UNL     1     -10.231  11.109  64.154  1.00  0.00    -0.347 C  
HETATM   18  O   UNL     1     -10.352  11.184  62.936  1.00  0.00    -0.225 OA 
BRANCH  17  19
HETATM   19  O   UNL     1      -9.627  10.076  64.810  1.00  0.00    -0.283 OA 
BRANCH  19  20
HETATM   20  C   UNL     1      -8.420   9.576  64.218  1.00  0.00    -0.184 C  
HETATM   21  C   UNL     1      -7.215   9.964  65.048  1.00  0.00    -0.135 C  
ENDBRANCH  19  20
ENDBRANCH  17  19
ENDBRANCH  13  17
ENDBRANCH  11  13
ENDBRANCH  10  11
ENDBRANCH   9  10
ENDBRANCH   7   9
ENDBRANCH   6   7
BRANCH   6  22
HETATM   22  C   UNL     1     -10.016   9.761  69.247  1.00  0.00    -0.192 C  
HETATM   23  H   UNL     1      -9.896   7.146  68.518  1.00  0.00     0.000 H  
HETATM   24  S   UNL     1     -10.243   8.405  68.043  1.00  0.00    -0.212 SA 
ENDBRANCH   6  22
ENDBRANCH   4   6
ENDBRANCH   3   4
ENDBRANCH   2   3
TORSDOF 13
ENDMDL
MODEL      215
REMARK 921   NORMALIZED FREE ENERGY PREDICTED BY IDOCK:   -3.63 KCAL/MOL
REMARK 922        TOTAL FREE ENERGY PREDICTED BY IDOCK:   -6.98 KCAL/MOL
REMARK 923 INTER-LIGAND FREE ENERGY PREDICTED BY IDOCK:   -6.06 KCAL/MOL
REMARK 924 INTRA-LIGAND FREE ENERGY PREDICTED BY IDOCK:   -0.92 KCAL/MOL
REMARK 927      BINDING AFFINITY PREDICTED BY RF-SCORE:    0.00 PKD
ROOT
HETATM    1  C   UNL     1     -11.894  13.935  69.202  1.00  0.00    -0.401 C  
HETATM    2  C   UNL     1     -11.177  13.057  68.199  1.00  0.00    -0.272 C  
ENDROOT
BRANCH   2   3
HETATM    3  O   UNL     1     -12.127  12.365  67.375  1.00  0.00    -0.505 OA 
BRANCH   3   4
HETATM    4  C   UNL     1     -12.149  12.728  66.061  1.00  0.00    -0.395 C  
HETATM    5  O   UNL     1     -13.152  13.042  65.432  1.00  0.00    -0.607 OA 
BRANCH   4   6
HETATM    6  C   UNL     1     -10.717  12.694  65.494  1.00  0.00    -0.274 C  
BRANCH   6   7
HETATM    7  N   UNL     1     -10.463  11.377  64.848  1.00  0.00    -0.290 NA 
HETATM    8  H   UNL     1      -9.716  11.459  64.157  1.00  0.00     0.000 HD 
BRANCH   7   9
HETATM    9  C   UNL     1     -10.175  10.287  65.785  1.00  0.00    -0.219 C  
BRANCH   9  10
HETATM   10  C   UNL     1      -8.952  10.562  66.688  1.00  0.00    -0.141 C  
BRANCH  10  11
HETATM   11  N   UNL     1      -9.137  10.218  68.107  1.00  0.00    -0.135 NA 
HETATM   12  H   UNL     1      -9.355  11.053  68.651  1.00  0.00     0.000 HD 
BRANCH  11  13
HETATM   13  C   UNL     1     -10.156   9.154  68.352  1.00  0.00    -0.196 C  
BRANCH  13  14
HETATM   14  C   UNL     1      -9.609   7.727  68.133  1.00  0.00    -0.151 C  
HETATM   15  H   UNL     1     -10.417   5.167  67.767  1.00  0.00     0.000 H  
HETATM   16  S   UNL     1     -10.910   6.452  67.963  1.00  0.00    -0.316 SA 
ENDBRANCH  13  14
BRANCH  13  17
HETATM   17  C   UNL     1     -10.719   9.294  69.784  1.00  0.00    -0.231 C  
HETATM   18  O   UNL     1     -11.729   9.916  70.092  1.00  0.00    -0.239 OA 
BRANCH  17  19
HETATM   19  O   UNL     1      -9.930   8.612  70.665  1.00  0.00    -0.179 OA 
BRANCH  19  20
HETATM   20  C   UNL     1     -10.086   8.961  72.047  1.00  0.00    -0.281 C  
HETATM   21  C   UNL     1     -10.737   7.831  72.816  1.00  0.00    -0.417 C  
ENDBRANCH  19  20
ENDBRANCH  17  19
ENDBRANCH  13  17
ENDBRANCH  11  13
ENDBRANCH  10  11
ENDBRANCH   9  10
ENDBRANCH   7   9
ENDBRANCH   6   7
BRANCH   6  22
HETATM   22  C   UNL     1     -10.494  13.934  64.604  1.00  0.00    -0.396 C  
HETATM   23  H   UNL     1     -10.303  16.642  64.701  1.00  0.00     0.000 H  
HETATM   24  S   UNL     1     -10.504  15.524  65.502  1.00  0.00    -0.410 SA 
ENDBRANCH   6  22
ENDBRANCH   4   6
ENDBRANCH   3   4
ENDBRANCH   2   3
TORSDOF 13
ENDMDL
MODEL      216
REMARK 921   NORMALIZED FREE ENERGY PREDICTED BY IDOCK:   -3.63 KCAL/MOL
REMARK 922        TOTAL FREE ENERGY PREDICTED BY IDOCK:   -6.98 KCAL/MOL
REMARK 923 INTER-LIGAND FREE ENERGY PREDICTED BY IDOCK:   -5.63 KCAL/MOL
REMARK 924 INTRA-LIGAND FREE ENERGY PREDICTED BY IDOCK:   -1.35 KCAL/MOL
REMARK 927      BINDING AFFINITY PREDICTED BY RF-SCORE:    0.00 PKD
ROOT
HETATM    1  C   UNL     1     -12.939   9.891  71.640  1.00  0.00    -0.536 C  
HETATM    2  C   UNL     1     -12.773  11.351  71.277  1.00  0.00    -0.393 C  
ENDROOT
BRANCH   2   3
HETATM    3  O   UNL     1     -12.169  11.477  69.981  1.00  0.00    -0.299 OA 
BRANCH   3   4
HETATM    4  C   UNL     1     -11.874  12.747  69.584  1.00  0.00    -0.317 C  
HETATM    5  O   UNL     1     -12.310  13.768  70.101  1.00  0.00    -0.335 OA 
BRANCH   4   6
HETATM    6  C   UNL     1     -10.898  12.699  68.393  1.00  0.00    -0.245 C  
BRANCH   6   7
HETATM    7  N   UNL     1      -9.557  12.249  68.858  1.00  0.00    -0.406 NA 
HETATM    8  H   UNL     1      -9.512  12.263  69.878  1.00  0.00     0.000 HD 
BRANCH   7   9
HETATM    9  C   UNL     1      -9.146  10.939  68.345  1.00  0.00    -0.164 C  
BRANCH   9  10
HETATM   10  C   UNL     1      -9.138   9.833  69.424  1.00  0.00    -0.201 C  
BRANCH  10  11
HETATM   11  N   UNL     1     -10.333   8.973  69.440  1.00  0.00    -0.208 NA 
HETATM   12  H   UNL     1     -11.009   9.291  68.745  1.00  0.00     0.000 HD 
BRANCH  11  13
HETATM   13  C   UNL     1     -10.044   7.520  69.261  1.00  0.00    -0.188 C  
BRANCH  13  14
HETATM   14  C   UNL     1      -8.550   7.171  69.436  1.00  0.00    -0.134 C  
HETATM   15  H   UNL     1      -6.503   5.887  68.210  1.00  0.00     0.000 H  
HETATM   16  S   UNL     1      -7.848   6.202  68.053  1.00  0.00    -0.107 SA 
ENDBRANCH  13  14
BRANCH  13  17
HETATM   17  C   UNL     1     -10.901   6.696  70.248  1.00  0.00    -0.271 C  
HETATM   18  O   UNL     1     -12.112   6.523  70.164  1.00  0.00    -0.323 OA 
BRANCH  17  19
HETATM   19  O   UNL     1     -10.111   6.172  71.230  1.00  0.00    -0.183 OA 
BRANCH  19  20
HETATM   20  C   UNL     1     -10.557   6.388  72.576  1.00  0.00    -0.214 C  
HETATM   21  C   UNL     1     -10.134   7.755  73.069  1.00  0.00    -0.382 C  
ENDBRANCH  19  20
ENDBRANCH  17  19
ENDBRANCH  13  17
ENDBRANCH  11  13
ENDBRANCH  10  11
ENDBRANCH   9  10
ENDBRANCH   7   9
ENDBRANCH   6   7
BRANCH   6  22
HETATM   22  C   UNL     1     -11.528  11.870  67.255  1.00  0.00    -0.317 C  
HETATM   23  H   UNL     1     -12.716  12.111  64.825  1.00  0.00     0.000 H  
HETATM   24  S   UNL     1     -12.149  12.857  65.850  1.00  0.00    -0.406 SA 
ENDBRANCH   6  22
ENDBRANCH   4   6
ENDBRANCH   3   4
ENDBRANCH   2   3
TORSDOF 13
ENDMDL
MODEL      217
REMARK 921   NORMALIZED FREE ENERGY PREDICTED BY IDOCK:   -3.63 KCAL/MOL
REMARK 922        TOTAL FREE ENERGY PREDICTED BY IDOCK:   -6.98 KCAL/MOL
REMARK 923 INTER-LIGAND FREE ENERGY PREDICTED BY IDOCK:   -6.31 KCAL/MOL
REMARK 924 INTRA-LIGAND FREE ENERGY PREDICTED BY IDOCK:   -0.67 KCAL/MOL
REMARK 927      BINDING AFFINITY PREDICTED BY RF-SCORE:    0.00 PKD
ROOT
HETATM    1  C   UNL     1      -7.864  11.638  66.942  1.00  0.00    -0.156 C  
HETATM    2  C   UNL     1      -8.157  10.181  66.655  1.00  0.00    -0.120 C  
ENDROOT
BRANCH   2   3
HETATM    3  O   UNL     1      -8.731   9.552  67.811  1.00  0.00    -0.116 OA 
BRANCH   3   4
HETATM    4  C   UNL     1     -10.059   9.254  67.727  1.00  0.00    -0.204 C  
HETATM    5  O   UNL     1     -10.578   8.580  66.845  1.00  0.00    -0.298 OA 
BRANCH   4   6
HETATM    6  C   UNL     1     -10.804   9.888  68.917  1.00  0.00    -0.210 C  
BRANCH   6   7
HETATM    7  N   UNL     1     -11.981  10.654  68.425  1.00  0.00    -0.811 NA 
HETATM    8  H   UNL     1     -12.613  10.870  69.197  1.00  0.00     0.000 HD 
BRANCH   7   9
HETATM    9  C   UNL     1     -11.644  11.874  67.684  1.00  0.00    -0.312 C  
BRANCH   9  10
HETATM   10  C   UNL     1     -11.964  13.170  68.461  1.00  0.00    -0.289 C  
BRANCH  10  11
HETATM   11  N   UNL     1     -10.997  14.264  68.267  1.00  0.00    -0.241 NA 
HETATM   12  H   UNL     1     -10.744  14.345  67.282  1.00  0.00     0.000 HD 
BRANCH  11  13
HETATM   13  C   UNL     1     -11.447  15.583  68.801  1.00  0.00    -0.355 C  
BRANCH  13  14
HETATM   14  C   UNL     1     -11.181  15.749  70.313  1.00  0.00    -0.366 C  
HETATM   15  H   UNL     1     -12.437  15.730  72.713  1.00  0.00     0.000 H  
HETATM   16  S   UNL     1     -12.677  15.581  71.352  1.00  0.00    -0.477 SA 
ENDBRANCH  13  14
BRANCH  13  17
HETATM   17  C   UNL     1     -10.764  16.722  68.013  1.00  0.00    -0.355 C  
HETATM   18  O   UNL     1     -10.502  16.700  66.816  1.00  0.00    -0.298 OA 
BRANCH  17  19
HETATM   19  O   UNL     1     -10.500  17.773  68.844  1.00  0.00    -0.342 OA 
BRANCH  19  20
HETATM   20  C   UNL     1     -10.184  19.016  68.203  1.00  0.00    -0.396 C  
HETATM   21  C   UNL     1      -8.735  19.388  68.438  1.00  0.00    -0.397 C  
ENDBRANCH  19  20
ENDBRANCH  17  19
ENDBRANCH  13  17
ENDBRANCH  11  13
ENDBRANCH  10  11
ENDBRANCH   9  10
ENDBRANCH   7   9
ENDBRANCH   6   7
BRANCH   6  22
HETATM   22  C   UNL     1     -11.103   8.797  69.966  1.00  0.00    -0.162 C  
HETATM   23  H   UNL     1     -12.198   8.422  72.424  1.00  0.00     0.000 H  
HETATM   24  S   UNL     1     -11.928   9.404  71.479  1.00  0.00    -0.405 SA 
ENDBRANCH   6  22
ENDBRANCH   4   6
ENDBRANCH   3   4
ENDBRANCH   2   3
TORSDOF 13
ENDMDL
MODEL      218
REMARK 921   NORMALIZED FREE ENERGY PREDICTED BY IDOCK:   -3.63 KCAL/MOL
REMARK 922        TOTAL FREE ENERGY PREDICTED BY IDOCK:   -6.98 KCAL/MOL
REMARK 923 INTER-LIGAND FREE ENERGY PREDICTED BY IDOCK:   -6.01 KCAL/MOL
REMARK 924 INTRA-LIGAND FREE ENERGY PREDICTED BY IDOCK:   -0.97 KCAL/MOL
REMARK 927      BINDING AFFINITY PREDICTED BY RF-SCORE:    0.00 PKD
ROOT
HETATM    1  C   UNL     1      -7.335  20.240  67.085  1.00  0.00    -0.329 C  
HETATM    2  C   UNL     1      -7.429  19.476  68.389  1.00  0.00    -0.324 C  
ENDROOT
BRANCH   2   3
HETATM    3  O   UNL     1      -7.658  18.082  68.133  1.00  0.00    -0.241 OA 
BRANCH   3   4
HETATM    4  C   UNL     1      -8.955  17.723  67.914  1.00  0.00    -0.255 C  
HETATM    5  O   UNL     1      -9.919  18.141  68.544  1.00  0.00    -0.357 OA 
BRANCH   4   6
HETATM    6  C   UNL     1      -9.021  16.721  66.747  1.00  0.00    -0.240 C  
BRANCH   6   7
HETATM    7  N   UNL     1      -7.971  15.679  66.917  1.00  0.00    -0.239 NA 
HETATM    8  H   UNL     1      -7.092  16.106  67.214  1.00  0.00     0.000 HD 
BRANCH   7   9
HETATM    9  C   UNL     1      -8.342  14.588  67.824  1.00  0.00    -0.169 C  
BRANCH   9  10
HETATM   10  C   UNL     1      -7.874  13.199  67.334  1.00  0.00    -0.165 C  
BRANCH  10  11
HETATM   11  N   UNL     1      -8.914  12.158  67.334  1.00  0.00    -0.173 NA 
HETATM   12  H   UNL     1      -9.424  12.164  68.218  1.00  0.00     0.000 HD 
BRANCH  11  13
HETATM   13  C   UNL     1      -9.863  12.239  66.184  1.00  0.00    -0.243 C  
BRANCH  13  14
HETATM   14  C   UNL     1      -9.725  11.056  65.200  1.00  0.00    -0.254 C  
HETATM   15  H   UNL     1      -9.891  10.445  62.566  1.00  0.00     0.000 H  
HETATM   16  S   UNL     1     -10.014  11.509  63.452  1.00  0.00    -0.433 SA 
ENDBRANCH  13  14
BRANCH  13  17
HETATM   17  C   UNL     1     -11.312  12.325  66.711  1.00  0.00    -0.339 C  
HETATM   18  O   UNL     1     -12.323  12.294  66.018  1.00  0.00    -0.609 OA 
BRANCH  17  19
HETATM   19  O   UNL     1     -11.310  12.430  68.073  1.00  0.00    -0.246 OA 
BRANCH  19  20
HETATM   20  C   UNL     1     -12.034  13.541  68.618  1.00  0.00    -0.343 C  
HETATM   21  C   UNL     1     -12.137  13.427  70.124  1.00  0.00    -0.415 C  
ENDBRANCH  19  20
ENDBRANCH  17  19
ENDBRANCH  13  17
ENDBRANCH  11  13
ENDBRANCH  10  11
ENDBRANCH   9  10
ENDBRANCH   7   9
ENDBRANCH   6   7
BRANCH   6  22
HETATM   22  C   UNL     1     -10.466  16.201  66.606  1.00  0.00    -0.300 C  
HETATM   23  H   UNL     1     -12.211  15.165  64.799  1.00  0.00     0.000 H  
HETATM   24  S   UNL     1     -10.909  15.634  64.926  1.00  0.00    -0.333 SA 
ENDBRANCH   6  22
ENDBRANCH   4   6
ENDBRANCH   3   4
ENDBRANCH   2   3
TORSDOF 13
ENDMDL
MODEL      219
REMARK 921   NORMALIZED FREE ENERGY PREDICTED BY IDOCK:   -3.62 KCAL/MOL
REMARK 922        TOTAL FREE ENERGY PREDICTED BY IDOCK:   -6.96 KCAL/MOL
REMARK 923 INTER-LIGAND FREE ENERGY PREDICTED BY IDOCK:   -6.21 KCAL/MOL
REMARK 924 INTRA-LIGAND FREE ENERGY PREDICTED BY IDOCK:   -0.76 KCAL/MOL
REMARK 927      BINDING AFFINITY PREDICTED BY RF-SCORE:    0.00 PKD
ROOT
HETATM    1  C   UNL     1     -13.153  10.734  71.733  1.00  0.00    -0.573 C  
HETATM    2  C   UNL     1     -12.770   9.316  72.100  1.00  0.00    -0.390 C  
ENDROOT
BRANCH   2   3
HETATM    3  O   UNL     1     -11.381   9.087  71.818  1.00  0.00    -0.334 OA 
BRANCH   3   4
HETATM    4  C   UNL     1     -11.117   8.260  70.766  1.00  0.00    -0.258 C  
HETATM    5  O   UNL     1     -11.716   7.222  70.517  1.00  0.00    -0.285 OA 
BRANCH   4   6
HETATM    6  C   UNL     1      -9.956   8.841  69.936  1.00  0.00    -0.187 C  
BRANCH   6   7
HETATM    7  N   UNL     1     -10.090  10.321  69.849  1.00  0.00    -0.389 NA 
HETATM    8  H   UNL     1      -9.177  10.766  69.939  1.00  0.00     0.000 HD 
BRANCH   7   9
HETATM    9  C   UNL     1     -10.776  10.798  68.643  1.00  0.00    -0.208 C  
BRANCH   9  10
HETATM   10  C   UNL     1     -11.376  12.213  68.799  1.00  0.00    -0.288 C  
BRANCH  10  11
HETATM   11  N   UNL     1     -10.394  13.309  68.775  1.00  0.00    -0.388 NA 
HETATM   12  H   UNL     1      -9.479  12.962  68.486  1.00  0.00     0.000 HD 
BRANCH  11  13
HETATM   13  C   UNL     1     -10.798  14.476  67.937  1.00  0.00    -0.256 C  
BRANCH  13  14
HETATM   14  C   UNL     1     -11.950  14.153  66.960  1.00  0.00    -0.439 C  
HETATM   15  H   UNL     1     -12.590  14.202  64.328  1.00  0.00     0.000 H  
HETATM   16  S   UNL     1     -11.553  14.493  65.208  1.00  0.00    -0.364 SA 
ENDBRANCH  13  14
BRANCH  13  17
HETATM   17  C   UNL     1     -11.192  15.659  68.850  1.00  0.00    -0.311 C  
HETATM   18  O   UNL     1     -12.238  15.748  69.484  1.00  0.00    -0.325 OA 
BRANCH  17  19
HETATM   19  O   UNL     1     -10.198  16.595  68.859  1.00  0.00    -0.249 OA 
BRANCH  19  20
HETATM   20  C   UNL     1     -10.302  17.630  67.872  1.00  0.00    -0.371 C  
HETATM   21  C   UNL     1     -10.391  18.991  68.529  1.00  0.00    -0.336 C  
ENDBRANCH  19  20
ENDBRANCH  17  19
ENDBRANCH  13  17
ENDBRANCH  11  13
ENDBRANCH  10  11
ENDBRANCH   9  10
ENDBRANCH   7   9
ENDBRANCH   6   7
BRANCH   6  22
HETATM   22  C   UNL     1      -8.619   8.319  70.500  1.00  0.00    -0.131 C  
HETATM   23  H   UNL     1      -6.074   9.091  71.054  1.00  0.00     0.000 H  
HETATM   24  S   UNL     1      -7.279   9.560  70.546  1.00  0.00    -0.126 SA 
ENDBRANCH   6  22
ENDBRANCH   4   6
ENDBRANCH   3   4
ENDBRANCH   2   3
TORSDOF 13
ENDMDL
MODEL      220
REMARK 921   NORMALIZED FREE ENERGY PREDICTED BY IDOCK:   -3.61 KCAL/MOL
REMARK 922        TOTAL FREE ENERGY PREDICTED BY IDOCK:   -6.95 KCAL/MOL
REMARK 923 INTER-LIGAND FREE ENERGY PREDICTED BY IDOCK:   -6.19 KCAL/MOL
REMARK 924 INTRA-LIGAND FREE ENERGY PREDICTED BY IDOCK:   -0.76 KCAL/MOL
REMARK 927      BINDING AFFINITY PREDICTED BY RF-SCORE:    0.00 PKD
ROOT
HETATM    1  C   UNL     1     -14.141  13.793  72.243  1.00  0.00    -0.627 C  
HETATM    2  C   UNL     1     -12.752  13.559  71.687  1.00  0.00    -0.287 C  
ENDROOT
BRANCH   2   3
HETATM    3  O   UNL     1     -12.596  14.245  70.435  1.00  0.00    -0.340 OA 
BRANCH   3   4
HETATM    4  C   UNL     1     -11.740  15.307  70.443  1.00  0.00    -0.310 C  
HETATM    5  O   UNL     1     -11.562  16.064  71.389  1.00  0.00    -0.417 OA 
BRANCH   4   6
HETATM    6  C   UNL     1     -11.025  15.399  69.081  1.00  0.00    -0.252 C  
BRANCH   6   7
HETATM    7  N   UNL     1     -11.843  14.725  68.036  1.00  0.00    -0.480 NA 
HETATM    8  H   UNL     1     -12.336  15.416  67.470  1.00  0.00     0.000 HD 
BRANCH   7   9
HETATM    9  C   UNL     1     -11.091  13.803  67.179  1.00  0.00    -0.302 C  
BRANCH   9  10
HETATM   10  C   UNL     1     -11.836  12.479  66.902  1.00  0.00    -0.334 C  
BRANCH  10  11
HETATM   11  N   UNL     1     -12.012  11.609  68.076  1.00  0.00    -0.609 NA 
HETATM   12  H   UNL     1     -12.467  10.736  67.808  1.00  0.00     0.000 HD 
BRANCH  11  13
HETATM   13  C   UNL     1     -10.753  11.332  68.829  1.00  0.00    -0.203 C  
BRANCH  13  14
HETATM   14  C   UNL     1     -10.996  10.623  70.179  1.00  0.00    -0.222 C  
HETATM   15  H   UNL     1     -12.976   9.636  71.743  1.00  0.00     0.000 H  
HETATM   16  S   UNL     1     -12.757  10.274  70.527  1.00  0.00    -0.181 SA 
ENDBRANCH  13  14
BRANCH  13  17
HETATM   17  C   UNL     1      -9.798  10.492  67.952  1.00  0.00    -0.160 C  
HETATM   18  O   UNL     1      -8.870  10.937  67.286  1.00  0.00    -0.134 OA 
BRANCH  17  19
HETATM   19  O   UNL     1     -10.129   9.170  68.033  1.00  0.00    -0.176 OA 
BRANCH  19  20
HETATM   20  C   UNL     1     -10.408   8.515  66.788  1.00  0.00    -0.276 C  
HETATM   21  C   UNL     1      -9.329   7.504  66.461  1.00  0.00    -0.231 C  
ENDBRANCH  19  20
ENDBRANCH  17  19
ENDBRANCH  13  17
ENDBRANCH  11  13
ENDBRANCH  10  11
ENDBRANCH   9  10
ENDBRANCH   7   9
ENDBRANCH   6   7
BRANCH   6  22
HETATM   22  C   UNL     1     -10.657  16.871  68.801  1.00  0.00    -0.355 C  
HETATM   23  H   UNL     1      -9.670  18.509  66.872  1.00  0.00     0.000 H  
HETATM   24  S   UNL     1     -10.001  17.183  67.125  1.00  0.00    -0.292 SA 
ENDBRANCH   6  22
ENDBRANCH   4   6
ENDBRANCH   3   4
ENDBRANCH   2   3
TORSDOF 13
ENDMDL
MODEL      221
REMARK 921   NORMALIZED FREE ENERGY PREDICTED BY IDOCK:   -3.61 KCAL/MOL
REMARK 922        TOTAL FREE ENERGY PREDICTED BY IDOCK:   -6.95 KCAL/MOL
REMARK 923 INTER-LIGAND FREE ENERGY PREDICTED BY IDOCK:   -6.31 KCAL/MOL
REMARK 924 INTRA-LIGAND FREE ENERGY PREDICTED BY IDOCK:   -0.64 KCAL/MOL
REMARK 927      BINDING AFFINITY PREDICTED BY RF-SCORE:    0.00 PKD
ROOT
HETATM    1  C   UNL     1     -11.946  10.957  69.759  1.00  0.00    -0.423 C  
HETATM    2  C   UNL     1     -11.736  12.173  68.883  1.00  0.00    -0.327 C  
ENDROOT
BRANCH   2   3
HETATM    3  O   UNL     1     -12.058  11.865  67.518  1.00  0.00    -0.573 OA 
BRANCH   3   4
HETATM    4  C   UNL     1     -11.019  11.916  66.636  1.00  0.00    -0.291 C  
HETATM    5  O   UNL     1     -10.161  11.052  66.505  1.00  0.00    -0.218 OA 
BRANCH   4   6
HETATM    6  C   UNL     1     -11.098  13.223  65.825  1.00  0.00    -0.279 C  
BRANCH   6   7
HETATM    7  N   UNL     1     -10.168  14.231  66.403  1.00  0.00    -0.284 NA 
HETATM    8  H   UNL     1      -9.305  13.783  66.712  1.00  0.00     0.000 HD 
BRANCH   7   9
HETATM    9  C   UNL     1      -9.870  15.360  65.516  1.00  0.00    -0.324 C  
BRANCH   9  10
HETATM   10  C   UNL     1     -10.032  16.736  66.199  1.00  0.00    -0.327 C  
BRANCH  10  11
HETATM   11  N   UNL     1      -9.416  16.842  67.532  1.00  0.00    -0.239 NA 
HETATM   12  H   UNL     1      -9.163  15.918  67.883  1.00  0.00     0.000 HD 
BRANCH  11  13
HETATM   13  C   UNL     1      -8.243  17.764  67.595  1.00  0.00    -0.230 C  
BRANCH  13  14
HETATM   14  C   UNL     1      -7.760  18.228  66.203  1.00  0.00    -0.220 C  
HETATM   15  H   UNL     1      -5.555  18.315  64.632  1.00  0.00     0.000 H  
HETATM   16  S   UNL     1      -5.990  17.897  65.885  1.00  0.00    -0.189 SA 
ENDBRANCH  13  14
BRANCH  13  17
HETATM   17  C   UNL     1      -8.591  18.988  68.471  1.00  0.00    -0.358 C  
HETATM   18  O   UNL     1      -9.693  19.224  68.955  1.00  0.00    -0.414 OA 
BRANCH  17  19
HETATM   19  O   UNL     1      -7.486  19.771  68.642  1.00  0.00    -0.325 OA 
BRANCH  19  20
HETATM   20  C   UNL     1      -6.828  19.660  69.910  1.00  0.00    -0.151 C  
HETATM   21  C   UNL     1      -5.542  18.871  69.781  1.00  0.00    -0.232 C  
ENDBRANCH  19  20
ENDBRANCH  17  19
ENDBRANCH  13  17
ENDBRANCH  11  13
ENDBRANCH  10  11
ENDBRANCH   9  10
ENDBRANCH   7   9
ENDBRANCH   6   7
BRANCH   6  22
HETATM   22  C   UNL     1     -10.899  12.904  64.329  1.00  0.00    -0.397 C  
HETATM   23  H   UNL     1     -12.152  11.819  62.178  1.00  0.00     0.000 H  
HETATM   24  S   UNL     1     -12.332  12.106  63.525  1.00  0.00    -0.509 SA 
ENDBRANCH   6  22
ENDBRANCH   4   6
ENDBRANCH   3   4
ENDBRANCH   2   3
TORSDOF 13
ENDMDL
MODEL      222
REMARK 921   NORMALIZED FREE ENERGY PREDICTED BY IDOCK:   -3.61 KCAL/MOL
REMARK 922        TOTAL FREE ENERGY PREDICTED BY IDOCK:   -6.94 KCAL/MOL
REMARK 923 INTER-LIGAND FREE ENERGY PREDICTED BY IDOCK:   -5.89 KCAL/MOL
REMARK 924 INTRA-LIGAND FREE ENERGY PREDICTED BY IDOCK:   -1.05 KCAL/MOL
REMARK 927      BINDING AFFINITY PREDICTED BY RF-SCORE:    0.00 PKD
ROOT
HETATM    1  C   UNL     1     -12.794  10.954  71.459  1.00  0.00    -0.560 C  
HETATM    2  C   UNL     1     -12.983   9.452  71.456  1.00  0.00    -0.371 C  
ENDROOT
BRANCH   2   3
HETATM    3  O   UNL     1     -11.733   8.793  71.712  1.00  0.00    -0.300 OA 
BRANCH   3   4
HETATM    4  C   UNL     1     -11.384   7.817  70.826  1.00  0.00    -0.279 C  
HETATM    5  O   UNL     1     -12.071   6.843  70.542  1.00  0.00    -0.353 OA 
BRANCH   4   6
HETATM    6  C   UNL     1      -9.999   8.135  70.232  1.00  0.00    -0.189 C  
BRANCH   6   7
HETATM    7  N   UNL     1     -10.005   9.502  69.643  1.00  0.00    -0.191 NA 
HETATM    8  H   UNL     1      -9.052   9.853  69.550  1.00  0.00     0.000 HD 
BRANCH   7   9
HETATM    9  C   UNL     1     -10.717   9.608  68.365  1.00  0.00    -0.209 C  
BRANCH   9  10
HETATM   10  C   UNL     1     -11.188  11.043  68.044  1.00  0.00    -0.309 C  
BRANCH  10  11
HETATM   11  N   UNL     1     -10.507  12.104  68.804  1.00  0.00    -0.338 NA 
HETATM   12  H   UNL     1      -9.742  11.713  69.355  1.00  0.00     0.000 HD 
BRANCH  11  13
HETATM   13  C   UNL     1     -10.020  13.242  67.970  1.00  0.00    -0.233 C  
BRANCH  13  14
HETATM   14  C   UNL     1      -9.174  12.789  66.759  1.00  0.00    -0.225 C  
HETATM   15  H   UNL     1      -6.871  11.509  66.128  1.00  0.00     0.000 H  
HETATM   16  S   UNL     1      -7.633  11.917  67.217  1.00  0.00    -0.157 SA 
ENDBRANCH  13  14
BRANCH  13  17
HETATM   17  C   UNL     1     -11.221  14.086  67.491  1.00  0.00    -0.309 C  
HETATM   18  O   UNL     1     -12.102  14.541  68.213  1.00  0.00    -0.292 OA 
BRANCH  17  19
HETATM   19  O   UNL     1     -11.159  14.266  66.139  1.00  0.00    -0.314 OA 
BRANCH  19  20
HETATM   20  C   UNL     1     -12.379  14.046  65.420  1.00  0.00    -0.478 C  
HETATM   21  C   UNL     1     -12.498  12.597  64.995  1.00  0.00    -0.556 C  
ENDBRANCH  19  20
ENDBRANCH  17  19
ENDBRANCH  13  17
ENDBRANCH  11  13
ENDBRANCH  10  11
ENDBRANCH   9  10
ENDBRANCH   7   9
ENDBRANCH   6   7
BRANCH   6  22
HETATM   22  C   UNL     1      -8.917   7.867  71.298  1.00  0.00    -0.135 C  
HETATM   23  H   UNL     1      -6.435   8.646  72.083  1.00  0.00     0.000 H  
HETATM   24  S   UNL     1      -7.411   8.886  71.123  1.00  0.00    -0.091 SA 
ENDBRANCH   6  22
ENDBRANCH   4   6
ENDBRANCH   3   4
ENDBRANCH   2   3
TORSDOF 13
ENDMDL
MODEL      223
REMARK 921   NORMALIZED FREE ENERGY PREDICTED BY IDOCK:   -3.60 KCAL/MOL
REMARK 922        TOTAL FREE ENERGY PREDICTED BY IDOCK:   -6.94 KCAL/MOL
REMARK 923 INTER-LIGAND FREE ENERGY PREDICTED BY IDOCK:   -6.17 KCAL/MOL
REMARK 924 INTRA-LIGAND FREE ENERGY PREDICTED BY IDOCK:   -0.77 KCAL/MOL
REMARK 927      BINDING AFFINITY PREDICTED BY RF-SCORE:    0.00 PKD
ROOT
HETATM    1  C   UNL     1     -11.138   5.905  71.917  1.00  0.00    -0.325 C  
HETATM    2  C   UNL     1     -11.987   7.157  71.893  1.00  0.00    -0.307 C  
ENDROOT
BRANCH   2   3
HETATM    3  O   UNL     1     -11.270   8.256  72.476  1.00  0.00    -0.363 OA 
BRANCH   3   4
HETATM    4  C   UNL     1     -10.376   8.882  71.659  1.00  0.00    -0.345 C  
HETATM    5  O   UNL     1      -9.172   8.972  71.866  1.00  0.00    -0.353 OA 
BRANCH   4   6
HETATM    6  C   UNL     1     -11.114   9.449  70.431  1.00  0.00    -0.261 C  
BRANCH   6   7
HETATM    7  N   UNL     1     -11.551  10.845  70.706  1.00  0.00    -0.386 NA 
HETATM    8  H   UNL     1     -10.813  11.361  71.186  1.00  0.00     0.000 HD 
BRANCH   7   9
HETATM    9  C   UNL     1     -12.006  11.582  69.523  1.00  0.00    -0.335 C  
BRANCH   9  10
HETATM   10  C   UNL     1     -11.926  13.116  69.690  1.00  0.00    -0.306 C  
BRANCH  10  11
HETATM   11  N   UNL     1     -12.099  13.885  68.446  1.00  0.00    -0.478 NA 
HETATM   12  H   UNL     1     -12.697  14.696  68.609  1.00  0.00     0.000 HD 
BRANCH  11  13
HETATM   13  C   UNL     1     -10.820  14.300  67.798  1.00  0.00    -0.253 C  
BRANCH  13  14
HETATM   14  C   UNL     1     -10.866  14.218  66.256  1.00  0.00    -0.310 C  
HETATM   15  H   UNL     1     -12.577  13.830  64.192  1.00  0.00     0.000 H  
HETATM   16  S   UNL     1     -12.536  13.904  65.580  1.00  0.00    -0.512 SA 
ENDBRANCH  13  14
BRANCH  13  17
HETATM   17  C   UNL     1     -10.454  15.733  68.243  1.00  0.00    -0.259 C  
HETATM   18  O   UNL     1     -11.195  16.708  68.177  1.00  0.00    -0.339 OA 
BRANCH  17  19
HETATM   19  O   UNL     1      -9.181  15.760  68.734  1.00  0.00    -0.191 OA 
BRANCH  19  20
HETATM   20  C   UNL     1      -8.255  16.601  68.033  1.00  0.00    -0.185 C  
HETATM   21  C   UNL     1      -7.235  15.768  67.285  1.00  0.00    -0.254 C  
ENDBRANCH  19  20
ENDBRANCH  17  19
ENDBRANCH  13  17
ENDBRANCH  11  13
ENDBRANCH  10  11
ENDBRANCH   9  10
ENDBRANCH   7   9
ENDBRANCH   6   7
BRANCH   6  22
HETATM   22  C   UNL     1     -10.234   9.256  69.178  1.00  0.00    -0.206 C  
HETATM   23  H   UNL     1      -9.441   7.382  67.378  1.00  0.00     0.000 H  
HETATM   24  S   UNL     1     -10.233   7.557  68.507  1.00  0.00    -0.199 SA 
ENDBRANCH   6  22
ENDBRANCH   4   6
ENDBRANCH   3   4
ENDBRANCH   2   3
TORSDOF 13
ENDMDL
MODEL      224
REMARK 921   NORMALIZED FREE ENERGY PREDICTED BY IDOCK:   -3.60 KCAL/MOL
REMARK 922        TOTAL FREE ENERGY PREDICTED BY IDOCK:   -6.93 KCAL/MOL
REMARK 923 INTER-LIGAND FREE ENERGY PREDICTED BY IDOCK:   -6.11 KCAL/MOL
REMARK 924 INTRA-LIGAND FREE ENERGY PREDICTED BY IDOCK:   -0.82 KCAL/MOL
REMARK 927      BINDING AFFINITY PREDICTED BY RF-SCORE:    0.00 PKD
ROOT
HETATM    1  C   UNL     1      -8.583   6.461  65.818  1.00  0.00    -0.152 C  
HETATM    2  C   UNL     1      -8.483   7.951  65.570  1.00  0.00    -0.139 C  
ENDROOT
BRANCH   2   3
HETATM    3  O   UNL     1      -9.694   8.605  65.980  1.00  0.00    -0.241 OA 
BRANCH   3   4
HETATM    4  C   UNL     1      -9.859   9.882  65.533  1.00  0.00    -0.311 C  
HETATM    5  O   UNL     1     -10.114  10.199  64.377  1.00  0.00    -0.282 OA 
BRANCH   4   6
HETATM    6  C   UNL     1      -9.687  10.864  66.708  1.00  0.00    -0.190 C  
BRANCH   6   7
HETATM    7  N   UNL     1      -9.254  12.193  66.194  1.00  0.00    -0.353 NA 
HETATM    8  H   UNL     1      -8.942  12.115  65.226  1.00  0.00     0.000 HD 
BRANCH   7   9
HETATM    9  C   UNL     1     -10.262  13.250  66.324  1.00  0.00    -0.296 C  
BRANCH   9  10
HETATM   10  C   UNL     1      -9.777  14.459  67.154  1.00  0.00    -0.248 C  
BRANCH  10  11
HETATM   11  N   UNL     1      -9.942  14.319  68.610  1.00  0.00    -0.237 NA 
HETATM   12  H   UNL     1      -9.033  14.248  69.067  1.00  0.00     0.000 HD 
BRANCH  11  13
HETATM   13  C   UNL     1     -10.761  15.396  69.241  1.00  0.00    -0.251 C  
BRANCH  13  14
HETATM   14  C   UNL     1     -11.123  16.535  68.263  1.00  0.00    -0.321 C  
HETATM   15  H   UNL     1     -10.404  19.050  67.560  1.00  0.00     0.000 H  
HETATM   16  S   UNL     1     -10.077  18.025  68.440  1.00  0.00    -0.397 SA 
ENDBRANCH  13  14
BRANCH  13  17
HETATM   17  C   UNL     1     -12.045  14.786  69.845  1.00  0.00    -0.332 C  
HETATM   18  O   UNL     1     -12.345  13.597  69.820  1.00  0.00    -0.305 OA 
BRANCH  17  19
HETATM   19  O   UNL     1     -12.800  15.764  70.426  1.00  0.00    -0.401 OA 
BRANCH  19  20
HETATM   20  C   UNL     1     -13.208  15.521  71.779  1.00  0.00    -0.481 C  
HETATM   21  C   UNL     1     -12.148  15.992  72.752  1.00  0.00    -0.635 C  
ENDBRANCH  19  20
ENDBRANCH  17  19
ENDBRANCH  13  17
ENDBRANCH  11  13
ENDBRANCH  10  11
ENDBRANCH   9  10
ENDBRANCH   7   9
ENDBRANCH   6   7
BRANCH   6  22
HETATM   22  C   UNL     1     -10.970  10.860  67.564  1.00  0.00    -0.293 C  
HETATM   23  H   UNL     1     -11.887  10.289  70.057  1.00  0.00     0.000 H  
HETATM   24  S   UNL     1     -10.732  10.294  69.285  1.00  0.00    -0.250 SA 
ENDBRANCH   6  22
ENDBRANCH   4   6
ENDBRANCH   3   4
ENDBRANCH   2   3
TORSDOF 13
ENDMDL
MODEL      225
REMARK 921   NORMALIZED FREE ENERGY PREDICTED BY IDOCK:   -3.60 KCAL/MOL
REMARK 922        TOTAL FREE ENERGY PREDICTED BY IDOCK:   -6.93 KCAL/MOL
REMARK 923 INTER-LIGAND FREE ENERGY PREDICTED BY IDOCK:   -5.84 KCAL/MOL
REMARK 924 INTRA-LIGAND FREE ENERGY PREDICTED BY IDOCK:   -1.08 KCAL/MOL
REMARK 927      BINDING AFFINITY PREDICTED BY RF-SCORE:    0.00 PKD
ROOT
HETATM    1  C   UNL     1      -6.963  13.672  67.618  1.00  0.00    -0.183 C  
HETATM    2  C   UNL     1      -8.326  13.042  67.810  1.00  0.00    -0.175 C  
ENDROOT
BRANCH   2   3
HETATM    3  O   UNL     1      -9.050  13.035  66.570  1.00  0.00    -0.214 OA 
BRANCH   3   4
HETATM    4  C   UNL     1      -9.807  11.926  66.332  1.00  0.00    -0.213 C  
HETATM    5  O   UNL     1      -9.369  10.826  66.018  1.00  0.00    -0.174 OA 
BRANCH   4   6
HETATM    6  C   UNL     1     -11.296  12.269  66.528  1.00  0.00    -0.351 C  
BRANCH   6   7
HETATM    7  N   UNL     1     -12.041  12.017  65.264  1.00  0.00    -0.392 NA 
HETATM    8  H   UNL     1     -13.044  11.965  65.447  1.00  0.00     0.000 HD 
BRANCH   7   9
HETATM    9  C   UNL     1     -11.766  12.982  64.195  1.00  0.00    -0.412 C  
BRANCH   9  10
HETATM   10  C   UNL     1     -12.060  14.444  64.600  1.00  0.00    -0.471 C  
BRANCH  10  11
HETATM   11  N   UNL     1     -10.871  15.252  64.915  1.00  0.00    -0.525 NA 
HETATM   12  H   UNL     1     -10.521  15.714  64.075  1.00  0.00     0.000 HD 
BRANCH  11  13
HETATM   13  C   UNL     1     -11.076  16.244  66.011  1.00  0.00     0.114 C  
BRANCH  13  14
HETATM   14  C   UNL     1     -10.761  15.676  67.412  1.00  0.00    -0.309 C  
HETATM   15  H   UNL     1     -10.436  16.429  69.994  1.00  0.00     0.000 H  
HETATM   16  S   UNL     1     -10.720  16.940  68.733  1.00  0.00    -0.305 SA 
ENDBRANCH  13  14
BRANCH  13  17
HETATM   17  C   UNL     1     -10.216  17.500  65.742  1.00  0.00    -0.173 C  
HETATM   18  O   UNL     1     -10.652  18.629  65.548  1.00  0.00    -0.608 OA 
BRANCH  17  19
HETATM   19  O   UNL     1      -8.891  17.173  65.760  1.00  0.00    -0.526 OA 
BRANCH  19  20
HETATM   20  C   UNL     1      -8.016  18.136  66.361  1.00  0.00    -0.266 C  
HETATM   21  C   UNL     1      -7.003  17.456  67.258  1.00  0.00    -0.194 C  
ENDBRANCH  19  20
ENDBRANCH  17  19
ENDBRANCH  13  17
ENDBRANCH  11  13
ENDBRANCH  10  11
ENDBRANCH   9  10
ENDBRANCH   7   9
ENDBRANCH   6   7
BRANCH   6  22
HETATM   22  C   UNL     1     -11.825  11.536  67.778  1.00  0.00    -0.154 C  
HETATM   23  H   UNL     1     -12.235  11.857  70.444  1.00  0.00     0.000 H  
HETATM   24  S   UNL     1     -11.759  12.517  69.317  1.00  0.00    -0.313 SA 
ENDBRANCH   6  22
ENDBRANCH   4   6
ENDBRANCH   3   4
ENDBRANCH   2   3
TORSDOF 13
ENDMDL
MODEL      226
REMARK 921   NORMALIZED FREE ENERGY PREDICTED BY IDOCK:   -3.59 KCAL/MOL
REMARK 922        TOTAL FREE ENERGY PREDICTED BY IDOCK:   -6.92 KCAL/MOL
REMARK 923 INTER-LIGAND FREE ENERGY PREDICTED BY IDOCK:   -6.44 KCAL/MOL
REMARK 924 INTRA-LIGAND FREE ENERGY PREDICTED BY IDOCK:   -0.48 KCAL/MOL
REMARK 927      BINDING AFFINITY PREDICTED BY RF-SCORE:    0.00 PKD
ROOT
HETATM    1  C   UNL     1     -10.903  19.506  67.115  1.00  0.00    -0.555 C  
HETATM    2  C   UNL     1      -9.572  20.202  66.927  1.00  0.00    -0.430 C  
ENDROOT
BRANCH   2   3
HETATM    3  O   UNL     1      -8.506  19.379  67.425  1.00  0.00    -0.285 OA 
BRANCH   3   4
HETATM    4  C   UNL     1      -8.235  18.257  66.700  1.00  0.00    -0.262 C  
HETATM    5  O   UNL     1      -7.755  18.242  65.574  1.00  0.00    -0.498 OA 
BRANCH   4   6
HETATM    6  C   UNL     1      -8.616  17.011  67.522  1.00  0.00    -0.205 C  
BRANCH   6   7
HETATM    7  N   UNL     1      -8.679  15.820  66.631  1.00  0.00    -0.261 NA 
HETATM    8  H   UNL     1      -8.187  16.004  65.756  1.00  0.00     0.000 HD 
BRANCH   7   9
HETATM    9  C   UNL     1      -8.190  14.579  67.242  1.00  0.00    -0.208 C  
BRANCH   9  10
HETATM   10  C   UNL     1      -9.114  13.367  66.989  1.00  0.00    -0.243 C  
BRANCH  10  11
HETATM   11  N   UNL     1      -9.631  13.258  65.615  1.00  0.00    -0.490 NA 
HETATM   12  H   UNL     1      -8.865  13.121  64.955  1.00  0.00     0.000 HD 
BRANCH  11  13
HETATM   13  C   UNL     1     -10.672  12.203  65.433  1.00  0.00    -0.284 C  
BRANCH  13  14
HETATM   14  C   UNL     1     -12.082  12.778  65.177  1.00  0.00    -0.450 C  
HETATM   15  H   UNL     1     -13.347  14.982  64.240  1.00  0.00     0.000 H  
HETATM   16  S   UNL     1     -12.078  14.464  64.470  1.00  0.00    -0.457 SA 
ENDBRANCH  13  14
BRANCH  13  17
HETATM   17  C   UNL     1     -10.263  11.264  64.276  1.00  0.00    -0.327 C  
HETATM   18  O   UNL     1     -10.062  11.612  63.118  1.00  0.00    -0.397 OA 
BRANCH  17  19
HETATM   19  O   UNL     1     -10.145   9.983  64.732  1.00  0.00    -0.296 OA 
BRANCH  19  20
HETATM   20  C   UNL     1      -9.886   9.837  66.135  1.00  0.00    -0.263 C  
HETATM   21  C   UNL     1      -8.414   9.589  66.386  1.00  0.00    -0.131 C  
ENDBRANCH  19  20
ENDBRANCH  17  19
ENDBRANCH  13  17
ENDBRANCH  11  13
ENDBRANCH  10  11
ENDBRANCH   9  10
ENDBRANCH   7   9
ENDBRANCH   6   7
BRANCH   6  22
HETATM   22  C   UNL     1      -7.669  16.894  68.734  1.00  0.00    -0.247 C  
HETATM   23  H   UNL     1      -5.064  17.161  69.459  1.00  0.00     0.000 H  
HETATM   24  S   UNL     1      -5.918  17.266  68.368  1.00  0.00    -0.153 SA 
ENDBRANCH   6  22
ENDBRANCH   4   6
ENDBRANCH   3   4
ENDBRANCH   2   3
TORSDOF 13
ENDMDL
MODEL      227
REMARK 921   NORMALIZED FREE ENERGY PREDICTED BY IDOCK:   -3.59 KCAL/MOL
REMARK 922        TOTAL FREE ENERGY PREDICTED BY IDOCK:   -6.92 KCAL/MOL
REMARK 923 INTER-LIGAND FREE ENERGY PREDICTED BY IDOCK:   -5.64 KCAL/MOL
REMARK 924 INTRA-LIGAND FREE ENERGY PREDICTED BY IDOCK:   -1.27 KCAL/MOL
REMARK 927      BINDING AFFINITY PREDICTED BY RF-SCORE:    0.00 PKD
ROOT
HETATM    1  C   UNL     1      -6.394  17.178  67.440  1.00  0.00    -0.174 C  
HETATM    2  C   UNL     1      -7.381  16.281  66.724  1.00  0.00    -0.208 C  
ENDROOT
BRANCH   2   3
HETATM    3  O   UNL     1      -8.494  17.050  66.243  1.00  0.00    -0.288 OA 
BRANCH   3   4
HETATM    4  C   UNL     1      -9.591  17.076  67.053  1.00  0.00    -0.254 C  
HETATM    5  O   UNL     1     -10.186  18.087  67.405  1.00  0.00    -0.331 OA 
BRANCH   4   6
HETATM    6  C   UNL     1      -9.972  15.636  67.446  1.00  0.00    -0.232 C  
BRANCH   6   7
HETATM    7  N   UNL     1     -10.303  15.581  68.896  1.00  0.00    -0.213 NA 
HETATM    8  H   UNL     1      -9.819  16.325  69.400  1.00  0.00     0.000 HD 
BRANCH   7   9
HETATM    9  C   UNL     1     -11.739  15.613  69.192  1.00  0.00    -0.390 C  
BRANCH   9  10
HETATM   10  C   UNL     1     -12.118  14.837  70.474  1.00  0.00    -0.315 C  
BRANCH  10  11
HETATM   11  N   UNL     1     -12.804  13.556  70.243  1.00  0.00    -0.038 NA 
HETATM   12  H   UNL     1     -13.326  13.584  69.367  1.00  0.00     0.000 HD 
BRANCH  11  13
HETATM   13  C   UNL     1     -11.906  12.364  70.278  1.00  0.00    -0.232 C  
BRANCH  13  14
HETATM   14  C   UNL     1     -12.562  11.128  70.933  1.00  0.00    -0.386 C  
HETATM   15  H   UNL     1     -12.052   8.560  71.626  1.00  0.00     0.000 H  
HETATM   16  S   UNL     1     -11.462   9.672  71.037  1.00  0.00    -0.401 SA 
ENDBRANCH  13  14
BRANCH  13  17
HETATM   17  C   UNL     1     -11.441  12.021  68.846  1.00  0.00    -0.301 C  
HETATM   18  O   UNL     1     -12.118  11.451  67.997  1.00  0.00    -0.629 OA 
BRANCH  17  19
HETATM   19  O   UNL     1     -10.162  12.457  68.652  1.00  0.00    -0.218 OA 
BRANCH  19  20
HETATM   20  C   UNL     1      -9.350  11.653  67.786  1.00  0.00    -0.178 C  
HETATM   21  C   UNL     1      -8.021  11.336  68.440  1.00  0.00    -0.140 C  
ENDBRANCH  19  20
ENDBRANCH  17  19
ENDBRANCH  13  17
ENDBRANCH  11  13
ENDBRANCH  10  11
ENDBRANCH   9  10
ENDBRANCH   7   9
ENDBRANCH   6   7
BRANCH   6  22
HETATM   22  C   UNL     1     -11.065  15.121  66.487  1.00  0.00    -0.305 C  
HETATM   23  H   UNL     1     -11.433  13.605  64.263  1.00  0.00     0.000 H  
HETATM   24  S   UNL     1     -10.448  14.069  65.127  1.00  0.00    -0.412 SA 
ENDBRANCH   6  22
ENDBRANCH   4   6
ENDBRANCH   3   4
ENDBRANCH   2   3
TORSDOF 13
ENDMDL
MODEL      228
REMARK 921   NORMALIZED FREE ENERGY PREDICTED BY IDOCK:   -3.58 KCAL/MOL
REMARK 922        TOTAL FREE ENERGY PREDICTED BY IDOCK:   -6.89 KCAL/MOL
REMARK 923 INTER-LIGAND FREE ENERGY PREDICTED BY IDOCK:   -6.16 KCAL/MOL
REMARK 924 INTRA-LIGAND FREE ENERGY PREDICTED BY IDOCK:   -0.74 KCAL/MOL
REMARK 927      BINDING AFFINITY PREDICTED BY RF-SCORE:    0.00 PKD
ROOT
HETATM    1  C   UNL     1     -13.032  10.368  71.357  1.00  0.00    -0.545 C  
HETATM    2  C   UNL     1     -13.341   9.297  72.381  1.00  0.00    -0.449 C  
ENDROOT
BRANCH   2   3
HETATM    3  O   UNL     1     -12.870   8.020  71.924  1.00  0.00    -0.316 OA 
BRANCH   3   4
HETATM    4  C   UNL     1     -11.573   7.724  72.225  1.00  0.00    -0.338 C  
HETATM    5  O   UNL     1     -11.116   7.622  73.356  1.00  0.00    -0.337 OA 
BRANCH   4   6
HETATM    6  C   UNL     1     -10.776   7.527  70.921  1.00  0.00    -0.235 C  
BRANCH   6   7
HETATM    7  N   UNL     1      -9.379   8.005  71.108  1.00  0.00    -0.146 NA 
HETATM    8  H   UNL     1      -8.825   7.301  71.597  1.00  0.00     0.000 HD 
BRANCH   7   9
HETATM    9  C   UNL     1      -8.708   8.415  69.870  1.00  0.00    -0.136 C  
BRANCH   9  10
HETATM   10  C   UNL     1      -8.552   9.947  69.737  1.00  0.00    -0.203 C  
BRANCH  10  11
HETATM   11  N   UNL     1      -9.781  10.665  69.362  1.00  0.00    -0.387 NA 
HETATM   12  H   UNL     1     -10.088  11.268  70.125  1.00  0.00     0.000 HD 
BRANCH  11  13
HETATM   13  C   UNL     1      -9.673  11.443  68.093  1.00  0.00    -0.192 C  
BRANCH  13  14
HETATM   14  C   UNL     1      -8.844  10.723  67.007  1.00  0.00    -0.135 C  
HETATM   15  H   UNL     1      -9.013   8.761  65.147  1.00  0.00     0.000 H  
HETATM   16  S   UNL     1      -9.760   9.410  66.124  1.00  0.00    -0.279 SA 
ENDBRANCH  13  14
BRANCH  13  17
HETATM   17  C   UNL     1     -11.087  11.760  67.557  1.00  0.00    -0.272 C  
HETATM   18  O   UNL     1     -12.127  11.244  67.950  1.00  0.00    -0.634 OA 
BRANCH  17  19
HETATM   19  O   UNL     1     -11.016  12.714  66.583  1.00  0.00    -0.247 OA 
BRANCH  19  20
HETATM   20  C   UNL     1     -12.234  13.414  66.300  1.00  0.00    -0.398 C  
HETATM   21  C   UNL     1     -12.029  14.421  65.187  1.00  0.00    -0.391 C  
ENDBRANCH  19  20
ENDBRANCH  17  19
ENDBRANCH  13  17
ENDBRANCH  11  13
ENDBRANCH  10  11
ENDBRANCH   9  10
ENDBRANCH   7   9
ENDBRANCH   6   7
BRANCH   6  22
HETATM   22  C   UNL     1     -10.929   6.066  70.450  1.00  0.00    -0.328 C  
HETATM   23  H   UNL     1      -9.888   3.579  70.786  1.00  0.00     0.000 H  
HETATM   24  S   UNL     1      -9.751   4.895  71.210  1.00  0.00    -0.187 SA 
ENDBRANCH   6  22
ENDBRANCH   4   6
ENDBRANCH   3   4
ENDBRANCH   2   3
TORSDOF 13
ENDMDL
MODEL      229
REMARK 921   NORMALIZED FREE ENERGY PREDICTED BY IDOCK:   -3.56 KCAL/MOL
REMARK 922        TOTAL FREE ENERGY PREDICTED BY IDOCK:   -6.86 KCAL/MOL
REMARK 923 INTER-LIGAND FREE ENERGY PREDICTED BY IDOCK:   -6.37 KCAL/MOL
REMARK 924 INTRA-LIGAND FREE ENERGY PREDICTED BY IDOCK:   -0.50 KCAL/MOL
REMARK 927      BINDING AFFINITY PREDICTED BY RF-SCORE:    0.00 PKD
ROOT
HETATM    1  C   UNL     1     -11.860  12.003  63.311  1.00  0.00    -0.450 C  
HETATM    2  C   UNL     1     -10.754  11.261  64.029  1.00  0.00    -0.377 C  
ENDROOT
BRANCH   2   3
HETATM    3  O   UNL     1     -10.981  11.281  65.447  1.00  0.00    -0.230 OA 
BRANCH   3   4
HETATM    4  C   UNL     1     -10.063  10.615  66.204  1.00  0.00    -0.249 C  
HETATM    5  O   UNL     1      -9.067  10.048  65.771  1.00  0.00    -0.148 OA 
BRANCH   4   6
HETATM    6  C   UNL     1     -10.467  10.696  67.689  1.00  0.00    -0.227 C  
BRANCH   6   7
HETATM    7  N   UNL     1     -11.832  11.278  67.808  1.00  0.00    -0.638 NA 
HETATM    8  H   UNL     1     -12.442  10.647  68.329  1.00  0.00     0.000 HD 
BRANCH   7   9
HETATM    9  C   UNL     1     -11.869  12.623  68.391  1.00  0.00    -0.301 C  
BRANCH   9  10
HETATM   10  C   UNL     1     -11.875  13.748  67.333  1.00  0.00    -0.396 C  
BRANCH  10  11
HETATM   11  N   UNL     1     -10.628  14.526  67.248  1.00  0.00    -0.277 NA 
HETATM   12  H   UNL     1     -10.139  14.321  66.376  1.00  0.00     0.000 HD 
BRANCH  11  13
HETATM   13  C   UNL     1     -10.811  15.999  67.409  1.00  0.00    -0.277 C  
BRANCH  13  14
HETATM   14  C   UNL     1     -10.293  16.531  68.764  1.00  0.00    -0.286 C  
HETATM   15  H   UNL     1     -10.834  16.490  71.418  1.00  0.00     0.000 H  
HETATM   16  S   UNL     1     -11.301  16.012  70.199  1.00  0.00    -0.355 SA 
ENDBRANCH  13  14
BRANCH  13  17
HETATM   17  C   UNL     1     -10.115  16.740  66.247  1.00  0.00    -0.326 C  
HETATM   18  O   UNL     1     -10.651  17.075  65.196  1.00  0.00    -0.688 OA 
BRANCH  17  19
HETATM   19  O   UNL     1      -8.808  16.981  66.561  1.00  0.00    -0.232 OA 
BRANCH  19  20
HETATM   20  C   UNL     1      -8.382  18.346  66.467  1.00  0.00    -0.272 C  
HETATM   21  C   UNL     1      -7.004  18.521  67.071  1.00  0.00    -0.210 C  
ENDBRANCH  19  20
ENDBRANCH  17  19
ENDBRANCH  13  17
ENDBRANCH  11  13
ENDBRANCH  10  11
ENDBRANCH   9  10
ENDBRANCH   7   9
ENDBRANCH   6   7
BRANCH   6  22
HETATM   22  C   UNL     1     -10.265   9.315  68.345  1.00  0.00    -0.202 C  
HETATM   23  H   UNL     1     -10.710   7.944  70.648  1.00  0.00     0.000 H  
HETATM   24  S   UNL     1     -10.891   9.188  70.057  1.00  0.00    -0.225 SA 
ENDBRANCH   6  22
ENDBRANCH   4   6
ENDBRANCH   3   4
ENDBRANCH   2   3
TORSDOF 13
ENDMDL
MODEL      230
REMARK 921   NORMALIZED FREE ENERGY PREDICTED BY IDOCK:   -3.56 KCAL/MOL
REMARK 922        TOTAL FREE ENERGY PREDICTED BY IDOCK:   -6.86 KCAL/MOL
REMARK 923 INTER-LIGAND FREE ENERGY PREDICTED BY IDOCK:   -6.52 KCAL/MOL
REMARK 924 INTRA-LIGAND FREE ENERGY PREDICTED BY IDOCK:   -0.34 KCAL/MOL
REMARK 927      BINDING AFFINITY PREDICTED BY RF-SCORE:    0.00 PKD
ROOT
HETATM    1  C   UNL     1     -10.669   5.550  66.543  1.00  0.00    -0.309 C  
HETATM    2  C   UNL     1     -10.999   6.513  67.663  1.00  0.00    -0.337 C  
ENDROOT
BRANCH   2   3
HETATM    3  O   UNL     1     -10.236   7.721  67.522  1.00  0.00    -0.194 OA 
BRANCH   3   4
HETATM    4  C   UNL     1     -10.660   8.782  68.266  1.00  0.00    -0.142 C  
HETATM    5  O   UNL     1     -10.850   8.765  69.476  1.00  0.00    -0.222 OA 
BRANCH   4   6
HETATM    6  C   UNL     1     -10.853  10.006  67.351  1.00  0.00    -0.249 C  
BRANCH   6   7
HETATM    7  N   UNL     1     -11.843  10.938  67.959  1.00  0.00    -0.759 NA 
HETATM    8  H   UNL     1     -11.752  10.939  68.975  1.00  0.00     0.000 HD 
BRANCH   7   9
HETATM    9  C   UNL     1     -11.785  12.307  67.437  1.00  0.00    -0.335 C  
BRANCH   9  10
HETATM   10  C   UNL     1     -11.879  13.386  68.539  1.00  0.00    -0.366 C  
BRANCH  10  11
HETATM   11  N   UNL     1     -12.201  14.739  68.056  1.00  0.00    -0.580 NA 
HETATM   12  H   UNL     1     -13.199  14.926  68.158  1.00  0.00     0.000 HD 
BRANCH  11  13
HETATM   13  C   UNL     1     -11.399  15.825  68.694  1.00  0.00    -0.369 C  
BRANCH  13  14
HETATM   14  C   UNL     1     -10.278  15.293  69.613  1.00  0.00    -0.244 C  
HETATM   15  H   UNL     1      -7.638  14.689  69.625  1.00  0.00     0.000 H  
HETATM   16  S   UNL     1      -8.647  15.168  68.797  1.00  0.00    -0.193 SA 
ENDBRANCH  13  14
BRANCH  13  17
HETATM   17  C   UNL     1     -10.801  16.738  67.601  1.00  0.00    -0.252 C  
HETATM   18  O   UNL     1     -10.596  16.412  66.437  1.00  0.00    -0.301 OA 
BRANCH  17  19
HETATM   19  O   UNL     1     -10.539  17.975  68.116  1.00  0.00    -0.378 OA 
BRANCH  19  20
HETATM   20  C   UNL     1     -10.851  19.087  67.266  1.00  0.00    -0.408 C  
HETATM   21  C   UNL     1      -9.768  20.143  67.344  1.00  0.00    -0.563 C  
ENDBRANCH  19  20
ENDBRANCH  17  19
ENDBRANCH  13  17
ENDBRANCH  11  13
ENDBRANCH  10  11
ENDBRANCH   9  10
ENDBRANCH   7   9
ENDBRANCH   6   7
BRANCH   6  22
HETATM   22  C   UNL     1      -9.475  10.613  67.019  1.00  0.00    -0.164 C  
HETATM   23  H   UNL     1      -7.229  11.608  68.180  1.00  0.00     0.000 H  
HETATM   24  S   UNL     1      -8.471  11.061  68.478  1.00  0.00    -0.158 SA 
ENDBRANCH   6  22
ENDBRANCH   4   6
ENDBRANCH   3   4
ENDBRANCH   2   3
TORSDOF 13
ENDMDL
MODEL      231
REMARK 921   NORMALIZED FREE ENERGY PREDICTED BY IDOCK:   -3.56 KCAL/MOL
REMARK 922        TOTAL FREE ENERGY PREDICTED BY IDOCK:   -6.85 KCAL/MOL
REMARK 923 INTER-LIGAND FREE ENERGY PREDICTED BY IDOCK:   -6.11 KCAL/MOL
REMARK 924 INTRA-LIGAND FREE ENERGY PREDICTED BY IDOCK:   -0.75 KCAL/MOL
REMARK 927      BINDING AFFINITY PREDICTED BY RF-SCORE:    0.00 PKD
ROOT
HETATM    1  C   UNL     1      -9.712   8.275  72.198  1.00  0.00    -0.344 C  
HETATM    2  C   UNL     1      -9.114   8.478  70.822  1.00  0.00    -0.165 C  
ENDROOT
BRANCH   2   3
HETATM    3  O   UNL     1     -10.065   9.115  69.955  1.00  0.00    -0.186 OA 
BRANCH   3   4
HETATM    4  C   UNL     1     -10.480   8.377  68.886  1.00  0.00    -0.189 C  
HETATM    5  O   UNL     1     -10.827   7.203  68.930  1.00  0.00    -0.200 OA 
BRANCH   4   6
HETATM    6  C   UNL     1     -10.454   9.252  67.618  1.00  0.00    -0.264 C  
BRANCH   6   7
HETATM    7  N   UNL     1     -10.212  10.672  67.991  1.00  0.00    -0.169 NA 
HETATM    8  H   UNL     1      -9.223  10.822  68.196  1.00  0.00     0.000 HD 
BRANCH   7   9
HETATM    9  C   UNL     1     -10.684  11.648  67.003  1.00  0.00    -0.253 C  
BRANCH   9  10
HETATM   10  C   UNL     1      -9.542  12.296  66.189  1.00  0.00    -0.240 C  
BRANCH  10  11
HETATM   11  N   UNL     1      -9.576  13.767  66.135  1.00  0.00    -0.432 NA 
HETATM   12  H   UNL     1      -9.112  14.104  65.291  1.00  0.00     0.000 HD 
BRANCH  11  13
HETATM   13  C   UNL     1     -10.945  14.353  66.248  1.00  0.00    -0.318 C  
BRANCH  13  14
HETATM   14  C   UNL     1     -11.151  15.171  67.542  1.00  0.00    -0.319 C  
HETATM   15  H   UNL     1      -9.806  16.158  69.677  1.00  0.00     0.000 H  
HETATM   16  S   UNL     1      -9.621  15.422  68.511  1.00  0.00    -0.208 SA 
ENDBRANCH  13  14
BRANCH  13  17
HETATM   17  C   UNL     1     -11.236  15.233  65.012  1.00  0.00    -0.403 C  
HETATM   18  O   UNL     1     -10.763  16.345  64.806  1.00  0.00    -0.700 OA 
BRANCH  17  19
HETATM   19  O   UNL     1     -12.093  14.587  64.169  1.00  0.00    -0.454 OA 
BRANCH  19  20
HETATM   20  C   UNL     1     -12.571  13.311  64.616  1.00  0.00    -0.293 C  
HETATM   21  C   UNL     1     -12.309  12.245  63.573  1.00  0.00    -0.670 C  
ENDBRANCH  19  20
ENDBRANCH  17  19
ENDBRANCH  13  17
ENDBRANCH  11  13
ENDBRANCH  10  11
ENDBRANCH   9  10
ENDBRANCH   7   9
ENDBRANCH   6   7
BRANCH   6  22
HETATM   22  C   UNL     1      -9.463   8.645  66.604  1.00  0.00    -0.207 C  
HETATM   23  H   UNL     1      -6.812   8.252  66.162  1.00  0.00     0.000 H  
HETATM   24  S   UNL     1      -7.705   8.799  67.075  1.00  0.00    -0.095 SA 
ENDBRANCH   6  22
ENDBRANCH   4   6
ENDBRANCH   3   4
ENDBRANCH   2   3
TORSDOF 13
ENDMDL
MODEL      232
REMARK 921   NORMALIZED FREE ENERGY PREDICTED BY IDOCK:   -3.55 KCAL/MOL
REMARK 922        TOTAL FREE ENERGY PREDICTED BY IDOCK:   -6.85 KCAL/MOL
REMARK 923 INTER-LIGAND FREE ENERGY PREDICTED BY IDOCK:   -5.93 KCAL/MOL
REMARK 924 INTRA-LIGAND FREE ENERGY PREDICTED BY IDOCK:   -0.92 KCAL/MOL
REMARK 927      BINDING AFFINITY PREDICTED BY RF-SCORE:    0.00 PKD
ROOT
HETATM    1  C   UNL     1     -10.238  10.885  64.253  1.00  0.00    -0.430 C  
HETATM    2  C   UNL     1      -9.766   9.880  65.282  1.00  0.00    -0.313 C  
ENDROOT
BRANCH   2   3
HETATM    3  O   UNL     1      -9.999  10.380  66.608  1.00  0.00    -0.194 OA 
BRANCH   3   4
HETATM    4  C   UNL     1      -8.930  10.339  67.454  1.00  0.00    -0.135 C  
HETATM    5  O   UNL     1      -7.798  10.719  67.180  1.00  0.00    -0.116 OA 
BRANCH   4   6
HETATM    6  C   UNL     1      -9.370   9.751  68.808  1.00  0.00    -0.150 C  
BRANCH   6   7
HETATM    7  N   UNL     1     -10.850   9.833  68.936  1.00  0.00    -0.302 NA 
HETATM    8  H   UNL     1     -11.285   8.983  68.576  1.00  0.00     0.000 HD 
BRANCH   7   9
HETATM    9  C   UNL     1     -11.327  10.117  70.293  1.00  0.00    -0.315 C  
BRANCH   9  10
HETATM   10  C   UNL     1     -12.158  11.416  70.391  1.00  0.00    -0.384 C  
BRANCH  10  11
HETATM   11  N   UNL     1     -11.427  12.647  70.048  1.00  0.00    -0.529 NA 
HETATM   12  H   UNL     1     -10.578  12.424  69.528  1.00  0.00     0.000 HD 
BRANCH  11  13
HETATM   13  C   UNL     1     -12.241  13.659  69.312  1.00  0.00    -0.238 C  
BRANCH  13  14
HETATM   14  C   UNL     1     -11.970  15.108  69.772  1.00  0.00    -0.334 C  
HETATM   15  H   UNL     1     -12.035  16.695  71.966  1.00  0.00     0.000 H  
HETATM   16  S   UNL     1     -12.278  15.391  71.552  1.00  0.00    -0.412 SA 
ENDBRANCH  13  14
BRANCH  13  17
HETATM   17  C   UNL     1     -11.984  13.527  67.794  1.00  0.00    -0.334 C  
HETATM   18  O   UNL     1     -12.281  12.557  67.106  1.00  0.00    -0.474 OA 
BRANCH  17  19
HETATM   19  O   UNL     1     -11.383  14.658  67.321  1.00  0.00    -0.327 OA 
BRANCH  19  20
HETATM   20  C   UNL     1     -10.326  14.457  66.373  1.00  0.00    -0.287 C  
HETATM   21  C   UNL     1      -9.917  15.770  65.739  1.00  0.00    -0.389 C  
ENDBRANCH  19  20
ENDBRANCH  17  19
ENDBRANCH  13  17
ENDBRANCH  11  13
ENDBRANCH  10  11
ENDBRANCH   9  10
ENDBRANCH   7   9
ENDBRANCH   6   7
BRANCH   6  22
HETATM   22  C   UNL     1      -8.757   8.345  68.973  1.00  0.00    -0.142 C  
HETATM   23  H   UNL     1      -8.814   5.841  67.922  1.00  0.00     0.000 H  
HETATM   24  S   UNL     1      -9.365   7.108  67.774  1.00  0.00    -0.127 SA 
ENDBRANCH   6  22
ENDBRANCH   4   6
ENDBRANCH   3   4
ENDBRANCH   2   3
TORSDOF 13
ENDMDL
MODEL      233
REMARK 921   NORMALIZED FREE ENERGY PREDICTED BY IDOCK:   -3.54 KCAL/MOL
REMARK 922        TOTAL FREE ENERGY PREDICTED BY IDOCK:   -6.83 KCAL/MOL
REMARK 923 INTER-LIGAND FREE ENERGY PREDICTED BY IDOCK:   -5.76 KCAL/MOL
REMARK 924 INTRA-LIGAND FREE ENERGY PREDICTED BY IDOCK:   -1.06 KCAL/MOL
REMARK 927      BINDING AFFINITY PREDICTED BY RF-SCORE:    0.00 PKD
ROOT
HETATM    1  C   UNL     1      -6.939  16.129  69.310  1.00  0.00    -0.210 C  
HETATM    2  C   UNL     1      -7.834  15.736  68.154  1.00  0.00    -0.131 C  
ENDROOT
BRANCH   2   3
HETATM    3  O   UNL     1      -9.007  16.564  68.129  1.00  0.00    -0.198 OA 
BRANCH   3   4
HETATM    4  C   UNL     1     -10.119  16.036  68.717  1.00  0.00    -0.225 C  
HETATM    5  O   UNL     1     -10.832  16.615  69.527  1.00  0.00    -0.321 OA 
BRANCH   4   6
HETATM    6  C   UNL     1     -10.343  14.603  68.196  1.00  0.00    -0.230 C  
BRANCH   6   7
HETATM    7  N   UNL     1     -10.744  13.715  69.321  1.00  0.00    -0.433 NA 
HETATM    8  H   UNL     1     -10.774  14.241  70.195  1.00  0.00     0.000 HD 
BRANCH   7   9
HETATM    9  C   UNL     1     -12.007  13.001  69.109  1.00  0.00    -0.271 C  
BRANCH   9  10
HETATM   10  C   UNL     1     -11.880  11.471  69.274  1.00  0.00    -0.348 C  
BRANCH  10  11
HETATM   11  N   UNL     1     -11.796  10.716  68.012  1.00  0.00    -0.767 NA 
HETATM   12  H   UNL     1     -12.398  11.138  67.304  1.00  0.00     0.000 HD 
BRANCH  11  13
HETATM   13  C   UNL     1     -10.408  10.552  67.487  1.00  0.00    -0.223 C  
BRANCH  13  14
HETATM   14  C   UNL     1      -9.993   9.074  67.319  1.00  0.00    -0.216 C  
HETATM   15  H   UNL     1      -7.850   7.511  66.769  1.00  0.00     0.000 H  
HETATM   16  S   UNL     1      -8.223   8.841  66.921  1.00  0.00    -0.109 SA 
ENDBRANCH  13  14
BRANCH  13  17
HETATM   17  C   UNL     1     -10.270  11.299  66.142  1.00  0.00    -0.245 C  
HETATM   18  O   UNL     1      -9.228  11.761  65.690  1.00  0.00    -0.198 OA 
BRANCH  17  19
HETATM   19  O   UNL     1     -11.482  11.363  65.516  1.00  0.00    -0.099 OA 
BRANCH  19  20
HETATM   20  C   UNL     1     -11.444  11.481  64.087  1.00  0.00    -0.216 C  
HETATM   21  C   UNL     1     -12.668  12.212  63.577  1.00  0.00    -0.553 C  
ENDBRANCH  19  20
ENDBRANCH  17  19
ENDBRANCH  13  17
ENDBRANCH  11  13
ENDBRANCH  10  11
ENDBRANCH   9  10
ENDBRANCH   7   9
ENDBRANCH   6   7
BRANCH   6  22
HETATM   22  C   UNL     1     -11.311  14.647  66.996  1.00  0.00    -0.355 C  
HETATM   23  H   UNL     1     -11.407  15.159  64.329  1.00  0.00     0.000 H  
HETATM   24  S   UNL     1     -10.536  15.120  65.411  1.00  0.00    -0.416 SA 
ENDBRANCH   6  22
ENDBRANCH   4   6
ENDBRANCH   3   4
ENDBRANCH   2   3
TORSDOF 13
ENDMDL
MODEL      234
REMARK 921   NORMALIZED FREE ENERGY PREDICTED BY IDOCK:   -3.54 KCAL/MOL
REMARK 922        TOTAL FREE ENERGY PREDICTED BY IDOCK:   -6.82 KCAL/MOL
REMARK 923 INTER-LIGAND FREE ENERGY PREDICTED BY IDOCK:   -5.75 KCAL/MOL
REMARK 924 INTRA-LIGAND FREE ENERGY PREDICTED BY IDOCK:   -1.07 KCAL/MOL
REMARK 927      BINDING AFFINITY PREDICTED BY RF-SCORE:    0.00 PKD
ROOT
HETATM    1  C   UNL     1      -6.434  19.455  65.096  1.00  0.00    -0.302 C  
HETATM    2  C   UNL     1      -5.737  20.377  66.073  1.00  0.00    -0.182 C  
ENDROOT
BRANCH   2   3
HETATM    3  O   UNL     1      -6.157  20.088  67.416  1.00  0.00    -0.182 OA 
BRANCH   3   4
HETATM    4  C   UNL     1      -7.487  20.249  67.669  1.00  0.00    -0.309 C  
HETATM    5  O   UNL     1      -8.141  21.249  67.402  1.00  0.00    -0.208 OA 
BRANCH   4   6
HETATM    6  C   UNL     1      -8.040  18.975  68.335  1.00  0.00    -0.346 C  
BRANCH   6   7
HETATM    7  N   UNL     1      -9.087  18.367  67.468  1.00  0.00    -0.270 NA 
HETATM    8  H   UNL     1      -8.764  17.475  67.093  1.00  0.00     0.000 HD 
BRANCH   7   9
HETATM    9  C   UNL     1     -10.393  18.208  68.115  1.00  0.00    -0.379 C  
BRANCH   9  10
HETATM   10  C   UNL     1     -10.490  16.941  68.994  1.00  0.00    -0.341 C  
BRANCH  10  11
HETATM   11  N   UNL     1     -11.309  15.856  68.429  1.00  0.00    -0.362 NA 
HETATM   12  H   UNL     1     -11.782  16.170  67.582  1.00  0.00     0.000 HD 
BRANCH  11  13
HETATM   13  C   UNL     1     -10.558  14.592  68.170  1.00  0.00    -0.238 C  
BRANCH  13  14
HETATM   14  C   UNL     1     -11.300  13.332  68.667  1.00  0.00    -0.288 C  
HETATM   15  H   UNL     1     -12.872  12.441  70.685  1.00  0.00     0.000 H  
HETATM   16  S   UNL     1     -12.205  13.575  70.237  1.00  0.00    -0.315 SA 
ENDBRANCH  13  14
BRANCH  13  17
HETATM   17  C   UNL     1     -10.255  14.469  66.660  1.00  0.00    -0.275 C  
HETATM   18  O   UNL     1      -9.361  13.788  66.169  1.00  0.00    -0.201 OA 
BRANCH  17  19
HETATM   19  O   UNL     1     -11.138  15.223  65.942  1.00  0.00    -0.334 OA 
BRANCH  19  20
HETATM   20  C   UNL     1     -11.692  14.600  64.776  1.00  0.00    -0.428 C  
HETATM   21  C   UNL     1     -12.829  13.674  65.152  1.00  0.00    -0.382 C  
ENDBRANCH  19  20
ENDBRANCH  17  19
ENDBRANCH  13  17
ENDBRANCH  11  13
ENDBRANCH  10  11
ENDBRANCH   9  10
ENDBRANCH   7   9
ENDBRANCH   6   7
BRANCH   6  22
HETATM   22  C   UNL     1      -6.865  18.051  68.718  1.00  0.00    -0.259 C  
HETATM   23  H   UNL     1      -5.689  15.690  68.069  1.00  0.00     0.000 H  
HETATM   24  S   UNL     1      -6.747  16.522  67.725  1.00  0.00    -0.150 SA 
ENDBRANCH   6  22
ENDBRANCH   4   6
ENDBRANCH   3   4
ENDBRANCH   2   3
TORSDOF 13
ENDMDL
MODEL      235
REMARK 921   NORMALIZED FREE ENERGY PREDICTED BY IDOCK:   -3.54 KCAL/MOL
REMARK 922        TOTAL FREE ENERGY PREDICTED BY IDOCK:   -6.82 KCAL/MOL
REMARK 923 INTER-LIGAND FREE ENERGY PREDICTED BY IDOCK:   -6.07 KCAL/MOL
REMARK 924 INTRA-LIGAND FREE ENERGY PREDICTED BY IDOCK:   -0.75 KCAL/MOL
REMARK 927      BINDING AFFINITY PREDICTED BY RF-SCORE:    0.00 PKD
ROOT
HETATM    1  C   UNL     1     -13.194  11.451  71.798  1.00  0.00    -0.472 C  
HETATM    2  C   UNL     1     -12.904   9.971  71.660  1.00  0.00    -0.440 C  
ENDROOT
BRANCH   2   3
HETATM    3  O   UNL     1     -11.489   9.748  71.565  1.00  0.00    -0.378 OA 
BRANCH   3   4
HETATM    4  C   UNL     1     -11.099   8.782  70.685  1.00  0.00    -0.246 C  
HETATM    5  O   UNL     1     -11.601   7.669  70.589  1.00  0.00    -0.285 OA 
BRANCH   4   6
HETATM    6  C   UNL     1      -9.935   9.312  69.825  1.00  0.00    -0.199 C  
BRANCH   6   7
HETATM    7  N   UNL     1     -10.225  10.705  69.389  1.00  0.00    -0.313 NA 
HETATM    8  H   UNL     1      -9.362  11.184  69.132  1.00  0.00     0.000 HD 
BRANCH   7   9
HETATM    9  C   UNL     1     -11.209  10.808  68.306  1.00  0.00    -0.297 C  
BRANCH   9  10
HETATM   10  C   UNL     1     -11.386  12.248  67.775  1.00  0.00    -0.301 C  
BRANCH  10  11
HETATM   11  N   UNL     1     -12.150  13.145  68.658  1.00  0.00    -0.268 NA 
HETATM   12  H   UNL     1     -12.697  12.605  69.329  1.00  0.00     0.000 HD 
BRANCH  11  13
HETATM   13  C   UNL     1     -11.319  14.165  69.364  1.00  0.00    -0.272 C  
BRANCH  13  14
HETATM   14  C   UNL     1     -10.434  14.995  68.408  1.00  0.00    -0.238 C  
HETATM   15  H   UNL     1      -7.846  15.446  67.750  1.00  0.00     0.000 H  
HETATM   16  S   UNL     1      -8.641  14.698  68.610  1.00  0.00    -0.165 SA 
ENDBRANCH  13  14
BRANCH  13  17
HETATM   17  C   UNL     1     -12.232  15.098  70.189  1.00  0.00    -0.352 C  
HETATM   18  O   UNL     1     -12.769  16.118  69.770  1.00  0.00     0.002 OA 
BRANCH  17  19
HETATM   19  O   UNL     1     -12.368  14.618  71.460  1.00  0.00    -0.320 OA 
BRANCH  19  20
HETATM   20  C   UNL     1     -11.756  15.400  72.494  1.00  0.00    -0.463 C  
HETATM   21  C   UNL     1     -12.752  15.713  73.591  1.00  0.00    -0.725 C  
ENDBRANCH  19  20
ENDBRANCH  17  19
ENDBRANCH  13  17
ENDBRANCH  11  13
ENDBRANCH  10  11
ENDBRANCH   9  10
ENDBRANCH   7   9
ENDBRANCH   6   7
BRANCH   6  22
HETATM   22  C   UNL     1      -8.609   9.108  70.587  1.00  0.00    -0.226 C  
HETATM   23  H   UNL     1      -6.971   7.178  71.572  1.00  0.00     0.000 H  
HETATM   24  S   UNL     1      -8.166   7.362  70.886  1.00  0.00    -0.114 SA 
ENDBRANCH   6  22
ENDBRANCH   4   6
ENDBRANCH   3   4
ENDBRANCH   2   3
TORSDOF 13
ENDMDL
MODEL      236
REMARK 921   NORMALIZED FREE ENERGY PREDICTED BY IDOCK:   -3.54 KCAL/MOL
REMARK 922        TOTAL FREE ENERGY PREDICTED BY IDOCK:   -6.82 KCAL/MOL
REMARK 923 INTER-LIGAND FREE ENERGY PREDICTED BY IDOCK:   -5.54 KCAL/MOL
REMARK 924 INTRA-LIGAND FREE ENERGY PREDICTED BY IDOCK:   -1.28 KCAL/MOL
REMARK 927      BINDING AFFINITY PREDICTED BY RF-SCORE:    0.00 PKD
ROOT
HETATM    1  C   UNL     1      -7.577   9.276  65.860  1.00  0.00    -0.098 C  
HETATM    2  C   UNL     1      -7.717  10.784  65.841  1.00  0.00    -0.118 C  
ENDROOT
BRANCH   2   3
HETATM    3  O   UNL     1      -9.096  11.154  65.697  1.00  0.00    -0.205 OA 
BRANCH   3   4
HETATM    4  C   UNL     1      -9.540  12.129  66.541  1.00  0.00    -0.228 C  
HETATM    5  O   UNL     1      -8.894  13.109  66.889  1.00  0.00    -0.217 OA 
BRANCH   4   6
HETATM    6  C   UNL     1     -10.982  11.810  66.980  1.00  0.00    -0.285 C  
BRANCH   6   7
HETATM    7  N   UNL     1     -11.916  12.039  65.844  1.00  0.00    -0.519 NA 
HETATM    8  H   UNL     1     -12.819  11.601  66.032  1.00  0.00     0.000 HD 
BRANCH   7   9
HETATM    9  C   UNL     1     -12.097  13.448  65.482  1.00  0.00    -0.428 C  
BRANCH   9  10
HETATM   10  C   UNL     1     -12.236  14.382  66.705  1.00  0.00    -0.311 C  
BRANCH  10  11
HETATM   11  N   UNL     1     -11.151  15.364  66.862  1.00  0.00    -0.296 NA 
HETATM   12  H   UNL     1     -11.300  16.162  66.244  1.00  0.00     0.000 HD 
BRANCH  11  13
HETATM   13  C   UNL     1     -10.939  15.824  68.266  1.00  0.00    -0.325 C  
BRANCH  13  14
HETATM   14  C   UNL     1     -11.221  14.726  69.315  1.00  0.00    -0.283 C  
HETATM   15  H   UNL     1     -12.771  14.185  71.470  1.00  0.00     0.000 H  
HETATM   16  S   UNL     1     -12.517  15.173  70.526  1.00  0.00    -0.391 SA 
ENDBRANCH  13  14
BRANCH  13  17
HETATM   17  C   UNL     1      -9.497  16.354  68.427  1.00  0.00    -0.220 C  
HETATM   18  O   UNL     1      -8.805  16.235  69.432  1.00  0.00    -0.204 OA 
BRANCH  17  19
HETATM   19  O   UNL     1      -9.092  16.968  67.277  1.00  0.00    -0.218 OA 
BRANCH  19  20
HETATM   20  C   UNL     1      -8.631  18.319  67.416  1.00  0.00    -0.249 C  
HETATM   21  C   UNL     1      -9.757  19.299  67.169  1.00  0.00    -0.409 C  
ENDBRANCH  19  20
ENDBRANCH  17  19
ENDBRANCH  13  17
ENDBRANCH  11  13
ENDBRANCH  10  11
ENDBRANCH   9  10
ENDBRANCH   7   9
ENDBRANCH   6   7
BRANCH   6  22
HETATM   22  C   UNL     1     -11.021  10.402  67.609  1.00  0.00    -0.312 C  
HETATM   23  H   UNL     1      -9.953   8.915  69.616  1.00  0.00     0.000 H  
HETATM   24  S   UNL     1      -9.918  10.183  69.049  1.00  0.00    -0.221 SA 
ENDBRANCH   6  22
ENDBRANCH   4   6
ENDBRANCH   3   4
ENDBRANCH   2   3
TORSDOF 13
ENDMDL
MODEL      237
REMARK 921   NORMALIZED FREE ENERGY PREDICTED BY IDOCK:   -3.53 KCAL/MOL
REMARK 922        TOTAL FREE ENERGY PREDICTED BY IDOCK:   -6.81 KCAL/MOL
REMARK 923 INTER-LIGAND FREE ENERGY PREDICTED BY IDOCK:   -6.17 KCAL/MOL
REMARK 924 INTRA-LIGAND FREE ENERGY PREDICTED BY IDOCK:   -0.65 KCAL/MOL
REMARK 927      BINDING AFFINITY PREDICTED BY RF-SCORE:    0.00 PKD
ROOT
HETATM    1  C   UNL     1      -6.036  21.322  63.206  1.00  0.00    -0.356 C  
HETATM    2  C   UNL     1      -5.604  20.473  64.382  1.00  0.00    -0.216 C  
ENDROOT
BRANCH   2   3
HETATM    3  O   UNL     1      -6.267  20.907  65.579  1.00  0.00    -0.244 OA 
BRANCH   3   4
HETATM    4  C   UNL     1      -6.572  19.928  66.478  1.00  0.00    -0.196 C  
HETATM    5  O   UNL     1      -5.829  19.528  67.366  1.00  0.00    -0.184 OA 
BRANCH   4   6
HETATM    6  C   UNL     1      -7.997  19.409  66.208  1.00  0.00    -0.319 C  
BRANCH   6   7
HETATM    7  N   UNL     1      -7.935  18.032  65.648  1.00  0.00    -0.414 NA 
HETATM    8  H   UNL     1      -7.023  17.862  65.223  1.00  0.00     0.000 HD 
BRANCH   7   9
HETATM    9  C   UNL     1      -8.256  16.972  66.609  1.00  0.00    -0.260 C  
BRANCH   9  10
HETATM   10  C   UNL     1      -9.421  16.065  66.153  1.00  0.00    -0.336 C  
BRANCH  10  11
HETATM   11  N   UNL     1      -9.849  15.062  67.142  1.00  0.00    -0.231 NA 
HETATM   12  H   UNL     1     -10.609  15.429  67.716  1.00  0.00     0.000 HD 
BRANCH  11  13
HETATM   13  C   UNL     1     -10.229  13.744  66.554  1.00  0.00    -0.284 C  
BRANCH  13  14
HETATM   14  C   UNL     1      -9.136  12.666  66.722  1.00  0.00    -0.214 C  
HETATM   15  H   UNL     1      -6.971  12.042  68.226  1.00  0.00     0.000 H  
HETATM   16  S   UNL     1      -7.956  13.012  68.075  1.00  0.00    -0.168 SA 
ENDBRANCH  13  14
BRANCH  13  17
HETATM   17  C   UNL     1     -11.555  13.258  67.181  1.00  0.00    -0.357 C  
HETATM   18  O   UNL     1     -12.258  12.354  66.744  1.00  0.00    -0.551 OA 
BRANCH  17  19
HETATM   19  O   UNL     1     -11.831  13.977  68.309  1.00  0.00    -0.341 OA 
BRANCH  19  20
HETATM   20  C   UNL     1     -11.737  13.262  69.547  1.00  0.00    -0.322 C  
HETATM   21  C   UNL     1     -12.567  13.936  70.620  1.00  0.00    -0.405 C  
ENDBRANCH  19  20
ENDBRANCH  17  19
ENDBRANCH  13  17
ENDBRANCH  11  13
ENDBRANCH  10  11
ENDBRANCH   9  10
ENDBRANCH   7   9
ENDBRANCH   6   7
BRANCH   6  22
HETATM   22  C   UNL     1      -8.848  19.578  67.484  1.00  0.00    -0.307 C  
HETATM   23  H   UNL     1     -11.415  19.824  68.338  1.00  0.00     0.000 H  
HETATM   24  S   UNL     1     -10.648  19.672  67.189  1.00  0.00    -0.465 SA 
ENDBRANCH   6  22
ENDBRANCH   4   6
ENDBRANCH   3   4
ENDBRANCH   2   3
TORSDOF 13
ENDMDL
MODEL      238
REMARK 921   NORMALIZED FREE ENERGY PREDICTED BY IDOCK:   -3.53 KCAL/MOL
REMARK 922        TOTAL FREE ENERGY PREDICTED BY IDOCK:   -6.81 KCAL/MOL
REMARK 923 INTER-LIGAND FREE ENERGY PREDICTED BY IDOCK:   -5.70 KCAL/MOL
REMARK 924 INTRA-LIGAND FREE ENERGY PREDICTED BY IDOCK:   -1.10 KCAL/MOL
REMARK 927      BINDING AFFINITY PREDICTED BY RF-SCORE:    0.00 PKD
ROOT
HETATM    1  C   UNL     1     -10.028   4.946  70.341  1.00  0.00    -0.316 C  
HETATM    2  C   UNL     1     -11.119   5.990  70.243  1.00  0.00    -0.345 C  
ENDROOT
BRANCH   2   3
HETATM    3  O   UNL     1     -11.378   6.311  68.868  1.00  0.00    -0.373 OA 
BRANCH   3   4
HETATM    4  C   UNL     1     -10.676   7.365  68.363  1.00  0.00    -0.096 C  
HETATM    5  O   UNL     1     -10.300   8.337  69.006  1.00  0.00    -0.218 OA 
BRANCH   4   6
HETATM    6  C   UNL     1     -10.421   7.139  66.860  1.00  0.00    -0.294 C  
BRANCH   6   7
HETATM    7  N   UNL     1     -10.146   8.441  66.194  1.00  0.00    -0.444 NA 
HETATM    8  H   UNL     1     -10.509   9.211  66.756  1.00  0.00     0.000 HD 
BRANCH   7   9
HETATM    9  C   UNL     1      -8.735   8.669  65.866  1.00  0.00    -0.172 C  
BRANCH   9  10
HETATM   10  C   UNL     1      -8.123   9.882  66.601  1.00  0.00    -0.117 C  
BRANCH  10  11
HETATM   11  N   UNL     1      -8.212  11.158  65.872  1.00  0.00    -0.324 NA 
HETATM   12  H   UNL     1      -8.067  11.008  64.873  1.00  0.00     0.000 HD 
BRANCH  11  13
HETATM   13  C   UNL     1      -9.477  11.913  66.109  1.00  0.00    -0.231 C  
BRANCH  13  14
HETATM   14  C   UNL     1      -9.239  13.355  66.609  1.00  0.00    -0.214 C  
HETATM   15  H   UNL     1      -7.796  14.776  68.408  1.00  0.00     0.000 H  
HETATM   16  S   UNL     1      -8.010  13.479  67.958  1.00  0.00    -0.166 SA 
ENDBRANCH  13  14
BRANCH  13  17
HETATM   17  C   UNL     1     -10.320  11.933  64.815  1.00  0.00    -0.281 C  
HETATM   18  O   UNL     1     -10.685  10.943  64.190  1.00  0.00    -0.362 OA 
BRANCH  17  19
HETATM   19  O   UNL     1     -10.615  13.220  64.467  1.00  0.00    -0.379 OA 
BRANCH  19  20
HETATM   20  C   UNL     1     -11.983  13.480  64.124  1.00  0.00    -0.448 C  
HETATM   21  C   UNL     1     -12.768  13.918  65.342  1.00  0.00    -0.525 C  
ENDBRANCH  19  20
ENDBRANCH  17  19
ENDBRANCH  13  17
ENDBRANCH  11  13
ENDBRANCH  10  11
ENDBRANCH   9  10
ENDBRANCH   7   9
ENDBRANCH   6   7
BRANCH   6  22
HETATM   22  C   UNL     1      -9.337   6.054  66.689  1.00  0.00    -0.144 C  
HETATM   23  H   UNL     1      -8.946   3.538  65.741  1.00  0.00     0.000 H  
HETATM   24  S   UNL     1      -9.922   4.516  65.896  1.00  0.00    -0.255 SA 
ENDBRANCH   6  22
ENDBRANCH   4   6
ENDBRANCH   3   4
ENDBRANCH   2   3
TORSDOF 13
ENDMDL
MODEL      239
REMARK 921   NORMALIZED FREE ENERGY PREDICTED BY IDOCK:   -3.53 KCAL/MOL
REMARK 922        TOTAL FREE ENERGY PREDICTED BY IDOCK:   -6.80 KCAL/MOL
REMARK 923 INTER-LIGAND FREE ENERGY PREDICTED BY IDOCK:   -5.83 KCAL/MOL
REMARK 924 INTRA-LIGAND FREE ENERGY PREDICTED BY IDOCK:   -0.97 KCAL/MOL
REMARK 927      BINDING AFFINITY PREDICTED BY RF-SCORE:    0.00 PKD
ROOT
HETATM    1  C   UNL     1      -9.045   4.401  66.480  1.00  0.00    -0.123 C  
HETATM    2  C   UNL     1     -10.343   5.180  66.490  1.00  0.00    -0.291 C  
ENDROOT
BRANCH   2   3
HETATM    3  O   UNL     1     -10.088   6.567  66.759  1.00  0.00    -0.175 OA 
BRANCH   3   4
HETATM    4  C   UNL     1     -10.571   7.042  67.942  1.00  0.00    -0.218 C  
HETATM    5  O   UNL     1     -11.277   6.412  68.720  1.00  0.00    -0.333 OA 
BRANCH   4   6
HETATM    6  C   UNL     1     -10.084   8.488  68.153  1.00  0.00    -0.200 C  
BRANCH   6   7
HETATM    7  N   UNL     1     -11.242   9.369  68.467  1.00  0.00    -0.473 NA 
HETATM    8  H   UNL     1     -12.119   8.868  68.323  1.00  0.00     0.000 HD 
BRANCH   7   9
HETATM    9  C   UNL     1     -11.205   9.963  69.807  1.00  0.00    -0.235 C  
BRANCH   9  10
HETATM   10  C   UNL     1     -12.167  11.161  69.972  1.00  0.00    -0.326 C  
BRANCH  10  11
HETATM   11  N   UNL     1     -11.531  12.485  69.872  1.00  0.00    -0.515 NA 
HETATM   12  H   UNL     1     -10.518  12.401  69.953  1.00  0.00     0.000 HD 
BRANCH  11  13
HETATM   13  C   UNL     1     -11.896  13.250  68.643  1.00  0.00    -0.345 C  
BRANCH  13  14
HETATM   14  C   UNL     1     -11.886  14.780  68.854  1.00  0.00    -0.296 C  
HETATM   15  H   UNL     1     -12.381  16.676  70.724  1.00  0.00     0.000 H  
HETATM   16  S   UNL     1     -12.389  15.299  70.534  1.00  0.00    -0.413 SA 
ENDBRANCH  13  14
BRANCH  13  17
HETATM   17  C   UNL     1     -10.940  12.867  67.491  1.00  0.00    -0.255 C  
HETATM   18  O   UNL     1      -9.803  13.300  67.338  1.00  0.00    -0.220 OA 
BRANCH  17  19
HETATM   19  O   UNL     1     -11.541  11.961  66.665  1.00  0.00    -0.465 OA 
BRANCH  19  20
HETATM   20  C   UNL     1     -10.822  11.627  65.471  1.00  0.00    -0.279 C  
HETATM   21  C   UNL     1     -11.538  12.157  64.247  1.00  0.00    -0.444 C  
ENDBRANCH  19  20
ENDBRANCH  17  19
ENDBRANCH  13  17
ENDBRANCH  11  13
ENDBRANCH  10  11
ENDBRANCH   9  10
ENDBRANCH   7   9
ENDBRANCH   6   7
BRANCH   6  22
HETATM   22  C   UNL     1      -8.937   8.491  69.185  1.00  0.00    -0.146 C  
HETATM   23  H   UNL     1      -6.486   9.556  69.670  1.00  0.00     0.000 H  
HETATM   24  S   UNL     1      -7.519   9.553  68.741  1.00  0.00    -0.076 SA 
ENDBRANCH   6  22
ENDBRANCH   4   6
ENDBRANCH   3   4
ENDBRANCH   2   3
TORSDOF 13
ENDMDL
MODEL      240
REMARK 921   NORMALIZED FREE ENERGY PREDICTED BY IDOCK:   -3.51 KCAL/MOL
REMARK 922        TOTAL FREE ENERGY PREDICTED BY IDOCK:   -6.78 KCAL/MOL
REMARK 923 INTER-LIGAND FREE ENERGY PREDICTED BY IDOCK:   -5.67 KCAL/MOL
REMARK 924 INTRA-LIGAND FREE ENERGY PREDICTED BY IDOCK:   -1.11 KCAL/MOL
REMARK 927      BINDING AFFINITY PREDICTED BY RF-SCORE:    0.00 PKD
ROOT
HETATM    1  C   UNL     1      -6.676   5.668  67.234  1.00  0.00    -0.059 C  
HETATM    2  C   UNL     1      -6.918   6.588  68.411  1.00  0.00    -0.080 C  
ENDROOT
BRANCH   2   3
HETATM    3  O   UNL     1      -7.321   7.888  67.952  1.00  0.00    -0.088 OA 
BRANCH   3   4
HETATM    4  C   UNL     1      -8.611   8.238  68.221  1.00  0.00    -0.133 C  
HETATM    5  O   UNL     1      -8.987   8.835  69.221  1.00  0.00    -0.141 OA 
BRANCH   4   6
HETATM    6  C   UNL     1      -9.520   7.774  67.066  1.00  0.00    -0.164 C  
BRANCH   6   7
HETATM    7  N   UNL     1     -10.889   7.498  67.582  1.00  0.00    -0.497 NA 
HETATM    8  H   UNL     1     -11.584   7.669  66.854  1.00  0.00     0.000 HD 
BRANCH   7   9
HETATM    9  C   UNL     1     -11.063   6.159  68.152  1.00  0.00    -0.227 C  
BRANCH   9  10
HETATM   10  C   UNL     1     -11.312   6.169  69.676  1.00  0.00    -0.372 C  
BRANCH  10  11
HETATM   11  N   UNL     1     -11.544   7.502  70.257  1.00  0.00    -0.477 NA 
HETATM   12  H   UNL     1     -12.155   8.053  69.653  1.00  0.00     0.000 HD 
BRANCH  11  13
HETATM   13  C   UNL     1     -12.073   7.479  71.653  1.00  0.00    -0.311 C  
BRANCH  13  14
HETATM   14  C   UNL     1     -10.990   7.762  72.717  1.00  0.00    -0.388 C  
HETATM   15  H   UNL     1      -9.436   6.525  74.559  1.00  0.00     0.000 H  
HETATM   16  S   UNL     1     -10.411   6.270  73.601  1.00  0.00    -0.297 SA 
ENDBRANCH  13  14
BRANCH  13  17
HETATM   17  C   UNL     1     -13.228   8.496  71.787  1.00  0.00    -0.364 C  
HETATM   18  O   UNL     1     -14.408   8.265  71.551  1.00  0.00    -0.433 OA 
BRANCH  17  19
HETATM   19  O   UNL     1     -12.746   9.698  72.220  1.00  0.00    -0.353 OA 
BRANCH  19  20
HETATM   20  C   UNL     1     -12.942  10.809  71.335  1.00  0.00    -0.432 C  
HETATM   21  C   UNL     1     -11.692  11.074  70.522  1.00  0.00    -0.416 C  
ENDBRANCH  19  20
ENDBRANCH  17  19
ENDBRANCH  13  17
ENDBRANCH  11  13
ENDBRANCH  10  11
ENDBRANCH   9  10
ENDBRANCH   7   9
ENDBRANCH   6   7
BRANCH   6  22
HETATM   22  C   UNL     1      -9.430   8.792  65.910  1.00  0.00    -0.208 C  
HETATM   23  H   UNL     1     -10.019  11.363  65.261  1.00  0.00     0.000 H  
HETATM   24  S   UNL     1     -10.100  10.446  66.301  1.00  0.00    -0.226 SA 
ENDBRANCH   6  22
ENDBRANCH   4   6
ENDBRANCH   3   4
ENDBRANCH   2   3
TORSDOF 13
ENDMDL
MODEL      241
REMARK 921   NORMALIZED FREE ENERGY PREDICTED BY IDOCK:   -3.51 KCAL/MOL
REMARK 922        TOTAL FREE ENERGY PREDICTED BY IDOCK:   -6.77 KCAL/MOL
REMARK 923 INTER-LIGAND FREE ENERGY PREDICTED BY IDOCK:   -6.08 KCAL/MOL
REMARK 924 INTRA-LIGAND FREE ENERGY PREDICTED BY IDOCK:   -0.68 KCAL/MOL
REMARK 927      BINDING AFFINITY PREDICTED BY RF-SCORE:    0.00 PKD
ROOT
HETATM    1  C   UNL     1     -11.815   8.185  72.236  1.00  0.00    -0.441 C  
HETATM    2  C   UNL     1     -10.546   7.765  71.527  1.00  0.00    -0.213 C  
ENDROOT
BRANCH   2   3
HETATM    3  O   UNL     1     -10.760   7.723  70.108  1.00  0.00    -0.234 OA 
BRANCH   3   4
HETATM    4  C   UNL     1     -10.764   6.481  69.545  1.00  0.00    -0.270 C  
HETATM    5  O   UNL     1     -10.723   5.425  70.164  1.00  0.00    -0.298 OA 
BRANCH   4   6
HETATM    6  C   UNL     1     -10.839   6.612  68.012  1.00  0.00    -0.271 C  
BRANCH   6   7
HETATM    7  N   UNL     1     -11.116   8.027  67.641  1.00  0.00    -0.435 NA 
HETATM    8  H   UNL     1     -11.162   8.611  68.476  1.00  0.00     0.000 HD 
BRANCH   7   9
HETATM    9  C   UNL     1     -10.174   8.595  66.671  1.00  0.00    -0.273 C  
BRANCH   9  10
HETATM   10  C   UNL     1      -9.644   9.988  67.076  1.00  0.00    -0.172 C  
BRANCH  10  11
HETATM   11  N   UNL     1     -10.110  11.099  66.230  1.00  0.00    -0.225 NA 
HETATM   12  H   UNL     1     -10.376  10.756  65.307  1.00  0.00     0.000 HD 
BRANCH  11  13
HETATM   13  C   UNL     1     -11.216  11.903  66.828  1.00  0.00    -0.327 C  
BRANCH  13  14
HETATM   14  C   UNL     1     -10.742  12.843  67.958  1.00  0.00    -0.228 C  
HETATM   15  H   UNL     1     -11.150  13.402  70.577  1.00  0.00     0.000 H  
HETATM   16  S   UNL     1     -11.577  12.556  69.559  1.00  0.00    -0.252 SA 
ENDBRANCH  13  14
BRANCH  13  17
HETATM   17  C   UNL     1     -11.922  12.717  65.721  1.00  0.00    -0.449 C  
HETATM   18  O   UNL     1     -12.594  12.244  64.811  1.00  0.00    -0.507 OA 
BRANCH  17  19
HETATM   19  O   UNL     1     -11.699  14.052  65.906  1.00  0.00    -0.341 OA 
BRANCH  19  20
HETATM   20  C   UNL     1     -11.531  14.831  64.715  1.00  0.00    -0.410 C  
HETATM   21  C   UNL     1     -10.787  16.116  65.014  1.00  0.00    -0.380 C  
ENDBRANCH  19  20
ENDBRANCH  17  19
ENDBRANCH  13  17
ENDBRANCH  11  13
ENDBRANCH  10  11
ENDBRANCH   9  10
ENDBRANCH   7   9
ENDBRANCH   6   7
BRANCH   6  22
HETATM   22  C   UNL     1      -9.574   5.988  67.387  1.00  0.00    -0.112 C  
HETATM   23  H   UNL     1      -8.747   3.956  65.785  1.00  0.00     0.000 H  
HETATM   24  S   UNL     1      -9.887   4.518  66.348  1.00  0.00    -0.246 SA 
ENDBRANCH   6  22
ENDBRANCH   4   6
ENDBRANCH   3   4
ENDBRANCH   2   3
TORSDOF 13
ENDMDL
MODEL      242
REMARK 921   NORMALIZED FREE ENERGY PREDICTED BY IDOCK:   -3.50 KCAL/MOL
REMARK 922        TOTAL FREE ENERGY PREDICTED BY IDOCK:   -6.76 KCAL/MOL
REMARK 923 INTER-LIGAND FREE ENERGY PREDICTED BY IDOCK:   -5.63 KCAL/MOL
REMARK 924 INTRA-LIGAND FREE ENERGY PREDICTED BY IDOCK:   -1.14 KCAL/MOL
REMARK 927      BINDING AFFINITY PREDICTED BY RF-SCORE:    0.00 PKD
ROOT
HETATM    1  C   UNL     1      -8.940  10.603  67.022  1.00  0.00    -0.145 C  
HETATM    2  C   UNL     1     -10.352  10.513  66.484  1.00  0.00    -0.233 C  
ENDROOT
BRANCH   2   3
HETATM    3  O   UNL     1     -11.289  10.991  67.461  1.00  0.00    -0.375 OA 
BRANCH   3   4
HETATM    4  C   UNL     1     -11.773  12.249  67.252  1.00  0.00    -0.324 C  
HETATM    5  O   UNL     1     -12.182  12.680  66.181  1.00  0.00    -0.568 OA 
BRANCH   4   6
HETATM    6  C   UNL     1     -11.736  13.039  68.575  1.00  0.00    -0.342 C  
BRANCH   6   7
HETATM    7  N   UNL     1     -11.198  12.176  69.661  1.00  0.00    -0.472 NA 
HETATM    8  H   UNL     1     -10.426  12.644  70.138  1.00  0.00     0.000 HD 
BRANCH   7   9
HETATM    9  C   UNL     1     -12.201  11.726  70.632  1.00  0.00    -0.349 C  
BRANCH   9  10
HETATM   10  C   UNL     1     -12.323  10.189  70.718  1.00  0.00    -0.328 C  
BRANCH  10  11
HETATM   11  N   UNL     1     -11.232   9.443  70.071  1.00  0.00    -0.344 NA 
HETATM   12  H   UNL     1     -10.478  10.075  69.801  1.00  0.00     0.000 HD 
BRANCH  11  13
HETATM   13  C   UNL     1     -10.696   8.311  70.884  1.00  0.00    -0.218 C  
BRANCH  13  14
HETATM   14  C   UNL     1     -11.525   8.032  72.158  1.00  0.00    -0.335 C  
HETATM   15  H   UNL     1     -11.806   6.238  74.168  1.00  0.00     0.000 H  
HETATM   16  S   UNL     1     -11.060   6.489  73.022  1.00  0.00    -0.146 SA 
ENDBRANCH  13  14
BRANCH  13  17
HETATM   17  C   UNL     1     -10.617   7.038  70.013  1.00  0.00    -0.230 C  
HETATM   18  O   UNL     1     -11.579   6.404  69.594  1.00  0.00    -0.417 OA 
BRANCH  17  19
HETATM   19  O   UNL     1      -9.313   6.720  69.765  1.00  0.00    -0.146 OA 
BRANCH  19  20
HETATM   20  C   UNL     1      -8.334   7.599  70.334  1.00  0.00    -0.124 C  
HETATM   21  C   UNL     1      -7.348   6.826  71.184  1.00  0.00    -0.079 C  
ENDBRANCH  19  20
ENDBRANCH  17  19
ENDBRANCH  13  17
ENDBRANCH  11  13
ENDBRANCH  10  11
ENDBRANCH   9  10
ENDBRANCH   7   9
ENDBRANCH   6   7
BRANCH   6  22
HETATM   22  C   UNL     1     -10.997  14.373  68.347  1.00  0.00    -0.248 C  
HETATM   23  H   UNL     1      -8.586  15.399  67.630  1.00  0.00     0.000 H  
HETATM   24  S   UNL     1      -9.252  14.197  67.835  1.00  0.00    -0.204 SA 
ENDBRANCH   6  22
ENDBRANCH   4   6
ENDBRANCH   3   4
ENDBRANCH   2   3
TORSDOF 13
ENDMDL
MODEL      243
REMARK 921   NORMALIZED FREE ENERGY PREDICTED BY IDOCK:   -3.50 KCAL/MOL
REMARK 922        TOTAL FREE ENERGY PREDICTED BY IDOCK:   -6.76 KCAL/MOL
REMARK 923 INTER-LIGAND FREE ENERGY PREDICTED BY IDOCK:   -6.01 KCAL/MOL
REMARK 924 INTRA-LIGAND FREE ENERGY PREDICTED BY IDOCK:   -0.75 KCAL/MOL
REMARK 927      BINDING AFFINITY PREDICTED BY RF-SCORE:    0.00 PKD
ROOT
HETATM    1  C   UNL     1     -11.999  12.938  63.738  1.00  0.00    -0.582 C  
HETATM    2  C   UNL     1     -12.583  13.327  65.079  1.00  0.00    -0.423 C  
ENDROOT
BRANCH   2   3
HETATM    3  O   UNL     1     -12.250  12.343  66.071  1.00  0.00    -0.636 OA 
BRANCH   3   4
HETATM    4  C   UNL     1     -11.266  12.693  66.947  1.00  0.00    -0.300 C  
HETATM    5  O   UNL     1     -10.067  12.518  66.769  1.00  0.00    -0.219 OA 
BRANCH   4   6
HETATM    6  C   UNL     1     -11.895  13.352  68.189  1.00  0.00    -0.361 C  
BRANCH   6   7
HETATM    7  N   UNL     1     -11.427  12.656  69.419  1.00  0.00    -0.377 NA 
HETATM    8  H   UNL     1     -11.617  13.226  70.244  1.00  0.00     0.000 HD 
BRANCH   7   9
HETATM    9  C   UNL     1     -11.969  11.305  69.595  1.00  0.00    -0.353 C  
BRANCH   9  10
HETATM   10  C   UNL     1     -10.902  10.196  69.468  1.00  0.00    -0.255 C  
BRANCH  10  11
HETATM   11  N   UNL     1     -11.337   8.862  69.915  1.00  0.00    -0.443 NA 
HETATM   12  H   UNL     1     -12.198   8.590  69.439  1.00  0.00     0.000 HD 
BRANCH  11  13
HETATM   13  C   UNL     1     -10.301   7.798  69.768  1.00  0.00    -0.221 C  
BRANCH  13  14
HETATM   14  C   UNL     1     -10.279   6.804  70.950  1.00  0.00    -0.195 C  
HETATM   15  H   UNL     1      -8.581   5.526  72.630  1.00  0.00     0.000 H  
HETATM   16  S   UNL     1      -8.600   6.420  71.566  1.00  0.00    -0.130 SA 
ENDBRANCH  13  14
BRANCH  13  17
HETATM   17  C   UNL     1     -10.520   7.039  68.441  1.00  0.00    -0.201 C  
HETATM   18  O   UNL     1     -11.151   5.995  68.316  1.00  0.00    -0.309 OA 
BRANCH  17  19
HETATM   19  O   UNL     1      -9.916   7.706  67.414  1.00  0.00    -0.159 OA 
BRANCH  19  20
HETATM   20  C   UNL     1      -8.518   7.977  67.578  1.00  0.00    -0.127 C  
HETATM   21  C   UNL     1      -8.172   9.352  67.047  1.00  0.00    -0.116 C  
ENDBRANCH  19  20
ENDBRANCH  17  19
ENDBRANCH  13  17
ENDBRANCH  11  13
ENDBRANCH  10  11
ENDBRANCH   9  10
ENDBRANCH   7   9
ENDBRANCH   6   7
BRANCH   6  22
HETATM   22  C   UNL     1     -11.642  14.872  68.139  1.00  0.00    -0.334 C  
HETATM   23  H   UNL     1     -10.081  16.827  69.199  1.00  0.00     0.000 H  
HETATM   24  S   UNL     1     -10.309  15.457  69.244  1.00  0.00    -0.269 SA 
ENDBRANCH   6  22
ENDBRANCH   4   6
ENDBRANCH   3   4
ENDBRANCH   2   3
TORSDOF 13
ENDMDL
MODEL      244
REMARK 921   NORMALIZED FREE ENERGY PREDICTED BY IDOCK:   -3.50 KCAL/MOL
REMARK 922        TOTAL FREE ENERGY PREDICTED BY IDOCK:   -6.75 KCAL/MOL
REMARK 923 INTER-LIGAND FREE ENERGY PREDICTED BY IDOCK:   -6.20 KCAL/MOL
REMARK 924 INTRA-LIGAND FREE ENERGY PREDICTED BY IDOCK:   -0.55 KCAL/MOL
REMARK 927      BINDING AFFINITY PREDICTED BY RF-SCORE:    0.00 PKD
ROOT
HETATM    1  C   UNL     1     -12.837  15.757  71.622  1.00  0.00    -0.514 C  
HETATM    2  C   UNL     1     -12.247  15.493  70.253  1.00  0.00    -0.400 C  
ENDROOT
BRANCH   2   3
HETATM    3  O   UNL     1     -12.515  14.142  69.849  1.00  0.00    -0.341 OA 
BRANCH   3   4
HETATM    4  C   UNL     1     -11.920  13.740  68.689  1.00  0.00    -0.366 C  
HETATM    5  O   UNL     1     -11.903  14.382  67.646  1.00  0.00    -0.369 OA 
BRANCH   4   6
HETATM    6  C   UNL     1     -11.266  12.362  68.898  1.00  0.00    -0.280 C  
BRANCH   6   7
HETATM    7  N   UNL     1     -11.548  11.874  70.276  1.00  0.00    -0.531 NA 
HETATM    8  H   UNL     1     -11.822  12.651  70.879  1.00  0.00     0.000 HD 
BRANCH   7   9
HETATM    9  C   UNL     1     -12.541  10.797  70.347  1.00  0.00    -0.314 C  
BRANCH   9  10
HETATM   10  C   UNL     1     -12.208   9.726  71.409  1.00  0.00    -0.397 C  
BRANCH  10  11
HETATM   11  N   UNL     1     -11.759   8.433  70.866  1.00  0.00    -0.353 NA 
HETATM   12  H   UNL     1     -11.697   8.476  69.849  1.00  0.00     0.000 HD 
BRANCH  11  13
HETATM   13  C   UNL     1     -10.477   7.936  71.447  1.00  0.00    -0.206 C  
BRANCH  13  14
HETATM   14  C   UNL     1     -10.432   8.027  72.988  1.00  0.00    -0.271 C  
HETATM   15  H   UNL     1      -8.703   8.046  75.073  1.00  0.00     0.000 H  
HETATM   16  S   UNL     1      -8.743   7.966  73.686  1.00  0.00    -0.271 SA 
ENDBRANCH  13  14
BRANCH  13  17
HETATM   17  C   UNL     1     -10.231   6.480  70.993  1.00  0.00    -0.189 C  
HETATM   18  O   UNL     1      -9.424   6.130  70.139  1.00  0.00    -0.156 OA 
BRANCH  17  19
HETATM   19  O   UNL     1     -11.039   5.630  71.691  1.00  0.00    -0.251 OA 
BRANCH  19  20
HETATM   20  C   UNL     1     -10.380   4.549  72.364  1.00  0.00    -0.191 C  
HETATM   21  C   UNL     1     -10.733   4.539  73.836  1.00  0.00    -0.349 C  
ENDBRANCH  19  20
ENDBRANCH  17  19
ENDBRANCH  13  17
ENDBRANCH  11  13
ENDBRANCH  10  11
ENDBRANCH   9  10
ENDBRANCH   7   9
ENDBRANCH   6   7
BRANCH   6  22
HETATM   22  C   UNL     1     -11.690  11.420  67.752  1.00  0.00    -0.203 C  
HETATM   23  H   UNL     1     -10.712   9.577  66.012  1.00  0.00     0.000 H  
HETATM   24  S   UNL     1     -10.331  10.425  67.045  1.00  0.00    -0.248 SA 
ENDBRANCH   6  22
ENDBRANCH   4   6
ENDBRANCH   3   4
ENDBRANCH   2   3
TORSDOF 13
ENDMDL
MODEL      245
REMARK 921   NORMALIZED FREE ENERGY PREDICTED BY IDOCK:   -3.49 KCAL/MOL
REMARK 922        TOTAL FREE ENERGY PREDICTED BY IDOCK:   -6.74 KCAL/MOL
REMARK 923 INTER-LIGAND FREE ENERGY PREDICTED BY IDOCK:   -5.87 KCAL/MOL
REMARK 924 INTRA-LIGAND FREE ENERGY PREDICTED BY IDOCK:   -0.87 KCAL/MOL
REMARK 927      BINDING AFFINITY PREDICTED BY RF-SCORE:    0.00 PKD
ROOT
HETATM    1  C   UNL     1     -10.444   5.461  70.405  1.00  0.00    -0.345 C  
HETATM    2  C   UNL     1     -11.404   6.545  69.962  1.00  0.00    -0.410 C  
ENDROOT
BRANCH   2   3
HETATM    3  O   UNL     1     -10.864   7.841  70.263  1.00  0.00    -0.243 OA 
BRANCH   3   4
HETATM    4  C   UNL     1      -9.989   8.346  69.348  1.00  0.00    -0.191 C  
HETATM    5  O   UNL     1      -8.798   8.554  69.549  1.00  0.00    -0.138 OA 
BRANCH   4   6
HETATM    6  C   UNL     1     -10.726   8.604  68.020  1.00  0.00    -0.074 C  
BRANCH   6   7
HETATM    7  N   UNL     1     -11.155  10.028  67.951  1.00  0.00    -0.464 NA 
HETATM    8  H   UNL     1     -11.896  10.143  67.259  1.00  0.00     0.000 HD 
BRANCH   7   9
HETATM    9  C   UNL     1     -11.563  10.601  69.238  1.00  0.00    -0.275 C  
BRANCH   9  10
HETATM   10  C   UNL     1     -11.665  12.143  69.217  1.00  0.00    -0.328 C  
BRANCH  10  11
HETATM   11  N   UNL     1     -10.501  12.833  68.637  1.00  0.00    -0.325 NA 
HETATM   12  H   UNL     1      -9.767  12.162  68.406  1.00  0.00     0.000 HD 
BRANCH  11  13
HETATM   13  C   UNL     1     -10.820  13.686  67.454  1.00  0.00    -0.273 C  
BRANCH  13  14
HETATM   14  C   UNL     1     -10.201  15.099  67.540  1.00  0.00    -0.238 C  
HETATM   15  H   UNL     1      -9.455  16.994  69.325  1.00  0.00     0.000 H  
HETATM   16  S   UNL     1     -10.011  15.723  69.248  1.00  0.00    -0.278 SA 
ENDBRANCH  13  14
BRANCH  13  17
HETATM   17  C   UNL     1     -10.352  12.979  66.163  1.00  0.00    -0.278 C  
HETATM   18  O   UNL     1      -9.744  11.916  66.116  1.00  0.00    -0.221 OA 
BRANCH  17  19
HETATM   19  O   UNL     1     -10.725  13.707  65.069  1.00  0.00    -0.323 OA 
BRANCH  19  20
HETATM   20  C   UNL     1     -12.079  13.532  64.631  1.00  0.00    -0.409 C  
HETATM   21  C   UNL     1     -12.156  12.502  63.524  1.00  0.00    -0.653 C  
ENDBRANCH  19  20
ENDBRANCH  17  19
ENDBRANCH  13  17
ENDBRANCH  11  13
ENDBRANCH  10  11
ENDBRANCH   9  10
ENDBRANCH   7   9
ENDBRANCH   6   7
BRANCH   6  22
HETATM   22  C   UNL     1      -9.852   8.109  66.850  1.00  0.00    -0.247 C  
HETATM   23  H   UNL     1      -8.910   5.845  65.681  1.00  0.00     0.000 H  
HETATM   24  S   UNL     1      -9.698   6.292  66.735  1.00  0.00    -0.158 SA 
ENDBRANCH   6  22
ENDBRANCH   4   6
ENDBRANCH   3   4
ENDBRANCH   2   3
TORSDOF 13
ENDMDL
MODEL      246
REMARK 921   NORMALIZED FREE ENERGY PREDICTED BY IDOCK:   -3.49 KCAL/MOL
REMARK 922        TOTAL FREE ENERGY PREDICTED BY IDOCK:   -6.73 KCAL/MOL
REMARK 923 INTER-LIGAND FREE ENERGY PREDICTED BY IDOCK:   -6.08 KCAL/MOL
REMARK 924 INTRA-LIGAND FREE ENERGY PREDICTED BY IDOCK:   -0.65 KCAL/MOL
REMARK 927      BINDING AFFINITY PREDICTED BY RF-SCORE:    0.00 PKD
ROOT
HETATM    1  C   UNL     1     -10.601  16.144  67.204  1.00  0.00    -0.294 C  
HETATM    2  C   UNL     1     -11.413  15.059  67.880  1.00  0.00    -0.340 C  
ENDROOT
BRANCH   2   3
HETATM    3  O   UNL     1     -12.007  14.198  66.896  1.00  0.00    -0.413 OA 
BRANCH   3   4
HETATM    4  C   UNL     1     -11.687  12.876  66.994  1.00  0.00    -0.385 C  
HETATM    5  O   UNL     1     -12.111  12.108  67.849  1.00  0.00    -0.502 OA 
BRANCH   4   6
HETATM    6  C   UNL     1     -10.719  12.496  65.857  1.00  0.00    -0.264 C  
BRANCH   6   7
HETATM    7  N   UNL     1     -10.720  11.020  65.667  1.00  0.00    -0.195 NA 
HETATM    8  H   UNL     1     -10.877  10.788  64.686  1.00  0.00     0.000 HD 
BRANCH   7   9
HETATM    9  C   UNL     1      -9.518  10.344  66.166  1.00  0.00    -0.181 C  
BRANCH   9  10
HETATM   10  C   UNL     1      -9.667   8.808  66.243  1.00  0.00    -0.272 C  
BRANCH  10  11
HETATM   11  N   UNL     1     -10.710   8.332  67.166  1.00  0.00    -0.446 NA 
HETATM   12  H   UNL     1     -11.624   8.686  66.884  1.00  0.00     0.000 HD 
BRANCH  11  13
HETATM   13  C   UNL     1     -10.754   6.849  67.330  1.00  0.00    -0.326 C  
BRANCH  13  14
HETATM   14  C   UNL     1      -9.776   6.105  66.394  1.00  0.00    -0.110 C  
HETATM   15  H   UNL     1      -9.530   3.832  64.940  1.00  0.00     0.000 H  
HETATM   16  S   UNL     1     -10.410   4.502  65.783  1.00  0.00    -0.200 SA 
ENDBRANCH  13  14
BRANCH  13  17
HETATM   17  C   UNL     1     -10.462   6.481  68.802  1.00  0.00    -0.213 C  
HETATM   18  O   UNL     1     -10.172   5.362  69.210  1.00  0.00    -0.208 OA 
BRANCH  17  19
HETATM   19  O   UNL     1     -10.564   7.590  69.591  1.00  0.00    -0.233 OA 
BRANCH  19  20
HETATM   20  C   UNL     1     -11.495   7.504  70.678  1.00  0.00    -0.269 C  
HETATM   21  C   UNL     1     -11.852   8.884  71.189  1.00  0.00    -0.353 C  
ENDBRANCH  19  20
ENDBRANCH  17  19
ENDBRANCH  13  17
ENDBRANCH  11  13
ENDBRANCH  10  11
ENDBRANCH   9  10
ENDBRANCH   7   9
ENDBRANCH   6   7
BRANCH   6  22
HETATM   22  C   UNL     1     -11.053  13.335  64.607  1.00  0.00    -0.357 C  
HETATM   23  H   UNL     1     -12.545  13.308  62.337  1.00  0.00     0.000 H  
HETATM   24  S   UNL     1     -12.244  12.553  63.464  1.00  0.00    -0.524 SA 
ENDBRANCH   6  22
ENDBRANCH   4   6
ENDBRANCH   3   4
ENDBRANCH   2   3
TORSDOF 13
ENDMDL
MODEL      247
REMARK 921   NORMALIZED FREE ENERGY PREDICTED BY IDOCK:   -3.48 KCAL/MOL
REMARK 922        TOTAL FREE ENERGY PREDICTED BY IDOCK:   -6.71 KCAL/MOL
REMARK 923 INTER-LIGAND FREE ENERGY PREDICTED BY IDOCK:   -5.84 KCAL/MOL
REMARK 924 INTRA-LIGAND FREE ENERGY PREDICTED BY IDOCK:   -0.87 KCAL/MOL
REMARK 927      BINDING AFFINITY PREDICTED BY RF-SCORE:    0.00 PKD
ROOT
HETATM    1  C   UNL     1     -13.137  10.919  71.731  1.00  0.00    -0.564 C  
HETATM    2  C   UNL     1     -13.712   9.584  72.153  1.00  0.00    -0.372 C  
ENDROOT
BRANCH   2   3
HETATM    3  O   UNL     1     -12.656   8.639  72.384  1.00  0.00    -0.383 OA 
BRANCH   3   4
HETATM    4  C   UNL     1     -12.728   7.482  71.665  1.00  0.00    -0.355 C  
HETATM    5  O   UNL     1     -13.755   6.997  71.208  1.00  0.00    -0.300 OA 
BRANCH   4   6
HETATM    6  C   UNL     1     -11.315   6.888  71.507  1.00  0.00    -0.266 C  
BRANCH   6   7
HETATM    7  N   UNL     1     -10.403   7.908  70.920  1.00  0.00    -0.200 NA 
HETATM    8  H   UNL     1      -9.430   7.670  71.118  1.00  0.00     0.000 HD 
BRANCH   7   9
HETATM    9  C   UNL     1     -10.592   8.136  69.484  1.00  0.00    -0.213 C  
BRANCH   9  10
HETATM   10  C   UNL     1     -10.408   9.613  69.070  1.00  0.00    -0.205 C  
BRANCH  10  11
HETATM   11  N   UNL     1     -11.553  10.204  68.359  1.00  0.00    -0.632 NA 
HETATM   12  H   UNL     1     -12.287  10.464  69.019  1.00  0.00     0.000 HD 
BRANCH  11  13
HETATM   13  C   UNL     1     -11.202  11.364  67.487  1.00  0.00    -0.292 C  
BRANCH  13  14
HETATM   14  C   UNL     1     -10.635  12.566  68.274  1.00  0.00    -0.231 C  
HETATM   15  H   UNL     1     -11.385  14.574  69.930  1.00  0.00     0.000 H  
HETATM   16  S   UNL     1     -11.895  13.491  69.223  1.00  0.00    -0.342 SA 
ENDBRANCH  13  14
BRANCH  13  17
HETATM   17  C   UNL     1     -10.194  10.914  66.406  1.00  0.00    -0.238 C  
HETATM   18  O   UNL     1     -10.375  10.008  65.600  1.00  0.00    -0.233 OA 
BRANCH  17  19
HETATM   19  O   UNL     1      -9.066  11.681  66.469  1.00  0.00    -0.187 OA 
BRANCH  19  20
HETATM   20  C   UNL     1      -7.823  10.968  66.482  1.00  0.00    -0.155 C  
HETATM   21  C   UNL     1      -6.765  11.748  67.234  1.00  0.00    -0.133 C  
ENDBRANCH  19  20
ENDBRANCH  17  19
ENDBRANCH  13  17
ENDBRANCH  11  13
ENDBRANCH  10  11
ENDBRANCH   9  10
ENDBRANCH   7   9
ENDBRANCH   6   7
BRANCH   6  22
HETATM   22  C   UNL     1     -10.868   6.280  72.852  1.00  0.00    -0.256 C  
HETATM   23  H   UNL     1      -9.343   6.793  75.041  1.00  0.00     0.000 H  
HETATM   24  S   UNL     1      -9.746   7.341  73.829  1.00  0.00    -0.284 SA 
ENDBRANCH   6  22
ENDBRANCH   4   6
ENDBRANCH   3   4
ENDBRANCH   2   3
TORSDOF 13
ENDMDL
MODEL      248
REMARK 921   NORMALIZED FREE ENERGY PREDICTED BY IDOCK:   -3.48 KCAL/MOL
REMARK 922        TOTAL FREE ENERGY PREDICTED BY IDOCK:   -6.71 KCAL/MOL
REMARK 923 INTER-LIGAND FREE ENERGY PREDICTED BY IDOCK:   -5.97 KCAL/MOL
REMARK 924 INTRA-LIGAND FREE ENERGY PREDICTED BY IDOCK:   -0.74 KCAL/MOL
REMARK 927      BINDING AFFINITY PREDICTED BY RF-SCORE:    0.00 PKD
ROOT
HETATM    1  C   UNL     1      -9.192  14.273  67.023  1.00  0.00    -0.249 C  
HETATM    2  C   UNL     1     -10.596  13.732  67.190  1.00  0.00    -0.277 C  
ENDROOT
BRANCH   2   3
HETATM    3  O   UNL     1     -10.800  12.606  66.323  1.00  0.00    -0.265 OA 
BRANCH   3   4
HETATM    4  C   UNL     1     -11.162  11.443  66.937  1.00  0.00    -0.264 C  
HETATM    5  O   UNL     1     -12.076  11.324  67.743  1.00  0.00    -0.631 OA 
BRANCH   4   6
HETATM    6  C   UNL     1     -10.249  10.301  66.450  1.00  0.00    -0.225 C  
BRANCH   6   7
HETATM    7  N   UNL     1     -10.829   8.989  66.848  1.00  0.00    -0.206 NA 
HETATM    8  H   UNL     1     -11.567   8.715  66.198  1.00  0.00     0.000 HD 
BRANCH   7   9
HETATM    9  C   UNL     1      -9.847   7.910  66.990  1.00  0.00    -0.225 C  
BRANCH   9  10
HETATM   10  C   UNL     1     -10.467   6.575  67.458  1.00  0.00    -0.240 C  
BRANCH  10  11
HETATM   11  N   UNL     1     -11.527   6.705  68.471  1.00  0.00    -0.559 NA 
HETATM   12  H   UNL     1     -12.351   6.170  68.195  1.00  0.00     0.000 HD 
BRANCH  11  13
HETATM   13  C   UNL     1     -11.104   6.336  69.854  1.00  0.00    -0.401 C  
BRANCH  13  14
HETATM   14  C   UNL     1      -9.750   5.593  69.897  1.00  0.00    -0.168 C  
HETATM   15  H   UNL     1      -7.988   4.472  71.622  1.00  0.00     0.000 H  
HETATM   16  S   UNL     1      -9.206   5.140  71.583  1.00  0.00    -0.147 SA 
ENDBRANCH  13  14
BRANCH  13  17
HETATM   17  C   UNL     1     -11.042   7.604  70.734  1.00  0.00    -0.264 C  
HETATM   18  O   UNL     1     -10.196   8.488  70.647  1.00  0.00    -0.190 OA 
BRANCH  17  19
HETATM   19  O   UNL     1     -12.077   7.609  71.623  1.00  0.00    -0.284 OA 
BRANCH  19  20
HETATM   20  C   UNL     1     -12.294   8.838  72.328  1.00  0.00    -0.378 C  
HETATM   21  C   UNL     1     -13.697   9.355  72.087  1.00  0.00    -0.490 C  
ENDBRANCH  19  20
ENDBRANCH  17  19
ENDBRANCH  13  17
ENDBRANCH  11  13
ENDBRANCH  10  11
ENDBRANCH   9  10
ENDBRANCH   7   9
ENDBRANCH   6   7
BRANCH   6  22
HETATM   22  C   UNL     1      -9.969  10.483  64.944  1.00  0.00    -0.334 C  
HETATM   23  H   UNL     1      -8.030  10.173  63.067  1.00  0.00     0.000 H  
HETATM   24  S   UNL     1      -8.283  10.010  64.423  1.00  0.00    -0.172 SA 
ENDBRANCH   6  22
ENDBRANCH   4   6
ENDBRANCH   3   4
ENDBRANCH   2   3
TORSDOF 13
ENDMDL
MODEL      249
REMARK 921   NORMALIZED FREE ENERGY PREDICTED BY IDOCK:   -3.47 KCAL/MOL
REMARK 922        TOTAL FREE ENERGY PREDICTED BY IDOCK:   -6.71 KCAL/MOL
REMARK 923 INTER-LIGAND FREE ENERGY PREDICTED BY IDOCK:   -6.05 KCAL/MOL
REMARK 924 INTRA-LIGAND FREE ENERGY PREDICTED BY IDOCK:   -0.66 KCAL/MOL
REMARK 927      BINDING AFFINITY PREDICTED BY RF-SCORE:    0.00 PKD
ROOT
HETATM    1  C   UNL     1      -6.976  13.973  67.608  1.00  0.00    -0.198 C  
HETATM    2  C   UNL     1      -8.166  13.360  68.316  1.00  0.00    -0.160 C  
ENDROOT
BRANCH   2   3
HETATM    3  O   UNL     1      -9.018  12.695  67.372  1.00  0.00    -0.173 OA 
BRANCH   3   4
HETATM    4  C   UNL     1      -9.534  11.499  67.777  1.00  0.00    -0.168 C  
HETATM    5  O   UNL     1      -8.995  10.727  68.561  1.00  0.00    -0.145 OA 
BRANCH   4   6
HETATM    6  C   UNL     1     -10.902  11.276  67.105  1.00  0.00    -0.270 C  
BRANCH   6   7
HETATM    7  N   UNL     1     -11.965  11.965  67.887  1.00  0.00    -0.577 NA 
HETATM    8  H   UNL     1     -12.867  11.513  67.735  1.00  0.00     0.000 HD 
BRANCH   7   9
HETATM    9  C   UNL     1     -11.685  12.079  69.322  1.00  0.00    -0.330 C  
BRANCH   9  10
HETATM   10  C   UNL     1     -12.641  11.243  70.201  1.00  0.00    -0.135 C  
BRANCH  10  11
HETATM   11  N   UNL     1     -12.330   9.806  70.261  1.00  0.00    -0.486 NA 
HETATM   12  H   UNL     1     -11.661   9.555  69.533  1.00  0.00     0.000 HD 
BRANCH  11  13
HETATM   13  C   UNL     1     -11.851   9.337  71.595  1.00  0.00    -0.383 C  
BRANCH  13  14
HETATM   14  C   UNL     1     -13.000   8.973  72.560  1.00  0.00    -0.361 C  
HETATM   15  H   UNL     1     -15.323   7.585  72.682  1.00  0.00     0.000 H  
HETATM   16  S   UNL     1     -14.289   7.912  71.813  1.00  0.00    -0.476 SA 
ENDBRANCH  13  14
BRANCH  13  17
HETATM   17  C   UNL     1     -10.908   8.127  71.412  1.00  0.00    -0.234 C  
HETATM   18  O   UNL     1     -10.224   7.621  72.294  1.00  0.00    -0.195 OA 
BRANCH  17  19
HETATM   19  O   UNL     1     -10.953   7.689  70.119  1.00  0.00    -0.255 OA 
BRANCH  19  20
HETATM   20  C   UNL     1     -11.345   6.323  69.933  1.00  0.00    -0.434 C  
HETATM   21  C   UNL     1     -10.185   5.498  69.417  1.00  0.00    -0.329 C  
ENDBRANCH  19  20
ENDBRANCH  17  19
ENDBRANCH  13  17
ENDBRANCH  11  13
ENDBRANCH  10  11
ENDBRANCH   9  10
ENDBRANCH   7   9
ENDBRANCH   6   7
BRANCH   6  22
HETATM   22  C   UNL     1     -10.804  11.664  65.616  1.00  0.00    -0.276 C  
HETATM   23  H   UNL     1     -12.108  13.027  63.660  1.00  0.00     0.000 H  
HETATM   24  S   UNL     1     -12.196  12.676  65.002  1.00  0.00    -0.466 SA 
ENDBRANCH   6  22
ENDBRANCH   4   6
ENDBRANCH   3   4
ENDBRANCH   2   3
TORSDOF 13
ENDMDL
MODEL      250
REMARK 921   NORMALIZED FREE ENERGY PREDICTED BY IDOCK:   -3.47 KCAL/MOL
REMARK 922        TOTAL FREE ENERGY PREDICTED BY IDOCK:   -6.70 KCAL/MOL
REMARK 923 INTER-LIGAND FREE ENERGY PREDICTED BY IDOCK:   -5.93 KCAL/MOL
REMARK 924 INTRA-LIGAND FREE ENERGY PREDICTED BY IDOCK:   -0.77 KCAL/MOL
REMARK 927      BINDING AFFINITY PREDICTED BY RF-SCORE:    0.00 PKD
ROOT
HETATM    1  C   UNL     1      -6.524  19.111  65.011  1.00  0.00    -0.241 C  
HETATM    2  C   UNL     1      -7.159  20.271  65.748  1.00  0.00    -0.257 C  
ENDROOT
BRANCH   2   3
HETATM    3  O   UNL     1      -7.655  19.837  67.023  1.00  0.00    -0.244 OA 
BRANCH   3   4
HETATM    4  C   UNL     1      -8.994  19.587  67.086  1.00  0.00    -0.303 C  
HETATM    5  O   UNL     1      -9.864  20.261  66.548  1.00  0.00    -0.428 OA 
BRANCH   4   6
HETATM    6  C   UNL     1      -9.242  18.321  67.928  1.00  0.00    -0.276 C  
BRANCH   6   7
HETATM    7  N   UNL     1      -9.528  17.168  67.031  1.00  0.00    -0.245 NA 
HETATM    8  H   UNL     1      -8.876  16.405  67.215  1.00  0.00     0.000 HD 
BRANCH   7   9
HETATM    9  C   UNL     1     -10.911  16.685  67.088  1.00  0.00    -0.023 C  
BRANCH   9  10
HETATM   10  C   UNL     1     -11.323  16.171  68.485  1.00  0.00    -0.359 C  
BRANCH  10  11
HETATM   11  N   UNL     1     -12.324  15.091  68.479  1.00  0.00    -0.579 NA 
HETATM   12  H   UNL     1     -12.778  15.032  67.567  1.00  0.00     0.000 HD 
BRANCH  11  13
HETATM   13  C   UNL     1     -11.789  13.757  68.883  1.00  0.00    -0.360 C  
BRANCH  13  14
HETATM   14  C   UNL     1     -12.397  13.233  70.202  1.00  0.00    -0.236 C  
HETATM   15  H   UNL     1     -13.016  14.012  72.722  1.00  0.00     0.000 H  
HETATM   16  S   UNL     1     -12.468  14.484  71.534  1.00  0.00    -0.370 SA 
ENDBRANCH  13  14
BRANCH  13  17
HETATM   17  C   UNL     1     -12.025  12.737  67.747  1.00  0.00    -0.260 C  
HETATM   18  O   UNL     1     -12.213  13.018  66.569  1.00  0.00    -0.382 OA 
BRANCH  17  19
HETATM   19  O   UNL     1     -11.986  11.466  68.243  1.00  0.00    -0.566 OA 
BRANCH  19  20
HETATM   20  C   UNL     1     -11.124  10.550  67.555  1.00  0.00    -0.290 C  
HETATM   21  C   UNL     1      -9.701  10.672  68.057  1.00  0.00    -0.170 C  
ENDBRANCH  19  20
ENDBRANCH  17  19
ENDBRANCH  13  17
ENDBRANCH  11  13
ENDBRANCH  10  11
ENDBRANCH   9  10
ENDBRANCH   7   9
ENDBRANCH   6   7
BRANCH   6  22
HETATM   22  C   UNL     1      -8.071  18.132  68.914  1.00  0.00    -0.156 C  
HETATM   23  H   UNL     1      -6.491  16.226  70.032  1.00  0.00     0.000 H  
HETATM   24  S   UNL     1      -7.546  16.397  69.144  1.00  0.00    -0.187 SA 
ENDBRANCH   6  22
ENDBRANCH   4   6
ENDBRANCH   3   4
ENDBRANCH   2   3
TORSDOF 13
ENDMDL
MODEL      251
REMARK 921   NORMALIZED FREE ENERGY PREDICTED BY IDOCK:   -3.47 KCAL/MOL
REMARK 922        TOTAL FREE ENERGY PREDICTED BY IDOCK:   -6.70 KCAL/MOL
REMARK 923 INTER-LIGAND FREE ENERGY PREDICTED BY IDOCK:   -5.55 KCAL/MOL
REMARK 924 INTRA-LIGAND FREE ENERGY PREDICTED BY IDOCK:   -1.15 KCAL/MOL
REMARK 927      BINDING AFFINITY PREDICTED BY RF-SCORE:    0.00 PKD
ROOT
HETATM    1  C   UNL     1      -9.982   5.242  68.094  1.00  0.00    -0.209 C  
HETATM    2  C   UNL     1     -11.070   6.293  68.149  1.00  0.00    -0.266 C  
ENDROOT
BRANCH   2   3
HETATM    3  O   UNL     1     -11.034   7.108  66.968  1.00  0.00    -0.369 OA 
BRANCH   3   4
HETATM    4  C   UNL     1     -10.531   8.365  67.130  1.00  0.00    -0.310 C  
HETATM    5  O   UNL     1     -10.843   9.141  68.024  1.00  0.00    -0.185 OA 
BRANCH   4   6
HETATM    6  C   UNL     1      -9.503   8.653  66.019  1.00  0.00    -0.208 C  
BRANCH   6   7
HETATM    7  N   UNL     1      -9.479  10.111  65.720  1.00  0.00    -0.192 NA 
HETATM    8  H   UNL     1     -10.228  10.588  66.222  1.00  0.00     0.000 HD 
BRANCH   7   9
HETATM    9  C   UNL     1      -8.192  10.762  65.983  1.00  0.00    -0.164 C  
BRANCH   9  10
HETATM   10  C   UNL     1      -8.285  11.909  67.013  1.00  0.00    -0.170 C  
BRANCH  10  11
HETATM   11  N   UNL     1      -8.781  13.187  66.476  1.00  0.00    -0.431 NA 
HETATM   12  H   UNL     1      -8.966  13.105  65.476  1.00  0.00     0.000 HD 
BRANCH  11  13
HETATM   13  C   UNL     1      -9.978  13.728  67.185  1.00  0.00    -0.243 C  
BRANCH  13  14
HETATM   14  C   UNL     1      -9.859  15.231  67.519  1.00  0.00    -0.213 C  
HETATM   15  H   UNL     1      -9.537  17.654  66.351  1.00  0.00     0.000 H  
HETATM   16  S   UNL     1      -9.645  16.301  66.051  1.00  0.00    -0.320 SA 
ENDBRANCH  13  14
BRANCH  13  17
HETATM   17  C   UNL     1     -11.244  13.470  66.338  1.00  0.00    -0.307 C  
HETATM   18  O   UNL     1     -12.394  13.706  66.691  1.00  0.00    -0.397 OA 
BRANCH  17  19
HETATM   19  O   UNL     1     -10.897  12.948  65.125  1.00  0.00    -0.284 OA 
BRANCH  19  20
HETATM   20  C   UNL     1     -11.783  13.246  64.038  1.00  0.00    -0.430 C  
HETATM   21  C   UNL     1     -12.423  11.981  63.506  1.00  0.00    -0.654 C  
ENDBRANCH  19  20
ENDBRANCH  17  19
ENDBRANCH  13  17
ENDBRANCH  11  13
ENDBRANCH  10  11
ENDBRANCH   9  10
ENDBRANCH   7   9
ENDBRANCH   6   7
BRANCH   6  22
HETATM   22  C   UNL     1      -8.149   8.024  66.408  1.00  0.00    -0.107 C  
HETATM   23  H   UNL     1      -6.371   6.113  65.653  1.00  0.00     0.000 H  
HETATM   24  S   UNL     1      -7.591   6.680  65.303  1.00  0.00    -0.095 SA 
ENDBRANCH   6  22
ENDBRANCH   4   6
ENDBRANCH   3   4
ENDBRANCH   2   3
TORSDOF 13
ENDMDL
MODEL      252
REMARK 921   NORMALIZED FREE ENERGY PREDICTED BY IDOCK:   -3.47 KCAL/MOL
REMARK 922        TOTAL FREE ENERGY PREDICTED BY IDOCK:   -6.70 KCAL/MOL
REMARK 923 INTER-LIGAND FREE ENERGY PREDICTED BY IDOCK:   -5.61 KCAL/MOL
REMARK 924 INTRA-LIGAND FREE ENERGY PREDICTED BY IDOCK:   -1.09 KCAL/MOL
REMARK 927      BINDING AFFINITY PREDICTED BY RF-SCORE:    0.00 PKD
ROOT
HETATM    1  C   UNL     1     -10.696   7.991  69.675  1.00  0.00    -0.207 C  
HETATM    2  C   UNL     1      -9.377   8.372  69.037  1.00  0.00    -0.147 C  
ENDROOT
BRANCH   2   3
HETATM    3  O   UNL     1      -9.598   9.259  67.930  1.00  0.00    -0.139 OA 
BRANCH   3   4
HETATM    4  C   UNL     1      -9.566   8.684  66.694  1.00  0.00    -0.221 C  
HETATM    5  O   UNL     1      -9.287   7.514  66.466  1.00  0.00    -0.172 OA 
BRANCH   4   6
HETATM    6  C   UNL     1      -9.945   9.733  65.631  1.00  0.00    -0.282 C  
BRANCH   6   7
HETATM    7  N   UNL     1     -10.437  10.970  66.297  1.00  0.00    -0.255 NA 
HETATM    8  H   UNL     1      -9.793  11.256  67.035  1.00  0.00     0.000 HD 
BRANCH   7   9
HETATM    9  C   UNL     1     -10.699  12.087  65.384  1.00  0.00    -0.287 C  
BRANCH   9  10
HETATM   10  C   UNL     1     -12.147  12.619  65.466  1.00  0.00    -0.458 C  
BRANCH  10  11
HETATM   11  N   UNL     1     -12.272  14.006  65.943  1.00  0.00    -0.432 NA 
HETATM   12  H   UNL     1     -13.057  14.091  66.590  1.00  0.00     0.000 HD 
BRANCH  11  13
HETATM   13  C   UNL     1     -11.029  14.559  66.557  1.00  0.00    -0.321 C  
BRANCH  13  14
HETATM   14  C   UNL     1     -10.534  15.850  65.869  1.00  0.00    -0.359 C  
HETATM   15  H   UNL     1      -8.410  17.528  65.762  1.00  0.00     0.000 H  
HETATM   16  S   UNL     1      -8.856  16.366  66.381  1.00  0.00    -0.336 SA 
ENDBRANCH  13  14
BRANCH  13  17
HETATM   17  C   UNL     1     -11.262  14.815  68.062  1.00  0.00    -0.299 C  
HETATM   18  O   UNL     1     -11.730  15.842  68.543  1.00  0.00    -0.383 OA 
BRANCH  17  19
HETATM   19  O   UNL     1     -10.881  13.724  68.788  1.00  0.00    -0.250 OA 
BRANCH  19  20
HETATM   20  C   UNL     1     -11.899  13.123  69.600  1.00  0.00    -0.324 C  
HETATM   21  C   UNL     1     -11.882  11.616  69.453  1.00  0.00    -0.408 C  
ENDBRANCH  19  20
ENDBRANCH  17  19
ENDBRANCH  13  17
ENDBRANCH  11  13
ENDBRANCH  10  11
ENDBRANCH   9  10
ENDBRANCH   7   9
ENDBRANCH   6   7
BRANCH   6  22
HETATM   22  C   UNL     1      -8.763   9.919  64.658  1.00  0.00    -0.194 C  
HETATM   23  H   UNL     1      -6.087  10.385  64.592  1.00  0.00     0.000 H  
HETATM   24  S   UNL     1      -7.153  10.218  65.468  1.00  0.00    -0.133 SA 
ENDBRANCH   6  22
ENDBRANCH   4   6
ENDBRANCH   3   4
ENDBRANCH   2   3
TORSDOF 13
ENDMDL
MODEL      253
REMARK 921   NORMALIZED FREE ENERGY PREDICTED BY IDOCK:   -3.46 KCAL/MOL
REMARK 922        TOTAL FREE ENERGY PREDICTED BY IDOCK:   -6.69 KCAL/MOL
REMARK 923 INTER-LIGAND FREE ENERGY PREDICTED BY IDOCK:   -5.99 KCAL/MOL
REMARK 924 INTRA-LIGAND FREE ENERGY PREDICTED BY IDOCK:   -0.70 KCAL/MOL
REMARK 927      BINDING AFFINITY PREDICTED BY RF-SCORE:    0.00 PKD
ROOT
HETATM    1  C   UNL     1      -9.452   2.507  68.447  1.00  0.00    -0.217 C  
HETATM    2  C   UNL     1      -9.088   3.058  67.085  1.00  0.00    -0.175 C  
ENDROOT
BRANCH   2   3
HETATM    3  O   UNL     1      -8.773   4.455  67.182  1.00  0.00    -0.104 OA 
BRANCH   3   4
HETATM    4  C   UNL     1      -9.840   5.303  67.218  1.00  0.00    -0.161 C  
HETATM    5  O   UNL     1     -10.766   5.307  66.417  1.00  0.00    -0.307 OA 
BRANCH   4   6
HETATM    6  C   UNL     1      -9.704   6.249  68.427  1.00  0.00    -0.124 C  
BRANCH   6   7
HETATM    7  N   UNL     1      -9.251   7.591  67.968  1.00  0.00    -0.137 NA 
HETATM    8  H   UNL     1      -8.506   7.497  67.277  1.00  0.00     0.000 HD 
BRANCH   7   9
HETATM    9  C   UNL     1     -10.323   8.448  67.453  1.00  0.00    -0.285 C  
BRANCH   9  10
HETATM   10  C   UNL     1      -9.945   9.185  66.149  1.00  0.00    -0.268 C  
BRANCH  10  11
HETATM   11  N   UNL     1      -9.567  10.597  66.322  1.00  0.00    -0.179 NA 
HETATM   12  H   UNL     1      -8.567  10.721  66.161  1.00  0.00     0.000 HD 
BRANCH  11  13
HETATM   13  C   UNL     1     -10.353  11.550  65.484  1.00  0.00    -0.273 C  
BRANCH  13  14
HETATM   14  C   UNL     1     -10.728  10.975  64.101  1.00  0.00    -0.274 C  
HETATM   15  H   UNL     1      -9.718  10.549  61.624  1.00  0.00     0.000 H  
HETATM   16  S   UNL     1      -9.380  11.066  62.869  1.00  0.00    -0.366 SA 
ENDBRANCH  13  14
BRANCH  13  17
HETATM   17  C   UNL     1     -11.627  11.981  66.244  1.00  0.00    -0.310 C  
HETATM   18  O   UNL     1     -11.819  11.836  67.446  1.00  0.00    -0.590 OA 
BRANCH  17  19
HETATM   19  O   UNL     1     -12.513  12.560  65.382  1.00  0.00    -0.630 OA 
BRANCH  19  20
HETATM   20  C   UNL     1     -12.739  13.964  65.564  1.00  0.00    -0.499 C  
HETATM   21  C   UNL     1     -12.238  14.748  64.369  1.00  0.00    -0.447 C  
ENDBRANCH  19  20
ENDBRANCH  17  19
ENDBRANCH  13  17
ENDBRANCH  11  13
ENDBRANCH  10  11
ENDBRANCH   9  10
ENDBRANCH   7   9
ENDBRANCH   6   7
BRANCH   6  22
HETATM   22  C   UNL     1     -11.014   6.223  69.240  1.00  0.00    -0.369 C  
HETATM   23  H   UNL     1     -11.964   6.066  71.780  1.00  0.00     0.000 H  
HETATM   24  S   UNL     1     -10.783   6.089  71.047  1.00  0.00    -0.275 SA 
ENDBRANCH   6  22
ENDBRANCH   4   6
ENDBRANCH   3   4
ENDBRANCH   2   3
TORSDOF 13
ENDMDL
MODEL      254
REMARK 921   NORMALIZED FREE ENERGY PREDICTED BY IDOCK:   -3.46 KCAL/MOL
REMARK 922        TOTAL FREE ENERGY PREDICTED BY IDOCK:   -6.68 KCAL/MOL
REMARK 923 INTER-LIGAND FREE ENERGY PREDICTED BY IDOCK:   -6.04 KCAL/MOL
REMARK 924 INTRA-LIGAND FREE ENERGY PREDICTED BY IDOCK:   -0.65 KCAL/MOL
REMARK 927      BINDING AFFINITY PREDICTED BY RF-SCORE:    0.00 PKD
ROOT
HETATM    1  C   UNL     1     -10.441   5.347  70.927  1.00  0.00    -0.307 C  
HETATM    2  C   UNL     1     -10.442   6.746  71.506  1.00  0.00    -0.213 C  
ENDROOT
BRANCH   2   3
HETATM    3  O   UNL     1      -9.810   7.660  70.597  1.00  0.00    -0.182 OA 
BRANCH   3   4
HETATM    4  C   UNL     1      -8.984   8.585  71.164  1.00  0.00    -0.186 C  
HETATM    5  O   UNL     1      -8.879   8.796  72.366  1.00  0.00    -0.391 OA 
BRANCH   4   6
HETATM    6  C   UNL     1      -8.194   9.313  70.059  1.00  0.00    -0.154 C  
BRANCH   6   7
HETATM    7  N   UNL     1      -8.875  10.592  69.714  1.00  0.00    -0.378 NA 
HETATM    8  H   UNL     1      -8.189  11.339  69.599  1.00  0.00     0.000 HD 
BRANCH   7   9
HETATM    9  C   UNL     1      -9.751  10.515  68.541  1.00  0.00    -0.165 C  
BRANCH   9  10
HETATM   10  C   UNL     1     -11.233  10.808  68.864  1.00  0.00    -0.268 C  
BRANCH  10  11
HETATM   11  N   UNL     1     -11.978  11.489  67.791  1.00  0.00    -0.637 NA 
HETATM   12  H   UNL     1     -12.925  11.116  67.724  1.00  0.00     0.000 HD 
BRANCH  11  13
HETATM   13  C   UNL     1     -12.009  12.976  67.915  1.00  0.00    -0.291 C  
BRANCH  13  14
HETATM   14  C   UNL     1     -11.344  13.493  69.209  1.00  0.00    -0.262 C  
HETATM   15  H   UNL     1     -11.935  14.524  71.644  1.00  0.00     0.000 H  
HETATM   16  S   UNL     1     -12.533  14.059  70.478  1.00  0.00    -0.350 SA 
ENDBRANCH  13  14
BRANCH  13  17
HETATM   17  C   UNL     1     -11.334  13.614  66.680  1.00  0.00    -0.326 C  
HETATM   18  O   UNL     1     -10.128  13.787  66.541  1.00  0.00    -0.272 OA 
BRANCH  17  19
HETATM   19  O   UNL     1     -12.277  13.950  65.752  1.00  0.00    -0.405 OA 
BRANCH  19  20
HETATM   20  C   UNL     1     -11.940  13.673  64.386  1.00  0.00    -0.437 C  
HETATM   21  C   UNL     1     -12.513  12.340  63.952  1.00  0.00    -0.586 C  
ENDBRANCH  19  20
ENDBRANCH  17  19
ENDBRANCH  13  17
ENDBRANCH  11  13
ENDBRANCH  10  11
ENDBRANCH   9  10
ENDBRANCH   7   9
ENDBRANCH   6   7
BRANCH   6  22
HETATM   22  C   UNL     1      -6.717   9.432  70.486  1.00  0.00    -0.087 C  
HETATM   23  H   UNL     1      -4.634  11.175  70.558  1.00  0.00     0.000 H  
HETATM   24  S   UNL     1      -5.965  11.067  70.173  1.00  0.00    -0.139 SA 
ENDBRANCH   6  22
ENDBRANCH   4   6
ENDBRANCH   3   4
ENDBRANCH   2   3
TORSDOF 13
ENDMDL
MODEL      255
REMARK 921   NORMALIZED FREE ENERGY PREDICTED BY IDOCK:   -3.46 KCAL/MOL
REMARK 922        TOTAL FREE ENERGY PREDICTED BY IDOCK:   -6.68 KCAL/MOL
REMARK 923 INTER-LIGAND FREE ENERGY PREDICTED BY IDOCK:   -6.38 KCAL/MOL
REMARK 924 INTRA-LIGAND FREE ENERGY PREDICTED BY IDOCK:   -0.30 KCAL/MOL
REMARK 927      BINDING AFFINITY PREDICTED BY RF-SCORE:    0.00 PKD
ROOT
HETATM    1  C   UNL     1      -6.968  18.132  65.770  1.00  0.00    -0.279 C  
HETATM    2  C   UNL     1      -6.802  18.573  67.209  1.00  0.00    -0.202 C  
ENDROOT
BRANCH   2   3
HETATM    3  O   UNL     1      -7.788  19.562  67.542  1.00  0.00    -0.253 OA 
BRANCH   3   4
HETATM    4  C   UNL     1      -8.675  19.210  68.516  1.00  0.00    -0.365 C  
HETATM    5  O   UNL     1      -8.715  19.690  69.642  1.00  0.00     0.121 OA 
BRANCH   4   6
HETATM    6  C   UNL     1      -9.625  18.123  67.977  1.00  0.00    -0.300 C  
BRANCH   6   7
HETATM    7  N   UNL     1      -9.866  17.098  69.028  1.00  0.00    -0.265 NA 
HETATM    8  H   UNL     1      -9.848  17.527  69.954  1.00  0.00     0.000 HD 
BRANCH   7   9
HETATM    9  C   UNL     1     -11.097  16.322  68.847  1.00  0.00    -0.345 C  
BRANCH   9  10
HETATM   10  C   UNL     1     -10.840  14.845  68.471  1.00  0.00    -0.247 C  
BRANCH  10  11
HETATM   11  N   UNL     1     -12.008  14.132  67.929  1.00  0.00    -0.477 NA 
HETATM   12  H   UNL     1     -12.859  14.424  68.409  1.00  0.00     0.000 HD 
BRANCH  11  13
HETATM   13  C   UNL     1     -12.173  14.260  66.451  1.00  0.00    -0.401 C  
BRANCH  13  14
HETATM   14  C   UNL     1     -10.990  14.982  65.768  1.00  0.00    -0.350 C  
HETATM   15  H   UNL     1     -10.433  16.865  63.902  1.00  0.00     0.000 H  
HETATM   16  S   UNL     1     -11.498  16.216  64.517  1.00  0.00    -0.016 SA 
ENDBRANCH  13  14
BRANCH  13  17
HETATM   17  C   UNL     1     -12.373  12.861  65.827  1.00  0.00    -0.375 C  
HETATM   18  O   UNL     1     -13.048  12.616  64.834  1.00  0.00    -0.850 OA 
BRANCH  17  19
HETATM   19  O   UNL     1     -11.676  11.927  66.539  1.00  0.00    -0.537 OA 
BRANCH  19  20
HETATM   20  C   UNL     1     -10.343  11.658  66.085  1.00  0.00    -0.241 C  
HETATM   21  C   UNL     1     -10.343  10.557  65.045  1.00  0.00    -0.310 C  
ENDBRANCH  19  20
ENDBRANCH  17  19
ENDBRANCH  13  17
ENDBRANCH  11  13
ENDBRANCH  10  11
ENDBRANCH   9  10
ENDBRANCH   7   9
ENDBRANCH   6   7
BRANCH   6  22
HETATM   22  C   UNL     1     -10.884  18.796  67.393  1.00  0.00    -0.348 C  
HETATM   23  H   UNL     1     -11.718  20.407  65.370  1.00  0.00     0.000 H  
HETATM   24  S   UNL     1     -10.584  19.801  65.897  1.00  0.00    -0.343 SA 
ENDBRANCH   6  22
ENDBRANCH   4   6
ENDBRANCH   3   4
ENDBRANCH   2   3
TORSDOF 13
ENDMDL
MODEL      256
REMARK 921   NORMALIZED FREE ENERGY PREDICTED BY IDOCK:   -3.45 KCAL/MOL
REMARK 922        TOTAL FREE ENERGY PREDICTED BY IDOCK:   -6.66 KCAL/MOL
REMARK 923 INTER-LIGAND FREE ENERGY PREDICTED BY IDOCK:   -5.97 KCAL/MOL
REMARK 924 INTRA-LIGAND FREE ENERGY PREDICTED BY IDOCK:   -0.69 KCAL/MOL
REMARK 927      BINDING AFFINITY PREDICTED BY RF-SCORE:    0.00 PKD
ROOT
HETATM    1  C   UNL     1      -9.852   4.640  65.904  1.00  0.00    -0.231 C  
HETATM    2  C   UNL     1     -10.647   5.624  66.735  1.00  0.00    -0.304 C  
ENDROOT
BRANCH   2   3
HETATM    3  O   UNL     1      -9.839   6.141  67.803  1.00  0.00    -0.117 OA 
BRANCH   3   4
HETATM    4  C   UNL     1     -10.517   6.722  68.833  1.00  0.00    -0.207 C  
HETATM    5  O   UNL     1     -11.503   6.249  69.386  1.00  0.00    -0.427 OA 
BRANCH   4   6
HETATM    6  C   UNL     1      -9.845   8.058  69.202  1.00  0.00    -0.178 C  
BRANCH   6   7
HETATM    7  N   UNL     1     -10.707   9.191  68.768  1.00  0.00    -0.375 NA 
HETATM    8  H   UNL     1     -10.520  10.018  69.336  1.00  0.00     0.000 HD 
BRANCH   7   9
HETATM    9  C   UNL     1     -10.608   9.517  67.342  1.00  0.00    -0.271 C  
BRANCH   9  10
HETATM   10  C   UNL     1     -10.537  11.035  67.064  1.00  0.00    -0.256 C  
BRANCH  10  11
HETATM   11  N   UNL     1     -11.838  11.685  66.834  1.00  0.00    -0.547 NA 
HETATM   12  H   UNL     1     -12.601  11.042  67.051  1.00  0.00     0.000 HD 
BRANCH  11  13
HETATM   13  C   UNL     1     -12.018  12.974  67.566  1.00  0.00    -0.306 C  
BRANCH  13  14
HETATM   14  C   UNL     1     -11.277  13.012  68.921  1.00  0.00    -0.278 C  
HETATM   15  H   UNL     1     -11.507  13.954  71.450  1.00  0.00     0.000 H  
HETATM   16  S   UNL     1     -12.174  13.920  70.230  1.00  0.00    -0.358 SA 
ENDBRANCH  13  14
BRANCH  13  17
HETATM   17  C   UNL     1     -11.554  14.146  66.674  1.00  0.00    -0.384 C  
HETATM   18  O   UNL     1     -12.164  14.587  65.706  1.00  0.00    -0.345 OA 
BRANCH  17  19
HETATM   19  O   UNL     1     -10.361  14.635  67.125  1.00  0.00    -0.261 OA 
BRANCH  19  20
HETATM   20  C   UNL     1     -10.192  16.056  67.039  1.00  0.00    -0.282 C  
HETATM   21  C   UNL     1      -9.113  16.408  66.037  1.00  0.00    -0.317 C  
ENDBRANCH  19  20
ENDBRANCH  17  19
ENDBRANCH  13  17
ENDBRANCH  11  13
ENDBRANCH  10  11
ENDBRANCH   9  10
ENDBRANCH   7   9
ENDBRANCH   6   7
BRANCH   6  22
HETATM   22  C   UNL     1      -9.462   8.038  70.696  1.00  0.00    -0.162 C  
HETATM   23  H   UNL     1     -10.318   8.848  73.144  1.00  0.00     0.000 H  
HETATM   24  S   UNL     1     -10.662   8.866  71.798  1.00  0.00    -0.363 SA 
ENDBRANCH   6  22
ENDBRANCH   4   6
ENDBRANCH   3   4
ENDBRANCH   2   3
TORSDOF 13
ENDMDL
MODEL      257
REMARK 921   NORMALIZED FREE ENERGY PREDICTED BY IDOCK:   -3.44 KCAL/MOL
REMARK 922        TOTAL FREE ENERGY PREDICTED BY IDOCK:   -6.65 KCAL/MOL
REMARK 923 INTER-LIGAND FREE ENERGY PREDICTED BY IDOCK:   -5.61 KCAL/MOL
REMARK 924 INTRA-LIGAND FREE ENERGY PREDICTED BY IDOCK:   -1.04 KCAL/MOL
REMARK 927      BINDING AFFINITY PREDICTED BY RF-SCORE:    0.00 PKD
ROOT
HETATM    1  C   UNL     1      -8.256  16.605  66.237  1.00  0.00    -0.365 C  
HETATM    2  C   UNL     1      -9.070  15.414  66.696  1.00  0.00    -0.279 C  
ENDROOT
BRANCH   2   3
HETATM    3  O   UNL     1     -10.318  15.852  67.257  1.00  0.00    -0.279 OA 
BRANCH   3   4
HETATM    4  C   UNL     1     -10.804  15.097  68.284  1.00  0.00    -0.262 C  
HETATM    5  O   UNL     1     -11.070  15.516  69.404  1.00  0.00    -0.252 OA 
BRANCH   4   6
HETATM    6  C   UNL     1     -10.975  13.640  67.814  1.00  0.00    -0.259 C  
BRANCH   6   7
HETATM    7  N   UNL     1     -10.964  12.727  68.989  1.00  0.00    -0.368 NA 
HETATM    8  H   UNL     1     -10.662  13.228  69.825  1.00  0.00     0.000 HD 
BRANCH   7   9
HETATM    9  C   UNL     1     -12.236  12.040  69.235  1.00  0.00    -0.077 C  
BRANCH   9  10
HETATM   10  C   UNL     1     -12.196  11.098  70.459  1.00  0.00    -0.384 C  
BRANCH  10  11
HETATM   11  N   UNL     1     -11.749   9.725  70.170  1.00  0.00    -0.417 NA 
HETATM   12  H   UNL     1     -11.510   9.629  69.182  1.00  0.00     0.000 HD 
BRANCH  11  13
HETATM   13  C   UNL     1     -10.623   9.252  71.028  1.00  0.00    -0.316 C  
BRANCH  13  14
HETATM   14  C   UNL     1     -10.935   7.932  71.767  1.00  0.00    -0.243 C  
HETATM   15  H   UNL     1     -12.011   5.477  71.381  1.00  0.00     0.000 H  
HETATM   16  S   UNL     1     -11.730   6.665  70.716  1.00  0.00    -0.373 SA 
ENDBRANCH  13  14
BRANCH  13  17
HETATM   17  C   UNL     1      -9.348   9.092  70.171  1.00  0.00    -0.209 C  
HETATM   18  O   UNL     1      -8.441   8.297  70.389  1.00  0.00    -0.122 OA 
BRANCH  17  19
HETATM   19  O   UNL     1      -9.378   9.963  69.120  1.00  0.00    -0.171 OA 
BRANCH  19  20
HETATM   20  C   UNL     1      -9.015   9.419  67.844  1.00  0.00    -0.123 C  
HETATM   21  C   UNL     1     -10.239   9.235  66.971  1.00  0.00    -0.331 C  
ENDBRANCH  19  20
ENDBRANCH  17  19
ENDBRANCH  13  17
ENDBRANCH  11  13
ENDBRANCH  10  11
ENDBRANCH   9  10
ENDBRANCH   7   9
ENDBRANCH   6   7
BRANCH   6  22
HETATM   22  C   UNL     1     -12.215  13.545  66.901  1.00  0.00    -0.327 C  
HETATM   23  H   UNL     1     -13.057  12.549  64.518  1.00  0.00     0.000 H  
HETATM   24  S   UNL     1     -11.940  12.635  65.341  1.00  0.00    -0.452 SA 
ENDBRANCH   6  22
ENDBRANCH   4   6
ENDBRANCH   3   4
ENDBRANCH   2   3
TORSDOF 13
ENDMDL
MODEL      258
REMARK 921   NORMALIZED FREE ENERGY PREDICTED BY IDOCK:   -3.44 KCAL/MOL
REMARK 922        TOTAL FREE ENERGY PREDICTED BY IDOCK:   -6.64 KCAL/MOL
REMARK 923 INTER-LIGAND FREE ENERGY PREDICTED BY IDOCK:   -5.80 KCAL/MOL
REMARK 924 INTRA-LIGAND FREE ENERGY PREDICTED BY IDOCK:   -0.84 KCAL/MOL
REMARK 927      BINDING AFFINITY PREDICTED BY RF-SCORE:    0.00 PKD
ROOT
HETATM    1  C   UNL     1     -12.658  15.739  71.550  1.00  0.00    -0.517 C  
HETATM    2  C   UNL     1     -12.051  15.448  70.194  1.00  0.00    -0.369 C  
ENDROOT
BRANCH   2   3
HETATM    3  O   UNL     1     -12.484  14.163  69.721  1.00  0.00    -0.332 OA 
BRANCH   3   4
HETATM    4  C   UNL     1     -11.770  13.642  68.682  1.00  0.00    -0.354 C  
HETATM    5  O   UNL     1     -11.620  14.176  67.590  1.00  0.00    -0.323 OA 
BRANCH   4   6
HETATM    6  C   UNL     1     -11.173  12.285  69.100  1.00  0.00    -0.242 C  
BRANCH   6   7
HETATM    7  N   UNL     1     -11.726  11.876  70.420  1.00  0.00    -0.523 NA 
HETATM    8  H   UNL     1     -12.176  12.670  70.878  1.00  0.00     0.000 HD 
BRANCH   7   9
HETATM    9  C   UNL     1     -12.641  10.731  70.366  1.00  0.00    -0.314 C  
BRANCH   9  10
HETATM   10  C   UNL     1     -12.159   9.523  71.198  1.00  0.00    -0.347 C  
BRANCH  10  11
HETATM   11  N   UNL     1     -10.708   9.477  71.443  1.00  0.00    -0.334 NA 
HETATM   12  H   UNL     1     -10.343  10.417  71.600  1.00  0.00     0.000 HD 
BRANCH  11  13
HETATM   13  C   UNL     1     -10.301   8.568  72.554  1.00  0.00    -0.244 C  
BRANCH  13  14
HETATM   14  C   UNL     1     -10.986   7.185  72.489  1.00  0.00    -0.273 C  
HETATM   15  H   UNL     1     -11.102   4.801  73.771  1.00  0.00     0.000 H  
HETATM   16  S   UNL     1     -10.486   6.046  73.830  1.00  0.00    -0.257 SA 
ENDBRANCH  13  14
BRANCH  13  17
HETATM   17  C   UNL     1      -8.765   8.400  72.552  1.00  0.00    -0.206 C  
HETATM   18  O   UNL     1      -8.018   8.692  73.478  1.00  0.00    -0.410 OA 
BRANCH  17  19
HETATM   19  O   UNL     1      -8.354   7.864  71.365  1.00  0.00    -0.100 OA 
BRANCH  19  20
HETATM   20  C   UNL     1      -7.169   7.059  71.417  1.00  0.00    -0.078 C  
HETATM   21  C   UNL     1      -7.492   5.610  71.115  1.00  0.00    -0.090 C  
ENDBRANCH  19  20
ENDBRANCH  17  19
ENDBRANCH  13  17
ENDBRANCH  11  13
ENDBRANCH  10  11
ENDBRANCH   9  10
ENDBRANCH   7   9
ENDBRANCH   6   7
BRANCH   6  22
HETATM   22  C   UNL     1     -11.361  11.273  67.950  1.00  0.00    -0.299 C  
HETATM   23  H   UNL     1     -10.111   9.244  66.648  1.00  0.00     0.000 H  
HETATM   24  S   UNL     1      -9.942  10.155  67.683  1.00  0.00    -0.190 SA 
ENDBRANCH   6  22
ENDBRANCH   4   6
ENDBRANCH   3   4
ENDBRANCH   2   3
TORSDOF 13
ENDMDL
MODEL      259
REMARK 921   NORMALIZED FREE ENERGY PREDICTED BY IDOCK:   -3.43 KCAL/MOL
REMARK 922        TOTAL FREE ENERGY PREDICTED BY IDOCK:   -6.64 KCAL/MOL
REMARK 923 INTER-LIGAND FREE ENERGY PREDICTED BY IDOCK:   -5.94 KCAL/MOL
REMARK 924 INTRA-LIGAND FREE ENERGY PREDICTED BY IDOCK:   -0.70 KCAL/MOL
REMARK 927      BINDING AFFINITY PREDICTED BY RF-SCORE:    0.00 PKD
ROOT
HETATM    1  C   UNL     1      -6.696   8.911  65.579  1.00  0.00    -0.072 C  
HETATM    2  C   UNL     1      -7.201   9.711  66.760  1.00  0.00    -0.090 C  
ENDROOT
BRANCH   2   3
HETATM    3  O   UNL     1      -8.368  10.462  66.390  1.00  0.00    -0.132 OA 
BRANCH   3   4
HETATM    4  C   UNL     1      -8.880  11.278  67.356  1.00  0.00    -0.145 C  
HETATM    5  O   UNL     1      -8.236  12.089  68.009  1.00  0.00    -0.138 OA 
BRANCH   4   6
HETATM    6  C   UNL     1     -10.394  11.026  67.490  1.00  0.00    -0.198 C  
BRANCH   6   7
HETATM    7  N   UNL     1     -11.116  11.692  66.371  1.00  0.00    -0.298 NA 
HETATM    8  H   UNL     1     -11.955  11.165  66.127  1.00  0.00     0.000 HD 
BRANCH   7   9
HETATM    9  C   UNL     1     -11.447  13.099  66.615  1.00  0.00    -0.348 C  
BRANCH   9  10
HETATM   10  C   UNL     1     -12.214  13.327  67.937  1.00  0.00    -0.087 C  
BRANCH  10  11
HETATM   11  N   UNL     1     -12.237  14.722  68.407  1.00  0.00    -0.605 NA 
HETATM   12  H   UNL     1     -13.199  15.042  68.524  1.00  0.00     0.000 HD 
BRANCH  11  13
HETATM   13  C   UNL     1     -11.451  14.963  69.653  1.00  0.00    -0.294 C  
BRANCH  13  14
HETATM   14  C   UNL     1     -10.241  15.897  69.437  1.00  0.00    -0.262 C  
HETATM   15  H   UNL     1      -9.539  18.243  68.278  1.00  0.00     0.000 H  
HETATM   16  S   UNL     1     -10.629  17.402  68.473  1.00  0.00    -0.296 SA 
ENDBRANCH  13  14
BRANCH  13  17
HETATM   17  C   UNL     1     -12.377  15.538  70.748  1.00  0.00    -0.414 C  
HETATM   18  O   UNL     1     -13.602  15.490  70.739  1.00  0.00    -0.487 OA 
BRANCH  17  19
HETATM   19  O   UNL     1     -11.631  16.104  71.742  1.00  0.00    -0.459 OA 
BRANCH  19  20
HETATM   20  C   UNL     1     -12.323  16.377  72.967  1.00  0.00    -0.398 C  
HETATM   21  C   UNL     1     -12.164  15.228  73.941  1.00  0.00    -0.735 C  
ENDBRANCH  19  20
ENDBRANCH  17  19
ENDBRANCH  13  17
ENDBRANCH  11  13
ENDBRANCH  10  11
ENDBRANCH   9  10
ENDBRANCH   7   9
ENDBRANCH   6   7
BRANCH   6  22
HETATM   22  C   UNL     1     -10.644   9.512  67.646  1.00  0.00    -0.269 C  
HETATM   23  H   UNL     1     -10.542   7.493  69.459  1.00  0.00     0.000 H  
HETATM   24  S   UNL     1     -10.317   8.856  69.319  1.00  0.00    -0.214 SA 
ENDBRANCH   6  22
ENDBRANCH   4   6
ENDBRANCH   3   4
ENDBRANCH   2   3
TORSDOF 13
ENDMDL
MODEL      260
REMARK 921   NORMALIZED FREE ENERGY PREDICTED BY IDOCK:   -3.43 KCAL/MOL
REMARK 922        TOTAL FREE ENERGY PREDICTED BY IDOCK:   -6.63 KCAL/MOL
REMARK 923 INTER-LIGAND FREE ENERGY PREDICTED BY IDOCK:   -5.82 KCAL/MOL
REMARK 924 INTRA-LIGAND FREE ENERGY PREDICTED BY IDOCK:   -0.81 KCAL/MOL
REMARK 927      BINDING AFFINITY PREDICTED BY RF-SCORE:    0.00 PKD
ROOT
HETATM    1  C   UNL     1     -10.958  11.195  69.160  1.00  0.00    -0.295 C  
HETATM    2  C   UNL     1     -11.783  11.120  67.893  1.00  0.00    -0.182 C  
ENDROOT
BRANCH   2   3
HETATM    3  O   UNL     1     -12.067  12.440  67.406  1.00  0.00    -0.505 OA 
BRANCH   3   4
HETATM    4  C   UNL     1     -11.907  12.624  66.064  1.00  0.00    -0.436 C  
HETATM    5  O   UNL     1     -12.640  12.166  65.196  1.00  0.00    -0.505 OA 
BRANCH   4   6
HETATM    6  C   UNL     1     -10.668  13.504  65.810  1.00  0.00    -0.275 C  
BRANCH   6   7
HETATM    7  N   UNL     1      -9.434  12.678  65.912  1.00  0.00    -0.436 NA 
HETATM    8  H   UNL     1      -8.936  12.672  65.022  1.00  0.00     0.000 HD 
BRANCH   7   9
HETATM    9  C   UNL     1      -8.532  13.068  67.001  1.00  0.00    -0.136 C  
BRANCH   9  10
HETATM   10  C   UNL     1      -8.722  14.531  67.458  1.00  0.00    -0.188 C  
BRANCH  10  11
HETATM   11  N   UNL     1      -7.475  15.247  67.777  1.00  0.00    -0.144 NA 
HETATM   12  H   UNL     1      -7.053  15.623  66.928  1.00  0.00     0.000 HD 
BRANCH  11  13
HETATM   13  C   UNL     1      -7.630  16.321  68.802  1.00  0.00    -0.199 C  
BRANCH  13  14
HETATM   14  C   UNL     1      -6.323  16.623  69.568  1.00  0.00    -0.227 C  
HETATM   15  H   UNL     1      -4.399  15.428  71.054  1.00  0.00     0.000 H  
HETATM   16  S   UNL     1      -5.576  15.157  70.364  1.00  0.00    -0.136 SA 
ENDBRANCH  13  14
BRANCH  13  17
HETATM   17  C   UNL     1      -8.161  17.607  68.130  1.00  0.00    -0.252 C  
HETATM   18  O   UNL     1      -7.551  18.282  67.308  1.00  0.00    -0.214 OA 
BRANCH  17  19
HETATM   19  O   UNL     1      -9.421  17.884  68.577  1.00  0.00    -0.295 OA 
BRANCH  19  20
HETATM   20  C   UNL     1     -10.374  18.257  67.573  1.00  0.00    -0.398 C  
HETATM   21  C   UNL     1     -10.595  19.755  67.575  1.00  0.00    -0.544 C  
ENDBRANCH  19  20
ENDBRANCH  17  19
ENDBRANCH  13  17
ENDBRANCH  11  13
ENDBRANCH  10  11
ENDBRANCH   9  10
ENDBRANCH   7   9
ENDBRANCH   6   7
BRANCH   6  22
HETATM   22  C   UNL     1     -10.855  14.272  64.486  1.00  0.00    -0.288 C  
HETATM   23  H   UNL     1     -11.557  16.701  63.492  1.00  0.00     0.000 H  
HETATM   24  S   UNL     1     -11.388  16.009  64.684  1.00  0.00    -0.168 SA 
ENDBRANCH   6  22
ENDBRANCH   4   6
ENDBRANCH   3   4
ENDBRANCH   2   3
TORSDOF 13
ENDMDL
MODEL      261
REMARK 921   NORMALIZED FREE ENERGY PREDICTED BY IDOCK:   -3.41 KCAL/MOL
REMARK 922        TOTAL FREE ENERGY PREDICTED BY IDOCK:   -6.59 KCAL/MOL
REMARK 923 INTER-LIGAND FREE ENERGY PREDICTED BY IDOCK:   -5.76 KCAL/MOL
REMARK 924 INTRA-LIGAND FREE ENERGY PREDICTED BY IDOCK:   -0.83 KCAL/MOL
REMARK 927      BINDING AFFINITY PREDICTED BY RF-SCORE:    0.00 PKD
ROOT
HETATM    1  C   UNL     1     -11.939  12.910  63.365  1.00  0.00    -0.612 C  
HETATM    2  C   UNL     1     -11.747  12.268  64.723  1.00  0.00    -0.358 C  
ENDROOT
BRANCH   2   3
HETATM    3  O   UNL     1     -10.450  11.658  64.805  1.00  0.00    -0.265 OA 
BRANCH   3   4
HETATM    4  C   UNL     1      -9.756  11.891  65.956  1.00  0.00    -0.237 C  
HETATM    5  O   UNL     1      -9.712  12.961  66.550  1.00  0.00    -0.246 OA 
BRANCH   4   6
HETATM    6  C   UNL     1      -9.047  10.596  66.398  1.00  0.00    -0.164 C  
BRANCH   6   7
HETATM    7  N   UNL     1      -9.866   9.415  66.010  1.00  0.00    -0.288 NA 
HETATM    8  H   UNL     1      -9.309   8.764  65.456  1.00  0.00     0.000 HD 
BRANCH   7   9
HETATM    9  C   UNL     1     -10.497   8.720  67.136  1.00  0.00    -0.283 C  
BRANCH   9  10
HETATM   10  C   UNL     1     -10.185   9.362  68.506  1.00  0.00    -0.199 C  
BRANCH  10  11
HETATM   11  N   UNL     1     -11.190   9.109  69.552  1.00  0.00    -0.437 NA 
HETATM   12  H   UNL     1     -12.065   8.791  69.136  1.00  0.00     0.000 HD 
BRANCH  11  13
HETATM   13  C   UNL     1     -10.743   8.162  70.615  1.00  0.00    -0.224 C  
BRANCH  13  14
HETATM   14  C   UNL     1     -10.563   8.836  71.993  1.00  0.00    -0.344 C  
HETATM   15  H   UNL     1      -9.248   8.561  74.345  1.00  0.00     0.000 H  
HETATM   16  S   UNL     1      -9.409   7.955  73.105  1.00  0.00    -0.278 SA 
ENDBRANCH  13  14
BRANCH  13  17
HETATM   17  C   UNL     1     -11.746   6.992  70.723  1.00  0.00    -0.349 C  
HETATM   18  O   UNL     1     -12.734   6.969  71.448  1.00  0.00    -0.373 OA 
BRANCH  17  19
HETATM   19  O   UNL     1     -11.379   5.981  69.881  1.00  0.00    -0.400 OA 
BRANCH  19  20
HETATM   20  C   UNL     1      -9.974   5.712  69.800  1.00  0.00    -0.200 C  
HETATM   21  C   UNL     1      -9.724   4.241  69.538  1.00  0.00    -0.272 C  
ENDBRANCH  19  20
ENDBRANCH  17  19
ENDBRANCH  13  17
ENDBRANCH  11  13
ENDBRANCH  10  11
ENDBRANCH   9  10
ENDBRANCH   7   9
ENDBRANCH   6   7
BRANCH   6  22
HETATM   22  C   UNL     1      -7.596  10.610  65.875  1.00  0.00    -0.138 C  
HETATM   23  H   UNL     1      -5.047  11.177  66.623  1.00  0.00     0.000 H  
HETATM   24  S   UNL     1      -6.354  11.165  67.094  1.00  0.00    -0.095 SA 
ENDBRANCH   6  22
ENDBRANCH   4   6
ENDBRANCH   3   4
ENDBRANCH   2   3
TORSDOF 13
ENDMDL
MODEL      262
REMARK 921   NORMALIZED FREE ENERGY PREDICTED BY IDOCK:   -3.40 KCAL/MOL
REMARK 922        TOTAL FREE ENERGY PREDICTED BY IDOCK:   -6.58 KCAL/MOL
REMARK 923 INTER-LIGAND FREE ENERGY PREDICTED BY IDOCK:   -5.76 KCAL/MOL
REMARK 924 INTRA-LIGAND FREE ENERGY PREDICTED BY IDOCK:   -0.81 KCAL/MOL
REMARK 927      BINDING AFFINITY PREDICTED BY RF-SCORE:    0.00 PKD
ROOT
HETATM    1  C   UNL     1     -12.937  11.256  71.689  1.00  0.00    -0.537 C  
HETATM    2  C   UNL     1     -12.510   9.812  71.533  1.00  0.00    -0.403 C  
ENDROOT
BRANCH   2   3
HETATM    3  O   UNL     1     -11.130   9.741  71.145  1.00  0.00    -0.343 OA 
BRANCH   3   4
HETATM    4  C   UNL     1     -10.766   8.629  70.443  1.00  0.00    -0.224 C  
HETATM    5  O   UNL     1     -11.391   7.576  70.416  1.00  0.00    -0.275 OA 
BRANCH   4   6
HETATM    6  C   UNL     1      -9.455   8.908  69.683  1.00  0.00    -0.168 C  
BRANCH   6   7
HETATM    7  N   UNL     1      -9.645  10.056  68.756  1.00  0.00    -0.162 NA 
HETATM    8  H   UNL     1      -8.763  10.297  68.303  1.00  0.00     0.000 HD 
BRANCH   7   9
HETATM    9  C   UNL     1     -10.698   9.859  67.754  1.00  0.00    -0.277 C  
BRANCH   9  10
HETATM   10  C   UNL     1     -10.768  10.994  66.709  1.00  0.00    -0.266 C  
BRANCH  10  11
HETATM   11  N   UNL     1     -11.813  12.002  66.957  1.00  0.00    -0.611 NA 
HETATM   12  H   UNL     1     -12.158  11.929  67.914  1.00  0.00     0.000 HD 
BRANCH  11  13
HETATM   13  C   UNL     1     -11.396  13.404  66.657  1.00  0.00    -0.323 C  
BRANCH  13  14
HETATM   14  C   UNL     1     -12.480  14.214  65.912  1.00  0.00    -0.453 C  
HETATM   15  H   UNL     1     -12.838  15.820  63.761  1.00  0.00     0.000 H  
HETATM   16  S   UNL     1     -11.862  15.091  64.431  1.00  0.00    -0.243 SA 
ENDBRANCH  13  14
BRANCH  13  17
HETATM   17  C   UNL     1     -11.006  14.120  67.969  1.00  0.00    -0.255 C  
HETATM   18  O   UNL     1     -11.703  14.929  68.571  1.00  0.00    -0.306 OA 
BRANCH  17  19
HETATM   19  O   UNL     1      -9.766  13.714  68.374  1.00  0.00    -0.224 OA 
BRANCH  19  20
HETATM   20  C   UNL     1      -8.691  13.983  67.465  1.00  0.00    -0.198 C  
HETATM   21  C   UNL     1      -7.620  12.918  67.571  1.00  0.00    -0.164 C  
ENDBRANCH  19  20
ENDBRANCH  17  19
ENDBRANCH  13  17
ENDBRANCH  11  13
ENDBRANCH  10  11
ENDBRANCH   9  10
ENDBRANCH   7   9
ENDBRANCH   6   7
BRANCH   6  22
HETATM   22  C   UNL     1      -8.302   9.046  70.698  1.00  0.00    -0.186 C  
HETATM   23  H   UNL     1      -5.857  10.185  71.029  1.00  0.00     0.000 H  
HETATM   24  S   UNL     1      -6.897  10.059  70.116  1.00  0.00    -0.148 SA 
ENDBRANCH   6  22
ENDBRANCH   4   6
ENDBRANCH   3   4
ENDBRANCH   2   3
TORSDOF 13
ENDMDL
MODEL      263
REMARK 921   NORMALIZED FREE ENERGY PREDICTED BY IDOCK:   -3.39 KCAL/MOL
REMARK 922        TOTAL FREE ENERGY PREDICTED BY IDOCK:   -6.57 KCAL/MOL
REMARK 923 INTER-LIGAND FREE ENERGY PREDICTED BY IDOCK:   -6.08 KCAL/MOL
REMARK 924 INTRA-LIGAND FREE ENERGY PREDICTED BY IDOCK:   -0.49 KCAL/MOL
REMARK 927      BINDING AFFINITY PREDICTED BY RF-SCORE:    0.00 PKD
ROOT
HETATM    1  C   UNL     1      -8.577   6.438  70.293  1.00  0.00    -0.135 C  
HETATM    2  C   UNL     1      -9.533   6.287  69.129  1.00  0.00    -0.133 C  
ENDROOT
BRANCH   2   3
HETATM    3  O   UNL     1     -10.294   7.492  68.951  1.00  0.00    -0.204 OA 
BRANCH   3   4
HETATM    4  C   UNL     1     -10.680   7.767  67.673  1.00  0.00    -0.157 C  
HETATM    5  O   UNL     1     -11.074   6.940  66.860  1.00  0.00    -0.379 OA 
BRANCH   4   6
HETATM    6  C   UNL     1     -10.551   9.280  67.413  1.00  0.00    -0.255 C  
BRANCH   6   7
HETATM    7  N   UNL     1     -11.585  10.015  68.192  1.00  0.00    -0.636 NA 
HETATM    8  H   UNL     1     -12.228   9.358  68.636  1.00  0.00     0.000 HD 
BRANCH   7   9
HETATM    9  C   UNL     1     -11.045  10.952  69.182  1.00  0.00    -0.245 C  
BRANCH   9  10
HETATM   10  C   UNL     1     -11.321  12.432  68.839  1.00  0.00    -0.294 C  
BRANCH  10  11
HETATM   11  N   UNL     1     -11.603  13.296  69.997  1.00  0.00    -0.513 NA 
HETATM   12  H   UNL     1     -10.750  13.465  70.532  1.00  0.00     0.000 HD 
BRANCH  11  13
HETATM   13  C   UNL     1     -12.267  14.587  69.652  1.00  0.00    -0.292 C  
BRANCH  13  14
HETATM   14  C   UNL     1     -12.542  15.477  70.885  1.00  0.00    -0.456 C  
HETATM   15  H   UNL     1     -14.326  15.852  72.888  1.00  0.00     0.000 H  
HETATM   16  S   UNL     1     -14.079  15.051  71.779  1.00  0.00    -0.582 SA 
ENDBRANCH  13  14
BRANCH  13  17
HETATM   17  C   UNL     1     -11.407  15.355  68.624  1.00  0.00    -0.330 C  
HETATM   18  O   UNL     1     -11.555  15.320  67.408  1.00  0.00    -0.303 OA 
BRANCH  17  19
HETATM   19  O   UNL     1     -10.457  16.095  69.267  1.00  0.00    -0.229 OA 
BRANCH  19  20
HETATM   20  C   UNL     1      -9.706  17.000  68.448  1.00  0.00    -0.279 C  
HETATM   21  C   UNL     1     -10.212  18.418  68.612  1.00  0.00    -0.370 C  
ENDBRANCH  19  20
ENDBRANCH  17  19
ENDBRANCH  13  17
ENDBRANCH  11  13
ENDBRANCH  10  11
ENDBRANCH   9  10
ENDBRANCH   7   9
ENDBRANCH   6   7
BRANCH   6  22
HETATM   22  C   UNL     1      -9.091   9.714  67.657  1.00  0.00    -0.131 C  
HETATM   23  H   UNL     1      -7.082  11.195  66.585  1.00  0.00     0.000 H  
HETATM   24  S   UNL     1      -8.397  10.804  66.365  1.00  0.00    -0.157 SA 
ENDBRANCH   6  22
ENDBRANCH   4   6
ENDBRANCH   3   4
ENDBRANCH   2   3
TORSDOF 13
ENDMDL
MODEL      264
REMARK 921   NORMALIZED FREE ENERGY PREDICTED BY IDOCK:   -3.39 KCAL/MOL
REMARK 922        TOTAL FREE ENERGY PREDICTED BY IDOCK:   -6.56 KCAL/MOL
REMARK 923 INTER-LIGAND FREE ENERGY PREDICTED BY IDOCK:   -5.92 KCAL/MOL
REMARK 924 INTRA-LIGAND FREE ENERGY PREDICTED BY IDOCK:   -0.65 KCAL/MOL
REMARK 927      BINDING AFFINITY PREDICTED BY RF-SCORE:    0.00 PKD
ROOT
HETATM    1  C   UNL     1     -10.489   5.155  67.042  1.00  0.00    -0.256 C  
HETATM    2  C   UNL     1     -11.004   6.447  67.639  1.00  0.00    -0.349 C  
ENDROOT
BRANCH   2   3
HETATM    3  O   UNL     1     -11.201   6.297  69.053  1.00  0.00    -0.375 OA 
BRANCH   3   4
HETATM    4  C   UNL     1     -10.349   7.004  69.850  1.00  0.00    -0.210 C  
HETATM    5  O   UNL     1      -9.162   7.194  69.620  1.00  0.00    -0.147 OA 
BRANCH   4   6
HETATM    6  C   UNL     1     -11.115   7.533  71.078  1.00  0.00    -0.257 C  
BRANCH   6   7
HETATM    7  N   UNL     1     -11.946   8.704  70.687  1.00  0.00    -0.478 NA 
HETATM    8  H   UNL     1     -12.686   8.859  71.372  1.00  0.00     0.000 HD 
BRANCH   7   9
HETATM    9  C   UNL     1     -11.188   9.938  70.464  1.00  0.00    -0.330 C  
BRANCH   9  10
HETATM   10  C   UNL     1     -12.085  11.177  70.243  1.00  0.00    -0.377 C  
BRANCH  10  11
HETATM   11  N   UNL     1     -12.158  11.649  68.851  1.00  0.00    -0.386 NA 
HETATM   12  H   UNL     1     -12.881  12.363  68.754  1.00  0.00     0.000 HD 
BRANCH  11  13
HETATM   13  C   UNL     1     -10.861  12.141  68.300  1.00  0.00    -0.223 C  
BRANCH  13  14
HETATM   14  C   UNL     1     -10.439  11.418  67.002  1.00  0.00    -0.236 C  
HETATM   15  H   UNL     1      -8.250  10.571  65.649  1.00  0.00     0.000 H  
HETATM   16  S   UNL     1      -8.630  11.221  66.818  1.00  0.00    -0.163 SA 
ENDBRANCH  13  14
BRANCH  13  17
HETATM   17  C   UNL     1     -10.945  13.664  68.056  1.00  0.00    -0.250 C  
HETATM   18  O   UNL     1     -10.901  14.211  66.960  1.00  0.00    -0.289 OA 
BRANCH  17  19
HETATM   19  O   UNL     1     -11.086  14.321  69.245  1.00  0.00    -0.257 OA 
BRANCH  19  20
HETATM   20  C   UNL     1     -11.692  15.618  69.176  1.00  0.00    -0.390 C  
HETATM   21  C   UNL     1     -10.672  16.702  69.452  1.00  0.00    -0.331 C  
ENDBRANCH  19  20
ENDBRANCH  17  19
ENDBRANCH  13  17
ENDBRANCH  11  13
ENDBRANCH  10  11
ENDBRANCH   9  10
ENDBRANCH   7   9
ENDBRANCH   6   7
BRANCH   6  22
HETATM   22  C   UNL     1     -11.870   6.365  71.746  1.00  0.00    -0.321 C  
HETATM   23  H   UNL     1     -11.524   4.278  73.450  1.00  0.00     0.000 H  
HETATM   24  S   UNL     1     -10.845   5.330  72.848  1.00  0.00    -0.291 SA 
ENDBRANCH   6  22
ENDBRANCH   4   6
ENDBRANCH   3   4
ENDBRANCH   2   3
TORSDOF 13
ENDMDL
MODEL      265
REMARK 921   NORMALIZED FREE ENERGY PREDICTED BY IDOCK:   -3.39 KCAL/MOL
REMARK 922        TOTAL FREE ENERGY PREDICTED BY IDOCK:   -6.56 KCAL/MOL
REMARK 923 INTER-LIGAND FREE ENERGY PREDICTED BY IDOCK:   -5.79 KCAL/MOL
REMARK 924 INTRA-LIGAND FREE ENERGY PREDICTED BY IDOCK:   -0.77 KCAL/MOL
REMARK 927      BINDING AFFINITY PREDICTED BY RF-SCORE:    0.00 PKD
ROOT
HETATM    1  C   UNL     1      -6.583  20.966  66.574  1.00  0.00    -0.327 C  
HETATM    2  C   UNL     1      -7.088  20.233  67.799  1.00  0.00    -0.304 C  
ENDROOT
BRANCH   2   3
HETATM    3  O   UNL     1      -7.388  18.868  67.472  1.00  0.00    -0.225 OA 
BRANCH   3   4
HETATM    4  C   UNL     1      -8.697  18.597  67.198  1.00  0.00    -0.274 C  
HETATM    5  O   UNL     1      -9.627  19.379  67.353  1.00  0.00    -0.307 OA 
BRANCH   4   6
HETATM    6  C   UNL     1      -8.821  17.161  66.655  1.00  0.00    -0.252 C  
BRANCH   6   7
HETATM    7  N   UNL     1      -8.006  16.235  67.489  1.00  0.00    -0.145 NA 
HETATM    8  H   UNL     1      -7.188  16.719  67.861  1.00  0.00     0.000 HD 
BRANCH   7   9
HETATM    9  C   UNL     1      -8.749  15.580  68.570  1.00  0.00    -0.184 C  
BRANCH   9  10
HETATM   10  C   UNL     1      -8.828  14.045  68.416  1.00  0.00    -0.180 C  
BRANCH  10  11
HETATM   11  N   UNL     1     -10.149  13.461  68.697  1.00  0.00    -0.363 NA 
HETATM   12  H   UNL     1     -10.888  14.040  68.298  1.00  0.00     0.000 HD 
BRANCH  11  13
HETATM   13  C   UNL     1     -10.301  12.044  68.252  1.00  0.00    -0.204 C  
BRANCH  13  14
HETATM   14  C   UNL     1     -11.171  11.197  69.207  1.00  0.00    -0.267 C  
HETATM   15  H   UNL     1     -11.402   8.699  70.230  1.00  0.00     0.000 H  
HETATM   16  S   UNL     1     -10.619   9.461  69.371  1.00  0.00    -0.216 SA 
ENDBRANCH  13  14
BRANCH  13  17
HETATM   17  C   UNL     1     -10.889  12.007  66.825  1.00  0.00    -0.266 C  
HETATM   18  O   UNL     1     -12.045  12.285  66.526  1.00  0.00    -0.616 OA 
BRANCH  17  19
HETATM   19  O   UNL     1      -9.928  11.629  65.931  1.00  0.00    -0.216 OA 
BRANCH  19  20
HETATM   20  C   UNL     1     -10.272  10.541  65.064  1.00  0.00    -0.295 C  
HETATM   21  C   UNL     1     -10.120  10.944  63.612  1.00  0.00    -0.414 C  
ENDBRANCH  19  20
ENDBRANCH  17  19
ENDBRANCH  13  17
ENDBRANCH  11  13
ENDBRANCH  10  11
ENDBRANCH   9  10
ENDBRANCH   7   9
ENDBRANCH   6   7
BRANCH   6  22
HETATM   22  C   UNL     1     -10.314  16.800  66.513  1.00  0.00    -0.301 C  
HETATM   23  H   UNL     1     -12.014  15.193  65.133  1.00  0.00     0.000 H  
HETATM   24  S   UNL     1     -10.670  15.519  65.261  1.00  0.00    -0.437 SA 
ENDBRANCH   6  22
ENDBRANCH   4   6
ENDBRANCH   3   4
ENDBRANCH   2   3
TORSDOF 13
ENDMDL
MODEL      266
REMARK 921   NORMALIZED FREE ENERGY PREDICTED BY IDOCK:   -3.39 KCAL/MOL
REMARK 922        TOTAL FREE ENERGY PREDICTED BY IDOCK:   -6.56 KCAL/MOL
REMARK 923 INTER-LIGAND FREE ENERGY PREDICTED BY IDOCK:   -6.09 KCAL/MOL
REMARK 924 INTRA-LIGAND FREE ENERGY PREDICTED BY IDOCK:   -0.47 KCAL/MOL
REMARK 927      BINDING AFFINITY PREDICTED BY RF-SCORE:    0.00 PKD
ROOT
HETATM    1  C   UNL     1      -9.397   6.820  69.432  1.00  0.00    -0.148 C  
HETATM    2  C   UNL     1     -10.880   7.067  69.606  1.00  0.00    -0.247 C  
ENDROOT
BRANCH   2   3
HETATM    3  O   UNL     1     -11.105   8.373  70.159  1.00  0.00    -0.245 OA 
BRANCH   3   4
HETATM    4  C   UNL     1     -10.315   9.370  69.666  1.00  0.00    -0.216 C  
HETATM    5  O   UNL     1      -9.384   9.894  70.264  1.00  0.00    -0.225 OA 
BRANCH   4   6
HETATM    6  C   UNL     1     -10.771   9.728  68.239  1.00  0.00    -0.233 C  
BRANCH   6   7
HETATM    7  N   UNL     1     -11.819  10.783  68.294  1.00  0.00    -0.765 NA 
HETATM    8  H   UNL     1     -12.342  10.719  69.168  1.00  0.00     0.000 HD 
BRANCH   7   9
HETATM    9  C   UNL     1     -11.318  12.147  68.096  1.00  0.00    -0.293 C  
BRANCH   9  10
HETATM   10  C   UNL     1     -12.378  13.235  68.373  1.00  0.00     0.142 C  
BRANCH  10  11
HETATM   11  N   UNL     1     -12.250  14.450  67.551  1.00  0.00    -0.619 NA 
HETATM   12  H   UNL     1     -11.754  15.178  68.066  1.00  0.00     0.000 HD 
BRANCH  11  13
HETATM   13  C   UNL     1     -11.613  14.225  66.220  1.00  0.00    -0.372 C  
BRANCH  13  14
HETATM   14  C   UNL     1     -12.634  14.142  65.064  1.00  0.00    -0.380 C  
HETATM   15  H   UNL     1     -13.043  12.959  62.662  1.00  0.00     0.000 H  
HETATM   16  S   UNL     1     -12.124  13.033  63.702  1.00  0.00    -0.507 SA 
ENDBRANCH  13  14
BRANCH  13  17
HETATM   17  C   UNL     1     -10.585  15.343  65.941  1.00  0.00    -0.339 C  
HETATM   18  O   UNL     1     -10.091  15.597  64.848  1.00  0.00    -0.384 OA 
BRANCH  17  19
HETATM   19  O   UNL     1     -10.309  16.024  67.092  1.00  0.00    -0.284 OA 
BRANCH  19  20
HETATM   20  C   UNL     1     -10.024  17.421  66.942  1.00  0.00    -0.300 C  
HETATM   21  C   UNL     1      -9.530  18.011  68.246  1.00  0.00    -0.305 C  
ENDBRANCH  19  20
ENDBRANCH  17  19
ENDBRANCH  13  17
ENDBRANCH  11  13
ENDBRANCH  10  11
ENDBRANCH   9  10
ENDBRANCH   7   9
ENDBRANCH   6   7
BRANCH   6  22
HETATM   22  C   UNL     1      -9.533  10.055  67.379  1.00  0.00    -0.152 C  
HETATM   23  H   UNL     1      -8.032   9.104  65.323  1.00  0.00     0.000 H  
HETATM   24  S   UNL     1      -9.148   8.810  66.098  1.00  0.00    -0.217 SA 
ENDBRANCH   6  22
ENDBRANCH   4   6
ENDBRANCH   3   4
ENDBRANCH   2   3
TORSDOF 13
ENDMDL
MODEL      267
REMARK 921   NORMALIZED FREE ENERGY PREDICTED BY IDOCK:   -3.38 KCAL/MOL
REMARK 922        TOTAL FREE ENERGY PREDICTED BY IDOCK:   -6.55 KCAL/MOL
REMARK 923 INTER-LIGAND FREE ENERGY PREDICTED BY IDOCK:   -5.94 KCAL/MOL
REMARK 924 INTRA-LIGAND FREE ENERGY PREDICTED BY IDOCK:   -0.61 KCAL/MOL
REMARK 927      BINDING AFFINITY PREDICTED BY RF-SCORE:    0.00 PKD
ROOT
HETATM    1  C   UNL     1     -10.648  19.814  65.986  1.00  0.00    -0.573 C  
HETATM    2  C   UNL     1      -9.869  20.341  67.172  1.00  0.00    -0.466 C  
ENDROOT
BRANCH   2   3
HETATM    3  O   UNL     1      -8.478  20.014  67.039  1.00  0.00    -0.308 OA 
BRANCH   3   4
HETATM    4  C   UNL     1      -8.021  19.022  67.856  1.00  0.00    -0.277 C  
HETATM    5  O   UNL     1      -8.377  18.841  69.014  1.00  0.00    -0.242 OA 
BRANCH   4   6
HETATM    6  C   UNL     1      -6.996  18.161  67.094  1.00  0.00    -0.193 C  
BRANCH   6   7
HETATM    7  N   UNL     1      -7.621  17.606  65.862  1.00  0.00    -0.527 NA 
HETATM    8  H   UNL     1      -6.940  17.062  65.332  1.00  0.00     0.000 HD 
BRANCH   7   9
HETATM    9  C   UNL     1      -8.834  16.817  66.100  1.00  0.00    -0.263 C  
BRANCH   9  10
HETATM   10  C   UNL     1      -8.562  15.303  66.241  1.00  0.00    -0.052 C  
BRANCH  10  11
HETATM   11  N   UNL     1      -9.654  14.431  65.779  1.00  0.00    -0.512 NA 
HETATM   12  H   UNL     1      -9.566  14.248  64.779  1.00  0.00     0.000 HD 
BRANCH  11  13
HETATM   13  C   UNL     1      -9.777  13.150  66.535  1.00  0.00    -0.268 C  
BRANCH  13  14
HETATM   14  C   UNL     1      -8.623  12.921  67.535  1.00  0.00    -0.188 C  
HETATM   15  H   UNL     1      -6.997  10.984  68.507  1.00  0.00     0.000 H  
HETATM   16  S   UNL     1      -8.036  11.190  67.606  1.00  0.00    -0.120 SA 
ENDBRANCH  13  14
BRANCH  13  17
HETATM   17  C   UNL     1     -11.134  13.110  67.272  1.00  0.00    -0.279 C  
HETATM   18  O   UNL     1     -12.086  12.400  66.968  1.00  0.00    -0.549 OA 
BRANCH  17  19
HETATM   19  O   UNL     1     -11.121  13.979  68.325  1.00  0.00    -0.239 OA 
BRANCH  19  20
HETATM   20  C   UNL     1     -12.351  14.106  69.049  1.00  0.00    -0.110 C  
HETATM   21  C   UNL     1     -12.101  14.080  70.542  1.00  0.00    -0.424 C  
ENDBRANCH  19  20
ENDBRANCH  17  19
ENDBRANCH  13  17
ENDBRANCH  11  13
ENDBRANCH  10  11
ENDBRANCH   9  10
ENDBRANCH   7   9
ENDBRANCH   6   7
BRANCH   6  22
HETATM   22  C   UNL     1      -5.704  18.977  66.883  1.00  0.00    -0.155 C  
HETATM   23  H   UNL     1      -4.106  20.818  68.082  1.00  0.00     0.000 H  
HETATM   24  S   UNL     1      -5.270  20.082  68.271  1.00  0.00    -0.199 SA 
ENDBRANCH   6  22
ENDBRANCH   4   6
ENDBRANCH   3   4
ENDBRANCH   2   3
TORSDOF 13
ENDMDL
MODEL      268
REMARK 921   NORMALIZED FREE ENERGY PREDICTED BY IDOCK:   -3.37 KCAL/MOL
REMARK 922        TOTAL FREE ENERGY PREDICTED BY IDOCK:   -6.52 KCAL/MOL
REMARK 923 INTER-LIGAND FREE ENERGY PREDICTED BY IDOCK:   -5.80 KCAL/MOL
REMARK 924 INTRA-LIGAND FREE ENERGY PREDICTED BY IDOCK:   -0.73 KCAL/MOL
REMARK 927      BINDING AFFINITY PREDICTED BY RF-SCORE:    0.00 PKD
ROOT
HETATM    1  C   UNL     1     -11.679   9.545  71.398  1.00  0.00    -0.465 C  
HETATM    2  C   UNL     1     -11.950   8.242  72.120  1.00  0.00    -0.369 C  
ENDROOT
BRANCH   2   3
HETATM    3  O   UNL     1     -12.107   7.173  71.175  1.00  0.00    -0.325 OA 
BRANCH   3   4
HETATM    4  C   UNL     1     -11.160   6.193  71.225  1.00  0.00    -0.291 C  
HETATM    5  O   UNL     1     -10.732   5.677  72.250  1.00  0.00    -0.212 OA 
BRANCH   4   6
HETATM    6  C   UNL     1     -10.721   5.829  69.794  1.00  0.00    -0.348 C  
BRANCH   6   7
HETATM    7  N   UNL     1     -11.554   6.571  68.808  1.00  0.00    -0.529 NA 
HETATM    8  H   UNL     1     -11.829   7.477  69.187  1.00  0.00     0.000 HD 
BRANCH   7   9
HETATM    9  C   UNL     1     -10.931   6.734  67.490  1.00  0.00    -0.303 C  
BRANCH   9  10
HETATM   10  C   UNL     1     -10.733   8.212  67.086  1.00  0.00    -0.194 C  
BRANCH  10  11
HETATM   11  N   UNL     1      -9.798   8.429  65.970  1.00  0.00    -0.474 NA 
HETATM   12  H   UNL     1     -10.218   8.130  65.089  1.00  0.00     0.000 HD 
BRANCH  11  13
HETATM   13  C   UNL     1      -9.290   9.828  65.858  1.00  0.00    -0.205 C  
BRANCH  13  14
HETATM   14  C   UNL     1      -7.806   9.971  66.262  1.00  0.00    -0.111 C  
HETATM   15  H   UNL     1      -5.589   8.504  66.782  1.00  0.00     0.000 H  
HETATM   16  S   UNL     1      -6.925   8.376  66.419  1.00  0.00    -0.075 SA 
ENDBRANCH  13  14
BRANCH  13  17
HETATM   17  C   UNL     1      -9.500  10.343  64.417  1.00  0.00    -0.287 C  
HETATM   18  O   UNL     1      -8.667  10.299  63.519  1.00  0.00    -0.175 OA 
BRANCH  17  19
HETATM   19  O   UNL     1     -10.761  10.850  64.279  1.00  0.00    -0.353 OA 
BRANCH  19  20
HETATM   20  C   UNL     1     -10.868  12.072  63.537  1.00  0.00    -0.444 C  
HETATM   21  C   UNL     1     -10.727  13.269  64.453  1.00  0.00    -0.432 C  
ENDBRANCH  19  20
ENDBRANCH  17  19
ENDBRANCH  13  17
ENDBRANCH  11  13
ENDBRANCH  10  11
ENDBRANCH   9  10
ENDBRANCH   7   9
ENDBRANCH   6   7
BRANCH   6  22
HETATM   22  C   UNL     1      -9.196   6.022  69.667  1.00  0.00    -0.138 C  
HETATM   23  H   UNL     1      -6.891   4.667  69.184  1.00  0.00     0.000 H  
HETATM   24  S   UNL     1      -8.265   4.494  69.299  1.00  0.00    -0.067 SA 
ENDBRANCH   6  22
ENDBRANCH   4   6
ENDBRANCH   3   4
ENDBRANCH   2   3
TORSDOF 13
ENDMDL
MODEL      269
REMARK 921   NORMALIZED FREE ENERGY PREDICTED BY IDOCK:   -3.36 KCAL/MOL
REMARK 922        TOTAL FREE ENERGY PREDICTED BY IDOCK:   -6.51 KCAL/MOL
REMARK 923 INTER-LIGAND FREE ENERGY PREDICTED BY IDOCK:   -5.50 KCAL/MOL
REMARK 924 INTRA-LIGAND FREE ENERGY PREDICTED BY IDOCK:   -1.01 KCAL/MOL
REMARK 927      BINDING AFFINITY PREDICTED BY RF-SCORE:    0.00 PKD
ROOT
HETATM    1  C   UNL     1     -10.508   5.251  70.341  1.00  0.00    -0.322 C  
HETATM    2  C   UNL     1     -11.257   6.276  69.518  1.00  0.00    -0.430 C  
ENDROOT
BRANCH   2   3
HETATM    3  O   UNL     1     -10.662   7.573  69.677  1.00  0.00    -0.238 OA 
BRANCH   3   4
HETATM    4  C   UNL     1      -9.546   7.810  68.929  1.00  0.00    -0.154 C  
HETATM    5  O   UNL     1      -8.393   7.706  69.328  1.00  0.00    -0.131 OA 
BRANCH   4   6
HETATM    6  C   UNL     1      -9.962   8.220  67.504  1.00  0.00    -0.193 C  
BRANCH   6   7
HETATM    7  N   UNL     1      -9.984   9.704  67.392  1.00  0.00    -0.175 NA 
HETATM    8  H   UNL     1     -10.548  10.109  68.140  1.00  0.00     0.000 HD 
BRANCH   7   9
HETATM    9  C   UNL     1      -8.657  10.328  67.357  1.00  0.00    -0.125 C  
BRANCH   9  10
HETATM   10  C   UNL     1      -8.663  11.743  66.735  1.00  0.00    -0.192 C  
BRANCH  10  11
HETATM   11  N   UNL     1      -9.963  12.182  66.204  1.00  0.00    -0.228 NA 
HETATM   12  H   UNL     1     -10.618  11.399  66.171  1.00  0.00     0.000 HD 
BRANCH  11  13
HETATM   13  C   UNL     1     -10.566  13.336  66.933  1.00  0.00    -0.264 C  
BRANCH  13  14
HETATM   14  C   UNL     1     -11.035  14.470  65.994  1.00  0.00    -0.324 C  
HETATM   15  H   UNL     1     -12.749  14.981  63.960  1.00  0.00     0.000 H  
HETATM   16  S   UNL     1     -12.327  13.961  64.805  1.00  0.00    -0.377 SA 
ENDBRANCH  13  14
BRANCH  13  17
HETATM   17  C   UNL     1     -11.745  12.844  67.801  1.00  0.00    -0.362 C  
HETATM   18  O   UNL     1     -12.156  11.690  67.851  1.00  0.00    -0.613 OA 
BRANCH  17  19
HETATM   19  O   UNL     1     -12.265  13.883  68.518  1.00  0.00    -0.342 OA 
BRANCH  19  20
HETATM   20  C   UNL     1     -11.581  14.208  69.736  1.00  0.00    -0.290 C  
HETATM   21  C   UNL     1     -12.526  14.133  70.917  1.00  0.00    -0.436 C  
ENDBRANCH  19  20
ENDBRANCH  17  19
ENDBRANCH  13  17
ENDBRANCH  11  13
ENDBRANCH  10  11
ENDBRANCH   9  10
ENDBRANCH   7   9
ENDBRANCH   6   7
BRANCH   6  22
HETATM   22  C   UNL     1      -9.071   7.482  66.484  1.00  0.00    -0.166 C  
HETATM   23  H   UNL     1      -8.646   5.040  65.372  1.00  0.00     0.000 H  
HETATM   24  S   UNL     1      -9.449   5.705  66.291  1.00  0.00    -0.138 SA 
ENDBRANCH   6  22
ENDBRANCH   4   6
ENDBRANCH   3   4
ENDBRANCH   2   3
TORSDOF 13
ENDMDL
MODEL      270
REMARK 921   NORMALIZED FREE ENERGY PREDICTED BY IDOCK:   -3.36 KCAL/MOL
REMARK 922        TOTAL FREE ENERGY PREDICTED BY IDOCK:   -6.51 KCAL/MOL
REMARK 923 INTER-LIGAND FREE ENERGY PREDICTED BY IDOCK:   -5.57 KCAL/MOL
REMARK 924 INTRA-LIGAND FREE ENERGY PREDICTED BY IDOCK:   -0.94 KCAL/MOL
REMARK 927      BINDING AFFINITY PREDICTED BY RF-SCORE:    0.00 PKD
ROOT
HETATM    1  C   UNL     1      -7.076   6.155  63.588  1.00  0.00    -0.049 C  
HETATM    2  C   UNL     1      -7.309   7.567  63.096  1.00  0.00    -0.090 C  
ENDROOT
BRANCH   2   3
HETATM    3  O   UNL     1      -8.193   8.265  63.987  1.00  0.00    -0.157 OA 
BRANCH   3   4
HETATM    4  C   UNL     1      -7.596   8.912  65.028  1.00  0.00    -0.100 C  
HETATM    5  O   UNL     1      -6.484   9.425  64.996  1.00  0.00    -0.072 OA 
BRANCH   4   6
HETATM    6  C   UNL     1      -8.541   8.908  66.245  1.00  0.00    -0.133 C  
BRANCH   6   7
HETATM    7  N   UNL     1      -9.914   9.291  65.817  1.00  0.00    -0.414 NA 
HETATM    8  H   UNL     1     -10.605   8.937  66.480  1.00  0.00     0.000 HD 
BRANCH   7   9
HETATM    9  C   UNL     1     -10.103  10.729  65.601  1.00  0.00    -0.267 C  
BRANCH   9  10
HETATM   10  C   UNL     1     -10.529  11.489  66.877  1.00  0.00    -0.235 C  
BRANCH  10  11
HETATM   11  N   UNL     1     -11.904  12.015  66.855  1.00  0.00    -0.616 NA 
HETATM   12  H   UNL     1     -12.476  11.545  67.557  1.00  0.00     0.000 HD 
BRANCH  11  13
HETATM   13  C   UNL     1     -11.997  13.497  67.013  1.00  0.00    -0.394 C  
BRANCH  13  14
HETATM   14  C   UNL     1     -11.144  14.038  68.181  1.00  0.00    -0.260 C  
HETATM   15  H   UNL     1     -11.238  14.516  70.846  1.00  0.00     0.000 H  
HETATM   16  S   UNL     1     -12.006  14.029  69.794  1.00  0.00    -0.349 SA 
ENDBRANCH  13  14
BRANCH  13  17
HETATM   17  C   UNL     1     -11.587  14.186  65.692  1.00  0.00    -0.339 C  
HETATM   18  O   UNL     1     -10.548  14.811  65.511  1.00  0.00    -0.312 OA 
BRANCH  17  19
HETATM   19  O   UNL     1     -12.548  13.989  64.743  1.00  0.00    -0.605 OA 
BRANCH  19  20
HETATM   20  C   UNL     1     -12.105  13.399  63.514  1.00  0.00    -0.432 C  
HETATM   21  C   UNL     1     -12.675  12.006  63.351  1.00  0.00    -0.527 C  
ENDBRANCH  19  20
ENDBRANCH  17  19
ENDBRANCH  13  17
ENDBRANCH  11  13
ENDBRANCH  10  11
ENDBRANCH   9  10
ENDBRANCH   7   9
ENDBRANCH   6   7
BRANCH   6  22
HETATM   22  C   UNL     1      -8.418   7.556  66.977  1.00  0.00    -0.122 C  
HETATM   23  H   UNL     1      -9.571   5.104  67.170  1.00  0.00     0.000 H  
HETATM   24  S   UNL     1      -9.681   6.322  66.510  1.00  0.00    -0.101 SA 
ENDBRANCH   6  22
ENDBRANCH   4   6
ENDBRANCH   3   4
ENDBRANCH   2   3
TORSDOF 13
ENDMDL
MODEL      271
REMARK 921   NORMALIZED FREE ENERGY PREDICTED BY IDOCK:   -3.36 KCAL/MOL
REMARK 922        TOTAL FREE ENERGY PREDICTED BY IDOCK:   -6.51 KCAL/MOL
REMARK 923 INTER-LIGAND FREE ENERGY PREDICTED BY IDOCK:   -5.76 KCAL/MOL
REMARK 924 INTRA-LIGAND FREE ENERGY PREDICTED BY IDOCK:   -0.76 KCAL/MOL
REMARK 927      BINDING AFFINITY PREDICTED BY RF-SCORE:    0.00 PKD
ROOT
HETATM    1  C   UNL     1     -12.341  14.202  64.299  1.00  0.00    -0.398 C  
HETATM    2  C   UNL     1     -12.413  12.778  64.808  1.00  0.00    -0.472 C  
ENDROOT
BRANCH   2   3
HETATM    3  O   UNL     1     -11.139  12.370  65.328  1.00  0.00    -0.287 OA 
BRANCH   3   4
HETATM    4  C   UNL     1     -10.652  13.118  66.359  1.00  0.00    -0.286 C  
HETATM    5  O   UNL     1      -9.651  13.822  66.309  1.00  0.00    -0.281 OA 
BRANCH   4   6
HETATM    6  C   UNL     1     -11.561  12.947  67.591  1.00  0.00    -0.355 C  
BRANCH   6   7
HETATM    7  N   UNL     1     -10.929  12.006  68.556  1.00  0.00    -0.226 NA 
HETATM    8  H   UNL     1     -10.875  12.430  69.483  1.00  0.00     0.000 HD 
BRANCH   7   9
HETATM    9  C   UNL     1     -11.574  10.691  68.631  1.00  0.00    -0.227 C  
BRANCH   9  10
HETATM   10  C   UNL     1     -10.617   9.520  68.315  1.00  0.00    -0.216 C  
BRANCH  10  11
HETATM   11  N   UNL     1      -9.744   9.115  69.430  1.00  0.00    -0.166 NA 
HETATM   12  H   UNL     1      -9.845   9.759  70.214  1.00  0.00     0.000 HD 
BRANCH  11  13
HETATM   13  C   UNL     1      -9.942   7.706  69.882  1.00  0.00    -0.190 C  
BRANCH  13  14
HETATM   14  C   UNL     1      -8.819   7.205  70.817  1.00  0.00    -0.148 C  
HETATM   15  H   UNL     1      -6.723   8.083  72.292  1.00  0.00     0.000 H  
HETATM   16  S   UNL     1      -7.734   8.534  71.451  1.00  0.00    -0.115 SA 
ENDBRANCH  13  14
BRANCH  13  17
HETATM   17  C   UNL     1     -11.313   7.573  70.580  1.00  0.00    -0.281 C  
HETATM   18  O   UNL     1     -12.134   6.687  70.369  1.00  0.00    -0.374 OA 
BRANCH  17  19
HETATM   19  O   UNL     1     -11.480   8.584  71.483  1.00  0.00    -0.258 OA 
BRANCH  19  20
HETATM   20  C   UNL     1     -12.601   8.457  72.367  1.00  0.00    -0.316 C  
HETATM   21  C   UNL     1     -13.619   9.546  72.101  1.00  0.00    -0.500 C  
ENDBRANCH  19  20
ENDBRANCH  17  19
ENDBRANCH  13  17
ENDBRANCH  11  13
ENDBRANCH  10  11
ENDBRANCH   9  10
ENDBRANCH   7   9
ENDBRANCH   6   7
BRANCH   6  22
HETATM   22  C   UNL     1     -11.925  14.338  68.149  1.00  0.00    -0.308 C  
HETATM   23  H   UNL     1     -12.520  15.638  70.459  1.00  0.00     0.000 H  
HETATM   24  S   UNL     1     -12.192  14.385  69.956  1.00  0.00    -0.352 SA 
ENDBRANCH   6  22
ENDBRANCH   4   6
ENDBRANCH   3   4
ENDBRANCH   2   3
TORSDOF 13
ENDMDL
MODEL      272
REMARK 921   NORMALIZED FREE ENERGY PREDICTED BY IDOCK:   -3.36 KCAL/MOL
REMARK 922        TOTAL FREE ENERGY PREDICTED BY IDOCK:   -6.51 KCAL/MOL
REMARK 923 INTER-LIGAND FREE ENERGY PREDICTED BY IDOCK:   -5.80 KCAL/MOL
REMARK 924 INTRA-LIGAND FREE ENERGY PREDICTED BY IDOCK:   -0.71 KCAL/MOL
REMARK 927      BINDING AFFINITY PREDICTED BY RF-SCORE:    0.00 PKD
ROOT
HETATM    1  C   UNL     1     -12.903  15.059  70.597  1.00  0.00    -0.413 C  
HETATM    2  C   UNL     1     -12.154  15.143  69.284  1.00  0.00    -0.244 C  
ENDROOT
BRANCH   2   3
HETATM    3  O   UNL     1     -11.959  13.830  68.738  1.00  0.00    -0.346 OA 
BRANCH   3   4
HETATM    4  C   UNL     1     -11.688  13.777  67.402  1.00  0.00    -0.382 C  
HETATM    5  O   UNL     1     -12.344  14.325  66.526  1.00  0.00    -0.445 OA 
BRANCH   4   6
HETATM    6  C   UNL     1     -10.422  12.930  67.170  1.00  0.00    -0.238 C  
BRANCH   6   7
HETATM    7  N   UNL     1      -9.709  12.725  68.460  1.00  0.00    -0.370 NA 
HETATM    8  H   UNL     1      -9.995  11.844  68.888  1.00  0.00     0.000 HD 
BRANCH   7   9
HETATM    9  C   UNL     1      -8.247  12.796  68.363  1.00  0.00    -0.128 C  
BRANCH   9  10
HETATM   10  C   UNL     1      -7.734  14.151  67.827  1.00  0.00    -0.168 C  
BRANCH  10  11
HETATM   11  N   UNL     1      -8.066  15.315  68.665  1.00  0.00    -0.146 NA 
HETATM   12  H   UNL     1      -7.993  15.075  69.654  1.00  0.00     0.000 HD 
BRANCH  11  13
HETATM   13  C   UNL     1      -7.262  16.536  68.364  1.00  0.00    -0.169 C  
BRANCH  13  14
HETATM   14  C   UNL     1      -6.400  16.398  67.090  1.00  0.00    -0.180 C  
HETATM   15  H   UNL     1      -4.374  17.593  65.746  1.00  0.00     0.000 H  
HETATM   16  S   UNL     1      -5.150  17.718  66.893  1.00  0.00    -0.146 SA 
ENDBRANCH  13  14
BRANCH  13  17
HETATM   17  C   UNL     1      -8.199  17.758  68.241  1.00  0.00    -0.285 C  
HETATM   18  O   UNL     1      -8.016  18.850  68.767  1.00  0.00    -0.334 OA 
BRANCH  17  19
HETATM   19  O   UNL     1      -9.266  17.451  67.446  1.00  0.00    -0.233 OA 
BRANCH  19  20
HETATM   20  C   UNL     1     -10.502  18.096  67.778  1.00  0.00    -0.404 C  
HETATM   21  C   UNL     1     -10.689  19.354  66.955  1.00  0.00    -0.582 C  
ENDBRANCH  19  20
ENDBRANCH  17  19
ENDBRANCH  13  17
ENDBRANCH  11  13
ENDBRANCH  10  11
ENDBRANCH   9  10
ENDBRANCH   7   9
ENDBRANCH   6   7
BRANCH   6  22
HETATM   22  C   UNL     1     -10.804  11.648  66.402  1.00  0.00    -0.287 C  
HETATM   23  H   UNL     1     -10.563  10.442  63.980  1.00  0.00     0.000 H  
HETATM   24  S   UNL     1     -10.219  11.597  64.672  1.00  0.00    -0.297 SA 
ENDBRANCH   6  22
ENDBRANCH   4   6
ENDBRANCH   3   4
ENDBRANCH   2   3
TORSDOF 13
ENDMDL
MODEL      273
REMARK 921   NORMALIZED FREE ENERGY PREDICTED BY IDOCK:   -3.36 KCAL/MOL
REMARK 922        TOTAL FREE ENERGY PREDICTED BY IDOCK:   -6.51 KCAL/MOL
REMARK 923 INTER-LIGAND FREE ENERGY PREDICTED BY IDOCK:   -5.65 KCAL/MOL
REMARK 924 INTRA-LIGAND FREE ENERGY PREDICTED BY IDOCK:   -0.85 KCAL/MOL
REMARK 927      BINDING AFFINITY PREDICTED BY RF-SCORE:    0.00 PKD
ROOT
HETATM    1  C   UNL     1     -10.240   4.838  69.965  1.00  0.00    -0.251 C  
HETATM    2  C   UNL     1     -10.170   6.347  69.879  1.00  0.00    -0.183 C  
ENDROOT
BRANCH   2   3
HETATM    3  O   UNL     1     -10.688   6.939  71.080  1.00  0.00    -0.225 OA 
BRANCH   3   4
HETATM    4  C   UNL     1     -11.962   7.421  71.003  1.00  0.00    -0.306 C  
HETATM    5  O   UNL     1     -12.970   6.736  70.889  1.00  0.00    -0.212 OA 
BRANCH   4   6
HETATM    6  C   UNL     1     -11.934   8.959  71.092  1.00  0.00    -0.293 C  
BRANCH   6   7
HETATM    7  N   UNL     1     -11.722   9.538  69.737  1.00  0.00    -0.440 NA 
HETATM    8  H   UNL     1     -12.565  10.017  69.419  1.00  0.00     0.000 HD 
BRANCH   7   9
HETATM    9  C   UNL     1     -10.559  10.425  69.633  1.00  0.00    -0.253 C  
BRANCH   9  10
HETATM   10  C   UNL     1     -10.845  11.719  68.839  1.00  0.00    -0.223 C  
BRANCH  10  11
HETATM   11  N   UNL     1     -11.868  11.588  67.789  1.00  0.00    -0.626 NA 
HETATM   12  H   UNL     1     -12.689  12.149  68.020  1.00  0.00     0.000 HD 
BRANCH  11  13
HETATM   13  C   UNL     1     -11.384  11.914  66.415  1.00  0.00    -0.339 C  
BRANCH  13  14
HETATM   14  C   UNL     1     -10.997  13.399  66.244  1.00  0.00    -0.288 C  
HETATM   15  H   UNL     1     -11.408  15.536  64.629  1.00  0.00     0.000 H  
HETATM   16  S   UNL     1     -11.756  14.199  64.784  1.00  0.00    -0.434 SA 
ENDBRANCH  13  14
BRANCH  13  17
HETATM   17  C   UNL     1     -10.183  11.008  66.060  1.00  0.00    -0.252 C  
HETATM   18  O   UNL     1     -10.231   9.792  65.913  1.00  0.00    -0.259 OA 
BRANCH  17  19
HETATM   19  O   UNL     1      -9.053  11.762  65.922  1.00  0.00    -0.205 OA 
BRANCH  19  20
HETATM   20  C   UNL     1      -7.914  11.328  66.676  1.00  0.00    -0.159 C  
HETATM   21  C   UNL     1      -7.249  12.499  67.367  1.00  0.00    -0.146 C  
ENDBRANCH  19  20
ENDBRANCH  17  19
ENDBRANCH  13  17
ENDBRANCH  11  13
ENDBRANCH  10  11
ENDBRANCH   9  10
ENDBRANCH   7   9
ENDBRANCH   6   7
BRANCH   6  22
HETATM   22  C   UNL     1     -13.192   9.445  71.841  1.00  0.00    -0.429 C  
HETATM   23  H   UNL     1     -14.514  11.699  72.583  1.00  0.00     0.000 H  
HETATM   24  S   UNL     1     -13.381  11.261  71.909  1.00  0.00    -0.132 SA 
ENDBRANCH   6  22
ENDBRANCH   4   6
ENDBRANCH   3   4
ENDBRANCH   2   3
TORSDOF 13
ENDMDL
MODEL      274
REMARK 921   NORMALIZED FREE ENERGY PREDICTED BY IDOCK:   -3.36 KCAL/MOL
REMARK 922        TOTAL FREE ENERGY PREDICTED BY IDOCK:   -6.50 KCAL/MOL
REMARK 923 INTER-LIGAND FREE ENERGY PREDICTED BY IDOCK:   -6.09 KCAL/MOL
REMARK 924 INTRA-LIGAND FREE ENERGY PREDICTED BY IDOCK:   -0.41 KCAL/MOL
REMARK 927      BINDING AFFINITY PREDICTED BY RF-SCORE:    0.00 PKD
ROOT
HETATM    1  C   UNL     1     -12.505  12.084  63.273  1.00  0.00    -0.544 C  
HETATM    2  C   UNL     1     -11.157  11.560  63.720  1.00  0.00    -0.390 C  
ENDROOT
BRANCH   2   3
HETATM    3  O   UNL     1     -11.073  11.563  65.154  1.00  0.00    -0.271 OA 
BRANCH   3   4
HETATM    4  C   UNL     1     -10.118  10.753  65.694  1.00  0.00    -0.267 C  
HETATM    5  O   UNL     1      -9.784   9.662  65.250  1.00  0.00    -0.300 OA 
BRANCH   4   6
HETATM    6  C   UNL     1      -9.518  11.429  66.942  1.00  0.00    -0.179 C  
BRANCH   6   7
HETATM    7  N   UNL     1     -10.321  12.632  67.297  1.00  0.00    -0.224 NA 
HETATM    8  H   UNL     1     -10.394  12.723  68.311  1.00  0.00     0.000 HD 
BRANCH   7   9
HETATM    9  C   UNL     1      -9.835  13.882  66.704  1.00  0.00    -0.284 C  
BRANCH   9  10
HETATM   10  C   UNL     1      -8.537  14.406  67.358  1.00  0.00    -0.202 C  
BRANCH  10  11
HETATM   11  N   UNL     1      -8.044  15.685  66.821  1.00  0.00    -0.250 NA 
HETATM   12  H   UNL     1      -8.344  15.804  65.853  1.00  0.00     0.000 HD 
BRANCH  11  13
HETATM   13  C   UNL     1      -8.421  16.878  67.635  1.00  0.00    -0.200 C  
BRANCH  13  14
HETATM   14  C   UNL     1      -7.395  18.028  67.538  1.00  0.00    -0.206 C  
HETATM   15  H   UNL     1      -5.148  18.776  66.222  1.00  0.00     0.000 H  
HETATM   16  S   UNL     1      -6.072  17.740  66.309  1.00  0.00    -0.237 SA 
ENDBRANCH  13  14
BRANCH  13  17
HETATM   17  C   UNL     1      -9.820  17.377  67.207  1.00  0.00    -0.278 C  
HETATM   18  O   UNL     1     -10.855  17.220  67.846  1.00  0.00    -0.369 OA 
BRANCH  17  19
HETATM   19  O   UNL     1      -9.738  18.033  66.013  1.00  0.00    -0.503 OA 
BRANCH  19  20
HETATM   20  C   UNL     1     -10.555  19.204  65.883  1.00  0.00    -0.415 C  
HETATM   21  C   UNL     1     -10.003  20.338  66.720  1.00  0.00    -0.587 C  
ENDBRANCH  19  20
ENDBRANCH  17  19
ENDBRANCH  13  17
ENDBRANCH  11  13
ENDBRANCH  10  11
ENDBRANCH   9  10
ENDBRANCH   7   9
ENDBRANCH   6   7
BRANCH   6  22
HETATM   22  C   UNL     1      -9.353  10.378  68.058  1.00  0.00    -0.140 C  
HETATM   23  H   UNL     1     -10.462   9.523  70.386  1.00  0.00     0.000 H  
HETATM   24  S   UNL     1     -10.610  10.470  69.380  1.00  0.00    -0.246 SA 
ENDBRANCH   6  22
ENDBRANCH   4   6
ENDBRANCH   3   4
ENDBRANCH   2   3
TORSDOF 13
ENDMDL
MODEL      275
REMARK 921   NORMALIZED FREE ENERGY PREDICTED BY IDOCK:   -3.35 KCAL/MOL
REMARK 922        TOTAL FREE ENERGY PREDICTED BY IDOCK:   -6.50 KCAL/MOL
REMARK 923 INTER-LIGAND FREE ENERGY PREDICTED BY IDOCK:   -5.77 KCAL/MOL
REMARK 924 INTRA-LIGAND FREE ENERGY PREDICTED BY IDOCK:   -0.73 KCAL/MOL
REMARK 927      BINDING AFFINITY PREDICTED BY RF-SCORE:    0.00 PKD
ROOT
HETATM    1  C   UNL     1      -7.315   7.944  66.177  1.00  0.00    -0.074 C  
HETATM    2  C   UNL     1      -7.219   8.723  67.472  1.00  0.00    -0.080 C  
ENDROOT
BRANCH   2   3
HETATM    3  O   UNL     1      -8.491   8.741  68.137  1.00  0.00    -0.128 OA 
BRANCH   3   4
HETATM    4  C   UNL     1      -8.486   9.218  69.415  1.00  0.00    -0.137 C  
HETATM    5  O   UNL     1      -7.591   9.888  69.915  1.00  0.00    -0.127 OA 
BRANCH   4   6
HETATM    6  C   UNL     1      -9.784   8.792  70.126  1.00  0.00    -0.172 C  
BRANCH   6   7
HETATM    7  N   UNL     1     -10.459   9.989  70.700  1.00  0.00    -0.385 NA 
HETATM    8  H   UNL     1      -9.841  10.800  70.657  1.00  0.00     0.000 HD 
BRANCH   7   9
HETATM    9  C   UNL     1     -11.757  10.301  70.093  1.00  0.00    -0.284 C  
BRANCH   9  10
HETATM   10  C   UNL     1     -12.226  11.748  70.363  1.00  0.00    -0.330 C  
BRANCH  10  11
HETATM   11  N   UNL     1     -11.402  12.794  69.735  1.00  0.00    -0.495 NA 
HETATM   12  H   UNL     1     -10.618  12.377  69.234  1.00  0.00     0.000 HD 
BRANCH  11  13
HETATM   13  C   UNL     1     -12.160  13.719  68.842  1.00  0.00    -0.313 C  
BRANCH  13  14
HETATM   14  C   UNL     1     -11.758  15.200  69.018  1.00  0.00    -0.335 C  
HETATM   15  H   UNL     1      -9.649  16.774  69.664  1.00  0.00     0.000 H  
HETATM   16  S   UNL     1     -10.011  15.441  69.505  1.00  0.00    -0.252 SA 
ENDBRANCH  13  14
BRANCH  13  17
HETATM   17  C   UNL     1     -11.972  13.290  67.370  1.00  0.00    -0.335 C  
HETATM   18  O   UNL     1     -11.795  12.140  66.983  1.00  0.00    -0.547 OA 
BRANCH  17  19
HETATM   19  O   UNL     1     -12.043  14.380  66.551  1.00  0.00    -0.418 OA 
BRANCH  19  20
HETATM   20  C   UNL     1     -11.075  14.435  65.495  1.00  0.00    -0.326 C  
HETATM   21  C   UNL     1     -10.825  15.867  65.070  1.00  0.00    -0.444 C  
ENDBRANCH  19  20
ENDBRANCH  17  19
ENDBRANCH  13  17
ENDBRANCH  11  13
ENDBRANCH  10  11
ENDBRANCH   9  10
ENDBRANCH   7   9
ENDBRANCH   6   7
BRANCH   6  22
HETATM   22  C   UNL     1     -10.634   7.939  69.163  1.00  0.00    -0.173 C  
HETATM   23  H   UNL     1     -11.765   5.483  68.896  1.00  0.00     0.000 H  
HETATM   24  S   UNL     1     -10.999   6.253  69.764  1.00  0.00    -0.411 SA 
ENDBRANCH   6  22
ENDBRANCH   4   6
ENDBRANCH   3   4
ENDBRANCH   2   3
TORSDOF 13
ENDMDL
MODEL      276
REMARK 921   NORMALIZED FREE ENERGY PREDICTED BY IDOCK:   -3.33 KCAL/MOL
REMARK 922        TOTAL FREE ENERGY PREDICTED BY IDOCK:   -6.45 KCAL/MOL
REMARK 923 INTER-LIGAND FREE ENERGY PREDICTED BY IDOCK:   -5.55 KCAL/MOL
REMARK 924 INTRA-LIGAND FREE ENERGY PREDICTED BY IDOCK:   -0.90 KCAL/MOL
REMARK 927      BINDING AFFINITY PREDICTED BY RF-SCORE:    0.00 PKD
ROOT
HETATM    1  C   UNL     1      -6.340   6.619  71.194  1.00  0.00    -0.041 C  
HETATM    2  C   UNL     1      -7.430   5.880  70.448  1.00  0.00    -0.089 C  
ENDROOT
BRANCH   2   3
HETATM    3  O   UNL     1      -8.638   6.655  70.438  1.00  0.00    -0.139 OA 
BRANCH   3   4
HETATM    4  C   UNL     1      -9.781   5.968  70.148  1.00  0.00    -0.167 C  
HETATM    5  O   UNL     1      -9.918   4.755  70.238  1.00  0.00    -0.222 OA 
BRANCH   4   6
HETATM    6  C   UNL     1     -10.874   6.958  69.700  1.00  0.00    -0.259 C  
BRANCH   6   7
HETATM    7  N   UNL     1     -11.254   6.682  68.287  1.00  0.00    -0.554 NA 
HETATM    8  H   UNL     1     -12.112   7.180  68.047  1.00  0.00     0.000 HD 
BRANCH   7   9
HETATM    9  C   UNL     1     -10.202   6.971  67.308  1.00  0.00    -0.234 C  
BRANCH   9  10
HETATM   10  C   UNL     1     -10.395   8.321  66.582  1.00  0.00    -0.223 C  
BRANCH  10  11
HETATM   11  N   UNL     1      -9.849   9.490  67.291  1.00  0.00    -0.167 NA 
HETATM   12  H   UNL     1      -9.173   9.979  66.704  1.00  0.00     0.000 HD 
BRANCH  11  13
HETATM   13  C   UNL     1     -10.884  10.438  67.798  1.00  0.00    -0.297 C  
BRANCH  13  14
HETATM   14  C   UNL     1     -10.684  10.821  69.281  1.00  0.00    -0.229 C  
HETATM   15  H   UNL     1     -12.064  11.348  71.552  1.00  0.00     0.000 H  
HETATM   16  S   UNL     1     -12.244  11.003  70.217  1.00  0.00    -0.370 SA 
ENDBRANCH  13  14
BRANCH  13  17
HETATM   17  C   UNL     1     -10.898  11.709  66.920  1.00  0.00    -0.278 C  
HETATM   18  O   UNL     1      -9.955  12.123  66.255  1.00  0.00    -0.219 OA 
BRANCH  17  19
HETATM   19  O   UNL     1     -12.125  12.307  66.981  1.00  0.00    -0.575 OA 
BRANCH  19  20
HETATM   20  C   UNL     1     -12.129  13.739  66.911  1.00  0.00    -0.413 C  
HETATM   21  C   UNL     1     -11.652  14.340  68.217  1.00  0.00    -0.358 C  
ENDBRANCH  19  20
ENDBRANCH  17  19
ENDBRANCH  13  17
ENDBRANCH  11  13
ENDBRANCH  10  11
ENDBRANCH   9  10
ENDBRANCH   7   9
ENDBRANCH   6   7
BRANCH   6  22
HETATM   22  C   UNL     1     -12.028   6.935  70.723  1.00  0.00    -0.373 C  
HETATM   23  H   UNL     1     -12.714   7.796  73.207  1.00  0.00     0.000 H  
HETATM   24  S   UNL     1     -11.674   7.816  72.284  1.00  0.00    -0.343 SA 
ENDBRANCH   6  22
ENDBRANCH   4   6
ENDBRANCH   3   4
ENDBRANCH   2   3
TORSDOF 13
ENDMDL
MODEL      277
REMARK 921   NORMALIZED FREE ENERGY PREDICTED BY IDOCK:   -3.32 KCAL/MOL
REMARK 922        TOTAL FREE ENERGY PREDICTED BY IDOCK:   -6.44 KCAL/MOL
REMARK 923 INTER-LIGAND FREE ENERGY PREDICTED BY IDOCK:   -5.81 KCAL/MOL
REMARK 924 INTRA-LIGAND FREE ENERGY PREDICTED BY IDOCK:   -0.64 KCAL/MOL
REMARK 927      BINDING AFFINITY PREDICTED BY RF-SCORE:    0.00 PKD
ROOT
HETATM    1  C   UNL     1     -11.960   6.047  72.082  1.00  0.00    -0.261 C  
HETATM    2  C   UNL     1     -11.430   6.937  70.978  1.00  0.00    -0.314 C  
ENDROOT
BRANCH   2   3
HETATM    3  O   UNL     1     -11.668   6.335  69.697  1.00  0.00    -0.382 OA 
BRANCH   3   4
HETATM    4  C   UNL     1     -10.566   6.145  68.916  1.00  0.00    -0.276 C  
HETATM    5  O   UNL     1      -9.519   5.628  69.285  1.00  0.00    -0.124 OA 
BRANCH   4   6
HETATM    6  C   UNL     1     -10.847   6.673  67.496  1.00  0.00    -0.342 C  
BRANCH   6   7
HETATM    7  N   UNL     1     -11.016   8.152  67.533  1.00  0.00    -0.493 NA 
HETATM    8  H   UNL     1     -11.721   8.411  68.224  1.00  0.00     0.000 HD 
BRANCH   7   9
HETATM    9  C   UNL     1      -9.776   8.899  67.761  1.00  0.00    -0.160 C  
BRANCH   9  10
HETATM   10  C   UNL     1      -9.822   9.793  69.020  1.00  0.00    -0.181 C  
BRANCH  10  11
HETATM   11  N   UNL     1      -9.214  11.124  68.858  1.00  0.00    -0.336 NA 
HETATM   12  H   UNL     1      -8.498  11.103  68.131  1.00  0.00     0.000 HD 
BRANCH  11  13
HETATM   13  C   UNL     1     -10.194  12.219  68.594  1.00  0.00    -0.165 C  
BRANCH  13  14
HETATM   14  C   UNL     1     -10.217  12.670  67.117  1.00  0.00    -0.225 C  
HETATM   15  H   UNL     1      -9.454  14.703  65.497  1.00  0.00     0.000 H  
HETATM   16  S   UNL     1      -9.433  14.297  66.827  1.00  0.00    -0.284 SA 
ENDBRANCH  13  14
BRANCH  13  17
HETATM   17  C   UNL     1     -11.605  11.770  69.034  1.00  0.00    -0.311 C  
HETATM   18  O   UNL     1     -12.391  11.126  68.348  1.00  0.00    -0.556 OA 
BRANCH  17  19
HETATM   19  O   UNL     1     -11.851  12.185  70.311  1.00  0.00    -0.329 OA 
BRANCH  19  20
HETATM   20  C   UNL     1     -12.980  11.583  70.959  1.00  0.00    -0.159 C  
HETATM   21  C   UNL     1     -12.586  10.278  71.619  1.00  0.00    -0.534 C  
ENDBRANCH  19  20
ENDBRANCH  17  19
ENDBRANCH  13  17
ENDBRANCH  11  13
ENDBRANCH  10  11
ENDBRANCH   9  10
ENDBRANCH   7   9
ENDBRANCH   6   7
BRANCH   6  22
HETATM   22  C   UNL     1      -9.761   6.145  66.536  1.00  0.00    -0.145 C  
HETATM   23  H   UNL     1      -9.038   3.949  65.110  1.00  0.00     0.000 H  
HETATM   24  S   UNL     1     -10.015   4.425  65.975  1.00  0.00    -0.231 SA 
ENDBRANCH   6  22
ENDBRANCH   4   6
ENDBRANCH   3   4
ENDBRANCH   2   3
TORSDOF 13
ENDMDL
MODEL      278
REMARK 921   NORMALIZED FREE ENERGY PREDICTED BY IDOCK:   -3.32 KCAL/MOL
REMARK 922        TOTAL FREE ENERGY PREDICTED BY IDOCK:   -6.44 KCAL/MOL
REMARK 923 INTER-LIGAND FREE ENERGY PREDICTED BY IDOCK:   -5.50 KCAL/MOL
REMARK 924 INTRA-LIGAND FREE ENERGY PREDICTED BY IDOCK:   -0.94 KCAL/MOL
REMARK 927      BINDING AFFINITY PREDICTED BY RF-SCORE:    0.00 PKD
ROOT
HETATM    1  C   UNL     1      -9.581   5.459  70.604  1.00  0.00    -0.228 C  
HETATM    2  C   UNL     1     -10.263   6.748  70.198  1.00  0.00    -0.195 C  
ENDROOT
BRANCH   2   3
HETATM    3  O   UNL     1      -9.358   7.574  69.449  1.00  0.00    -0.153 OA 
BRANCH   3   4
HETATM    4  C   UNL     1      -9.923   8.342  68.474  1.00  0.00    -0.190 C  
HETATM    5  O   UNL     1     -10.634   7.923  67.569  1.00  0.00    -0.261 OA 
BRANCH   4   6
HETATM    6  C   UNL     1      -9.537   9.817  68.695  1.00  0.00    -0.151 C  
BRANCH   6   7
HETATM    7  N   UNL     1      -9.894  10.229  70.080  1.00  0.00    -0.420 NA 
HETATM    8  H   UNL     1      -9.448  11.117  70.312  1.00  0.00     0.000 HD 
BRANCH   7   9
HETATM    9  C   UNL     1     -11.336  10.299  70.339  1.00  0.00    -0.332 C  
BRANCH   9  10
HETATM   10  C   UNL     1     -12.029  11.485  69.634  1.00  0.00    -0.339 C  
BRANCH  10  11
HETATM   11  N   UNL     1     -11.477  12.810  69.962  1.00  0.00    -0.524 NA 
HETATM   12  H   UNL     1     -10.637  12.715  70.534  1.00  0.00     0.000 HD 
BRANCH  11  13
HETATM   13  C   UNL     1     -11.206  13.674  68.776  1.00  0.00    -0.279 C  
BRANCH  13  14
HETATM   14  C   UNL     1     -11.854  13.144  67.478  1.00  0.00    -0.360 C  
HETATM   15  H   UNL     1     -11.248  12.385  64.948  1.00  0.00     0.000 H  
HETATM   16  S   UNL     1     -10.665  12.862  66.117  1.00  0.00    -0.276 SA 
ENDBRANCH  13  14
BRANCH  13  17
HETATM   17  C   UNL     1     -11.688  15.113  69.060  1.00  0.00    -0.335 C  
HETATM   18  O   UNL     1     -12.150  15.510  70.124  1.00  0.00    -0.340 OA 
BRANCH  17  19
HETATM   19  O   UNL     1     -11.516  15.893  67.952  1.00  0.00    -0.299 OA 
BRANCH  19  20
HETATM   20  C   UNL     1     -10.298  16.646  67.898  1.00  0.00    -0.310 C  
HETATM   21  C   UNL     1      -9.648  16.518  66.536  1.00  0.00    -0.292 C  
ENDBRANCH  19  20
ENDBRANCH  17  19
ENDBRANCH  13  17
ENDBRANCH  11  13
ENDBRANCH  10  11
ENDBRANCH   9  10
ENDBRANCH   7   9
ENDBRANCH   6   7
BRANCH   6  22
HETATM   22  C   UNL     1      -8.062  10.021  68.292  1.00  0.00    -0.104 C  
HETATM   23  H   UNL     1      -6.425  10.161  66.128  1.00  0.00     0.000 H  
HETATM   24  S   UNL     1      -7.754   9.977  66.492  1.00  0.00    -0.108 SA 
ENDBRANCH   6  22
ENDBRANCH   4   6
ENDBRANCH   3   4
ENDBRANCH   2   3
TORSDOF 13
ENDMDL
MODEL      279
REMARK 921   NORMALIZED FREE ENERGY PREDICTED BY IDOCK:   -3.32 KCAL/MOL
REMARK 922        TOTAL FREE ENERGY PREDICTED BY IDOCK:   -6.43 KCAL/MOL
REMARK 923 INTER-LIGAND FREE ENERGY PREDICTED BY IDOCK:   -5.81 KCAL/MOL
REMARK 924 INTRA-LIGAND FREE ENERGY PREDICTED BY IDOCK:   -0.63 KCAL/MOL
REMARK 927      BINDING AFFINITY PREDICTED BY RF-SCORE:    0.00 PKD
ROOT
HETATM    1  C   UNL     1     -10.446  19.080  66.451  1.00  0.00    -0.524 C  
HETATM    2  C   UNL     1      -9.860  20.380  66.960  1.00  0.00    -0.453 C  
ENDROOT
BRANCH   2   3
HETATM    3  O   UNL     1      -8.856  20.118  67.952  1.00  0.00    -0.294 OA 
BRANCH   3   4
HETATM    4  C   UNL     1      -7.732  19.486  67.506  1.00  0.00    -0.261 C  
HETATM    5  O   UNL     1      -7.048  19.847  66.557  1.00  0.00    -0.223 OA 
BRANCH   4   6
HETATM    6  C   UNL     1      -7.452  18.255  68.389  1.00  0.00    -0.281 C  
BRANCH   6   7
HETATM    7  N   UNL     1      -7.467  17.023  67.555  1.00  0.00    -0.158 NA 
HETATM    8  H   UNL     1      -6.749  17.074  66.832  1.00  0.00     0.000 HD 
BRANCH   7   9
HETATM    9  C   UNL     1      -7.341  15.774  68.314  1.00  0.00    -0.119 C  
BRANCH   9  10
HETATM   10  C   UNL     1      -8.227  14.633  67.768  1.00  0.00    -0.162 C  
BRANCH  10  11
HETATM   11  N   UNL     1      -9.060  13.958  68.776  1.00  0.00    -0.376 NA 
HETATM   12  H   UNL     1      -9.508  14.644  69.385  1.00  0.00     0.000 HD 
BRANCH  11  13
HETATM   13  C   UNL     1     -10.076  13.024  68.208  1.00  0.00    -0.239 C  
BRANCH  13  14
HETATM   14  C   UNL     1      -9.758  11.538  68.486  1.00  0.00    -0.189 C  
HETATM   15  H   UNL     1      -9.211   9.203  67.226  1.00  0.00     0.000 H  
HETATM   16  S   UNL     1      -9.497  10.541  66.976  1.00  0.00    -0.165 SA 
ENDBRANCH  13  14
BRANCH  13  17
HETATM   17  C   UNL     1     -11.475  13.380  68.759  1.00  0.00    -0.305 C  
HETATM   18  O   UNL     1     -11.742  13.583  69.938  1.00  0.00    -0.292 OA 
BRANCH  17  19
HETATM   19  O   UNL     1     -12.378  13.447  67.737  1.00  0.00    -0.219 OA 
BRANCH  19  20
HETATM   20  C   UNL     1     -12.036  14.325  66.655  1.00  0.00    -0.420 C  
HETATM   21  C   UNL     1     -12.703  13.878  65.371  1.00  0.00    -0.525 C  
ENDBRANCH  19  20
ENDBRANCH  17  19
ENDBRANCH  13  17
ENDBRANCH  11  13
ENDBRANCH  10  11
ENDBRANCH   9  10
ENDBRANCH   7   9
ENDBRANCH   6   7
BRANCH   6  22
HETATM   22  C   UNL     1      -6.166  18.498  69.205  1.00  0.00    -0.256 C  
HETATM   23  H   UNL     1      -4.954  20.323  70.812  1.00  0.00     0.000 H  
HETATM   24  S   UNL     1      -6.112  20.103  70.076  1.00  0.00    -0.342 SA 
ENDBRANCH   6  22
ENDBRANCH   4   6
ENDBRANCH   3   4
ENDBRANCH   2   3
TORSDOF 13
ENDMDL
MODEL      280
REMARK 921   NORMALIZED FREE ENERGY PREDICTED BY IDOCK:   -3.32 KCAL/MOL
REMARK 922        TOTAL FREE ENERGY PREDICTED BY IDOCK:   -6.43 KCAL/MOL
REMARK 923 INTER-LIGAND FREE ENERGY PREDICTED BY IDOCK:   -5.95 KCAL/MOL
REMARK 924 INTRA-LIGAND FREE ENERGY PREDICTED BY IDOCK:   -0.49 KCAL/MOL
REMARK 927      BINDING AFFINITY PREDICTED BY RF-SCORE:    0.00 PKD
ROOT
HETATM    1  C   UNL     1      -8.409  16.587  66.166  1.00  0.00    -0.305 C  
HETATM    2  C   UNL     1      -9.312  15.373  66.178  1.00  0.00    -0.332 C  
ENDROOT
BRANCH   2   3
HETATM    3  O   UNL     1     -10.630  15.737  66.616  1.00  0.00    -0.306 OA 
BRANCH   3   4
HETATM    4  C   UNL     1     -11.201  14.907  67.535  1.00  0.00    -0.328 C  
HETATM    5  O   UNL     1     -11.966  15.258  68.425  1.00  0.00    -0.303 OA 
BRANCH   4   6
HETATM    6  C   UNL     1     -10.743  13.459  67.273  1.00  0.00    -0.260 C  
BRANCH   6   7
HETATM    7  N   UNL     1     -10.783  12.681  68.541  1.00  0.00    -0.243 NA 
HETATM    8  H   UNL     1     -11.029  13.289  69.323  1.00  0.00     0.000 HD 
BRANCH   7   9
HETATM    9  C   UNL     1     -11.665  11.510  68.506  1.00  0.00    -0.313 C  
BRANCH   9  10
HETATM   10  C   UNL     1     -12.101  11.030  69.908  1.00  0.00    -0.361 C  
BRANCH  10  11
HETATM   11  N   UNL     1     -11.117  10.190  70.610  1.00  0.00    -0.323 NA 
HETATM   12  H   UNL     1     -11.382  10.071  71.588  1.00  0.00     0.000 HD 
BRANCH  11  13
HETATM   13  C   UNL     1     -10.874   8.864  69.970  1.00  0.00    -0.227 C  
BRANCH  13  14
HETATM   14  C   UNL     1      -9.451   8.722  69.386  1.00  0.00    -0.161 C  
HETATM   15  H   UNL     1      -6.862   9.322  69.911  1.00  0.00     0.000 H  
HETATM   16  S   UNL     1      -8.143   9.449  70.437  1.00  0.00    -0.179 SA 
ENDBRANCH  13  14
BRANCH  13  17
HETATM   17  C   UNL     1     -11.143   7.737  70.992  1.00  0.00    -0.257 C  
HETATM   18  O   UNL     1     -11.291   6.551  70.718  1.00  0.00    -0.299 OA 
BRANCH  17  19
HETATM   19  O   UNL     1     -11.182   8.251  72.256  1.00  0.00    -0.321 OA 
BRANCH  19  20
HETATM   20  C   UNL     1     -10.691   7.396  73.297  1.00  0.00    -0.391 C  
HETATM   21  C   UNL     1      -9.218   7.645  73.545  1.00  0.00    -0.331 C  
ENDBRANCH  19  20
ENDBRANCH  17  19
ENDBRANCH  13  17
ENDBRANCH  11  13
ENDBRANCH  10  11
ENDBRANCH   9  10
ENDBRANCH   7   9
ENDBRANCH   6   7
BRANCH   6  22
HETATM   22  C   UNL     1     -11.557  12.875  66.100  1.00  0.00    -0.372 C  
HETATM   23  H   UNL     1     -11.312  11.996  63.541  1.00  0.00     0.000 H  
HETATM   24  S   UNL     1     -10.579  12.522  64.598  1.00  0.00    -0.335 SA 
ENDBRANCH   6  22
ENDBRANCH   4   6
ENDBRANCH   3   4
ENDBRANCH   2   3
TORSDOF 13
ENDMDL
MODEL      281
REMARK 921   NORMALIZED FREE ENERGY PREDICTED BY IDOCK:   -3.31 KCAL/MOL
REMARK 922        TOTAL FREE ENERGY PREDICTED BY IDOCK:   -6.41 KCAL/MOL
REMARK 923 INTER-LIGAND FREE ENERGY PREDICTED BY IDOCK:   -5.41 KCAL/MOL
REMARK 924 INTRA-LIGAND FREE ENERGY PREDICTED BY IDOCK:   -1.00 KCAL/MOL
REMARK 927      BINDING AFFINITY PREDICTED BY RF-SCORE:    0.00 PKD
ROOT
HETATM    1  C   UNL     1     -13.555  13.853  72.337  1.00  0.00    -0.676 C  
HETATM    2  C   UNL     1     -12.746  12.828  71.571  1.00  0.00    -0.229 C  
ENDROOT
BRANCH   2   3
HETATM    3  O   UNL     1     -12.326  13.367  70.309  1.00  0.00    -0.323 OA 
BRANCH   3   4
HETATM    4  C   UNL     1     -11.916  12.455  69.381  1.00  0.00    -0.260 C  
HETATM    5  O   UNL     1     -11.836  11.247  69.566  1.00  0.00    -0.297 OA 
BRANCH   4   6
HETATM    6  C   UNL     1     -11.579  13.180  68.064  1.00  0.00    -0.334 C  
BRANCH   6   7
HETATM    7  N   UNL     1     -12.235  12.483  66.924  1.00  0.00    -0.456 NA 
HETATM    8  H   UNL     1     -13.250  12.536  67.012  1.00  0.00     0.000 HD 
BRANCH   7   9
HETATM    9  C   UNL     1     -11.811  12.952  65.601  1.00  0.00    -0.417 C  
BRANCH   9  10
HETATM   10  C   UNL     1     -10.277  12.952  65.414  1.00  0.00    -0.287 C  
BRANCH  10  11
HETATM   11  N   UNL     1      -9.736  11.766  64.729  1.00  0.00    -0.378 NA 
HETATM   12  H   UNL     1      -9.415  12.011  63.793  1.00  0.00     0.000 HD 
BRANCH  11  13
HETATM   13  C   UNL     1      -8.659  11.060  65.483  1.00  0.00    -0.102 C  
BRANCH  13  14
HETATM   14  C   UNL     1      -9.105  10.592  66.886  1.00  0.00    -0.155 C  
HETATM   15  H   UNL     1     -10.799   8.878  68.123  1.00  0.00     0.000 H  
HETATM   16  S   UNL     1     -10.397   9.299  66.860  1.00  0.00    -0.223 SA 
ENDBRANCH  13  14
BRANCH  13  17
HETATM   17  C   UNL     1      -8.151   9.856  64.659  1.00  0.00    -0.152 C  
HETATM   18  O   UNL     1      -8.740   9.345  63.713  1.00  0.00    -0.211 OA 
BRANCH  17  19
HETATM   19  O   UNL     1      -6.938   9.444  65.130  1.00  0.00    -0.087 OA 
BRANCH  19  20
HETATM   20  C   UNL     1      -5.863  10.383  65.002  1.00  0.00    -0.134 C  
HETATM   21  C   UNL     1      -5.207  10.267  63.643  1.00  0.00    -0.129 C  
ENDBRANCH  19  20
ENDBRANCH  17  19
ENDBRANCH  13  17
ENDBRANCH  11  13
ENDBRANCH  10  11
ENDBRANCH   9  10
ENDBRANCH   7   9
ENDBRANCH   6   7
BRANCH   6  22
HETATM   22  C   UNL     1     -11.906  14.680  68.213  1.00  0.00    -0.298 C  
HETATM   23  H   UNL     1     -10.738  17.124  68.417  1.00  0.00     0.000 H  
HETATM   24  S   UNL     1     -10.444  15.772  68.283  1.00  0.00    -0.268 SA 
ENDBRANCH   6  22
ENDBRANCH   4   6
ENDBRANCH   3   4
ENDBRANCH   2   3
TORSDOF 13
ENDMDL
MODEL      282
REMARK 921   NORMALIZED FREE ENERGY PREDICTED BY IDOCK:   -3.30 KCAL/MOL
REMARK 922        TOTAL FREE ENERGY PREDICTED BY IDOCK:   -6.40 KCAL/MOL
REMARK 923 INTER-LIGAND FREE ENERGY PREDICTED BY IDOCK:   -6.01 KCAL/MOL
REMARK 924 INTRA-LIGAND FREE ENERGY PREDICTED BY IDOCK:   -0.40 KCAL/MOL
REMARK 927      BINDING AFFINITY PREDICTED BY RF-SCORE:    0.00 PKD
ROOT
HETATM    1  C   UNL     1     -10.884  19.435  67.095  1.00  0.00    -0.561 C  
HETATM    2  C   UNL     1      -9.531  20.092  66.924  1.00  0.00    -0.412 C  
ENDROOT
BRANCH   2   3
HETATM    3  O   UNL     1      -8.510  19.299  67.550  1.00  0.00    -0.282 OA 
BRANCH   3   4
HETATM    4  C   UNL     1      -8.192  18.135  66.916  1.00  0.00    -0.243 C  
HETATM    5  O   UNL     1      -7.704  18.050  65.796  1.00  0.00    -0.532 OA 
BRANCH   4   6
HETATM    6  C   UNL     1      -8.531  16.943  67.832  1.00  0.00    -0.203 C  
BRANCH   6   7
HETATM    7  N   UNL     1      -8.452  15.674  67.058  1.00  0.00    -0.205 NA 
HETATM    8  H   UNL     1      -7.817  15.781  66.265  1.00  0.00     0.000 HD 
BRANCH   7   9
HETATM    9  C   UNL     1      -8.083  14.500  67.854  1.00  0.00    -0.148 C  
BRANCH   9  10
HETATM   10  C   UNL     1      -8.971  13.267  67.575  1.00  0.00    -0.208 C  
BRANCH  10  11
HETATM   11  N   UNL     1      -9.822  13.374  66.379  1.00  0.00    -0.291 NA 
HETATM   12  H   UNL     1      -9.251  13.530  65.548  1.00  0.00     0.000 HD 
BRANCH  11  13
HETATM   13  C   UNL     1     -10.739  12.214  66.172  1.00  0.00    -0.272 C  
BRANCH  13  14
HETATM   14  C   UNL     1     -11.593  11.886  67.416  1.00  0.00    -0.297 C  
HETATM   15  H   UNL     1     -11.747  10.165  69.503  1.00  0.00     0.000 H  
HETATM   16  S   UNL     1     -10.978  10.461  68.383  1.00  0.00    -0.266 SA 
ENDBRANCH  13  14
BRANCH  13  17
HETATM   17  C   UNL     1     -11.653  12.485  64.957  1.00  0.00    -0.349 C  
HETATM   18  O   UNL     1     -12.402  13.447  64.833  1.00  0.00    -0.390 OA 
BRANCH  17  19
HETATM   19  O   UNL     1     -11.500  11.498  64.026  1.00  0.00    -0.350 OA 
BRANCH  19  20
HETATM   20  C   UNL     1     -10.252  10.792  64.060  1.00  0.00    -0.322 C  
HETATM   21  C   UNL     1      -9.320  11.299  62.980  1.00  0.00    -0.359 C  
ENDBRANCH  19  20
ENDBRANCH  17  19
ENDBRANCH  13  17
ENDBRANCH  11  13
ENDBRANCH  10  11
ENDBRANCH   9  10
ENDBRANCH   7   9
ENDBRANCH   6   7
BRANCH   6  22
HETATM   22  C   UNL     1      -7.654  17.013  69.099  1.00  0.00    -0.140 C  
HETATM   23  H   UNL     1      -5.111  17.486  69.929  1.00  0.00     0.000 H  
HETATM   24  S   UNL     1      -5.901  17.423  68.788  1.00  0.00    -0.179 SA 
ENDBRANCH   6  22
ENDBRANCH   4   6
ENDBRANCH   3   4
ENDBRANCH   2   3
TORSDOF 13
ENDMDL
MODEL      283
REMARK 921   NORMALIZED FREE ENERGY PREDICTED BY IDOCK:   -3.29 KCAL/MOL
REMARK 922        TOTAL FREE ENERGY PREDICTED BY IDOCK:   -6.39 KCAL/MOL
REMARK 923 INTER-LIGAND FREE ENERGY PREDICTED BY IDOCK:   -5.04 KCAL/MOL
REMARK 924 INTRA-LIGAND FREE ENERGY PREDICTED BY IDOCK:   -1.35 KCAL/MOL
REMARK 927      BINDING AFFINITY PREDICTED BY RF-SCORE:    0.00 PKD
ROOT
HETATM    1  C   UNL     1      -8.879  12.587  68.102  1.00  0.00    -0.191 C  
HETATM    2  C   UNL     1      -9.588  12.158  66.835  1.00  0.00    -0.206 C  
ENDROOT
BRANCH   2   3
HETATM    3  O   UNL     1      -9.963  10.775  66.919  1.00  0.00    -0.188 OA 
BRANCH   3   4
HETATM    4  C   UNL     1      -8.961   9.874  66.711  1.00  0.00    -0.138 C  
HETATM    5  O   UNL     1      -8.050  10.005  65.903  1.00  0.00    -0.118 OA 
BRANCH   4   6
HETATM    6  C   UNL     1      -9.148   8.671  67.655  1.00  0.00    -0.134 C  
BRANCH   6   7
HETATM    7  N   UNL     1      -8.658   9.020  69.017  1.00  0.00    -0.132 NA 
HETATM    8  H   UNL     1      -9.360   9.564  69.519  1.00  0.00     0.000 HD 
BRANCH   7   9
HETATM    9  C   UNL     1      -8.231   7.870  69.820  1.00  0.00    -0.121 C  
BRANCH   9  10
HETATM   10  C   UNL     1      -8.053   8.202  71.319  1.00  0.00    -0.107 C  
BRANCH  10  11
HETATM   11  N   UNL     1      -9.159   8.965  71.921  1.00  0.00    -0.378 NA 
HETATM   12  H   UNL     1      -9.171   9.920  71.562  1.00  0.00     0.000 HD 
BRANCH  11  13
HETATM   13  C   UNL     1     -10.501   8.330  71.759  1.00  0.00    -0.259 C  
BRANCH  13  14
HETATM   14  C   UNL     1     -10.933   7.503  72.990  1.00  0.00    -0.390 C  
HETATM   15  H   UNL     1     -11.694   5.008  73.721  1.00  0.00     0.000 H  
HETATM   16  S   UNL     1     -11.304   5.753  72.613  1.00  0.00    -0.277 SA 
ENDBRANCH  13  14
BRANCH  13  17
HETATM   17  C   UNL     1     -11.555   9.417  71.453  1.00  0.00    -0.381 C  
HETATM   18  O   UNL     1     -12.673   9.482  71.951  1.00  0.00    -0.364 OA 
BRANCH  17  19
HETATM   19  O   UNL     1     -11.058  10.310  70.548  1.00  0.00    -0.302 OA 
BRANCH  19  20
HETATM   20  C   UNL     1     -12.030  11.033  69.780  1.00  0.00    -0.356 C  
HETATM   21  C   UNL     1     -12.019  12.502  70.147  1.00  0.00    -0.377 C  
ENDBRANCH  19  20
ENDBRANCH  17  19
ENDBRANCH  13  17
ENDBRANCH  11  13
ENDBRANCH  10  11
ENDBRANCH   9  10
ENDBRANCH   7   9
ENDBRANCH   6   7
BRANCH   6  22
HETATM   22  C   UNL     1     -10.609   8.183  67.571  1.00  0.00    -0.221 C  
HETATM   23  H   UNL     1     -12.110   5.973  67.078  1.00  0.00     0.000 H  
HETATM   24  S   UNL     1     -10.794   6.414  67.154  1.00  0.00    -0.398 SA 
ENDBRANCH   6  22
ENDBRANCH   4   6
ENDBRANCH   3   4
ENDBRANCH   2   3
TORSDOF 13
ENDMDL
MODEL      284
REMARK 921   NORMALIZED FREE ENERGY PREDICTED BY IDOCK:   -3.28 KCAL/MOL
REMARK 922        TOTAL FREE ENERGY PREDICTED BY IDOCK:   -6.37 KCAL/MOL
REMARK 923 INTER-LIGAND FREE ENERGY PREDICTED BY IDOCK:   -5.92 KCAL/MOL
REMARK 924 INTRA-LIGAND FREE ENERGY PREDICTED BY IDOCK:   -0.45 KCAL/MOL
REMARK 927      BINDING AFFINITY PREDICTED BY RF-SCORE:    0.00 PKD
ROOT
HETATM    1  C   UNL     1      -9.345   4.151  64.990  1.00  0.00    -0.165 C  
HETATM    2  C   UNL     1      -9.662   3.761  66.417  1.00  0.00    -0.122 C  
ENDROOT
BRANCH   2   3
HETATM    3  O   UNL     1     -10.409   4.803  67.063  1.00  0.00    -0.195 OA 
BRANCH   3   4
HETATM    4  C   UNL     1     -10.057   5.074  68.352  1.00  0.00    -0.107 C  
HETATM    5  O   UNL     1      -9.405   4.333  69.077  1.00  0.00    -0.133 OA 
BRANCH   4   6
HETATM    6  C   UNL     1     -10.597   6.461  68.751  1.00  0.00    -0.251 C  
BRANCH   6   7
HETATM    7  N   UNL     1     -11.279   7.089  67.586  1.00  0.00    -0.567 NA 
HETATM    8  H   UNL     1     -12.217   7.394  67.846  1.00  0.00     0.000 HD 
BRANCH   7   9
HETATM    9  C   UNL     1     -10.534   8.192  66.971  1.00  0.00    -0.326 C  
BRANCH   9  10
HETATM   10  C   UNL     1     -10.453   9.450  67.865  1.00  0.00    -0.243 C  
BRANCH  10  11
HETATM   11  N   UNL     1     -11.596  10.370  67.745  1.00  0.00    -0.653 NA 
HETATM   12  H   UNL     1     -12.089  10.445  68.635  1.00  0.00     0.000 HD 
BRANCH  11  13
HETATM   13  C   UNL     1     -11.241  11.726  67.230  1.00  0.00    -0.305 C  
BRANCH  13  14
HETATM   14  C   UNL     1     -10.565  12.621  68.292  1.00  0.00    -0.237 C  
HETATM   15  H   UNL     1     -10.818  15.014  69.537  1.00  0.00     0.000 H  
HETATM   16  S   UNL     1     -11.426  14.208  68.581  1.00  0.00    -0.322 SA 
ENDBRANCH  13  14
BRANCH  13  17
HETATM   17  C   UNL     1     -10.327  11.588  65.992  1.00  0.00    -0.246 C  
HETATM   18  O   UNL     1      -9.102  11.532  66.017  1.00  0.00    -0.209 OA 
BRANCH  17  19
HETATM   19  O   UNL     1     -11.082  11.527  64.857  1.00  0.00    -0.284 OA 
BRANCH  19  20
HETATM   20  C   UNL     1     -12.244  12.367  64.829  1.00  0.00    -0.423 C  
HETATM   21  C   UNL     1     -12.248  13.236  63.589  1.00  0.00    -0.522 C  
ENDBRANCH  19  20
ENDBRANCH  17  19
ENDBRANCH  13  17
ENDBRANCH  11  13
ENDBRANCH  10  11
ENDBRANCH   9  10
ENDBRANCH   7   9
ENDBRANCH   6   7
BRANCH   6  22
HETATM   22  C   UNL     1     -11.445   6.325  70.033  1.00  0.00    -0.390 C  
HETATM   23  H   UNL     1     -11.582   7.155  72.616  1.00  0.00     0.000 H  
HETATM   24  S   UNL     1     -10.819   7.277  71.461  1.00  0.00    -0.225 SA 
ENDBRANCH   6  22
ENDBRANCH   4   6
ENDBRANCH   3   4
ENDBRANCH   2   3
TORSDOF 13
ENDMDL
MODEL      285
REMARK 921   NORMALIZED FREE ENERGY PREDICTED BY IDOCK:   -3.28 KCAL/MOL
REMARK 922        TOTAL FREE ENERGY PREDICTED BY IDOCK:   -6.37 KCAL/MOL
REMARK 923 INTER-LIGAND FREE ENERGY PREDICTED BY IDOCK:   -5.74 KCAL/MOL
REMARK 924 INTRA-LIGAND FREE ENERGY PREDICTED BY IDOCK:   -0.63 KCAL/MOL
REMARK 927      BINDING AFFINITY PREDICTED BY RF-SCORE:    0.00 PKD
ROOT
HETATM    1  C   UNL     1      -9.287   7.107  69.104  1.00  0.00    -0.141 C  
HETATM    2  C   UNL     1     -10.446   6.769  70.016  1.00  0.00    -0.210 C  
ENDROOT
BRANCH   2   3
HETATM    3  O   UNL     1     -11.311   7.905  70.163  1.00  0.00    -0.214 OA 
BRANCH   3   4
HETATM    4  C   UNL     1     -11.220   8.570  71.351  1.00  0.00    -0.266 C  
HETATM    5  O   UNL     1     -10.529   8.226  72.301  1.00  0.00    -0.269 OA 
BRANCH   4   6
HETATM    6  C   UNL     1     -12.114   9.825  71.306  1.00  0.00    -0.382 C  
BRANCH   6   7
HETATM    7  N   UNL     1     -12.393  10.194  69.891  1.00  0.00    -0.509 NA 
HETATM    8  H   UNL     1     -13.393  10.135  69.700  1.00  0.00     0.000 HD 
BRANCH   7   9
HETATM    9  C   UNL     1     -11.871  11.505  69.493  1.00  0.00    -0.351 C  
BRANCH   9  10
HETATM   10  C   UNL     1     -10.408  11.458  69.000  1.00  0.00    -0.142 C  
BRANCH  10  11
HETATM   11  N   UNL     1     -10.247  11.416  67.537  1.00  0.00    -0.182 NA 
HETATM   12  H   UNL     1     -11.134  11.188  67.088  1.00  0.00     0.000 HD 
BRANCH  11  13
HETATM   13  C   UNL     1      -9.666  12.658  66.948  1.00  0.00    -0.234 C  
BRANCH  13  14
HETATM   14  C   UNL     1      -8.122  12.679  66.975  1.00  0.00    -0.085 C  
HETATM   15  H   UNL     1      -6.027  14.018  68.049  1.00  0.00     0.000 H  
HETATM   16  S   UNL     1      -7.417  13.999  68.025  1.00  0.00    -0.162 SA 
ENDBRANCH  13  14
BRANCH  13  17
HETATM   17  C   UNL     1     -10.174  12.832  65.499  1.00  0.00    -0.279 C  
HETATM   18  O   UNL     1     -10.217  13.892  64.885  1.00  0.00    -0.395 OA 
BRANCH  17  19
HETATM   19  O   UNL     1     -10.562  11.626  64.991  1.00  0.00    -0.268 OA 
BRANCH  19  20
HETATM   20  C   UNL     1     -10.604  11.532  63.561  1.00  0.00    -0.423 C  
HETATM   21  C   UNL     1      -9.223  11.266  63.000  1.00  0.00    -0.310 C  
ENDBRANCH  19  20
ENDBRANCH  17  19
ENDBRANCH  13  17
ENDBRANCH  11  13
ENDBRANCH  10  11
ENDBRANCH   9  10
ENDBRANCH   7   9
ENDBRANCH   6   7
BRANCH   6  22
HETATM   22  C   UNL     1     -13.351   9.597  72.198  1.00  0.00    -0.454 C  
HETATM   23  H   UNL     1     -15.511   7.978  72.504  1.00  0.00     0.000 H  
HETATM   24  S   UNL     1     -14.396   8.183  71.701  1.00  0.00    -0.463 SA 
ENDBRANCH   6  22
ENDBRANCH   4   6
ENDBRANCH   3   4
ENDBRANCH   2   3
TORSDOF 13
ENDMDL
MODEL      286
REMARK 921   NORMALIZED FREE ENERGY PREDICTED BY IDOCK:   -3.28 KCAL/MOL
REMARK 922        TOTAL FREE ENERGY PREDICTED BY IDOCK:   -6.36 KCAL/MOL
REMARK 923 INTER-LIGAND FREE ENERGY PREDICTED BY IDOCK:   -5.56 KCAL/MOL
REMARK 924 INTRA-LIGAND FREE ENERGY PREDICTED BY IDOCK:   -0.80 KCAL/MOL
REMARK 927      BINDING AFFINITY PREDICTED BY RF-SCORE:    0.00 PKD
ROOT
HETATM    1  C   UNL     1      -7.032   7.299  68.519  1.00  0.00    -0.079 C  
HETATM    2  C   UNL     1      -8.336   6.539  68.409  1.00  0.00    -0.117 C  
ENDROOT
BRANCH   2   3
HETATM    3  O   UNL     1      -9.141   6.761  69.577  1.00  0.00    -0.141 OA 
BRANCH   3   4
HETATM    4  C   UNL     1      -9.952   7.856  69.539  1.00  0.00    -0.189 C  
HETATM    5  O   UNL     1     -10.642   8.192  68.584  1.00  0.00    -0.193 OA 
BRANCH   4   6
HETATM    6  C   UNL     1      -9.875   8.599  70.887  1.00  0.00    -0.205 C  
BRANCH   6   7
HETATM    7  N   UNL     1     -10.308  10.011  70.709  1.00  0.00    -0.368 NA 
HETATM    8  H   UNL     1     -10.086  10.335  69.767  1.00  0.00     0.000 HD 
BRANCH   7   9
HETATM    9  C   UNL     1     -11.722  10.255  71.014  1.00  0.00    -0.370 C  
BRANCH   9  10
HETATM   10  C   UNL     1     -12.388  11.271  70.059  1.00  0.00    -0.257 C  
BRANCH  10  11
HETATM   11  N   UNL     1     -12.071  11.082  68.634  1.00  0.00    -0.748 NA 
HETATM   12  H   UNL     1     -12.805  10.542  68.174  1.00  0.00     0.000 HD 
BRANCH  11  13
HETATM   13  C   UNL     1     -11.812  12.349  67.889  1.00  0.00    -0.308 C  
BRANCH  13  14
HETATM   14  C   UNL     1     -10.682  13.199  68.512  1.00  0.00    -0.259 C  
HETATM   15  H   UNL     1     -10.140  15.699  69.404  1.00  0.00     0.000 H  
HETATM   16  S   UNL     1     -11.157  14.934  68.844  1.00  0.00    -0.272 SA 
ENDBRANCH  13  14
BRANCH  13  17
HETATM   17  C   UNL     1     -11.482  12.027  66.415  1.00  0.00    -0.353 C  
HETATM   18  O   UNL     1     -11.756  12.739  65.455  1.00  0.00    -0.346 OA 
BRANCH  17  19
HETATM   19  O   UNL     1     -10.827  10.832  66.331  1.00  0.00    -0.204 OA 
BRANCH  19  20
HETATM   20  C   UNL     1      -9.890  10.704  65.254  1.00  0.00    -0.275 C  
HETATM   21  C   UNL     1      -9.109   9.412  65.373  1.00  0.00    -0.280 C  
ENDBRANCH  19  20
ENDBRANCH  17  19
ENDBRANCH  13  17
ENDBRANCH  11  13
ENDBRANCH  10  11
ENDBRANCH   9  10
ENDBRANCH   7   9
ENDBRANCH   6   7
BRANCH   6  22
HETATM   22  C   UNL     1     -10.641   7.790  71.955  1.00  0.00    -0.223 C  
HETATM   23  H   UNL     1     -12.759   6.121  72.277  1.00  0.00     0.000 H  
HETATM   24  S   UNL     1     -12.069   6.849  71.315  1.00  0.00    -0.380 SA 
ENDBRANCH   6  22
ENDBRANCH   4   6
ENDBRANCH   3   4
ENDBRANCH   2   3
TORSDOF 13
ENDMDL
MODEL      287
REMARK 921   NORMALIZED FREE ENERGY PREDICTED BY IDOCK:   -3.27 KCAL/MOL
REMARK 922        TOTAL FREE ENERGY PREDICTED BY IDOCK:   -6.35 KCAL/MOL
REMARK 923 INTER-LIGAND FREE ENERGY PREDICTED BY IDOCK:   -5.53 KCAL/MOL
REMARK 924 INTRA-LIGAND FREE ENERGY PREDICTED BY IDOCK:   -0.82 KCAL/MOL
REMARK 927      BINDING AFFINITY PREDICTED BY RF-SCORE:    0.00 PKD
ROOT
HETATM    1  C   UNL     1     -10.559  11.992  63.367  1.00  0.00    -0.478 C  
HETATM    2  C   UNL     1     -10.889  11.720  64.819  1.00  0.00    -0.302 C  
ENDROOT
BRANCH   2   3
HETATM    3  O   UNL     1     -10.375  10.439  65.215  1.00  0.00    -0.284 OA 
BRANCH   3   4
HETATM    4  C   UNL     1      -9.404  10.459  66.172  1.00  0.00    -0.172 C  
HETATM    5  O   UNL     1      -8.945  11.468  66.692  1.00  0.00    -0.174 OA 
BRANCH   4   6
HETATM    6  C   UNL     1      -8.982   9.015  66.504  1.00  0.00    -0.146 C  
BRANCH   6   7
HETATM    7  N   UNL     1     -10.103   8.082  66.207  1.00  0.00    -0.481 NA 
HETATM    8  H   UNL     1      -9.781   7.316  65.615  1.00  0.00     0.000 HD 
BRANCH   7   9
HETATM    9  C   UNL     1     -10.786   7.557  67.394  1.00  0.00    -0.261 C  
BRANCH   9  10
HETATM   10  C   UNL     1      -9.900   7.558  68.660  1.00  0.00    -0.165 C  
BRANCH  10  11
HETATM   11  N   UNL     1     -10.375   8.428  69.748  1.00  0.00    -0.212 NA 
HETATM   12  H   UNL     1     -11.157   9.001  69.432  1.00  0.00     0.000 HD 
BRANCH  11  13
HETATM   13  C   UNL     1     -10.732   7.702  71.003  1.00  0.00    -0.228 C  
BRANCH  13  14
HETATM   14  C   UNL     1      -9.759   7.986  72.168  1.00  0.00    -0.221 C  
HETATM   15  H   UNL     1      -9.059   7.091  74.627  1.00  0.00     0.000 H  
HETATM   16  S   UNL     1      -9.935   6.835  73.578  1.00  0.00    -0.276 SA 
ENDBRANCH  13  14
BRANCH  13  17
HETATM   17  C   UNL     1     -12.176   8.063  71.417  1.00  0.00    -0.309 C  
HETATM   18  O   UNL     1     -13.172   7.386  71.184  1.00  0.00    -0.306 OA 
BRANCH  17  19
HETATM   19  O   UNL     1     -12.187   9.248  72.096  1.00  0.00    -0.359 OA 
BRANCH  19  20
HETATM   20  C   UNL     1     -13.088  10.247  71.601  1.00  0.00    -0.449 C  
HETATM   21  C   UNL     1     -12.360  11.231  70.710  1.00  0.00    -0.495 C  
ENDBRANCH  19  20
ENDBRANCH  17  19
ENDBRANCH  13  17
ENDBRANCH  11  13
ENDBRANCH  10  11
ENDBRANCH   9  10
ENDBRANCH   7   9
ENDBRANCH   6   7
BRANCH   6  22
HETATM   22  C   UNL     1      -7.644   8.703  65.801  1.00  0.00    -0.089 C  
HETATM   23  H   UNL     1      -6.609   7.626  63.533  1.00  0.00     0.000 H  
HETATM   24  S   UNL     1      -7.813   7.907  64.166  1.00  0.00    -0.124 SA 
ENDBRANCH   6  22
ENDBRANCH   4   6
ENDBRANCH   3   4
ENDBRANCH   2   3
TORSDOF 13
ENDMDL
MODEL      288
REMARK 921   NORMALIZED FREE ENERGY PREDICTED BY IDOCK:   -3.27 KCAL/MOL
REMARK 922        TOTAL FREE ENERGY PREDICTED BY IDOCK:   -6.34 KCAL/MOL
REMARK 923 INTER-LIGAND FREE ENERGY PREDICTED BY IDOCK:   -5.21 KCAL/MOL
REMARK 924 INTRA-LIGAND FREE ENERGY PREDICTED BY IDOCK:   -1.13 KCAL/MOL
REMARK 927      BINDING AFFINITY PREDICTED BY RF-SCORE:    0.00 PKD
ROOT
HETATM    1  C   UNL     1     -11.026   6.825  67.052  1.00  0.00    -0.439 C  
HETATM    2  C   UNL     1     -10.155   7.010  68.277  1.00  0.00    -0.167 C  
ENDROOT
BRANCH   2   3
HETATM    3  O   UNL     1     -10.699   8.035  69.123  1.00  0.00    -0.199 OA 
BRANCH   3   4
HETATM    4  C   UNL     1     -10.520   9.317  68.693  1.00  0.00    -0.209 C  
HETATM    5  O   UNL     1     -11.417  10.122  68.479  1.00  0.00    -0.170 OA 
BRANCH   4   6
HETATM    6  C   UNL     1      -9.014   9.597  68.528  1.00  0.00    -0.124 C  
BRANCH   6   7
HETATM    7  N   UNL     1      -8.807  10.644  67.491  1.00  0.00    -0.132 NA 
HETATM    8  H   UNL     1      -9.562  10.619  66.805  1.00  0.00     0.000 HD 
BRANCH   7   9
HETATM    9  C   UNL     1      -8.645  12.001  68.023  1.00  0.00    -0.170 C  
BRANCH   9  10
HETATM   10  C   UNL     1      -8.201  13.028  66.958  1.00  0.00    -0.062 C  
BRANCH  10  11
HETATM   11  N   UNL     1      -9.288  13.559  66.119  1.00  0.00    -0.477 NA 
HETATM   12  H   UNL     1      -9.319  13.071  65.224  1.00  0.00     0.000 HD 
BRANCH  11  13
HETATM   13  C   UNL     1     -10.631  13.542  66.770  1.00  0.00    -0.272 C  
BRANCH  13  14
HETATM   14  C   UNL     1     -11.154  14.951  67.123  1.00  0.00    -0.332 C  
HETATM   15  H   UNL     1     -10.782  17.571  66.540  1.00  0.00     0.000 H  
HETATM   16  S   UNL     1     -10.311  16.301  66.223  1.00  0.00    -0.323 SA 
ENDBRANCH  13  14
BRANCH  13  17
HETATM   17  C   UNL     1     -11.641  12.814  65.856  1.00  0.00    -0.382 C  
HETATM   18  O   UNL     1     -12.770  13.210  65.588  1.00  0.00    -0.469 OA 
BRANCH  17  19
HETATM   19  O   UNL     1     -11.092  11.660  65.375  1.00  0.00    -0.294 OA 
BRANCH  19  20
HETATM   20  C   UNL     1     -10.983  11.564  63.949  1.00  0.00    -0.401 C  
HETATM   21  C   UNL     1      -9.639  10.993  63.551  1.00  0.00    -0.344 C  
ENDBRANCH  19  20
ENDBRANCH  17  19
ENDBRANCH  13  17
ENDBRANCH  11  13
ENDBRANCH  10  11
ENDBRANCH   9  10
ENDBRANCH   7   9
ENDBRANCH   6   7
BRANCH   6  22
HETATM   22  C   UNL     1      -8.398   9.890  69.911  1.00  0.00    -0.183 C  
HETATM   23  H   UNL     1      -6.833   8.795  71.842  1.00  0.00     0.000 H  
HETATM   24  S   UNL     1      -7.387   8.531  70.596  1.00  0.00    -0.068 SA 
ENDBRANCH   6  22
ENDBRANCH   4   6
ENDBRANCH   3   4
ENDBRANCH   2   3
TORSDOF 13
ENDMDL
MODEL      289
REMARK 921   NORMALIZED FREE ENERGY PREDICTED BY IDOCK:   -3.26 KCAL/MOL
REMARK 922        TOTAL FREE ENERGY PREDICTED BY IDOCK:   -6.33 KCAL/MOL
REMARK 923 INTER-LIGAND FREE ENERGY PREDICTED BY IDOCK:   -5.72 KCAL/MOL
REMARK 924 INTRA-LIGAND FREE ENERGY PREDICTED BY IDOCK:   -0.61 KCAL/MOL
REMARK 927      BINDING AFFINITY PREDICTED BY RF-SCORE:    0.00 PKD
ROOT
HETATM    1  C   UNL     1     -10.753   5.264  66.613  1.00  0.00    -0.274 C  
HETATM    2  C   UNL     1     -10.546   6.078  67.873  1.00  0.00    -0.267 C  
ENDROOT
BRANCH   2   3
HETATM    3  O   UNL     1     -10.623   7.481  67.576  1.00  0.00    -0.252 OA 
BRANCH   3   4
HETATM    4  C   UNL     1      -9.581   8.239  68.020  1.00  0.00    -0.153 C  
HETATM    5  O   UNL     1      -8.422   7.856  68.124  1.00  0.00    -0.123 OA 
BRANCH   4   6
HETATM    6  C   UNL     1     -10.084   9.655  68.361  1.00  0.00    -0.176 C  
BRANCH   6   7
HETATM    7  N   UNL     1     -10.771  10.243  67.178  1.00  0.00    -0.257 NA 
HETATM    8  H   UNL     1     -11.601  10.759  67.470  1.00  0.00     0.000 HD 
BRANCH   7   9
HETATM    9  C   UNL     1      -9.914  11.085  66.336  1.00  0.00    -0.222 C  
BRANCH   9  10
HETATM   10  C   UNL     1     -10.188  12.596  66.503  1.00  0.00    -0.243 C  
BRANCH  10  11
HETATM   11  N   UNL     1      -9.042  13.470  66.202  1.00  0.00    -0.471 NA 
HETATM   12  H   UNL     1      -8.855  13.480  65.200  1.00  0.00     0.000 HD 
BRANCH  11  13
HETATM   13  C   UNL     1      -9.180  14.863  66.722  1.00  0.00    -0.259 C  
BRANCH  13  14
HETATM   14  C   UNL     1      -7.846  15.459  67.222  1.00  0.00    -0.206 C  
HETATM   15  H   UNL     1      -6.633  16.388  69.459  1.00  0.00     0.000 H  
HETATM   16  S   UNL     1      -7.833  15.851  69.009  1.00  0.00    -0.227 SA 
ENDBRANCH  13  14
BRANCH  13  17
HETATM   17  C   UNL     1      -9.788  15.767  65.627  1.00  0.00    -0.322 C  
HETATM   18  O   UNL     1     -10.580  15.403  64.765  1.00  0.00    -0.392 OA 
BRANCH  17  19
HETATM   19  O   UNL     1      -9.324  17.044  65.763  1.00  0.00    -0.524 OA 
BRANCH  19  20
HETATM   20  C   UNL     1     -10.308  18.041  66.066  1.00  0.00    -0.331 C  
HETATM   21  C   UNL     1     -10.576  18.096  67.555  1.00  0.00    -0.419 C  
ENDBRANCH  19  20
ENDBRANCH  17  19
ENDBRANCH  13  17
ENDBRANCH  11  13
ENDBRANCH  10  11
ENDBRANCH   9  10
ENDBRANCH   7   9
ENDBRANCH   6   7
BRANCH   6  22
HETATM   22  C   UNL     1     -10.913   9.599  69.660  1.00  0.00    -0.229 C  
HETATM   23  H   UNL     1     -12.765  10.981  71.089  1.00  0.00     0.000 H  
HETATM   24  S   UNL     1     -12.018  11.031  69.918  1.00  0.00    -0.375 SA 
ENDBRANCH   6  22
ENDBRANCH   4   6
ENDBRANCH   3   4
ENDBRANCH   2   3
TORSDOF 13
ENDMDL
MODEL      290
REMARK 921   NORMALIZED FREE ENERGY PREDICTED BY IDOCK:   -3.26 KCAL/MOL
REMARK 922        TOTAL FREE ENERGY PREDICTED BY IDOCK:   -6.33 KCAL/MOL
REMARK 923 INTER-LIGAND FREE ENERGY PREDICTED BY IDOCK:   -5.45 KCAL/MOL
REMARK 924 INTRA-LIGAND FREE ENERGY PREDICTED BY IDOCK:   -0.88 KCAL/MOL
REMARK 927      BINDING AFFINITY PREDICTED BY RF-SCORE:    0.00 PKD
ROOT
HETATM    1  C   UNL     1     -10.574   4.800  65.845  1.00  0.00    -0.290 C  
HETATM    2  C   UNL     1     -10.836   5.991  66.741  1.00  0.00    -0.279 C  
ENDROOT
BRANCH   2   3
HETATM    3  O   UNL     1     -10.625   5.635  68.116  1.00  0.00    -0.216 OA 
BRANCH   3   4
HETATM    4  C   UNL     1      -9.573   6.245  68.733  1.00  0.00    -0.121 C  
HETATM    5  O   UNL     1      -8.432   6.300  68.292  1.00  0.00    -0.114 OA 
BRANCH   4   6
HETATM    6  C   UNL     1     -10.046   6.862  70.063  1.00  0.00    -0.182 C  
BRANCH   6   7
HETATM    7  N   UNL     1     -10.959   8.005  69.791  1.00  0.00    -0.397 NA 
HETATM    8  H   UNL     1     -11.747   7.992  70.440  1.00  0.00     0.000 HD 
BRANCH   7   9
HETATM    9  C   UNL     1     -10.307   9.318  69.803  1.00  0.00    -0.218 C  
BRANCH   9  10
HETATM   10  C   UNL     1     -11.253  10.475  69.409  1.00  0.00    -0.269 C  
BRANCH  10  11
HETATM   11  N   UNL     1     -11.592  10.538  67.978  1.00  0.00    -0.716 NA 
HETATM   12  H   UNL     1     -12.268  11.282  67.804  1.00  0.00     0.000 HD 
BRANCH  11  13
HETATM   13  C   UNL     1     -10.413  10.683  67.074  1.00  0.00    -0.243 C  
BRANCH  13  14
HETATM   14  C   UNL     1     -10.276   9.524  66.063  1.00  0.00    -0.172 C  
HETATM   15  H   UNL     1      -8.428   7.943  64.869  1.00  0.00     0.000 H  
HETATM   16  S   UNL     1      -8.551   8.987  65.780  1.00  0.00    -0.171 SA 
ENDBRANCH  13  14
BRANCH  13  17
HETATM   17  C   UNL     1     -10.495  12.033  66.326  1.00  0.00    -0.238 C  
HETATM   18  O   UNL     1     -10.061  13.102  66.741  1.00  0.00    -0.243 OA 
BRANCH  17  19
HETATM   19  O   UNL     1     -11.116  11.864  65.122  1.00  0.00    -0.305 OA 
BRANCH  19  20
HETATM   20  C   UNL     1     -12.397  12.492  64.983  1.00  0.00    -0.453 C  
HETATM   21  C   UNL     1     -12.642  12.900  63.546  1.00  0.00    -0.308 C  
ENDBRANCH  19  20
ENDBRANCH  17  19
ENDBRANCH  13  17
ENDBRANCH  11  13
ENDBRANCH  10  11
ENDBRANCH   9  10
ENDBRANCH   7   9
ENDBRANCH   6   7
BRANCH   6  22
HETATM   22  C   UNL     1     -10.613   5.747  70.965  1.00  0.00    -0.253 C  
HETATM   23  H   UNL     1     -12.268   5.327  73.078  1.00  0.00     0.000 H  
HETATM   24  S   UNL     1     -11.756   6.331  72.265  1.00  0.00    -0.260 SA 
ENDBRANCH   6  22
ENDBRANCH   4   6
ENDBRANCH   3   4
ENDBRANCH   2   3
TORSDOF 13
ENDMDL
MODEL      291
REMARK 921   NORMALIZED FREE ENERGY PREDICTED BY IDOCK:   -3.25 KCAL/MOL
REMARK 922        TOTAL FREE ENERGY PREDICTED BY IDOCK:   -6.32 KCAL/MOL
REMARK 923 INTER-LIGAND FREE ENERGY PREDICTED BY IDOCK:   -5.69 KCAL/MOL
REMARK 924 INTRA-LIGAND FREE ENERGY PREDICTED BY IDOCK:   -0.63 KCAL/MOL
REMARK 927      BINDING AFFINITY PREDICTED BY RF-SCORE:    0.00 PKD
ROOT
HETATM    1  C   UNL     1      -9.878   9.522  65.682  1.00  0.00    -0.343 C  
HETATM    2  C   UNL     1     -10.193  10.887  65.108  1.00  0.00    -0.297 C  
ENDROOT
BRANCH   2   3
HETATM    3  O   UNL     1     -11.093  11.595  65.974  1.00  0.00    -0.301 OA 
BRANCH   3   4
HETATM    4  C   UNL     1     -10.541  12.602  66.708  1.00  0.00    -0.237 C  
HETATM    5  O   UNL     1      -9.645  13.345  66.327  1.00  0.00    -0.274 OA 
BRANCH   4   6
HETATM    6  C   UNL     1     -11.225  12.667  68.087  1.00  0.00    -0.269 C  
BRANCH   6   7
HETATM    7  N   UNL     1     -10.269  12.240  69.144  1.00  0.00    -0.418 NA 
HETATM    8  H   UNL     1     -10.704  12.306  70.065  1.00  0.00     0.000 HD 
BRANCH   7   9
HETATM    9  C   UNL     1      -9.698  10.905  68.942  1.00  0.00    -0.187 C  
BRANCH   9  10
HETATM   10  C   UNL     1     -10.446   9.796  69.715  1.00  0.00    -0.250 C  
BRANCH  10  11
HETATM   11  N   UNL     1     -10.063   9.660  71.130  1.00  0.00    -0.277 NA 
HETATM   12  H   UNL     1     -10.174  10.550  71.617  1.00  0.00     0.000 HD 
BRANCH  11  13
HETATM   13  C   UNL     1     -10.782   8.574  71.859  1.00  0.00    -0.324 C  
BRANCH  13  14
HETATM   14  C   UNL     1     -12.188   8.285  71.287  1.00  0.00    -0.270 C  
HETATM   15  H   UNL     1     -14.814   8.771  71.738  1.00  0.00     0.000 H  
HETATM   16  S   UNL     1     -13.549   9.031  72.253  1.00  0.00    -0.489 SA 
ENDBRANCH  13  14
BRANCH  13  17
HETATM   17  C   UNL     1      -9.929   7.286  71.845  1.00  0.00    -0.166 C  
HETATM   18  O   UNL     1      -9.459   6.756  70.844  1.00  0.00    -0.158 OA 
BRANCH  17  19
HETATM   19  O   UNL     1      -9.760   6.822  73.118  1.00  0.00    -0.156 OA 
BRANCH  19  20
HETATM   20  C   UNL     1      -9.927   5.409  73.298  1.00  0.00    -0.170 C  
HETATM   21  C   UNL     1     -11.392   5.031  73.241  1.00  0.00    -0.393 C  
ENDBRANCH  19  20
ENDBRANCH  17  19
ENDBRANCH  13  17
ENDBRANCH  11  13
ENDBRANCH  10  11
ENDBRANCH   9  10
ENDBRANCH   7   9
ENDBRANCH   6   7
BRANCH   6  22
HETATM   22  C   UNL     1     -11.856  14.062  68.274  1.00  0.00    -0.371 C  
HETATM   23  H   UNL     1     -12.824  15.745  70.175  1.00  0.00     0.000 H  
HETATM   24  S   UNL     1     -12.256  14.488  70.005  1.00  0.00    -0.339 SA 
ENDBRANCH   6  22
ENDBRANCH   4   6
ENDBRANCH   3   4
ENDBRANCH   2   3
TORSDOF 13
ENDMDL
MODEL      292
REMARK 921   NORMALIZED FREE ENERGY PREDICTED BY IDOCK:   -3.25 KCAL/MOL
REMARK 922        TOTAL FREE ENERGY PREDICTED BY IDOCK:   -6.31 KCAL/MOL
REMARK 923 INTER-LIGAND FREE ENERGY PREDICTED BY IDOCK:   -5.71 KCAL/MOL
REMARK 924 INTRA-LIGAND FREE ENERGY PREDICTED BY IDOCK:   -0.59 KCAL/MOL
REMARK 927      BINDING AFFINITY PREDICTED BY RF-SCORE:    0.00 PKD
ROOT
HETATM    1  C   UNL     1      -9.745   4.832  65.767  1.00  0.00    -0.200 C  
HETATM    2  C   UNL     1      -9.814   4.629  67.265  1.00  0.00    -0.180 C  
ENDROOT
BRANCH   2   3
HETATM    3  O   UNL     1     -10.443   5.758  67.892  1.00  0.00    -0.201 OA 
BRANCH   3   4
HETATM    4  C   UNL     1      -9.652   6.488  68.729  1.00  0.00    -0.126 C  
HETATM    5  O   UNL     1      -8.621   6.088  69.255  1.00  0.00    -0.116 OA 
BRANCH   4   6
HETATM    6  C   UNL     1     -10.251   7.897  68.901  1.00  0.00    -0.205 C  
BRANCH   6   7
HETATM    7  N   UNL     1     -11.016   8.272  67.681  1.00  0.00    -0.489 NA 
HETATM    8  H   UNL     1     -12.009   8.362  67.897  1.00  0.00     0.000 HD 
BRANCH   7   9
HETATM    9  C   UNL     1     -10.528   9.479  67.006  1.00  0.00    -0.232 C  
BRANCH   9  10
HETATM   10  C   UNL     1     -10.844  10.780  67.776  1.00  0.00    -0.269 C  
BRANCH  10  11
HETATM   11  N   UNL     1     -11.970  11.561  67.237  1.00  0.00    -0.554 NA 
HETATM   12  H   UNL     1     -12.745  11.573  67.901  1.00  0.00     0.000 HD 
BRANCH  11  13
HETATM   13  C   UNL     1     -11.612  12.951  66.827  1.00  0.00    -0.360 C  
BRANCH  13  14
HETATM   14  C   UNL     1     -12.602  13.558  65.809  1.00  0.00    -0.434 C  
HETATM   15  H   UNL     1     -13.033  13.816  63.147  1.00  0.00     0.000 H  
HETATM   16  S   UNL     1     -12.142  13.269  64.063  1.00  0.00    -0.439 SA 
ENDBRANCH  13  14
BRANCH  13  17
HETATM   17  C   UNL     1     -11.516  13.853  68.077  1.00  0.00    -0.307 C  
HETATM   18  O   UNL     1     -12.193  13.734  69.092  1.00  0.00    -0.344 OA 
BRANCH  17  19
HETATM   19  O   UNL     1     -10.554  14.805  67.896  1.00  0.00    -0.244 OA 
BRANCH  19  20
HETATM   20  C   UNL     1      -9.308  14.574  68.566  1.00  0.00    -0.203 C  
HETATM   21  C   UNL     1      -8.652  15.884  68.946  1.00  0.00    -0.221 C  
ENDBRANCH  19  20
ENDBRANCH  17  19
ENDBRANCH  13  17
ENDBRANCH  11  13
ENDBRANCH  10  11
ENDBRANCH   9  10
ENDBRANCH   7   9
ENDBRANCH   6   7
BRANCH   6  22
HETATM   22  C   UNL     1     -11.034   7.956  70.229  1.00  0.00    -0.248 C  
HETATM   23  H   UNL     1     -10.843   8.813  72.800  1.00  0.00     0.000 H  
HETATM   24  S   UNL     1     -10.138   8.759  71.604  1.00  0.00    -0.342 SA 
ENDBRANCH   6  22
ENDBRANCH   4   6
ENDBRANCH   3   4
ENDBRANCH   2   3
TORSDOF 13
ENDMDL
MODEL      293
REMARK 921   NORMALIZED FREE ENERGY PREDICTED BY IDOCK:   -3.24 KCAL/MOL
REMARK 922        TOTAL FREE ENERGY PREDICTED BY IDOCK:   -6.30 KCAL/MOL
REMARK 923 INTER-LIGAND FREE ENERGY PREDICTED BY IDOCK:   -5.52 KCAL/MOL
REMARK 924 INTRA-LIGAND FREE ENERGY PREDICTED BY IDOCK:   -0.78 KCAL/MOL
REMARK 927      BINDING AFFINITY PREDICTED BY RF-SCORE:    0.00 PKD
ROOT
HETATM    1  C   UNL     1     -13.298  10.745  71.704  1.00  0.00    -0.390 C  
HETATM    2  C   UNL     1     -12.891   9.290  71.798  1.00  0.00    -0.382 C  
ENDROOT
BRANCH   2   3
HETATM    3  O   UNL     1     -11.487   9.183  72.077  1.00  0.00    -0.362 OA 
BRANCH   3   4
HETATM    4  C   UNL     1     -11.020   7.921  72.301  1.00  0.00    -0.300 C  
HETATM    5  O   UNL     1     -11.099   7.317  73.364  1.00  0.00    -0.323 OA 
BRANCH   4   6
HETATM    6  C   UNL     1     -10.389   7.371  71.008  1.00  0.00    -0.195 C  
BRANCH   6   7
HETATM    7  N   UNL     1      -8.912   7.556  71.050  1.00  0.00    -0.147 NA 
HETATM    8  H   UNL     1      -8.467   7.032  70.297  1.00  0.00     0.000 HD 
BRANCH   7   9
HETATM    9  C   UNL     1      -8.477   8.956  71.027  1.00  0.00    -0.198 C  
BRANCH   9  10
HETATM   10  C   UNL     1      -8.823   9.683  69.709  1.00  0.00    -0.210 C  
BRANCH  10  11
HETATM   11  N   UNL     1     -10.091  10.430  69.727  1.00  0.00    -0.394 NA 
HETATM   12  H   UNL     1     -10.297  10.759  70.671  1.00  0.00     0.000 HD 
BRANCH  11  13
HETATM   13  C   UNL     1     -10.151  11.562  68.755  1.00  0.00    -0.179 C  
BRANCH  13  14
HETATM   14  C   UNL     1      -8.762  11.979  68.222  1.00  0.00    -0.178 C  
HETATM   15  H   UNL     1      -7.337  14.153  67.459  1.00  0.00     0.000 H  
HETATM   16  S   UNL     1      -8.587  13.777  67.939  1.00  0.00    -0.196 SA 
ENDBRANCH  13  14
BRANCH  13  17
HETATM   17  C   UNL     1     -11.080  11.188  67.579  1.00  0.00    -0.291 C  
HETATM   18  O   UNL     1     -11.931  11.920  67.087  1.00  0.00    -0.611 OA 
BRANCH  17  19
HETATM   19  O   UNL     1     -10.811   9.918  67.155  1.00  0.00    -0.241 OA 
BRANCH  19  20
HETATM   20  C   UNL     1     -10.155   9.807  65.885  1.00  0.00    -0.243 C  
HETATM   21  C   UNL     1      -8.861   9.031  66.016  1.00  0.00    -0.208 C  
ENDBRANCH  19  20
ENDBRANCH  17  19
ENDBRANCH  13  17
ENDBRANCH  11  13
ENDBRANCH  10  11
ENDBRANCH   9  10
ENDBRANCH   7   9
ENDBRANCH   6   7
BRANCH   6  22
HETATM   22  C   UNL     1     -10.878   5.925  70.781  1.00  0.00    -0.283 C  
HETATM   23  H   UNL     1     -10.104   3.332  71.019  1.00  0.00     0.000 H  
HETATM   24  S   UNL     1      -9.664   4.634  71.224  1.00  0.00    -0.192 SA 
ENDBRANCH   6  22
ENDBRANCH   4   6
ENDBRANCH   3   4
ENDBRANCH   2   3
TORSDOF 13
ENDMDL
MODEL      294
REMARK 921   NORMALIZED FREE ENERGY PREDICTED BY IDOCK:   -3.24 KCAL/MOL
REMARK 922        TOTAL FREE ENERGY PREDICTED BY IDOCK:   -6.30 KCAL/MOL
REMARK 923 INTER-LIGAND FREE ENERGY PREDICTED BY IDOCK:   -5.84 KCAL/MOL
REMARK 924 INTRA-LIGAND FREE ENERGY PREDICTED BY IDOCK:   -0.46 KCAL/MOL
REMARK 927      BINDING AFFINITY PREDICTED BY RF-SCORE:    0.00 PKD
ROOT
HETATM    1  C   UNL     1      -5.203  20.719  69.787  1.00  0.00    -0.396 C  
HETATM    2  C   UNL     1      -6.114  19.531  69.561  1.00  0.00    -0.282 C  
ENDROOT
BRANCH   2   3
HETATM    3  O   UNL     1      -7.327  19.950  68.918  1.00  0.00    -0.310 OA 
BRANCH   3   4
HETATM    4  C   UNL     1      -7.223  20.248  67.591  1.00  0.00    -0.301 C  
HETATM    5  O   UNL     1      -7.168  21.378  67.123  1.00  0.00    -0.506 OA 
BRANCH   4   6
HETATM    6  C   UNL     1      -7.176  18.942  66.775  1.00  0.00    -0.209 C  
BRANCH   6   7
HETATM    7  N   UNL     1      -8.318  18.903  65.821  1.00  0.00    -0.384 NA 
HETATM    8  H   UNL     1      -8.313  18.028  65.296  1.00  0.00     0.000 HD 
BRANCH   7   9
HETATM    9  C   UNL     1      -9.631  19.121  66.438  1.00  0.00    -0.361 C  
BRANCH   9  10
HETATM   10  C   UNL     1     -10.647  17.999  66.128  1.00  0.00    -0.261 C  
BRANCH  10  11
HETATM   11  N   UNL     1     -10.053  16.737  65.658  1.00  0.00    -0.580 NA 
HETATM   12  H   UNL     1      -9.084  16.883  65.373  1.00  0.00     0.000 HD 
BRANCH  11  13
HETATM   13  C   UNL     1     -10.146  15.613  66.635  1.00  0.00    -0.273 C  
BRANCH  13  14
HETATM   14  C   UNL     1     -11.557  15.451  67.243  1.00  0.00    -0.090 C  
HETATM   15  H   UNL     1     -12.872  15.465  69.611  1.00  0.00     0.000 H  
HETATM   16  S   UNL     1     -11.602  15.610  69.064  1.00  0.00    -0.396 SA 
ENDBRANCH  13  14
BRANCH  13  17
HETATM   17  C   UNL     1      -9.706  14.297  65.957  1.00  0.00    -0.287 C  
HETATM   18  O   UNL     1     -10.031  13.936  64.831  1.00  0.00    -0.311 OA 
BRANCH  17  19
HETATM   19  O   UNL     1      -8.889  13.589  66.791  1.00  0.00    -0.213 OA 
BRANCH  19  20
HETATM   20  C   UNL     1      -9.441  12.384  67.337  1.00  0.00    -0.186 C  
HETATM   21  C   UNL     1      -8.475  11.230  67.176  1.00  0.00    -0.149 C  
ENDBRANCH  19  20
ENDBRANCH  17  19
ENDBRANCH  13  17
ENDBRANCH  11  13
ENDBRANCH  10  11
ENDBRANCH   9  10
ENDBRANCH   7   9
ENDBRANCH   6   7
BRANCH   6  22
HETATM   22  C   UNL     1      -5.774  18.786  66.150  1.00  0.00    -0.158 C  
HETATM   23  H   UNL     1      -4.158  19.798  64.216  1.00  0.00     0.000 H  
HETATM   24  S   UNL     1      -5.421  19.939  64.778  1.00  0.00    -0.188 SA 
ENDBRANCH   6  22
ENDBRANCH   4   6
ENDBRANCH   3   4
ENDBRANCH   2   3
TORSDOF 13
ENDMDL
MODEL      295
REMARK 921   NORMALIZED FREE ENERGY PREDICTED BY IDOCK:   -3.23 KCAL/MOL
REMARK 922        TOTAL FREE ENERGY PREDICTED BY IDOCK:   -6.28 KCAL/MOL
REMARK 923 INTER-LIGAND FREE ENERGY PREDICTED BY IDOCK:   -5.77 KCAL/MOL
REMARK 924 INTRA-LIGAND FREE ENERGY PREDICTED BY IDOCK:   -0.51 KCAL/MOL
REMARK 927      BINDING AFFINITY PREDICTED BY RF-SCORE:    0.00 PKD
ROOT
HETATM    1  C   UNL     1     -11.114  16.244  64.980  1.00  0.00    -0.262 C  
HETATM    2  C   UNL     1     -10.600  15.411  66.135  1.00  0.00    -0.316 C  
ENDROOT
BRANCH   2   3
HETATM    3  O   UNL     1     -11.685  14.711  66.764  1.00  0.00    -0.373 OA 
BRANCH   3   4
HETATM    4  C   UNL     1     -12.365  13.835  65.971  1.00  0.00    -0.457 C  
HETATM    5  O   UNL     1     -13.482  14.025  65.505  1.00  0.00    -0.677 OA 
BRANCH   4   6
HETATM    6  C   UNL     1     -11.507  12.576  65.743  1.00  0.00    -0.365 C  
BRANCH   6   7
HETATM    7  N   UNL     1     -11.907  11.513  66.705  1.00  0.00    -0.446 NA 
HETATM    8  H   UNL     1     -12.563  10.866  66.267  1.00  0.00     0.000 HD 
BRANCH   7   9
HETATM    9  C   UNL     1     -10.784  10.780  67.299  1.00  0.00    -0.274 C  
BRANCH   9  10
HETATM   10  C   UNL     1     -10.745   9.289  66.896  1.00  0.00    -0.094 C  
BRANCH  10  11
HETATM   11  N   UNL     1     -10.698   8.344  68.023  1.00  0.00    -0.452 NA 
HETATM   12  H   UNL     1     -11.588   7.852  68.114  1.00  0.00     0.000 HD 
BRANCH  11  13
HETATM   13  C   UNL     1      -9.568   7.370  67.961  1.00  0.00    -0.141 C  
BRANCH  13  14
HETATM   14  C   UNL     1      -9.050   6.950  69.354  1.00  0.00    -0.141 C  
HETATM   15  H   UNL     1      -9.886   5.933  71.721  1.00  0.00     0.000 H  
HETATM   16  S   UNL     1     -10.352   6.311  70.467  1.00  0.00    -0.215 SA 
ENDBRANCH  13  14
BRANCH  13  17
HETATM   17  C   UNL     1     -10.001   6.124  67.157  1.00  0.00    -0.154 C  
HETATM   18  O   UNL     1     -11.059   6.003  66.550  1.00  0.00    -0.209 OA 
BRANCH  17  19
HETATM   19  O   UNL     1      -9.025   5.170  67.210  1.00  0.00    -0.113 OA 
BRANCH  19  20
HETATM   20  C   UNL     1      -9.478   3.811  67.265  1.00  0.00    -0.200 C  
HETATM   21  C   UNL     1      -8.439   2.925  67.919  1.00  0.00    -0.103 C  
ENDBRANCH  19  20
ENDBRANCH  17  19
ENDBRANCH  13  17
ENDBRANCH  11  13
ENDBRANCH  10  11
ENDBRANCH   9  10
ENDBRANCH   7   9
ENDBRANCH   6   7
BRANCH   6  22
HETATM   22  C   UNL     1     -11.563  12.188  64.251  1.00  0.00    -0.370 C  
HETATM   23  H   UNL     1     -10.055  11.155  62.241  1.00  0.00     0.000 H  
HETATM   24  S   UNL     1     -10.005  11.505  63.585  1.00  0.00    -0.407 SA 
ENDBRANCH   6  22
ENDBRANCH   4   6
ENDBRANCH   3   4
ENDBRANCH   2   3
TORSDOF 13
ENDMDL
MODEL      296
REMARK 921   NORMALIZED FREE ENERGY PREDICTED BY IDOCK:   -3.22 KCAL/MOL
REMARK 922        TOTAL FREE ENERGY PREDICTED BY IDOCK:   -6.27 KCAL/MOL
REMARK 923 INTER-LIGAND FREE ENERGY PREDICTED BY IDOCK:   -5.40 KCAL/MOL
REMARK 924 INTRA-LIGAND FREE ENERGY PREDICTED BY IDOCK:   -0.87 KCAL/MOL
REMARK 927      BINDING AFFINITY PREDICTED BY RF-SCORE:    0.00 PKD
ROOT
HETATM    1  C   UNL     1      -8.888   5.436  70.268  1.00  0.00    -0.143 C  
HETATM    2  C   UNL     1     -10.031   4.672  70.902  1.00  0.00    -0.203 C  
ENDROOT
BRANCH   2   3
HETATM    3  O   UNL     1     -11.102   5.568  71.238  1.00  0.00    -0.186 OA 
BRANCH   3   4
HETATM    4  C   UNL     1     -11.015   6.163  72.462  1.00  0.00    -0.259 C  
HETATM    5  O   UNL     1     -10.421   5.705  73.430  1.00  0.00    -0.208 OA 
BRANCH   4   6
HETATM    6  C   UNL     1     -11.770   7.506  72.434  1.00  0.00    -0.290 C  
BRANCH   6   7
HETATM    7  N   UNL     1     -10.819   8.613  72.144  1.00  0.00    -0.354 NA 
HETATM    8  H   UNL     1      -9.939   8.464  72.638  1.00  0.00     0.000 HD 
BRANCH   7   9
HETATM    9  C   UNL     1     -10.573   8.842  70.716  1.00  0.00    -0.220 C  
BRANCH   9  10
HETATM   10  C   UNL     1     -11.051  10.226  70.227  1.00  0.00    -0.319 C  
BRANCH  10  11
HETATM   11  N   UNL     1     -10.045  11.003  69.484  1.00  0.00    -0.441 NA 
HETATM   12  H   UNL     1      -9.251  10.413  69.236  1.00  0.00     0.000 HD 
BRANCH  11  13
HETATM   13  C   UNL     1     -10.576  11.698  68.275  1.00  0.00    -0.205 C  
BRANCH  13  14
HETATM   14  C   UNL     1     -10.057  13.146  68.129  1.00  0.00    -0.237 C  
HETATM   15  H   UNL     1     -10.512  15.671  68.998  1.00  0.00     0.000 H  
HETATM   16  S   UNL     1     -10.979  14.368  69.129  1.00  0.00    -0.262 SA 
ENDBRANCH  13  14
BRANCH  13  17
HETATM   17  C   UNL     1     -10.229  10.880  67.011  1.00  0.00    -0.214 C  
HETATM   18  O   UNL     1     -10.572  11.160  65.868  1.00  0.00    -0.259 OA 
BRANCH  17  19
HETATM   19  O   UNL     1      -9.471   9.796  67.348  1.00  0.00    -0.148 OA 
BRANCH  19  20
HETATM   20  C   UNL     1      -9.613   8.645  66.507  1.00  0.00    -0.237 C  
HETATM   21  C   UNL     1     -10.581   7.652  67.115  1.00  0.00    -0.410 C  
ENDBRANCH  19  20
ENDBRANCH  17  19
ENDBRANCH  13  17
ENDBRANCH  11  13
ENDBRANCH  10  11
ENDBRANCH   9  10
ENDBRANCH   7   9
ENDBRANCH   6   7
BRANCH   6  22
HETATM   22  C   UNL     1     -12.977   7.388  71.480  1.00  0.00    -0.375 C  
HETATM   23  H   UNL     1     -15.445   8.418  71.001  1.00  0.00     0.000 H  
HETATM   24  S   UNL     1     -14.358   8.523  71.860  1.00  0.00    -0.425 SA 
ENDBRANCH   6  22
ENDBRANCH   4   6
ENDBRANCH   3   4
ENDBRANCH   2   3
TORSDOF 13
ENDMDL
MODEL      297
REMARK 921   NORMALIZED FREE ENERGY PREDICTED BY IDOCK:   -3.22 KCAL/MOL
REMARK 922        TOTAL FREE ENERGY PREDICTED BY IDOCK:   -6.26 KCAL/MOL
REMARK 923 INTER-LIGAND FREE ENERGY PREDICTED BY IDOCK:   -5.32 KCAL/MOL
REMARK 924 INTRA-LIGAND FREE ENERGY PREDICTED BY IDOCK:   -0.94 KCAL/MOL
REMARK 927      BINDING AFFINITY PREDICTED BY RF-SCORE:    0.00 PKD
ROOT
HETATM    1  C   UNL     1     -12.069  10.386  70.324  1.00  0.00    -0.370 C  
HETATM    2  C   UNL     1     -11.684   9.411  71.416  1.00  0.00    -0.378 C  
ENDROOT
BRANCH   2   3
HETATM    3  O   UNL     1     -11.013   8.273  70.853  1.00  0.00    -0.236 OA 
BRANCH   3   4
HETATM    4  C   UNL     1     -11.756   7.133  70.758  1.00  0.00    -0.323 C  
HETATM    5  O   UNL     1     -12.610   6.778  71.560  1.00  0.00    -0.361 OA 
BRANCH   4   6
HETATM    6  C   UNL     1     -11.361   6.368  69.480  1.00  0.00    -0.393 C  
BRANCH   6   7
HETATM    7  N   UNL     1     -10.883   7.327  68.446  1.00  0.00    -0.417 NA 
HETATM    8  H   UNL     1     -10.025   7.785  68.756  1.00  0.00     0.000 HD 
BRANCH   7   9
HETATM    9  C   UNL     1     -10.699   6.742  67.115  1.00  0.00    -0.371 C  
BRANCH   9  10
HETATM   10  C   UNL     1      -9.519   7.359  66.332  1.00  0.00    -0.134 C  
BRANCH  10  11
HETATM   11  N   UNL     1      -9.761   8.716  65.815  1.00  0.00    -0.461 NA 
HETATM   12  H   UNL     1     -10.184   9.302  66.535  1.00  0.00     0.000 HD 
BRANCH  11  13
HETATM   13  C   UNL     1      -8.551   9.380  65.246  1.00  0.00    -0.162 C  
BRANCH  13  14
HETATM   14  C   UNL     1      -8.829  10.114  63.915  1.00  0.00    -0.230 C  
HETATM   15  H   UNL     1     -10.647  11.717  62.706  1.00  0.00     0.000 H  
HETATM   16  S   UNL     1     -10.396  11.057  63.903  1.00  0.00    -0.346 SA 
ENDBRANCH  13  14
BRANCH  13  17
HETATM   17  C   UNL     1      -7.963  10.364  66.282  1.00  0.00    -0.138 C  
HETATM   18  O   UNL     1      -6.866  10.906  66.204  1.00  0.00    -0.132 OA 
BRANCH  17  19
HETATM   19  O   UNL     1      -8.851  10.557  67.301  1.00  0.00    -0.135 OA 
BRANCH  19  20
HETATM   20  C   UNL     1      -8.290  10.983  68.550  1.00  0.00    -0.149 C  
HETATM   21  C   UNL     1      -8.253   9.837  69.540  1.00  0.00    -0.146 C  
ENDBRANCH  19  20
ENDBRANCH  17  19
ENDBRANCH  13  17
ENDBRANCH  11  13
ENDBRANCH  10  11
ENDBRANCH   9  10
ENDBRANCH   7   9
ENDBRANCH   6   7
BRANCH   6  22
HETATM   22  C   UNL     1     -10.381   5.236  69.850  1.00  0.00    -0.304 C  
HETATM   23  H   UNL     1      -7.812   4.778  70.605  1.00  0.00     0.000 H  
HETATM   24  S   UNL     1      -8.695   5.798  70.271  1.00  0.00    -0.138 SA 
ENDBRANCH   6  22
ENDBRANCH   4   6
ENDBRANCH   3   4
ENDBRANCH   2   3
TORSDOF 13
ENDMDL
MODEL      298
REMARK 921   NORMALIZED FREE ENERGY PREDICTED BY IDOCK:   -3.21 KCAL/MOL
REMARK 922        TOTAL FREE ENERGY PREDICTED BY IDOCK:   -6.25 KCAL/MOL
REMARK 923 INTER-LIGAND FREE ENERGY PREDICTED BY IDOCK:   -5.63 KCAL/MOL
REMARK 924 INTRA-LIGAND FREE ENERGY PREDICTED BY IDOCK:   -0.62 KCAL/MOL
REMARK 927      BINDING AFFINITY PREDICTED BY RF-SCORE:    0.00 PKD
ROOT
HETATM    1  C   UNL     1     -10.300  13.207  64.995  1.00  0.00    -0.346 C  
HETATM    2  C   UNL     1      -9.995  12.286  66.157  1.00  0.00    -0.243 C  
ENDROOT
BRANCH   2   3
HETATM    3  O   UNL     1     -10.784  12.649  67.300  1.00  0.00    -0.232 OA 
BRANCH   3   4
HETATM    4  C   UNL     1     -11.445  11.626  67.914  1.00  0.00    -0.311 C  
HETATM    5  O   UNL     1     -11.548  10.487  67.474  1.00  0.00    -0.421 OA 
BRANCH   4   6
HETATM    6  C   UNL     1     -12.030  12.122  69.250  1.00  0.00    -0.262 C  
BRANCH   6   7
HETATM    7  N   UNL     1     -11.801  11.102  70.310  1.00  0.00    -0.342 NA 
HETATM    8  H   UNL     1     -11.265  11.503  71.079  1.00  0.00     0.000 HD 
BRANCH   7   9
HETATM    9  C   UNL     1     -13.023  10.466  70.814  1.00  0.00    -0.341 C  
BRANCH   9  10
HETATM   10  C   UNL     1     -12.764   9.119  71.524  1.00  0.00    -0.341 C  
BRANCH  10  11
HETATM   11  N   UNL     1     -11.920   8.175  70.774  1.00  0.00    -0.471 NA 
HETATM   12  H   UNL     1     -11.519   8.629  69.953  1.00  0.00     0.000 HD 
BRANCH  11  13
HETATM   13  C   UNL     1     -10.849   7.527  71.588  1.00  0.00    -0.219 C  
BRANCH  13  14
HETATM   14  C   UNL     1     -11.384   6.425  72.529  1.00  0.00    -0.264 C  
HETATM   15  H   UNL     1     -10.848   5.180  74.874  1.00  0.00     0.000 H  
HETATM   16  S   UNL     1     -10.367   6.172  74.027  1.00  0.00    -0.277 SA 
ENDBRANCH  13  14
BRANCH  13  17
HETATM   17  C   UNL     1      -9.765   6.947  70.653  1.00  0.00    -0.175 C  
HETATM   18  O   UNL     1      -8.918   7.603  70.056  1.00  0.00    -0.143 OA 
BRANCH  17  19
HETATM   19  O   UNL     1      -9.877   5.588  70.593  1.00  0.00    -0.174 OA 
BRANCH  19  20
HETATM   20  C   UNL     1     -10.159   5.039  69.299  1.00  0.00    -0.200 C  
HETATM   21  C   UNL     1      -9.432   3.725  69.103  1.00  0.00    -0.242 C  
ENDBRANCH  19  20
ENDBRANCH  17  19
ENDBRANCH  13  17
ENDBRANCH  11  13
ENDBRANCH  10  11
ENDBRANCH   9  10
ENDBRANCH   7   9
ENDBRANCH   6   7
BRANCH   6  22
HETATM   22  C   UNL     1     -11.487  13.534  69.548  1.00  0.00    -0.255 C  
HETATM   23  H   UNL     1     -11.765  15.626  71.259  1.00  0.00     0.000 H  
HETATM   24  S   UNL     1     -12.254  14.353  70.990  1.00  0.00    -0.367 SA 
ENDBRANCH   6  22
ENDBRANCH   4   6
ENDBRANCH   3   4
ENDBRANCH   2   3
TORSDOF 13
ENDMDL
MODEL      299
REMARK 921   NORMALIZED FREE ENERGY PREDICTED BY IDOCK:   -3.21 KCAL/MOL
REMARK 922        TOTAL FREE ENERGY PREDICTED BY IDOCK:   -6.24 KCAL/MOL
REMARK 923 INTER-LIGAND FREE ENERGY PREDICTED BY IDOCK:   -5.37 KCAL/MOL
REMARK 924 INTRA-LIGAND FREE ENERGY PREDICTED BY IDOCK:   -0.87 KCAL/MOL
REMARK 927      BINDING AFFINITY PREDICTED BY RF-SCORE:    0.00 PKD
ROOT
HETATM    1  C   UNL     1     -11.405  12.608  69.187  1.00  0.00    -0.339 C  
HETATM    2  C   UNL     1     -11.376  11.895  67.851  1.00  0.00    -0.291 C  
ENDROOT
BRANCH   2   3
HETATM    3  O   UNL     1     -12.278  12.527  66.931  1.00  0.00    -0.511 OA 
BRANCH   3   4
HETATM    4  C   UNL     1     -11.890  13.748  66.463  1.00  0.00    -0.407 C  
HETATM    5  O   UNL     1     -12.347  14.823  66.830  1.00  0.00    -0.141 OA 
BRANCH   4   6
HETATM    6  C   UNL     1     -10.782  13.564  65.409  1.00  0.00    -0.304 C  
BRANCH   6   7
HETATM    7  N   UNL     1     -11.355  12.959  64.175  1.00  0.00    -0.370 NA 
HETATM    8  H   UNL     1     -11.120  13.524  63.359  1.00  0.00     0.000 HD 
BRANCH   7   9
HETATM    9  C   UNL     1     -10.977  11.559  63.955  1.00  0.00    -0.401 C  
BRANCH   9  10
HETATM   10  C   UNL     1      -9.613  11.398  63.247  1.00  0.00    -0.357 C  
BRANCH  10  11
HETATM   11  N   UNL     1      -8.476  11.133  64.145  1.00  0.00    -0.347 NA 
HETATM   12  H   UNL     1      -7.946  11.989  64.310  1.00  0.00     0.000 HD 
BRANCH  11  13
HETATM   13  C   UNL     1      -8.853  10.493  65.440  1.00  0.00    -0.187 C  
BRANCH  13  14
HETATM   14  C   UNL     1      -9.121   8.977  65.313  1.00  0.00    -0.167 C  
HETATM   15  H   UNL     1     -10.179   6.880  66.661  1.00  0.00     0.000 H  
HETATM   16  S   UNL     1      -9.939   8.244  66.775  1.00  0.00    -0.296 SA 
ENDBRANCH  13  14
BRANCH  13  17
HETATM   17  C   UNL     1      -7.748  10.751  66.487  1.00  0.00    -0.145 C  
HETATM   18  O   UNL     1      -6.772  10.034  66.681  1.00  0.00    -0.077 OA 
BRANCH  17  19
HETATM   19  O   UNL     1      -8.006  11.908  67.166  1.00  0.00    -0.158 OA 
BRANCH  19  20
HETATM   20  C   UNL     1      -7.753  11.877  68.577  1.00  0.00    -0.135 C  
HETATM   21  C   UNL     1      -6.440  12.559  68.901  1.00  0.00    -0.091 C  
ENDBRANCH  19  20
ENDBRANCH  17  19
ENDBRANCH  13  17
ENDBRANCH  11  13
ENDBRANCH  10  11
ENDBRANCH   9  10
ENDBRANCH   7   9
ENDBRANCH   6   7
BRANCH   6  22
HETATM   22  C   UNL     1     -10.038  14.902  65.217  1.00  0.00    -0.345 C  
HETATM   23  H   UNL     1      -8.298  16.587  66.446  1.00  0.00     0.000 H  
HETATM   24  S   UNL     1      -8.968  15.382  66.618  1.00  0.00    -0.306 SA 
ENDBRANCH   6  22
ENDBRANCH   4   6
ENDBRANCH   3   4
ENDBRANCH   2   3
TORSDOF 13
ENDMDL
MODEL      300
REMARK 921   NORMALIZED FREE ENERGY PREDICTED BY IDOCK:   -3.21 KCAL/MOL
REMARK 922        TOTAL FREE ENERGY PREDICTED BY IDOCK:   -6.24 KCAL/MOL
REMARK 923 INTER-LIGAND FREE ENERGY PREDICTED BY IDOCK:   -5.39 KCAL/MOL
REMARK 924 INTRA-LIGAND FREE ENERGY PREDICTED BY IDOCK:   -0.85 KCAL/MOL
REMARK 927      BINDING AFFINITY PREDICTED BY RF-SCORE:    0.00 PKD
ROOT
HETATM    1  C   UNL     1     -11.896  12.407  69.749  1.00  0.00    -0.387 C  
HETATM    2  C   UNL     1     -11.692  13.884  69.486  1.00  0.00    -0.313 C  
ENDROOT
BRANCH   2   3
HETATM    3  O   UNL     1     -11.781  14.155  68.079  1.00  0.00    -0.320 OA 
BRANCH   3   4
HETATM    4  C   UNL     1     -10.600  14.157  67.399  1.00  0.00    -0.279 C  
HETATM    5  O   UNL     1      -9.488  14.146  67.913  1.00  0.00    -0.199 OA 
BRANCH   4   6
HETATM    6  C   UNL     1     -10.880  14.163  65.884  1.00  0.00    -0.294 C  
BRANCH   6   7
HETATM    7  N   UNL     1     -11.963  13.192  65.568  1.00  0.00    -0.387 NA 
HETATM    8  H   UNL     1     -12.836  13.684  65.376  1.00  0.00     0.000 HD 
BRANCH   7   9
HETATM    9  C   UNL     1     -11.647  12.265  64.477  1.00  0.00    -0.353 C  
BRANCH   9  10
HETATM   10  C   UNL     1     -10.299  12.568  63.787  1.00  0.00    -0.388 C  
BRANCH  10  11
HETATM   11  N   UNL     1      -9.207  11.639  64.124  1.00  0.00    -0.424 NA 
HETATM   12  H   UNL     1      -8.785  11.895  65.017  1.00  0.00     0.000 HD 
BRANCH  11  13
HETATM   13  C   UNL     1      -9.605  10.200  64.128  1.00  0.00    -0.272 C  
BRANCH  13  14
HETATM   14  C   UNL     1      -8.901   9.372  63.031  1.00  0.00    -0.195 C  
HETATM   15  H   UNL     1      -6.660   9.318  61.510  1.00  0.00     0.000 H  
HETATM   16  S   UNL     1      -7.294  10.064  62.497  1.00  0.00    -0.130 SA 
ENDBRANCH  13  14
BRANCH  13  17
HETATM   17  C   UNL     1      -9.324   9.588  65.519  1.00  0.00    -0.255 C  
HETATM   18  O   UNL     1      -9.548   8.427  65.841  1.00  0.00    -0.173 OA 
BRANCH  17  19
HETATM   19  O   UNL     1      -8.777  10.529  66.343  1.00  0.00    -0.138 OA 
BRANCH  19  20
HETATM   20  C   UNL     1      -9.327  10.601  67.665  1.00  0.00    -0.146 C  
HETATM   21  C   UNL     1      -8.231  10.790  68.692  1.00  0.00    -0.139 C  
ENDBRANCH  19  20
ENDBRANCH  17  19
ENDBRANCH  13  17
ENDBRANCH  11  13
ENDBRANCH  10  11
ENDBRANCH   9  10
ENDBRANCH   7   9
ENDBRANCH   6   7
BRANCH   6  22
HETATM   22  C   UNL     1     -11.121  15.614  65.419  1.00  0.00    -0.267 C  
HETATM   23  H   UNL     1     -10.266  18.163  65.803  1.00  0.00     0.000 H  
HETATM   24  S   UNL     1     -10.049  16.856  66.222  1.00  0.00    -0.326 SA 
ENDBRANCH   6  22
ENDBRANCH   4   6
ENDBRANCH   3   4
ENDBRANCH   2   3
TORSDOF 13
ENDMDL
MODEL      301
REMARK 921   NORMALIZED FREE ENERGY PREDICTED BY IDOCK:   -3.19 KCAL/MOL
REMARK 922        TOTAL FREE ENERGY PREDICTED BY IDOCK:   -6.22 KCAL/MOL
REMARK 923 INTER-LIGAND FREE ENERGY PREDICTED BY IDOCK:   -5.08 KCAL/MOL
REMARK 924 INTRA-LIGAND FREE ENERGY PREDICTED BY IDOCK:   -1.14 KCAL/MOL
REMARK 927      BINDING AFFINITY PREDICTED BY RF-SCORE:    0.00 PKD
ROOT
HETATM    1  C   UNL     1     -11.612  12.203  69.305  1.00  0.00    -0.377 C  
HETATM    2  C   UNL     1     -12.053  13.421  70.088  1.00  0.00    -0.344 C  
ENDROOT
BRANCH   2   3
HETATM    3  O   UNL     1     -12.267  14.531  69.203  1.00  0.00    -0.284 OA 
BRANCH   3   4
HETATM    4  C   UNL     1     -11.434  15.597  69.376  1.00  0.00    -0.348 C  
HETATM    5  O   UNL     1     -11.259  16.193  70.431  1.00  0.00    -0.364 OA 
BRANCH   4   6
HETATM    6  C   UNL     1     -10.739  15.927  68.041  1.00  0.00    -0.301 C  
BRANCH   6   7
HETATM    7  N   UNL     1     -11.397  15.181  66.933  1.00  0.00    -0.307 NA 
HETATM    8  H   UNL     1     -12.008  15.802  66.401  1.00  0.00     0.000 HD 
BRANCH   7   9
HETATM    9  C   UNL     1     -10.469  14.485  66.037  1.00  0.00    -0.308 C  
BRANCH   9  10
HETATM   10  C   UNL     1      -9.182  14.002  66.742  1.00  0.00    -0.265 C  
BRANCH  10  11
HETATM   11  N   UNL     1      -8.795  12.613  66.445  1.00  0.00    -0.425 NA 
HETATM   12  H   UNL     1      -8.615  12.499  65.448  1.00  0.00     0.000 HD 
BRANCH  11  13
HETATM   13  C   UNL     1      -7.638  12.114  67.245  1.00  0.00    -0.156 C  
BRANCH  13  14
HETATM   14  C   UNL     1      -7.510  12.801  68.623  1.00  0.00    -0.092 C  
HETATM   15  H   UNL     1      -5.887  12.954  70.786  1.00  0.00     0.000 H  
HETATM   16  S   UNL     1      -6.002  12.336  69.546  1.00  0.00    -0.121 SA 
ENDBRANCH  13  14
BRANCH  13  17
HETATM   17  C   UNL     1      -7.752  10.584  67.424  1.00  0.00    -0.102 C  
HETATM   18  O   UNL     1      -7.051   9.750  66.863  1.00  0.00    -0.087 OA 
BRANCH  17  19
HETATM   19  O   UNL     1      -8.747  10.289  68.312  1.00  0.00    -0.121 OA 
BRANCH  19  20
HETATM   20  C   UNL     1      -9.522   9.119  68.019  1.00  0.00    -0.141 C  
HETATM   21  C   UNL     1     -10.612   9.435  67.017  1.00  0.00    -0.272 C  
ENDBRANCH  19  20
ENDBRANCH  17  19
ENDBRANCH  13  17
ENDBRANCH  11  13
ENDBRANCH  10  11
ENDBRANCH   9  10
ENDBRANCH   7   9
ENDBRANCH   6   7
BRANCH   6  22
HETATM   22  C   UNL     1     -10.669  17.459  67.871  1.00  0.00    -0.351 C  
HETATM   23  H   UNL     1      -9.017  19.587  68.223  1.00  0.00     0.000 H  
HETATM   24  S   UNL     1      -9.081  18.207  68.376  1.00  0.00    -0.308 SA 
ENDBRANCH   6  22
ENDBRANCH   4   6
ENDBRANCH   3   4
ENDBRANCH   2   3
TORSDOF 13
ENDMDL
MODEL      302
REMARK 921   NORMALIZED FREE ENERGY PREDICTED BY IDOCK:   -3.19 KCAL/MOL
REMARK 922        TOTAL FREE ENERGY PREDICTED BY IDOCK:   -6.20 KCAL/MOL
REMARK 923 INTER-LIGAND FREE ENERGY PREDICTED BY IDOCK:   -5.58 KCAL/MOL
REMARK 924 INTRA-LIGAND FREE ENERGY PREDICTED BY IDOCK:   -0.62 KCAL/MOL
REMARK 927      BINDING AFFINITY PREDICTED BY RF-SCORE:    0.00 PKD
ROOT
HETATM    1  C   UNL     1     -10.178   5.031  70.876  1.00  0.00    -0.287 C  
HETATM    2  C   UNL     1     -10.094   6.281  71.726  1.00  0.00    -0.186 C  
ENDROOT
BRANCH   2   3
HETATM    3  O   UNL     1      -9.445   7.335  70.999  1.00  0.00    -0.159 OA 
BRANCH   3   4
HETATM    4  C   UNL     1      -9.987   8.578  71.147  1.00  0.00    -0.207 C  
HETATM    5  O   UNL     1     -10.621   8.961  72.122  1.00  0.00    -0.340 OA 
BRANCH   4   6
HETATM    6  C   UNL     1      -9.667   9.428  69.902  1.00  0.00    -0.212 C  
BRANCH   6   7
HETATM    7  N   UNL     1     -10.633  10.556  69.801  1.00  0.00    -0.343 NA 
HETATM    8  H   UNL     1     -10.264  11.383  70.272  1.00  0.00     0.000 HD 
BRANCH   7   9
HETATM    9  C   UNL     1     -11.039  10.886  68.432  1.00  0.00    -0.262 C  
BRANCH   9  10
HETATM   10  C   UNL     1     -11.859  12.192  68.334  1.00  0.00    -0.303 C  
BRANCH  10  11
HETATM   11  N   UNL     1     -12.102  12.670  66.963  1.00  0.00    -0.486 NA 
HETATM   12  H   UNL     1     -12.738  13.468  66.972  1.00  0.00     0.000 HD 
BRANCH  11  13
HETATM   13  C   UNL     1     -10.862  12.998  66.199  1.00  0.00    -0.279 C  
BRANCH  13  14
HETATM   14  C   UNL     1     -11.138  13.373  64.726  1.00  0.00    -0.351 C  
HETATM   15  H   UNL     1     -10.880  12.425  62.201  1.00  0.00     0.000 H  
HETATM   16  S   UNL     1     -10.632  12.088  63.527  1.00  0.00    -0.453 SA 
ENDBRANCH  13  14
BRANCH  13  17
HETATM   17  C   UNL     1     -10.105  14.144  66.905  1.00  0.00    -0.258 C  
HETATM   18  O   UNL     1      -8.997  14.049  67.422  1.00  0.00    -0.186 OA 
BRANCH  17  19
HETATM   19  O   UNL     1     -10.845  15.290  66.864  1.00  0.00    -0.310 OA 
BRANCH  19  20
HETATM   20  C   UNL     1     -11.160  15.880  68.132  1.00  0.00    -0.338 C  
HETATM   21  C   UNL     1     -10.365  17.151  68.346  1.00  0.00    -0.362 C  
ENDBRANCH  19  20
ENDBRANCH  17  19
ENDBRANCH  13  17
ENDBRANCH  11  13
ENDBRANCH  10  11
ENDBRANCH   9  10
ENDBRANCH   7   9
ENDBRANCH   6   7
BRANCH   6  22
HETATM   22  C   UNL     1      -8.176   9.820  69.925  1.00  0.00    -0.183 C  
HETATM   23  H   UNL     1      -5.920   9.780  68.412  1.00  0.00     0.000 H  
HETATM   24  S   UNL     1      -7.264   9.427  68.391  1.00  0.00    -0.076 SA 
ENDBRANCH   6  22
ENDBRANCH   4   6
ENDBRANCH   3   4
ENDBRANCH   2   3
TORSDOF 13
ENDMDL
MODEL      303
REMARK 921   NORMALIZED FREE ENERGY PREDICTED BY IDOCK:   -3.18 KCAL/MOL
REMARK 922        TOTAL FREE ENERGY PREDICTED BY IDOCK:   -6.18 KCAL/MOL
REMARK 923 INTER-LIGAND FREE ENERGY PREDICTED BY IDOCK:   -5.46 KCAL/MOL
REMARK 924 INTRA-LIGAND FREE ENERGY PREDICTED BY IDOCK:   -0.72 KCAL/MOL
REMARK 927      BINDING AFFINITY PREDICTED BY RF-SCORE:    0.00 PKD
ROOT
HETATM    1  C   UNL     1      -9.302   7.321  70.457  1.00  0.00    -0.158 C  
HETATM    2  C   UNL     1     -10.267   8.155  69.642  1.00  0.00    -0.205 C  
ENDROOT
BRANCH   2   3
HETATM    3  O   UNL     1      -9.652   9.394  69.257  1.00  0.00    -0.161 OA 
BRANCH   3   4
HETATM    4  C   UNL     1     -10.418  10.511  69.414  1.00  0.00    -0.240 C  
HETATM    5  O   UNL     1     -11.292  10.655  70.259  1.00  0.00    -0.298 OA 
BRANCH   4   6
HETATM    6  C   UNL     1     -10.005  11.567  68.371  1.00  0.00    -0.206 C  
BRANCH   6   7
HETATM    7  N   UNL     1      -8.535  11.792  68.436  1.00  0.00    -0.159 NA 
HETATM    8  H   UNL     1      -8.041  11.069  67.911  1.00  0.00     0.000 HD 
BRANCH   7   9
HETATM    9  C   UNL     1      -8.105  13.124  68.000  1.00  0.00    -0.157 C  
BRANCH   9  10
HETATM   10  C   UNL     1      -9.024  14.259  68.503  1.00  0.00    -0.185 C  
BRANCH  10  11
HETATM   11  N   UNL     1      -9.133  15.416  67.600  1.00  0.00    -0.181 NA 
HETATM   12  H   UNL     1      -9.671  15.171  66.769  1.00  0.00     0.000 HD 
BRANCH  11  13
HETATM   13  C   UNL     1      -9.691  16.644  68.240  1.00  0.00    -0.244 C  
BRANCH  13  14
HETATM   14  C   UNL     1      -9.961  17.784  67.234  1.00  0.00    -0.324 C  
HETATM   15  H   UNL     1     -10.478  20.441  67.111  1.00  0.00     0.000 H  
HETATM   16  S   UNL     1     -10.234  19.414  68.016  1.00  0.00    -0.432 SA 
ENDBRANCH  13  14
BRANCH  13  17
HETATM   17  C   UNL     1     -10.987  16.289  69.002  1.00  0.00    -0.325 C  
HETATM   18  O   UNL     1     -11.992  15.796  68.501  1.00  0.00    -0.314 OA 
BRANCH  17  19
HETATM   19  O   UNL     1     -10.851  16.595  70.325  1.00  0.00    -0.269 OA 
BRANCH  19  20
HETATM   20  C   UNL     1     -11.241  15.571  71.249  1.00  0.00    -0.356 C  
HETATM   21  C   UNL     1     -11.818  16.177  72.511  1.00  0.00    -0.630 C  
ENDBRANCH  19  20
ENDBRANCH  17  19
ENDBRANCH  13  17
ENDBRANCH  11  13
ENDBRANCH  10  11
ENDBRANCH   9  10
ENDBRANCH   7   9
ENDBRANCH   6   7
BRANCH   6  22
HETATM   22  C   UNL     1     -10.562  11.161  66.991  1.00  0.00    -0.252 C  
HETATM   23  H   UNL     1     -12.242  11.989  65.024  1.00  0.00     0.000 H  
HETATM   24  S   UNL     1     -11.740  12.355  66.267  1.00  0.00    -0.364 SA 
ENDBRANCH   6  22
ENDBRANCH   4   6
ENDBRANCH   3   4
ENDBRANCH   2   3
TORSDOF 13
ENDMDL
MODEL      304
REMARK 921   NORMALIZED FREE ENERGY PREDICTED BY IDOCK:   -3.18 KCAL/MOL
REMARK 922        TOTAL FREE ENERGY PREDICTED BY IDOCK:   -6.18 KCAL/MOL
REMARK 923 INTER-LIGAND FREE ENERGY PREDICTED BY IDOCK:   -5.40 KCAL/MOL
REMARK 924 INTRA-LIGAND FREE ENERGY PREDICTED BY IDOCK:   -0.79 KCAL/MOL
REMARK 927      BINDING AFFINITY PREDICTED BY RF-SCORE:    0.00 PKD
ROOT
HETATM    1  C   UNL     1     -10.257  10.402  64.989  1.00  0.00    -0.334 C  
HETATM    2  C   UNL     1     -11.027  11.672  64.697  1.00  0.00    -0.301 C  
ENDROOT
BRANCH   2   3
HETATM    3  O   UNL     1     -11.684  12.140  65.885  1.00  0.00    -0.411 OA 
BRANCH   3   4
HETATM    4  C   UNL     1     -10.964  12.997  66.664  1.00  0.00    -0.279 C  
HETATM    5  O   UNL     1     -10.166  13.828  66.248  1.00  0.00    -0.282 OA 
BRANCH   4   6
HETATM    6  C   UNL     1     -11.318  12.765  68.145  1.00  0.00    -0.288 C  
BRANCH   6   7
HETATM    7  N   UNL     1     -10.102  12.342  68.893  1.00  0.00    -0.428 NA 
HETATM    8  H   UNL     1     -10.205  12.553  69.886  1.00  0.00     0.000 HD 
BRANCH   7   9
HETATM    9  C   UNL     1      -9.733  10.936  68.704  1.00  0.00    -0.185 C  
BRANCH   9  10
HETATM   10  C   UNL     1     -10.949   9.984  68.661  1.00  0.00    -0.204 C  
BRANCH  10  11
HETATM   11  N   UNL     1     -10.969   8.957  69.716  1.00  0.00    -0.367 NA 
HETATM   12  H   UNL     1     -11.851   8.990  70.228  1.00  0.00     0.000 HD 
BRANCH  11  13
HETATM   13  C   UNL     1     -10.700   7.571  69.228  1.00  0.00    -0.176 C  
BRANCH  13  14
HETATM   14  C   UNL     1     -10.333   7.515  67.729  1.00  0.00    -0.216 C  
HETATM   15  H   UNL     1     -10.306   5.837  65.603  1.00  0.00     0.000 H  
HETATM   16  S   UNL     1     -10.636   5.888  66.952  1.00  0.00    -0.316 SA 
ENDBRANCH  13  14
BRANCH  13  17
HETATM   17  C   UNL     1      -9.576   6.933  70.074  1.00  0.00    -0.157 C  
HETATM   18  O   UNL     1      -8.455   6.651  69.668  1.00  0.00    -0.129 OA 
BRANCH  17  19
HETATM   19  O   UNL     1     -10.009   6.734  71.354  1.00  0.00    -0.180 OA 
BRANCH  19  20
HETATM   20  C   UNL     1      -9.021   6.891  72.382  1.00  0.00    -0.133 C  
HETATM   21  C   UNL     1      -9.664   7.324  73.682  1.00  0.00    -0.335 C  
ENDBRANCH  19  20
ENDBRANCH  17  19
ENDBRANCH  13  17
ENDBRANCH  11  13
ENDBRANCH  10  11
ENDBRANCH   9  10
ENDBRANCH   7   9
ENDBRANCH   6   7
BRANCH   6  22
HETATM   22  C   UNL     1     -12.045  14.010  68.693  1.00  0.00    -0.297 C  
HETATM   23  H   UNL     1     -12.892  15.160  71.004  1.00  0.00     0.000 H  
HETATM   24  S   UNL     1     -12.237  14.038  70.510  1.00  0.00    -0.380 SA 
ENDBRANCH   6  22
ENDBRANCH   4   6
ENDBRANCH   3   4
ENDBRANCH   2   3
TORSDOF 13
ENDMDL
MODEL      305
REMARK 921   NORMALIZED FREE ENERGY PREDICTED BY IDOCK:   -3.16 KCAL/MOL
REMARK 922        TOTAL FREE ENERGY PREDICTED BY IDOCK:   -6.16 KCAL/MOL
REMARK 923 INTER-LIGAND FREE ENERGY PREDICTED BY IDOCK:   -5.29 KCAL/MOL
REMARK 924 INTRA-LIGAND FREE ENERGY PREDICTED BY IDOCK:   -0.87 KCAL/MOL
REMARK 927      BINDING AFFINITY PREDICTED BY RF-SCORE:    0.00 PKD
ROOT
HETATM    1  C   UNL     1     -10.227   5.103  71.494  1.00  0.00    -0.274 C  
HETATM    2  C   UNL     1     -11.343   5.917  70.872  1.00  0.00    -0.148 C  
ENDROOT
BRANCH   2   3
HETATM    3  O   UNL     1     -10.871   7.230  70.533  1.00  0.00    -0.231 OA 
BRANCH   3   4
HETATM    4  C   UNL     1     -10.776   7.500  69.200  1.00  0.00    -0.151 C  
HETATM    5  O   UNL     1     -11.026   6.709  68.299  1.00  0.00    -0.262 OA 
BRANCH   4   6
HETATM    6  C   UNL     1     -10.316   8.957  69.003  1.00  0.00    -0.212 C  
BRANCH   6   7
HETATM    7  N   UNL     1     -11.500   9.834  68.788  1.00  0.00    -0.477 NA 
HETATM    8  H   UNL     1     -12.309   9.467  69.289  1.00  0.00     0.000 HD 
BRANCH   7   9
HETATM    9  C   UNL     1     -11.281  11.243  69.131  1.00  0.00    -0.273 C  
BRANCH   9  10
HETATM   10  C   UNL     1     -10.785  12.093  67.940  1.00  0.00    -0.207 C  
BRANCH  10  11
HETATM   11  N   UNL     1     -10.882  11.436  66.626  1.00  0.00    -0.280 NA 
HETATM   12  H   UNL     1     -11.792  11.617  66.203  1.00  0.00     0.000 HD 
BRANCH  11  13
HETATM   13  C   UNL     1      -9.785  11.794  65.678  1.00  0.00    -0.233 C  
BRANCH  13  14
HETATM   14  C   UNL     1      -8.525  10.918  65.848  1.00  0.00    -0.158 C  
HETATM   15  H   UNL     1      -7.661   8.360  65.623  1.00  0.00     0.000 H  
HETATM   16  S   UNL     1      -8.795   9.149  65.469  1.00  0.00    -0.202 SA 
ENDBRANCH  13  14
BRANCH  13  17
HETATM   17  C   UNL     1     -10.304  11.703  64.226  1.00  0.00    -0.322 C  
HETATM   18  O   UNL     1      -9.609  11.775  63.219  1.00  0.00    -0.349 OA 
BRANCH  17  19
HETATM   19  O   UNL     1     -11.656  11.518  64.222  1.00  0.00    -0.265 OA 
BRANCH  19  20
HETATM   20  C   UNL     1     -12.420  12.488  63.493  1.00  0.00    -0.459 C  
HETATM   21  C   UNL     1     -12.317  13.851  64.144  1.00  0.00    -0.380 C  
ENDBRANCH  19  20
ENDBRANCH  17  19
ENDBRANCH  13  17
ENDBRANCH  11  13
ENDBRANCH  10  11
ENDBRANCH   9  10
ENDBRANCH   7   9
ENDBRANCH   6   7
BRANCH   6  22
HETATM   22  C   UNL     1      -9.387   9.357  70.168  1.00  0.00    -0.241 C  
HETATM   23  H   UNL     1      -6.882  10.260  70.705  1.00  0.00     0.000 H  
HETATM   24  S   UNL     1      -7.720   9.900  69.657  1.00  0.00    -0.166 SA 
ENDBRANCH   6  22
ENDBRANCH   4   6
ENDBRANCH   3   4
ENDBRANCH   2   3
TORSDOF 13
ENDMDL
MODEL      306
REMARK 921   NORMALIZED FREE ENERGY PREDICTED BY IDOCK:   -3.16 KCAL/MOL
REMARK 922        TOTAL FREE ENERGY PREDICTED BY IDOCK:   -6.15 KCAL/MOL
REMARK 923 INTER-LIGAND FREE ENERGY PREDICTED BY IDOCK:   -5.44 KCAL/MOL
REMARK 924 INTRA-LIGAND FREE ENERGY PREDICTED BY IDOCK:   -0.71 KCAL/MOL
REMARK 927      BINDING AFFINITY PREDICTED BY RF-SCORE:    0.00 PKD
ROOT
HETATM    1  C   UNL     1      -9.155   5.437  69.209  1.00  0.00    -0.133 C  
HETATM    2  C   UNL     1      -9.743   4.748  70.422  1.00  0.00    -0.219 C  
ENDROOT
BRANCH   2   3
HETATM    3  O   UNL     1      -9.478   5.514  71.607  1.00  0.00    -0.145 OA 
BRANCH   3   4
HETATM    4  C   UNL     1     -10.567   5.841  72.359  1.00  0.00    -0.220 C  
HETATM    5  O   UNL     1     -11.143   5.087  73.134  1.00  0.00    -0.277 OA 
BRANCH   4   6
HETATM    6  C   UNL     1     -10.955   7.307  72.089  1.00  0.00    -0.239 C  
BRANCH   6   7
HETATM    7  N   UNL     1      -9.751   8.079  71.677  1.00  0.00    -0.163 NA 
HETATM    8  H   UNL     1      -9.180   7.529  71.034  1.00  0.00     0.000 HD 
BRANCH   7   9
HETATM    9  C   UNL     1     -10.043   9.397  71.103  1.00  0.00    -0.265 C  
BRANCH   9  10
HETATM   10  C   UNL     1      -9.636   9.522  69.618  1.00  0.00    -0.202 C  
BRANCH  10  11
HETATM   11  N   UNL     1      -9.375  10.896  69.160  1.00  0.00    -0.378 NA 
HETATM   12  H   UNL     1      -8.374  11.095  69.181  1.00  0.00     0.000 HD 
BRANCH  11  13
HETATM   13  C   UNL     1      -9.942  11.214  67.817  1.00  0.00    -0.175 C  
BRANCH  13  14
HETATM   14  C   UNL     1     -10.261   9.956  66.979  1.00  0.00    -0.233 C  
HETATM   15  H   UNL     1      -9.681   8.765  64.616  1.00  0.00     0.000 H  
HETATM   16  S   UNL     1      -9.394   9.897  65.370  1.00  0.00    -0.259 SA 
ENDBRANCH  13  14
BRANCH  13  17
HETATM   17  C   UNL     1     -11.212  12.078  67.980  1.00  0.00    -0.258 C  
HETATM   18  O   UNL     1     -11.629  12.533  69.040  1.00  0.00    -0.273 OA 
BRANCH  17  19
HETATM   19  O   UNL     1     -11.804  12.276  66.766  1.00  0.00    -0.533 OA 
BRANCH  19  20
HETATM   20  C   UNL     1     -12.005  13.642  66.380  1.00  0.00    -0.426 C  
HETATM   21  C   UNL     1     -12.722  13.724  65.050  1.00  0.00    -0.379 C  
ENDBRANCH  19  20
ENDBRANCH  17  19
ENDBRANCH  13  17
ENDBRANCH  11  13
ENDBRANCH  10  11
ENDBRANCH   9  10
ENDBRANCH   7   9
ENDBRANCH   6   7
BRANCH   6  22
HETATM   22  C   UNL     1     -12.146   7.344  71.109  1.00  0.00    -0.325 C  
HETATM   23  H   UNL     1     -14.699   8.238  70.863  1.00  0.00     0.000 H  
HETATM   24  S   UNL     1     -13.627   8.204  71.745  1.00  0.00    -0.338 SA 
ENDBRANCH   6  22
ENDBRANCH   4   6
ENDBRANCH   3   4
ENDBRANCH   2   3
TORSDOF 13
ENDMDL
MODEL      307
REMARK 921   NORMALIZED FREE ENERGY PREDICTED BY IDOCK:   -3.16 KCAL/MOL
REMARK 922        TOTAL FREE ENERGY PREDICTED BY IDOCK:   -6.15 KCAL/MOL
REMARK 923 INTER-LIGAND FREE ENERGY PREDICTED BY IDOCK:   -5.59 KCAL/MOL
REMARK 924 INTRA-LIGAND FREE ENERGY PREDICTED BY IDOCK:   -0.55 KCAL/MOL
REMARK 927      BINDING AFFINITY PREDICTED BY RF-SCORE:    0.00 PKD
ROOT
HETATM    1  C   UNL     1      -7.066   8.533  67.496  1.00  0.00    -0.080 C  
HETATM    2  C   UNL     1      -7.953   7.468  68.104  1.00  0.00    -0.123 C  
ENDROOT
BRANCH   2   3
HETATM    3  O   UNL     1      -8.965   7.069  67.168  1.00  0.00    -0.118 OA 
BRANCH   3   4
HETATM    4  C   UNL     1     -10.241   7.041  67.649  1.00  0.00    -0.193 C  
HETATM    5  O   UNL     1     -11.234   6.739  66.999  1.00  0.00    -0.393 OA 
BRANCH   4   6
HETATM    6  C   UNL     1     -10.237   7.437  69.137  1.00  0.00    -0.196 C  
BRANCH   6   7
HETATM    7  N   UNL     1     -10.886   8.766  69.307  1.00  0.00    -0.399 NA 
HETATM    8  H   UNL     1     -10.669   9.153  70.225  1.00  0.00     0.000 HD 
BRANCH   7   9
HETATM    9  C   UNL     1     -10.567   9.735  68.253  1.00  0.00    -0.229 C  
BRANCH   9  10
HETATM   10  C   UNL     1     -11.260  11.102  68.449  1.00  0.00    -0.262 C  
BRANCH  10  11
HETATM   11  N   UNL     1     -12.035  11.576  67.291  1.00  0.00    -0.554 NA 
HETATM   12  H   UNL     1     -13.009  11.730  67.553  1.00  0.00     0.000 HD 
BRANCH  11  13
HETATM   13  C   UNL     1     -11.473  12.791  66.631  1.00  0.00    -0.350 C  
BRANCH  13  14
HETATM   14  C   UNL     1     -12.372  13.340  65.502  1.00  0.00    -0.480 C  
HETATM   15  H   UNL     1     -12.610  13.397  62.804  1.00  0.00     0.000 H  
HETATM   16  S   UNL     1     -11.801  12.902  63.820  1.00  0.00    -0.532 SA 
ENDBRANCH  13  14
BRANCH  13  17
HETATM   17  C   UNL     1     -11.221  13.887  67.690  1.00  0.00    -0.295 C  
HETATM   18  O   UNL     1     -12.089  14.461  68.337  1.00  0.00    -0.322 OA 
BRANCH  17  19
HETATM   19  O   UNL     1      -9.881  14.121  67.813  1.00  0.00    -0.223 OA 
BRANCH  19  20
HETATM   20  C   UNL     1      -9.060  13.644  66.738  1.00  0.00    -0.217 C  
HETATM   21  C   UNL     1      -7.811  12.977  67.273  1.00  0.00    -0.132 C  
ENDBRANCH  19  20
ENDBRANCH  17  19
ENDBRANCH  13  17
ENDBRANCH  11  13
ENDBRANCH  10  11
ENDBRANCH   9  10
ENDBRANCH   7   9
ENDBRANCH   6   7
BRANCH   6  22
HETATM   22  C   UNL     1     -10.836   6.285  69.970  1.00  0.00    -0.324 C  
HETATM   23  H   UNL     1     -10.490   3.657  70.563  1.00  0.00     0.000 H  
HETATM   24  S   UNL     1      -9.951   4.695  69.813  1.00  0.00    -0.171 SA 
ENDBRANCH   6  22
ENDBRANCH   4   6
ENDBRANCH   3   4
ENDBRANCH   2   3
TORSDOF 13
ENDMDL
MODEL      308
REMARK 921   NORMALIZED FREE ENERGY PREDICTED BY IDOCK:   -3.15 KCAL/MOL
REMARK 922        TOTAL FREE ENERGY PREDICTED BY IDOCK:   -6.14 KCAL/MOL
REMARK 923 INTER-LIGAND FREE ENERGY PREDICTED BY IDOCK:   -5.16 KCAL/MOL
REMARK 924 INTRA-LIGAND FREE ENERGY PREDICTED BY IDOCK:   -0.98 KCAL/MOL
REMARK 927      BINDING AFFINITY PREDICTED BY RF-SCORE:    0.00 PKD
ROOT
HETATM    1  C   UNL     1      -8.066   5.786  64.510  1.00  0.00    -0.132 C  
HETATM    2  C   UNL     1      -7.505   7.072  63.941  1.00  0.00    -0.096 C  
ENDROOT
BRANCH   2   3
HETATM    3  O   UNL     1      -8.351   8.179  64.287  1.00  0.00    -0.131 OA 
BRANCH   3   4
HETATM    4  C   UNL     1      -7.722   9.257  64.837  1.00  0.00    -0.110 C  
HETATM    5  O   UNL     1      -6.552   9.566  64.646  1.00  0.00    -0.085 OA 
BRANCH   4   6
HETATM    6  C   UNL     1      -8.713  10.031  65.727  1.00  0.00    -0.145 C  
BRANCH   6   7
HETATM    7  N   UNL     1      -9.160  11.266  65.028  1.00  0.00    -0.370 NA 
HETATM    8  H   UNL     1      -8.521  11.493  64.265  1.00  0.00     0.000 HD 
BRANCH   7   9
HETATM    9  C   UNL     1     -10.543  11.222  64.542  1.00  0.00    -0.336 C  
BRANCH   9  10
HETATM   10  C   UNL     1     -11.355  12.489  64.888  1.00  0.00    -0.310 C  
BRANCH  10  11
HETATM   11  N   UNL     1     -12.179  12.385  66.103  1.00  0.00    -0.609 NA 
HETATM   12  H   UNL     1     -12.447  11.415  66.270  1.00  0.00     0.000 HD 
BRANCH  11  13
HETATM   13  C   UNL     1     -11.550  12.970  67.324  1.00  0.00    -0.356 C  
BRANCH  13  14
HETATM   14  C   UNL     1     -10.869  11.914  68.222  1.00  0.00    -0.224 C  
HETATM   15  H   UNL     1     -11.226  10.515  70.514  1.00  0.00     0.000 H  
HETATM   16  S   UNL     1     -11.839  11.465  69.705  1.00  0.00    -0.385 SA 
ENDBRANCH  13  14
BRANCH  13  17
HETATM   17  C   UNL     1     -10.530  14.055  66.913  1.00  0.00    -0.276 C  
HETATM   18  O   UNL     1      -9.323  13.883  66.786  1.00  0.00    -0.260 OA 
BRANCH  17  19
HETATM   19  O   UNL     1     -11.170  15.242  66.699  1.00  0.00    -0.314 OA 
BRANCH  19  20
HETATM   20  C   UNL     1     -10.576  16.107  65.721  1.00  0.00    -0.334 C  
HETATM   21  C   UNL     1     -11.357  16.067  64.425  1.00  0.00    -0.253 C  
ENDBRANCH  19  20
ENDBRANCH  17  19
ENDBRANCH  13  17
ENDBRANCH  11  13
ENDBRANCH  10  11
ENDBRANCH   9  10
ENDBRANCH   7   9
ENDBRANCH   6   7
BRANCH   6  22
HETATM   22  C   UNL     1      -9.834   9.075  66.186  1.00  0.00    -0.278 C  
HETATM   23  H   UNL     1     -10.548   7.417  68.216  1.00  0.00     0.000 H  
HETATM   24  S   UNL     1      -9.538   8.278  67.802  1.00  0.00    -0.154 SA 
ENDBRANCH   6  22
ENDBRANCH   4   6
ENDBRANCH   3   4
ENDBRANCH   2   3
TORSDOF 13
ENDMDL
MODEL      309
REMARK 921   NORMALIZED FREE ENERGY PREDICTED BY IDOCK:   -3.15 KCAL/MOL
REMARK 922        TOTAL FREE ENERGY PREDICTED BY IDOCK:   -6.13 KCAL/MOL
REMARK 923 INTER-LIGAND FREE ENERGY PREDICTED BY IDOCK:   -5.75 KCAL/MOL
REMARK 924 INTRA-LIGAND FREE ENERGY PREDICTED BY IDOCK:   -0.38 KCAL/MOL
REMARK 927      BINDING AFFINITY PREDICTED BY RF-SCORE:    0.00 PKD
ROOT
HETATM    1  C   UNL     1      -7.606  12.472  67.876  1.00  0.00    -0.133 C  
HETATM    2  C   UNL     1      -8.459  11.912  66.758  1.00  0.00    -0.167 C  
ENDROOT
BRANCH   2   3
HETATM    3  O   UNL     1      -8.182  10.515  66.573  1.00  0.00    -0.124 OA 
BRANCH   3   4
HETATM    4  C   UNL     1      -9.253   9.678  66.684  1.00  0.00    -0.151 C  
HETATM    5  O   UNL     1      -9.868   9.190  65.745  1.00  0.00    -0.286 OA 
BRANCH   4   6
HETATM    6  C   UNL     1      -9.560   9.433  68.174  1.00  0.00    -0.142 C  
BRANCH   6   7
HETATM    7  N   UNL     1     -10.998   9.705  68.443  1.00  0.00    -0.445 NA 
HETATM    8  H   UNL     1     -11.240   9.430  69.395  1.00  0.00     0.000 HD 
BRANCH   7   9
HETATM    9  C   UNL     1     -11.410  11.090  68.190  1.00  0.00    -0.307 C  
BRANCH   9  10
HETATM   10  C   UNL     1     -12.238  11.702  69.342  1.00  0.00    -0.182 C  
BRANCH  10  11
HETATM   11  N   UNL     1     -11.549  12.752  70.110  1.00  0.00    -0.536 NA 
HETATM   12  H   UNL     1     -10.711  12.377  70.555  1.00  0.00     0.000 HD 
BRANCH  11  13
HETATM   13  C   UNL     1     -11.219  13.974  69.319  1.00  0.00    -0.261 C  
BRANCH  13  14
HETATM   14  C   UNL     1     -12.140  14.173  68.095  1.00  0.00    -0.262 C  
HETATM   15  H   UNL     1     -12.083  14.844  65.472  1.00  0.00     0.000 H  
HETATM   16  S   UNL     1     -11.254  14.665  66.573  1.00  0.00    -0.349 SA 
ENDBRANCH  13  14
BRANCH  13  17
HETATM   17  C   UNL     1     -11.277  15.217  70.235  1.00  0.00    -0.277 C  
HETATM   18  O   UNL     1     -10.996  16.361  69.897  1.00  0.00    -0.349 OA 
BRANCH  17  19
HETATM   19  O   UNL     1     -11.700  14.860  71.483  1.00  0.00    -0.336 OA 
BRANCH  19  20
HETATM   20  C   UNL     1     -12.583  15.782  72.134  1.00  0.00    -0.453 C  
HETATM   21  C   UNL     1     -14.023  15.330  72.003  1.00  0.00    -0.645 C  
ENDBRANCH  19  20
ENDBRANCH  17  19
ENDBRANCH  13  17
ENDBRANCH  11  13
ENDBRANCH  10  11
ENDBRANCH   9  10
ENDBRANCH   7   9
ENDBRANCH   6   7
BRANCH   6  22
HETATM   22  C   UNL     1      -9.056   8.030  68.571  1.00  0.00    -0.136 C  
HETATM   23  H   UNL     1      -9.920   5.522  69.156  1.00  0.00     0.000 H  
HETATM   24  S   UNL     1     -10.374   6.786  68.798  1.00  0.00    -0.209 SA 
ENDBRANCH   6  22
ENDBRANCH   4   6
ENDBRANCH   3   4
ENDBRANCH   2   3
TORSDOF 13
ENDMDL
MODEL      310
REMARK 921   NORMALIZED FREE ENERGY PREDICTED BY IDOCK:   -3.13 KCAL/MOL
REMARK 922        TOTAL FREE ENERGY PREDICTED BY IDOCK:   -6.10 KCAL/MOL
REMARK 923 INTER-LIGAND FREE ENERGY PREDICTED BY IDOCK:   -5.39 KCAL/MOL
REMARK 924 INTRA-LIGAND FREE ENERGY PREDICTED BY IDOCK:   -0.71 KCAL/MOL
REMARK 927      BINDING AFFINITY PREDICTED BY RF-SCORE:    0.00 PKD
ROOT
HETATM    1  C   UNL     1      -8.699  14.355  67.623  1.00  0.00    -0.191 C  
HETATM    2  C   UNL     1     -10.053  14.410  66.948  1.00  0.00    -0.259 C  
ENDROOT
BRANCH   2   3
HETATM    3  O   UNL     1     -10.226  13.275  66.087  1.00  0.00    -0.283 OA 
BRANCH   3   4
HETATM    4  C   UNL     1     -10.813  12.183  66.655  1.00  0.00    -0.268 C  
HETATM    5  O   UNL     1     -11.955  12.143  67.095  1.00  0.00    -0.580 OA 
BRANCH   4   6
HETATM    6  C   UNL     1      -9.819  11.005  66.649  1.00  0.00    -0.200 C  
BRANCH   6   7
HETATM    7  N   UNL     1     -10.527   9.748  67.015  1.00  0.00    -0.239 NA 
HETATM    8  H   UNL     1     -10.745   9.206  66.178  1.00  0.00     0.000 HD 
BRANCH   7   9
HETATM    9  C   UNL     1      -9.818   8.916  67.992  1.00  0.00    -0.168 C  
BRANCH   9  10
HETATM   10  C   UNL     1     -10.694   7.794  68.592  1.00  0.00    -0.047 C  
BRANCH  10  11
HETATM   11  N   UNL     1     -11.405   8.157  69.829  1.00  0.00    -0.453 NA 
HETATM   12  H   UNL     1     -11.583   7.327  70.395  1.00  0.00     0.000 HD 
BRANCH  11  13
HETATM   13  C   UNL     1     -10.722   9.206  70.643  1.00  0.00    -0.254 C  
BRANCH  13  14
HETATM   14  C   UNL     1     -11.616  10.434  70.925  1.00  0.00    -0.337 C  
HETATM   15  H   UNL     1     -14.090  11.114  71.794  1.00  0.00     0.000 H  
HETATM   16  S   UNL     1     -13.285  10.009  71.540  1.00  0.00    -0.390 SA 
ENDBRANCH  13  14
BRANCH  13  17
HETATM   17  C   UNL     1     -10.228   8.593  71.972  1.00  0.00    -0.337 C  
HETATM   18  O   UNL     1     -10.854   7.796  72.662  1.00  0.00    -0.292 OA 
BRANCH  17  19
HETATM   19  O   UNL     1      -8.979   9.059  72.267  1.00  0.00    -0.360 OA 
BRANCH  19  20
HETATM   20  C   UNL     1      -7.890   8.385  71.624  1.00  0.00    -0.120 C  
HETATM   21  C   UNL     1      -6.961   9.380  70.959  1.00  0.00    -0.066 C  
ENDBRANCH  19  20
ENDBRANCH  17  19
ENDBRANCH  13  17
ENDBRANCH  11  13
ENDBRANCH  10  11
ENDBRANCH   9  10
ENDBRANCH   7   9
ENDBRANCH   6   7
BRANCH   6  22
HETATM   22  C   UNL     1      -9.066  10.985  65.303  1.00  0.00    -0.189 C  
HETATM   23  H   UNL     1      -9.465  10.848  62.619  1.00  0.00     0.000 H  
HETATM   24  S   UNL     1     -10.143  10.866  63.832  1.00  0.00    -0.359 SA 
ENDBRANCH   6  22
ENDBRANCH   4   6
ENDBRANCH   3   4
ENDBRANCH   2   3
TORSDOF 13
ENDMDL
MODEL      311
REMARK 921   NORMALIZED FREE ENERGY PREDICTED BY IDOCK:   -3.11 KCAL/MOL
REMARK 922        TOTAL FREE ENERGY PREDICTED BY IDOCK:   -6.08 KCAL/MOL
REMARK 923 INTER-LIGAND FREE ENERGY PREDICTED BY IDOCK:   -5.24 KCAL/MOL
REMARK 924 INTRA-LIGAND FREE ENERGY PREDICTED BY IDOCK:   -0.83 KCAL/MOL
REMARK 927      BINDING AFFINITY PREDICTED BY RF-SCORE:    0.00 PKD
ROOT
HETATM    1  C   UNL     1     -14.394  14.895  71.993  1.00  0.00    -0.651 C  
HETATM    2  C   UNL     1     -13.573  13.633  72.147  1.00  0.00    -0.538 C  
ENDROOT
BRANCH   2   3
HETATM    3  O   UNL     1     -12.640  13.511  71.063  1.00  0.00    -0.353 OA 
BRANCH   3   4
HETATM    4  C   UNL     1     -12.388  12.240  70.637  1.00  0.00    -0.286 C  
HETATM    5  O   UNL     1     -12.755  11.219  71.204  1.00  0.00    -0.384 OA 
BRANCH   4   6
HETATM    6  C   UNL     1     -11.580  12.289  69.326  1.00  0.00    -0.324 C  
BRANCH   6   7
HETATM    7  N   UNL     1     -12.061  11.229  68.398  1.00  0.00    -0.643 NA 
HETATM    8  H   UNL     1     -12.779  11.601  67.775  1.00  0.00     0.000 HD 
BRANCH   7   9
HETATM    9  C   UNL     1     -11.002  10.575  67.623  1.00  0.00    -0.314 C  
BRANCH   9  10
HETATM   10  C   UNL     1      -9.616  10.644  68.302  1.00  0.00    -0.162 C  
BRANCH  10  11
HETATM   11  N   UNL     1      -9.046   9.341  68.682  1.00  0.00    -0.132 NA 
HETATM   12  H   UNL     1      -8.382   9.022  67.976  1.00  0.00     0.000 HD 
BRANCH  11  13
HETATM   13  C   UNL     1      -8.420   9.316  70.037  1.00  0.00    -0.176 C  
BRANCH  13  14
HETATM   14  C   UNL     1      -9.431   9.032  71.169  1.00  0.00    -0.278 C  
HETATM   15  H   UNL     1     -11.834   7.874  71.639  1.00  0.00     0.000 H  
HETATM   16  S   UNL     1     -10.924   8.130  70.620  1.00  0.00    -0.244 SA 
ENDBRANCH  13  14
BRANCH  13  17
HETATM   17  C   UNL     1      -7.283   8.271  70.065  1.00  0.00    -0.059 C  
HETATM   18  O   UNL     1      -6.287   8.285  69.349  1.00  0.00    -0.037 OA 
BRANCH  17  19
HETATM   19  O   UNL     1      -7.540   7.324  71.015  1.00  0.00    -0.082 OA 
BRANCH  19  20
HETATM   20  C   UNL     1      -7.299   5.965  70.628  1.00  0.00    -0.085 C  
HETATM   21  C   UNL     1      -8.310   5.514  69.595  1.00  0.00    -0.102 C  
ENDBRANCH  19  20
ENDBRANCH  17  19
ENDBRANCH  13  17
ENDBRANCH  11  13
ENDBRANCH  10  11
ENDBRANCH   9  10
ENDBRANCH   7   9
ENDBRANCH   6   7
BRANCH   6  22
HETATM   22  C   UNL     1     -11.601  13.728  68.771  1.00  0.00    -0.328 C  
HETATM   23  H   UNL     1     -12.310  15.179  66.587  1.00  0.00     0.000 H  
HETATM   24  S   UNL     1     -12.291  13.883  67.087  1.00  0.00    -0.070 SA 
ENDBRANCH   6  22
ENDBRANCH   4   6
ENDBRANCH   3   4
ENDBRANCH   2   3
TORSDOF 13
ENDMDL
MODEL      312
REMARK 921   NORMALIZED FREE ENERGY PREDICTED BY IDOCK:   -3.11 KCAL/MOL
REMARK 922        TOTAL FREE ENERGY PREDICTED BY IDOCK:   -6.07 KCAL/MOL
REMARK 923 INTER-LIGAND FREE ENERGY PREDICTED BY IDOCK:   -5.05 KCAL/MOL
REMARK 924 INTRA-LIGAND FREE ENERGY PREDICTED BY IDOCK:   -1.02 KCAL/MOL
REMARK 927      BINDING AFFINITY PREDICTED BY RF-SCORE:    0.00 PKD
ROOT
HETATM    1  C   UNL     1     -10.879  10.506  69.866  1.00  0.00    -0.334 C  
HETATM    2  C   UNL     1     -12.246  11.085  69.570  1.00  0.00    -0.282 C  
ENDROOT
BRANCH   2   3
HETATM    3  O   UNL     1     -12.260  11.687  68.266  1.00  0.00    -0.525 OA 
BRANCH   3   4
HETATM    4  C   UNL     1     -11.828  12.979  68.205  1.00  0.00    -0.340 C  
HETATM    5  O   UNL     1     -11.991  13.821  69.079  1.00  0.00    -0.334 OA 
BRANCH   4   6
HETATM    6  C   UNL     1     -11.096  13.213  66.869  1.00  0.00    -0.282 C  
BRANCH   6   7
HETATM    7  N   UNL     1     -11.925  12.700  65.744  1.00  0.00    -0.466 NA 
HETATM    8  H   UNL     1     -12.329  13.476  65.218  1.00  0.00     0.000 HD 
BRANCH   7   9
HETATM    9  C   UNL     1     -11.223  11.780  64.844  1.00  0.00    -0.266 C  
BRANCH   9  10
HETATM   10  C   UNL     1      -9.961  11.151  65.474  1.00  0.00    -0.249 C  
BRANCH  10  11
HETATM   11  N   UNL     1     -10.123   9.760  65.928  1.00  0.00    -0.273 NA 
HETATM   12  H   UNL     1     -11.063   9.424  65.719  1.00  0.00     0.000 HD 
BRANCH  11  13
HETATM   13  C   UNL     1      -9.099   8.815  65.390  1.00  0.00    -0.134 C  
BRANCH  13  14
HETATM   14  C   UNL     1      -8.387   9.347  64.127  1.00  0.00    -0.168 C  
HETATM   15  H   UNL     1      -7.224   8.515  61.827  1.00  0.00     0.000 H  
HETATM   16  S   UNL     1      -7.865   8.037  62.963  1.00  0.00    -0.144 SA 
ENDBRANCH  13  14
BRANCH  13  17
HETATM   17  C   UNL     1      -8.063   8.492  66.489  1.00  0.00    -0.103 C  
HETATM   18  O   UNL     1      -8.197   7.645  67.365  1.00  0.00    -0.114 OA 
BRANCH  17  19
HETATM   19  O   UNL     1      -6.960   9.284  66.339  1.00  0.00    -0.082 OA 
BRANCH  19  20
HETATM   20  C   UNL     1      -6.724  10.235  67.386  1.00  0.00    -0.072 C  
HETATM   21  C   UNL     1      -6.255  11.556  66.814  1.00  0.00    -0.140 C  
ENDBRANCH  19  20
ENDBRANCH  17  19
ENDBRANCH  13  17
ENDBRANCH  11  13
ENDBRANCH  10  11
ENDBRANCH   9  10
ENDBRANCH   7   9
ENDBRANCH   6   7
BRANCH   6  22
HETATM   22  C   UNL     1     -10.676  14.694  66.774  1.00  0.00    -0.301 C  
HETATM   23  H   UNL     1     -10.494  16.768  65.029  1.00  0.00     0.000 H  
HETATM   24  S   UNL     1     -10.872  15.433  65.115  1.00  0.00    -0.444 SA 
ENDBRANCH   6  22
ENDBRANCH   4   6
ENDBRANCH   3   4
ENDBRANCH   2   3
TORSDOF 13
ENDMDL
MODEL      313
REMARK 921   NORMALIZED FREE ENERGY PREDICTED BY IDOCK:   -3.10 KCAL/MOL
REMARK 922        TOTAL FREE ENERGY PREDICTED BY IDOCK:   -6.05 KCAL/MOL
REMARK 923 INTER-LIGAND FREE ENERGY PREDICTED BY IDOCK:   -5.25 KCAL/MOL
REMARK 924 INTRA-LIGAND FREE ENERGY PREDICTED BY IDOCK:   -0.81 KCAL/MOL
REMARK 927      BINDING AFFINITY PREDICTED BY RF-SCORE:    0.00 PKD
ROOT
HETATM    1  C   UNL     1     -11.907  13.953  69.150  1.00  0.00    -0.401 C  
HETATM    2  C   UNL     1     -11.157  13.181  68.085  1.00  0.00    -0.255 C  
ENDROOT
BRANCH   2   3
HETATM    3  O   UNL     1     -12.079  12.598  67.151  1.00  0.00    -0.466 OA 
BRANCH   3   4
HETATM    4  C   UNL     1     -12.062  13.124  65.894  1.00  0.00    -0.444 C  
HETATM    5  O   UNL     1     -13.044  13.530  65.285  1.00  0.00    -0.713 OA 
BRANCH   4   6
HETATM    6  C   UNL     1     -10.616  13.140  65.363  1.00  0.00    -0.299 C  
BRANCH   6   7
HETATM    7  N   UNL     1     -10.412  12.002  64.425  1.00  0.00    -0.291 NA 
HETATM    8  H   UNL     1      -9.709  12.240  63.724  1.00  0.00     0.000 HD 
BRANCH   7   9
HETATM    9  C   UNL     1     -10.073  10.733  65.077  1.00  0.00    -0.313 C  
BRANCH   9  10
HETATM   10  C   UNL     1      -8.796  10.810  65.943  1.00  0.00    -0.179 C  
BRANCH  10  11
HETATM   11  N   UNL     1      -8.603   9.680  66.866  1.00  0.00    -0.127 NA 
HETATM   12  H   UNL     1      -7.618   9.418  66.909  1.00  0.00     0.000 HD 
BRANCH  11  13
HETATM   13  C   UNL     1      -9.141   9.911  68.240  1.00  0.00    -0.122 C  
BRANCH  13  14
HETATM   14  C   UNL     1     -10.606   9.448  68.404  1.00  0.00    -0.204 C  
HETATM   15  H   UNL     1     -12.655   9.447  70.176  1.00  0.00     0.000 H  
HETATM   16  S   UNL     1     -11.337   9.864  70.027  1.00  0.00    -0.230 SA 
ENDBRANCH  13  14
BRANCH  13  17
HETATM   17  C   UNL     1      -8.241   9.202  69.276  1.00  0.00    -0.118 C  
HETATM   18  O   UNL     1      -7.332   9.731  69.906  1.00  0.00    -0.097 OA 
BRANCH  17  19
HETATM   19  O   UNL     1      -8.610   7.894  69.401  1.00  0.00    -0.135 OA 
BRANCH  19  20
HETATM   20  C   UNL     1      -7.647   7.026  70.012  1.00  0.00    -0.099 C  
HETATM   21  C   UNL     1      -8.129   6.562  71.371  1.00  0.00    -0.112 C  
ENDBRANCH  19  20
ENDBRANCH  17  19
ENDBRANCH  13  17
ENDBRANCH  11  13
ENDBRANCH  10  11
ENDBRANCH   9  10
ENDBRANCH   7   9
ENDBRANCH   6   7
BRANCH   6  22
HETATM   22  C   UNL     1     -10.298  14.540  64.799  1.00  0.00    -0.287 C  
HETATM   23  H   UNL     1      -9.951  17.129  65.546  1.00  0.00     0.000 H  
HETATM   24  S   UNL     1     -10.238  15.867  66.053  1.00  0.00    -0.355 SA 
ENDBRANCH   6  22
ENDBRANCH   4   6
ENDBRANCH   3   4
ENDBRANCH   2   3
TORSDOF 13
ENDMDL
MODEL      314
REMARK 921   NORMALIZED FREE ENERGY PREDICTED BY IDOCK:   -3.10 KCAL/MOL
REMARK 922        TOTAL FREE ENERGY PREDICTED BY IDOCK:   -6.05 KCAL/MOL
REMARK 923 INTER-LIGAND FREE ENERGY PREDICTED BY IDOCK:   -5.24 KCAL/MOL
REMARK 924 INTRA-LIGAND FREE ENERGY PREDICTED BY IDOCK:   -0.80 KCAL/MOL
REMARK 927      BINDING AFFINITY PREDICTED BY RF-SCORE:    0.00 PKD
ROOT
HETATM    1  C   UNL     1     -11.878  13.214  68.781  1.00  0.00    -0.361 C  
HETATM    2  C   UNL     1     -11.044  12.296  67.912  1.00  0.00    -0.243 C  
ENDROOT
BRANCH   2   3
HETATM    3  O   UNL     1     -11.853  11.722  66.875  1.00  0.00    -0.591 OA 
BRANCH   3   4
HETATM    4  C   UNL     1     -11.936  12.443  65.720  1.00  0.00    -0.372 C  
HETATM    5  O   UNL     1     -12.977  12.824  65.199  1.00  0.00    -0.768 OA 
BRANCH   4   6
HETATM    6  C   UNL     1     -10.519  12.712  65.179  1.00  0.00    -0.296 C  
BRANCH   6   7
HETATM    7  N   UNL     1     -10.079  11.571  64.331  1.00  0.00    -0.264 NA 
HETATM    8  H   UNL     1      -9.357  11.873  63.675  1.00  0.00     0.000 HD 
BRANCH   7   9
HETATM    9  C   UNL     1      -9.628  10.395  65.082  1.00  0.00    -0.271 C  
BRANCH   9  10
HETATM   10  C   UNL     1      -8.201  10.545  65.655  1.00  0.00    -0.161 C  
BRANCH  10  11
HETATM   11  N   UNL     1      -8.140  10.879  67.087  1.00  0.00    -0.123 NA 
HETATM   12  H   UNL     1      -9.027  11.277  67.399  1.00  0.00     0.000 HD 
BRANCH  11  13
HETATM   13  C   UNL     1      -7.740   9.742  67.967  1.00  0.00    -0.083 C  
BRANCH  13  14
HETATM   14  C   UNL     1      -6.877  10.179  69.171  1.00  0.00    -0.059 C  
HETATM   15  H   UNL     1      -5.245   9.191  71.094  1.00  0.00     0.000 H  
HETATM   16  S   UNL     1      -6.021   8.798  70.010  1.00  0.00    -0.031 SA 
ENDBRANCH  13  14
BRANCH  13  17
HETATM   17  C   UNL     1      -9.002   8.998  68.460  1.00  0.00    -0.133 C  
HETATM   18  O   UNL     1      -9.385   7.906  68.057  1.00  0.00    -0.144 OA 
BRANCH  17  19
HETATM   19  O   UNL     1      -9.630   9.732  69.425  1.00  0.00    -0.182 OA 
BRANCH  19  20
HETATM   20  C   UNL     1     -10.839   9.169  69.953  1.00  0.00    -0.228 C  
HETATM   21  C   UNL     1     -10.632   8.692  71.375  1.00  0.00    -0.334 C  
ENDBRANCH  19  20
ENDBRANCH  17  19
ENDBRANCH  13  17
ENDBRANCH  11  13
ENDBRANCH  10  11
ENDBRANCH   9  10
ENDBRANCH   7   9
ENDBRANCH   6   7
BRANCH   6  22
HETATM   22  C   UNL     1     -10.487  14.100  64.508  1.00  0.00    -0.204 C  
HETATM   23  H   UNL     1     -10.533  16.758  65.066  1.00  0.00     0.000 H  
HETATM   24  S   UNL     1     -10.561  15.508  65.670  1.00  0.00    -0.396 SA 
ENDBRANCH   6  22
ENDBRANCH   4   6
ENDBRANCH   3   4
ENDBRANCH   2   3
TORSDOF 13
ENDMDL
MODEL      315
REMARK 921   NORMALIZED FREE ENERGY PREDICTED BY IDOCK:   -3.08 KCAL/MOL
REMARK 922        TOTAL FREE ENERGY PREDICTED BY IDOCK:   -6.01 KCAL/MOL
REMARK 923 INTER-LIGAND FREE ENERGY PREDICTED BY IDOCK:   -5.14 KCAL/MOL
REMARK 924 INTRA-LIGAND FREE ENERGY PREDICTED BY IDOCK:   -0.88 KCAL/MOL
REMARK 927      BINDING AFFINITY PREDICTED BY RF-SCORE:    0.00 PKD
ROOT
HETATM    1  C   UNL     1     -11.018  12.775  63.962  1.00  0.00    -0.454 C  
HETATM    2  C   UNL     1     -10.454  12.364  65.305  1.00  0.00    -0.286 C  
ENDROOT
BRANCH   2   3
HETATM    3  O   UNL     1     -11.112  13.079  66.361  1.00  0.00    -0.278 OA 
BRANCH   3   4
HETATM    4  C   UNL     1     -11.617  12.314  67.371  1.00  0.00    -0.355 C  
HETATM    5  O   UNL     1     -11.734  11.095  67.343  1.00  0.00    -0.564 OA 
BRANCH   4   6
HETATM    6  C   UNL     1     -12.007  13.220  68.555  1.00  0.00    -0.304 C  
BRANCH   6   7
HETATM    7  N   UNL     1     -11.414  12.688  69.812  1.00  0.00    -0.489 NA 
HETATM    8  H   UNL     1     -11.188  13.452  70.450  1.00  0.00     0.000 HD 
BRANCH   7   9
HETATM    9  C   UNL     1     -12.235  11.680  70.491  1.00  0.00    -0.361 C  
BRANCH   9  10
HETATM   10  C   UNL     1     -11.437  10.430  70.922  1.00  0.00    -0.297 C  
BRANCH  10  11
HETATM   11  N   UNL     1     -10.555   9.869  69.885  1.00  0.00    -0.252 NA 
HETATM   12  H   UNL     1     -10.157  10.615  69.314  1.00  0.00     0.000 HD 
BRANCH  11  13
HETATM   13  C   UNL     1      -9.475   8.982  70.412  1.00  0.00    -0.210 C  
BRANCH  13  14
HETATM   14  C   UNL     1      -9.956   7.542  70.694  1.00  0.00    -0.183 C  
HETATM   15  H   UNL     1      -9.487   5.416  72.306  1.00  0.00     0.000 H  
HETATM   16  S   UNL     1      -9.054   6.712  72.052  1.00  0.00    -0.138 SA 
ENDBRANCH  13  14
BRANCH  13  17
HETATM   17  C   UNL     1      -8.291   8.962  69.421  1.00  0.00    -0.112 C  
HETATM   18  O   UNL     1      -8.276   8.375  68.345  1.00  0.00    -0.121 OA 
BRANCH  17  19
HETATM   19  O   UNL     1      -7.256   9.705  69.912  1.00  0.00    -0.076 OA 
BRANCH  19  20
HETATM   20  C   UNL     1      -5.952   9.369  69.420  1.00  0.00    -0.034 C  
HETATM   21  C   UNL     1      -5.136  10.618  69.165  1.00  0.00    -0.041 C  
ENDBRANCH  19  20
ENDBRANCH  17  19
ENDBRANCH  13  17
ENDBRANCH  11  13
ENDBRANCH  10  11
ENDBRANCH   9  10
ENDBRANCH   7   9
ENDBRANCH   6   7
BRANCH   6  22
HETATM   22  C   UNL     1     -11.654  14.682  68.212  1.00  0.00    -0.326 C  
HETATM   23  H   UNL     1      -9.946  16.690  68.864  1.00  0.00     0.000 H  
HETATM   24  S   UNL     1     -10.263  15.373  69.173  1.00  0.00    -0.254 SA 
ENDBRANCH   6  22
ENDBRANCH   4   6
ENDBRANCH   3   4
ENDBRANCH   2   3
TORSDOF 13
ENDMDL
MODEL      316
REMARK 921   NORMALIZED FREE ENERGY PREDICTED BY IDOCK:   -3.08 KCAL/MOL
REMARK 922        TOTAL FREE ENERGY PREDICTED BY IDOCK:   -6.01 KCAL/MOL
REMARK 923 INTER-LIGAND FREE ENERGY PREDICTED BY IDOCK:   -5.29 KCAL/MOL
REMARK 924 INTRA-LIGAND FREE ENERGY PREDICTED BY IDOCK:   -0.72 KCAL/MOL
REMARK 927      BINDING AFFINITY PREDICTED BY RF-SCORE:    0.00 PKD
ROOT
HETATM    1  C   UNL     1     -13.636   9.861  72.332  1.00  0.00    -0.258 C  
HETATM    2  C   UNL     1     -13.099  11.180  71.819  1.00  0.00    -0.431 C  
ENDROOT
BRANCH   2   3
HETATM    3  O   UNL     1     -12.574  11.021  70.492  1.00  0.00    -0.323 OA 
BRANCH   3   4
HETATM    4  C   UNL     1     -11.984  12.125  69.951  1.00  0.00    -0.309 C  
HETATM    5  O   UNL     1     -11.987  13.244  70.450  1.00  0.00    -0.332 OA 
BRANCH   4   6
HETATM    6  C   UNL     1     -11.306  11.745  68.621  1.00  0.00    -0.270 C  
BRANCH   6   7
HETATM    7  N   UNL     1     -11.710  10.368  68.225  1.00  0.00    -0.741 NA 
HETATM    8  H   UNL     1     -12.506  10.401  67.588  1.00  0.00     0.000 HD 
BRANCH   7   9
HETATM    9  C   UNL     1     -10.629   9.560  67.652  1.00  0.00    -0.269 C  
BRANCH   9  10
HETATM   10  C   UNL     1     -10.369   8.248  68.426  1.00  0.00    -0.199 C  
BRANCH  10  11
HETATM   11  N   UNL     1      -9.068   8.180  69.111  1.00  0.00    -0.148 NA 
HETATM   12  H   UNL     1      -8.306   8.217  68.433  1.00  0.00     0.000 HD 
BRANCH  11  13
HETATM   13  C   UNL     1      -8.876   9.214  70.170  1.00  0.00    -0.197 C  
BRANCH  13  14
HETATM   14  C   UNL     1      -8.789   8.619  71.592  1.00  0.00    -0.223 C  
HETATM   15  H   UNL     1     -10.299   7.433  73.503  1.00  0.00     0.000 H  
HETATM   16  S   UNL     1     -10.378   7.969  72.223  1.00  0.00    -0.298 SA 
ENDBRANCH  13  14
BRANCH  13  17
HETATM   17  C   UNL     1      -7.610  10.043  69.862  1.00  0.00    -0.170 C  
HETATM   18  O   UNL     1      -6.491   9.824  70.314  1.00  0.00    -0.068 OA 
BRANCH  17  19
HETATM   19  O   UNL     1      -7.912  11.058  69.000  1.00  0.00    -0.141 OA 
BRANCH  19  20
HETATM   20  C   UNL     1      -6.901  11.385  68.037  1.00  0.00    -0.067 C  
HETATM   21  C   UNL     1      -7.198  10.730  66.705  1.00  0.00    -0.134 C  
ENDBRANCH  19  20
ENDBRANCH  17  19
ENDBRANCH  13  17
ENDBRANCH  11  13
ENDBRANCH  10  11
ENDBRANCH   9  10
ENDBRANCH   7   9
ENDBRANCH   6   7
BRANCH   6  22
HETATM   22  C   UNL     1     -11.578  12.850  67.579  1.00  0.00    -0.356 C  
HETATM   23  H   UNL     1     -11.524  13.347  64.909  1.00  0.00     0.000 H  
HETATM   24  S   UNL     1     -11.279  12.351  65.848  1.00  0.00    -0.352 SA 
ENDBRANCH   6  22
ENDBRANCH   4   6
ENDBRANCH   3   4
ENDBRANCH   2   3
TORSDOF 13
ENDMDL
MODEL      317
REMARK 921   NORMALIZED FREE ENERGY PREDICTED BY IDOCK:   -3.07 KCAL/MOL
REMARK 922        TOTAL FREE ENERGY PREDICTED BY IDOCK:   -6.00 KCAL/MOL
REMARK 923 INTER-LIGAND FREE ENERGY PREDICTED BY IDOCK:   -5.30 KCAL/MOL
REMARK 924 INTRA-LIGAND FREE ENERGY PREDICTED BY IDOCK:   -0.70 KCAL/MOL
REMARK 927      BINDING AFFINITY PREDICTED BY RF-SCORE:    0.00 PKD
ROOT
HETATM    1  C   UNL     1     -13.297   9.649  72.092  1.00  0.00    -0.545 C  
HETATM    2  C   UNL     1     -13.045  11.052  71.581  1.00  0.00    -0.438 C  
ENDROOT
BRANCH   2   3
HETATM    3  O   UNL     1     -12.639  11.014  70.205  1.00  0.00    -0.283 OA 
BRANCH   3   4
HETATM    4  C   UNL     1     -11.942  12.099  69.762  1.00  0.00    -0.302 C  
HETATM    5  O   UNL     1     -11.796  13.146  70.380  1.00  0.00    -0.290 OA 
BRANCH   4   6
HETATM    6  C   UNL     1     -11.356  11.798  68.369  1.00  0.00    -0.270 C  
BRANCH   6   7
HETATM    7  N   UNL     1     -11.772  10.438  67.930  1.00  0.00    -0.680 NA 
HETATM    8  H   UNL     1     -12.289  10.491  67.052  1.00  0.00     0.000 HD 
BRANCH   7   9
HETATM    9  C   UNL     1     -10.673   9.474  67.820  1.00  0.00    -0.242 C  
BRANCH   9  10
HETATM   10  C   UNL     1     -10.455   8.644  69.105  1.00  0.00    -0.211 C  
BRANCH  10  11
HETATM   11  N   UNL     1     -10.326   7.193  68.892  1.00  0.00    -0.191 NA 
HETATM   12  H   UNL     1     -11.209   6.801  68.563  1.00  0.00     0.000 HD 
BRANCH  11  13
HETATM   13  C   UNL     1      -9.211   6.804  67.980  1.00  0.00    -0.117 C  
BRANCH  13  14
HETATM   14  C   UNL     1      -8.009   6.178  68.722  1.00  0.00    -0.101 C  
HETATM   15  H   UNL     1      -5.703   6.837  69.980  1.00  0.00     0.000 H  
HETATM   16  S   UNL     1      -6.784   7.400  69.312  1.00  0.00    -0.042 SA 
ENDBRANCH  13  14
BRANCH  13  17
HETATM   17  C   UNL     1      -9.736   5.828  66.904  1.00  0.00    -0.148 C  
HETATM   18  O   UNL     1     -10.916   5.560  66.704  1.00  0.00    -0.244 OA 
BRANCH  17  19
HETATM   19  O   UNL     1      -8.693   5.309  66.192  1.00  0.00    -0.122 OA 
BRANCH  19  20
HETATM   20  C   UNL     1      -8.934   4.047  65.556  1.00  0.00    -0.131 C  
HETATM   21  C   UNL     1      -8.937   4.198  64.049  1.00  0.00    -0.141 C  
ENDBRANCH  19  20
ENDBRANCH  17  19
ENDBRANCH  13  17
ENDBRANCH  11  13
ENDBRANCH  10  11
ENDBRANCH   9  10
ENDBRANCH   7   9
ENDBRANCH   6   7
BRANCH   6  22
HETATM   22  C   UNL     1     -11.712  12.952  67.410  1.00  0.00    -0.372 C  
HETATM   23  H   UNL     1     -12.098  13.520  64.781  1.00  0.00     0.000 H  
HETATM   24  S   UNL     1     -11.777  12.481  65.646  1.00  0.00    -0.435 SA 
ENDBRANCH   6  22
ENDBRANCH   4   6
ENDBRANCH   3   4
ENDBRANCH   2   3
TORSDOF 13
ENDMDL
MODEL      318
REMARK 921   NORMALIZED FREE ENERGY PREDICTED BY IDOCK:   -3.07 KCAL/MOL
REMARK 922        TOTAL FREE ENERGY PREDICTED BY IDOCK:   -6.00 KCAL/MOL
REMARK 923 INTER-LIGAND FREE ENERGY PREDICTED BY IDOCK:   -5.31 KCAL/MOL
REMARK 924 INTRA-LIGAND FREE ENERGY PREDICTED BY IDOCK:   -0.69 KCAL/MOL
REMARK 927      BINDING AFFINITY PREDICTED BY RF-SCORE:    0.00 PKD
ROOT
HETATM    1  C   UNL     1      -9.659   5.035  71.522  1.00  0.00    -0.213 C  
HETATM    2  C   UNL     1     -10.987   5.724  71.294  1.00  0.00    -0.230 C  
ENDROOT
BRANCH   2   3
HETATM    3  O   UNL     1     -10.783   7.114  71.000  1.00  0.00    -0.228 OA 
BRANCH   3   4
HETATM    4  C   UNL     1     -10.810   7.451  69.679  1.00  0.00    -0.210 C  
HETATM    5  O   UNL     1     -11.151   6.709  68.767  1.00  0.00    -0.263 OA 
BRANCH   4   6
HETATM    6  C   UNL     1     -10.355   8.914  69.514  1.00  0.00    -0.213 C  
BRANCH   6   7
HETATM    7  N   UNL     1     -11.533   9.778  69.228  1.00  0.00    -0.452 NA 
HETATM    8  H   UNL     1     -12.378   9.212  69.147  1.00  0.00     0.000 HD 
BRANCH   7   9
HETATM    9  C   UNL     1     -11.736  10.865  70.190  1.00  0.00    -0.347 C  
BRANCH   9  10
HETATM   10  C   UNL     1     -12.026  12.228  69.523  1.00  0.00    -0.270 C  
BRANCH  10  11
HETATM   11  N   UNL     1     -10.852  13.103  69.364  1.00  0.00    -0.447 NA 
HETATM   12  H   UNL     1     -10.023  12.550  69.143  1.00  0.00     0.000 HD 
BRANCH  11  13
HETATM   13  C   UNL     1     -11.033  14.195  68.363  1.00  0.00    -0.254 C  
BRANCH  13  14
HETATM   14  C   UNL     1     -11.597  15.495  68.978  1.00  0.00    -0.365 C  
HETATM   15  H   UNL     1     -11.878  16.788  71.342  1.00  0.00     0.000 H  
HETATM   16  S   UNL     1     -11.370  15.618  70.788  1.00  0.00    -0.399 SA 
ENDBRANCH  13  14
BRANCH  13  17
HETATM   17  C   UNL     1      -9.688  14.481  67.658  1.00  0.00    -0.215 C  
HETATM   18  O   UNL     1      -9.084  13.696  66.937  1.00  0.00    -0.239 OA 
BRANCH  17  19
HETATM   19  O   UNL     1      -9.268  15.748  67.946  1.00  0.00    -0.190 OA 
BRANCH  19  20
HETATM   20  C   UNL     1      -7.870  15.898  68.224  1.00  0.00    -0.138 C  
HETATM   21  C   UNL     1      -7.505  15.217  69.527  1.00  0.00    -0.214 C  
ENDBRANCH  19  20
ENDBRANCH  17  19
ENDBRANCH  13  17
ENDBRANCH  11  13
ENDBRANCH  10  11
ENDBRANCH   9  10
ENDBRANCH   7   9
ENDBRANCH   6   7
BRANCH   6  22
HETATM   22  C   UNL     1      -9.504   9.321  70.734  1.00  0.00    -0.271 C  
HETATM   23  H   UNL     1      -6.933   9.637  71.551  1.00  0.00     0.000 H  
HETATM   24  S   UNL     1      -7.700   9.271  70.452  1.00  0.00    -0.158 SA 
ENDBRANCH   6  22
ENDBRANCH   4   6
ENDBRANCH   3   4
ENDBRANCH   2   3
TORSDOF 13
ENDMDL
MODEL      319
REMARK 921   NORMALIZED FREE ENERGY PREDICTED BY IDOCK:   -3.07 KCAL/MOL
REMARK 922        TOTAL FREE ENERGY PREDICTED BY IDOCK:   -5.99 KCAL/MOL
REMARK 923 INTER-LIGAND FREE ENERGY PREDICTED BY IDOCK:   -5.07 KCAL/MOL
REMARK 924 INTRA-LIGAND FREE ENERGY PREDICTED BY IDOCK:   -0.92 KCAL/MOL
REMARK 927      BINDING AFFINITY PREDICTED BY RF-SCORE:    0.00 PKD
ROOT
HETATM    1  C   UNL     1      -7.618   8.145  66.333  1.00  0.00    -0.091 C  
HETATM    2  C   UNL     1      -8.345   7.371  67.411  1.00  0.00    -0.116 C  
ENDROOT
BRANCH   2   3
HETATM    3  O   UNL     1      -8.666   8.233  68.513  1.00  0.00    -0.132 OA 
BRANCH   3   4
HETATM    4  C   UNL     1      -9.958   8.666  68.571  1.00  0.00    -0.183 C  
HETATM    5  O   UNL     1     -10.759   8.625  67.646  1.00  0.00    -0.224 OA 
BRANCH   4   6
HETATM    6  C   UNL     1     -10.255   9.204  69.984  1.00  0.00    -0.204 C  
BRANCH   6   7
HETATM    7  N   UNL     1     -10.309  10.691  69.956  1.00  0.00    -0.436 NA 
HETATM    8  H   UNL     1      -9.677  11.056  69.243  1.00  0.00     0.000 HD 
BRANCH   7   9
HETATM    9  C   UNL     1     -11.655  11.245  69.779  1.00  0.00    -0.333 C  
BRANCH   9  10
HETATM   10  C   UNL     1     -11.807  12.085  68.491  1.00  0.00    -0.311 C  
BRANCH  10  11
HETATM   11  N   UNL     1     -10.904  11.705  67.393  1.00  0.00    -0.236 NA 
HETATM   12  H   UNL     1     -11.279  10.904  66.884  1.00  0.00     0.000 HD 
BRANCH  11  13
HETATM   13  C   UNL     1     -10.581  12.817  66.451  1.00  0.00    -0.255 C  
BRANCH  13  14
HETATM   14  C   UNL     1     -11.695  13.884  66.366  1.00  0.00    -0.383 C  
HETATM   15  H   UNL     1     -13.452  14.997  64.630  1.00  0.00     0.000 H  
HETATM   16  S   UNL     1     -12.450  14.037  64.707  1.00  0.00    -0.321 SA 
ENDBRANCH  13  14
BRANCH  13  17
HETATM   17  C   UNL     1      -9.246  13.476  66.863  1.00  0.00    -0.249 C  
HETATM   18  O   UNL     1      -8.309  12.901  67.405  1.00  0.00    -0.171 OA 
BRANCH  17  19
HETATM   19  O   UNL     1      -9.252  14.799  66.526  1.00  0.00    -0.259 OA 
BRANCH  19  20
HETATM   20  C   UNL     1      -8.156  15.578  67.022  1.00  0.00    -0.237 C  
HETATM   21  C   UNL     1      -8.034  16.880  66.258  1.00  0.00    -0.350 C  
ENDBRANCH  19  20
ENDBRANCH  17  19
ENDBRANCH  13  17
ENDBRANCH  11  13
ENDBRANCH  10  11
ENDBRANCH   9  10
ENDBRANCH   7   9
ENDBRANCH   6   7
BRANCH   6  22
HETATM   22  C   UNL     1     -11.507   8.496  70.543  1.00  0.00    -0.182 C  
HETATM   23  H   UNL     1     -12.575   6.034  70.964  1.00  0.00     0.000 H  
HETATM   24  S   UNL     1     -11.447   6.672  70.461  1.00  0.00    -0.394 SA 
ENDBRANCH   6  22
ENDBRANCH   4   6
ENDBRANCH   3   4
ENDBRANCH   2   3
TORSDOF 13
ENDMDL
MODEL      320
REMARK 921   NORMALIZED FREE ENERGY PREDICTED BY IDOCK:   -3.06 KCAL/MOL
REMARK 922        TOTAL FREE ENERGY PREDICTED BY IDOCK:   -5.98 KCAL/MOL
REMARK 923 INTER-LIGAND FREE ENERGY PREDICTED BY IDOCK:   -5.15 KCAL/MOL
REMARK 924 INTRA-LIGAND FREE ENERGY PREDICTED BY IDOCK:   -0.83 KCAL/MOL
REMARK 927      BINDING AFFINITY PREDICTED BY RF-SCORE:    0.00 PKD
ROOT
HETATM    1  C   UNL     1     -12.602  13.387  65.204  1.00  0.00    -0.495 C  
HETATM    2  C   UNL     1     -11.499  13.116  66.205  1.00  0.00    -0.330 C  
ENDROOT
BRANCH   2   3
HETATM    3  O   UNL     1     -11.952  12.193  67.206  1.00  0.00    -0.573 OA 
BRANCH   3   4
HETATM    4  C   UNL     1     -11.222  12.160  68.357  1.00  0.00    -0.265 C  
HETATM    5  O   UNL     1     -11.159  13.066  69.180  1.00  0.00    -0.244 OA 
BRANCH   4   6
HETATM    6  C   UNL     1     -10.498  10.805  68.468  1.00  0.00    -0.187 C  
BRANCH   6   7
HETATM    7  N   UNL     1      -9.239  10.841  67.674  1.00  0.00    -0.146 NA 
HETATM    8  H   UNL     1      -9.421  11.202  66.737  1.00  0.00     0.000 HD 
BRANCH   7   9
HETATM    9  C   UNL     1      -8.145  11.584  68.306  1.00  0.00    -0.148 C  
BRANCH   9  10
HETATM   10  C   UNL     1      -7.367  12.485  67.321  1.00  0.00    -0.113 C  
BRANCH  10  11
HETATM   11  N   UNL     1      -8.059  13.727  66.938  1.00  0.00    -0.389 NA 
HETATM   12  H   UNL     1      -8.950  13.514  66.488  1.00  0.00     0.000 HD 
BRANCH  11  13
HETATM   13  C   UNL     1      -8.259  14.689  68.062  1.00  0.00    -0.145 C  
BRANCH  13  14
HETATM   14  C   UNL     1      -6.950  15.035  68.805  1.00  0.00    -0.107 C  
HETATM   15  H   UNL     1      -4.427  15.925  68.378  1.00  0.00     0.000 H  
HETATM   16  S   UNL     1      -5.606  15.614  67.709  1.00  0.00    -0.103 SA 
ENDBRANCH  13  14
BRANCH  13  17
HETATM   17  C   UNL     1      -8.924  15.978  67.530  1.00  0.00    -0.194 C  
HETATM   18  O   UNL     1      -9.412  16.116  66.414  1.00  0.00    -0.252 OA 
BRANCH  17  19
HETATM   19  O   UNL     1      -8.901  16.948  68.490  1.00  0.00    -0.234 OA 
BRANCH  19  20
HETATM   20  C   UNL     1     -10.179  17.431  68.924  1.00  0.00    -0.352 C  
HETATM   21  C   UNL     1     -10.871  16.407  69.798  1.00  0.00    -0.343 C  
ENDBRANCH  19  20
ENDBRANCH  17  19
ENDBRANCH  13  17
ENDBRANCH  11  13
ENDBRANCH  10  11
ENDBRANCH   9  10
ENDBRANCH   7   9
ENDBRANCH   6   7
BRANCH   6  22
HETATM   22  C   UNL     1     -10.343  10.433  69.957  1.00  0.00    -0.128 C  
HETATM   23  H   UNL     1     -11.780   9.924  72.205  1.00  0.00     0.000 H  
HETATM   24  S   UNL     1     -11.919  10.260  70.864  1.00  0.00    -0.399 SA 
ENDBRANCH   6  22
ENDBRANCH   4   6
ENDBRANCH   3   4
ENDBRANCH   2   3
TORSDOF 13
ENDMDL
MODEL      321
REMARK 921   NORMALIZED FREE ENERGY PREDICTED BY IDOCK:   -3.06 KCAL/MOL
REMARK 922        TOTAL FREE ENERGY PREDICTED BY IDOCK:   -5.98 KCAL/MOL
REMARK 923 INTER-LIGAND FREE ENERGY PREDICTED BY IDOCK:   -5.34 KCAL/MOL
REMARK 924 INTRA-LIGAND FREE ENERGY PREDICTED BY IDOCK:   -0.64 KCAL/MOL
REMARK 927      BINDING AFFINITY PREDICTED BY RF-SCORE:    0.00 PKD
ROOT
HETATM    1  C   UNL     1      -8.764  10.826  68.733  1.00  0.00    -0.163 C  
HETATM    2  C   UNL     1      -9.527  11.119  67.459  1.00  0.00    -0.168 C  
ENDROOT
BRANCH   2   3
HETATM    3  O   UNL     1      -9.731  12.533  67.315  1.00  0.00    -0.197 OA 
BRANCH   3   4
HETATM    4  C   UNL     1      -8.726  13.328  67.781  1.00  0.00    -0.194 C  
HETATM    5  O   UNL     1      -7.537  13.186  67.525  1.00  0.00    -0.148 OA 
BRANCH   4   6
HETATM    6  C   UNL     1      -9.320  14.437  68.670  1.00  0.00    -0.188 C  
BRANCH   6   7
HETATM    7  N   UNL     1     -10.228  13.836  69.686  1.00  0.00    -0.123 NA 
HETATM    8  H   UNL     1      -9.925  14.089  70.627  1.00  0.00     0.000 HD 
BRANCH   7   9
HETATM    9  C   UNL     1     -11.645  14.163  69.500  1.00  0.00    -0.295 C  
BRANCH   9  10
HETATM   10  C   UNL     1     -11.913  15.047  68.262  1.00  0.00    -0.183 C  
BRANCH  10  11
HETATM   11  N   UNL     1     -12.242  14.308  67.032  1.00  0.00    -0.575 NA 
HETATM   12  H   UNL     1     -13.213  13.996  67.052  1.00  0.00     0.000 HD 
BRANCH  11  13
HETATM   13  C   UNL     1     -11.961  15.057  65.772  1.00  0.00     0.051 C  
BRANCH  13  14
HETATM   14  C   UNL     1     -10.548  15.680  65.737  1.00  0.00    -0.361 C  
HETATM   15  H   UNL     1      -9.271  18.057  65.495  1.00  0.00     0.000 H  
HETATM   16  S   UNL     1     -10.543  17.497  65.526  1.00  0.00     0.093 SA 
ENDBRANCH  13  14
BRANCH  13  17
HETATM   17  C   UNL     1     -12.159  14.124  64.557  1.00  0.00    -0.468 C  
HETATM   18  O   UNL     1     -12.580  14.469  63.458  1.00  0.00    -0.746 OA 
BRANCH  17  19
HETATM   19  O   UNL     1     -11.786  12.851  64.879  1.00  0.00    -0.329 OA 
BRANCH  19  20
HETATM   20  C   UNL     1     -11.766  11.910  63.797  1.00  0.00    -0.457 C  
HETATM   21  C   UNL     1     -10.572  10.986  63.911  1.00  0.00    -0.382 C  
ENDBRANCH  19  20
ENDBRANCH  17  19
ENDBRANCH  13  17
ENDBRANCH  11  13
ENDBRANCH  10  11
ENDBRANCH   9  10
ENDBRANCH   7   9
ENDBRANCH   6   7
BRANCH   6  22
HETATM   22  C   UNL     1      -8.175  15.310  69.225  1.00  0.00    -0.244 C  
HETATM   23  H   UNL     1      -7.058  17.777  69.015  1.00  0.00     0.000 H  
HETATM   24  S   UNL     1      -8.090  16.991  68.515  1.00  0.00    -0.258 SA 
ENDBRANCH   6  22
ENDBRANCH   4   6
ENDBRANCH   3   4
ENDBRANCH   2   3
TORSDOF 13
ENDMDL
MODEL      322
REMARK 921   NORMALIZED FREE ENERGY PREDICTED BY IDOCK:   -3.06 KCAL/MOL
REMARK 922        TOTAL FREE ENERGY PREDICTED BY IDOCK:   -5.97 KCAL/MOL
REMARK 923 INTER-LIGAND FREE ENERGY PREDICTED BY IDOCK:   -5.21 KCAL/MOL
REMARK 924 INTRA-LIGAND FREE ENERGY PREDICTED BY IDOCK:   -0.76 KCAL/MOL
REMARK 927      BINDING AFFINITY PREDICTED BY RF-SCORE:    0.00 PKD
ROOT
HETATM    1  C   UNL     1      -8.798   7.440  74.050  1.00  0.00    -0.277 C  
HETATM    2  C   UNL     1     -10.131   6.727  73.985  1.00  0.00    -0.359 C  
ENDROOT
BRANCH   2   3
HETATM    3  O   UNL     1     -10.299   6.103  72.702  1.00  0.00    -0.187 OA 
BRANCH   3   4
HETATM    4  C   UNL     1     -11.371   6.524  71.973  1.00  0.00    -0.285 C  
HETATM    5  O   UNL     1     -12.518   6.118  72.104  1.00  0.00    -0.262 OA 
BRANCH   4   6
HETATM    6  C   UNL     1     -10.916   7.598  70.966  1.00  0.00    -0.248 C  
BRANCH   6   7
HETATM    7  N   UNL     1     -10.203   6.953  69.829  1.00  0.00    -0.191 NA 
HETATM    8  H   UNL     1      -9.475   6.328  70.176  1.00  0.00     0.000 HD 
BRANCH   7   9
HETATM    9  C   UNL     1     -11.078   6.248  68.887  1.00  0.00    -0.362 C  
BRANCH   9  10
HETATM   10  C   UNL     1     -10.357   5.809  67.594  1.00  0.00    -0.217 C  
BRANCH  10  11
HETATM   11  N   UNL     1     -10.465   6.756  66.471  1.00  0.00    -0.491 NA 
HETATM   12  H   UNL     1     -11.394   7.175  66.447  1.00  0.00     0.000 HD 
BRANCH  11  13
HETATM   13  C   UNL     1      -9.413   7.815  66.459  1.00  0.00    -0.201 C  
BRANCH  13  14
HETATM   14  C   UNL     1      -8.472   7.724  65.238  1.00  0.00    -0.084 C  
HETATM   15  H   UNL     1      -7.091   5.938  63.740  1.00  0.00     0.000 H  
HETATM   16  S   UNL     1      -7.939   6.021  64.839  1.00  0.00    -0.130 SA 
ENDBRANCH  13  14
BRANCH  13  17
HETATM   17  C   UNL     1     -10.080   9.208  66.513  1.00  0.00    -0.287 C  
HETATM   18  O   UNL     1     -10.857   9.590  67.380  1.00  0.00    -0.269 OA 
BRANCH  17  19
HETATM   19  O   UNL     1      -9.669   9.965  65.453  1.00  0.00    -0.269 OA 
BRANCH  19  20
HETATM   20  C   UNL     1     -10.455  11.131  65.173  1.00  0.00    -0.277 C  
HETATM   21  C   UNL     1     -10.502  11.400  63.683  1.00  0.00    -0.472 C  
ENDBRANCH  19  20
ENDBRANCH  17  19
ENDBRANCH  13  17
ENDBRANCH  11  13
ENDBRANCH  10  11
ENDBRANCH   9  10
ENDBRANCH   7   9
ENDBRANCH   6   7
BRANCH   6  22
HETATM   22  C   UNL     1     -12.122   8.482  70.588  1.00  0.00     0.035 C  
HETATM   23  H   UNL     1     -13.307  10.859  71.160  1.00  0.00     0.000 H  
HETATM   24  S   UNL     1     -12.221  10.062  71.500  1.00  0.00    -0.382 SA 
ENDBRANCH   6  22
ENDBRANCH   4   6
ENDBRANCH   3   4
ENDBRANCH   2   3
TORSDOF 13
ENDMDL
MODEL      323
REMARK 921   NORMALIZED FREE ENERGY PREDICTED BY IDOCK:   -3.06 KCAL/MOL
REMARK 922        TOTAL FREE ENERGY PREDICTED BY IDOCK:   -5.97 KCAL/MOL
REMARK 923 INTER-LIGAND FREE ENERGY PREDICTED BY IDOCK:   -5.70 KCAL/MOL
REMARK 924 INTRA-LIGAND FREE ENERGY PREDICTED BY IDOCK:   -0.27 KCAL/MOL
REMARK 927      BINDING AFFINITY PREDICTED BY RF-SCORE:    0.00 PKD
ROOT
HETATM    1  C   UNL     1      -9.545  10.805  68.488  1.00  0.00    -0.183 C  
HETATM    2  C   UNL     1     -11.038  10.564  68.550  1.00  0.00    -0.275 C  
ENDROOT
BRANCH   2   3
HETATM    3  O   UNL     1     -11.685  11.156  67.414  1.00  0.00    -0.564 OA 
BRANCH   3   4
HETATM    4  C   UNL     1     -11.783  12.516  67.428  1.00  0.00    -0.366 C  
HETATM    5  O   UNL     1     -11.964  13.201  68.427  1.00  0.00    -0.341 OA 
BRANCH   4   6
HETATM    6  C   UNL     1     -11.623  13.057  65.994  1.00  0.00    -0.365 C  
BRANCH   6   7
HETATM    7  N   UNL     1     -12.490  12.284  65.064  1.00  0.00    -0.537 NA 
HETATM    8  H   UNL     1     -13.452  12.623  65.111  1.00  0.00     0.000 HD 
BRANCH   7   9
HETATM    9  C   UNL     1     -12.022  12.264  63.675  1.00  0.00    -0.543 C  
BRANCH   9  10
HETATM   10  C   UNL     1     -10.573  11.751  63.524  1.00  0.00    -0.440 C  
BRANCH  10  11
HETATM   11  N   UNL     1     -10.373  10.340  63.893  1.00  0.00    -0.419 NA 
HETATM   12  H   UNL     1     -11.226   9.804  63.730  1.00  0.00     0.000 HD 
BRANCH  11  13
HETATM   13  C   UNL     1      -9.211   9.688  63.220  1.00  0.00    -0.092 C  
BRANCH  13  14
HETATM   14  C   UNL     1      -8.278  10.694  62.510  1.00  0.00    -0.191 C  
HETATM   15  H   UNL     1      -5.658  11.266  62.127  1.00  0.00     0.000 H  
HETATM   16  S   UNL     1      -6.498  10.361  62.766  1.00  0.00    -0.103 SA 
ENDBRANCH  13  14
BRANCH  13  17
HETATM   17  C   UNL     1      -8.413   8.859  64.250  1.00  0.00    -0.149 C  
HETATM   18  O   UNL     1      -8.273   9.143  65.435  1.00  0.00    -0.118 OA 
BRANCH  17  19
HETATM   19  O   UNL     1      -7.889   7.748  63.653  1.00  0.00    -0.128 OA 
BRANCH  19  20
HETATM   20  C   UNL     1      -7.575   6.655  64.525  1.00  0.00    -0.103 C  
HETATM   21  C   UNL     1      -6.181   6.808  65.097  1.00  0.00    -0.039 C  
ENDBRANCH  19  20
ENDBRANCH  17  19
ENDBRANCH  13  17
ENDBRANCH  11  13
ENDBRANCH  10  11
ENDBRANCH   9  10
ENDBRANCH   7   9
ENDBRANCH   6   7
BRANCH   6  22
HETATM   22  C   UNL     1     -11.839  14.584  66.002  1.00  0.00    -0.334 C  
HETATM   23  H   UNL     1     -10.567  16.937  65.524  1.00  0.00     0.000 H  
HETATM   24  S   UNL     1     -10.373  15.561  65.517  1.00  0.00    -0.409 SA 
ENDBRANCH   6  22
ENDBRANCH   4   6
ENDBRANCH   3   4
ENDBRANCH   2   3
TORSDOF 13
ENDMDL
MODEL      324
REMARK 921   NORMALIZED FREE ENERGY PREDICTED BY IDOCK:   -3.05 KCAL/MOL
REMARK 922        TOTAL FREE ENERGY PREDICTED BY IDOCK:   -5.97 KCAL/MOL
REMARK 923 INTER-LIGAND FREE ENERGY PREDICTED BY IDOCK:   -5.23 KCAL/MOL
REMARK 924 INTRA-LIGAND FREE ENERGY PREDICTED BY IDOCK:   -0.74 KCAL/MOL
REMARK 927      BINDING AFFINITY PREDICTED BY RF-SCORE:    0.00 PKD
ROOT
HETATM    1  C   UNL     1     -10.190  10.609  68.971  1.00  0.00    -0.231 C  
HETATM    2  C   UNL     1     -11.243  10.186  67.968  1.00  0.00    -0.179 C  
ENDROOT
BRANCH   2   3
HETATM    3  O   UNL     1     -11.554  11.275  67.085  1.00  0.00    -0.513 OA 
BRANCH   3   4
HETATM    4  C   UNL     1     -10.701  11.449  66.035  1.00  0.00    -0.263 C  
HETATM    5  O   UNL     1     -10.401  10.586  65.219  1.00  0.00    -0.287 OA 
BRANCH   4   6
HETATM    6  C   UNL     1     -10.185  12.900  66.029  1.00  0.00    -0.284 C  
BRANCH   6   7
HETATM    7  N   UNL     1      -8.722  12.915  66.306  1.00  0.00    -0.404 NA 
HETATM    8  H   UNL     1      -8.218  13.347  65.531  1.00  0.00     0.000 HD 
BRANCH   7   9
HETATM    9  C   UNL     1      -8.352  13.551  67.575  1.00  0.00    -0.184 C  
BRANCH   9  10
HETATM   10  C   UNL     1      -8.515  15.087  67.560  1.00  0.00    -0.174 C  
BRANCH  10  11
HETATM   11  N   UNL     1      -7.255  15.842  67.462  1.00  0.00    -0.158 NA 
HETATM   12  H   UNL     1      -7.267  16.450  66.643  1.00  0.00     0.000 HD 
BRANCH  11  13
HETATM   13  C   UNL     1      -6.911  16.624  68.687  1.00  0.00    -0.172 C  
BRANCH  13  14
HETATM   14  C   UNL     1      -5.688  16.061  69.444  1.00  0.00    -0.125 C  
HETATM   15  H   UNL     1      -4.949  14.057  71.111  1.00  0.00     0.000 H  
HETATM   16  S   UNL     1      -6.050  14.564  70.430  1.00  0.00    -0.171 SA 
ENDBRANCH  13  14
BRANCH  13  17
HETATM   17  C   UNL     1      -6.668  18.101  68.309  1.00  0.00    -0.212 C  
HETATM   18  O   UNL     1      -6.018  18.489  67.344  1.00  0.00    -0.160 OA 
BRANCH  17  19
HETATM   19  O   UNL     1      -7.292  18.923  69.203  1.00  0.00    -0.303 OA 
BRANCH  19  20
HETATM   20  C   UNL     1      -6.486  19.966  69.766  1.00  0.00    -0.356 C  
HETATM   21  C   UNL     1      -5.560  19.413  70.830  1.00  0.00    -0.249 C  
ENDBRANCH  19  20
ENDBRANCH  17  19
ENDBRANCH  13  17
ENDBRANCH  11  13
ENDBRANCH  10  11
ENDBRANCH   9  10
ENDBRANCH   7   9
ENDBRANCH   6   7
BRANCH   6  22
HETATM   22  C   UNL     1     -10.628  13.590  64.722  1.00  0.00    -0.417 C  
HETATM   23  H   UNL     1     -12.706  14.931  63.599  1.00  0.00     0.000 H  
HETATM   24  S   UNL     1     -12.306  14.309  64.775  1.00  0.00    -0.382 SA 
ENDBRANCH   6  22
ENDBRANCH   4   6
ENDBRANCH   3   4
ENDBRANCH   2   3
TORSDOF 13
ENDMDL
MODEL      325
REMARK 921   NORMALIZED FREE ENERGY PREDICTED BY IDOCK:   -3.05 KCAL/MOL
REMARK 922        TOTAL FREE ENERGY PREDICTED BY IDOCK:   -5.96 KCAL/MOL
REMARK 923 INTER-LIGAND FREE ENERGY PREDICTED BY IDOCK:   -5.16 KCAL/MOL
REMARK 924 INTRA-LIGAND FREE ENERGY PREDICTED BY IDOCK:   -0.80 KCAL/MOL
REMARK 927      BINDING AFFINITY PREDICTED BY RF-SCORE:    0.00 PKD
ROOT
HETATM    1  C   UNL     1      -6.968   8.140  68.660  1.00  0.00    -0.068 C  
HETATM    2  C   UNL     1      -8.094   7.697  69.570  1.00  0.00    -0.127 C  
ENDROOT
BRANCH   2   3
HETATM    3  O   UNL     1      -9.142   7.085  68.803  1.00  0.00    -0.135 OA 
BRANCH   3   4
HETATM    4  C   UNL     1     -10.414   7.355  69.214  1.00  0.00    -0.220 C  
HETATM    5  O   UNL     1     -11.385   6.633  69.025  1.00  0.00    -0.245 OA 
BRANCH   4   6
HETATM    6  C   UNL     1     -10.437   8.702  69.962  1.00  0.00    -0.223 C  
BRANCH   6   7
HETATM    7  N   UNL     1     -11.113   9.730  69.125  1.00  0.00    -0.387 NA 
HETATM    8  H   UNL     1     -11.227  10.597  69.651  1.00  0.00     0.000 HD 
BRANCH   7   9
HETATM    9  C   UNL     1     -10.458   9.993  67.840  1.00  0.00    -0.231 C  
BRANCH   9  10
HETATM   10  C   UNL     1     -11.183  11.060  66.990  1.00  0.00    -0.181 C  
BRANCH  10  11
HETATM   11  N   UNL     1     -10.353  12.212  66.600  1.00  0.00    -0.206 NA 
HETATM   12  H   UNL     1     -10.571  12.502  65.647  1.00  0.00     0.000 HD 
BRANCH  11  13
HETATM   13  C   UNL     1     -10.441  13.374  67.533  1.00  0.00    -0.236 C  
BRANCH  13  14
HETATM   14  C   UNL     1      -9.344  14.434  67.288  1.00  0.00    -0.208 C  
HETATM   15  H   UNL     1      -6.786  15.042  67.939  1.00  0.00     0.000 H  
HETATM   16  S   UNL     1      -7.773  14.089  68.159  1.00  0.00    -0.160 SA 
ENDBRANCH  13  14
BRANCH  13  17
HETATM   17  C   UNL     1     -11.839  14.023  67.424  1.00  0.00    -0.409 C  
HETATM   18  O   UNL     1     -12.400  14.329  66.378  1.00  0.00    -0.448 OA 
BRANCH  17  19
HETATM   19  O   UNL     1     -12.372  14.199  68.669  1.00  0.00    -0.257 OA 
BRANCH  19  20
HETATM   20  C   UNL     1     -11.913  13.294  69.681  1.00  0.00    -0.314 C  
HETATM   21  C   UNL     1     -12.586  13.586  71.006  1.00  0.00    -0.438 C  
ENDBRANCH  19  20
ENDBRANCH  17  19
ENDBRANCH  13  17
ENDBRANCH  11  13
ENDBRANCH  10  11
ENDBRANCH   9  10
ENDBRANCH   7   9
ENDBRANCH   6   7
BRANCH   6  22
HETATM   22  C   UNL     1     -11.026   8.489  71.372  1.00  0.00    -0.264 C  
HETATM   23  H   UNL     1     -13.005   9.343  73.025  1.00  0.00     0.000 H  
HETATM   24  S   UNL     1     -12.474   9.534  71.755  1.00  0.00    -0.406 SA 
ENDBRANCH   6  22
ENDBRANCH   4   6
ENDBRANCH   3   4
ENDBRANCH   2   3
TORSDOF 13
ENDMDL
MODEL      326
REMARK 921   NORMALIZED FREE ENERGY PREDICTED BY IDOCK:   -3.04 KCAL/MOL
REMARK 922        TOTAL FREE ENERGY PREDICTED BY IDOCK:   -5.94 KCAL/MOL
REMARK 923 INTER-LIGAND FREE ENERGY PREDICTED BY IDOCK:   -4.47 KCAL/MOL
REMARK 924 INTRA-LIGAND FREE ENERGY PREDICTED BY IDOCK:   -1.47 KCAL/MOL
REMARK 927      BINDING AFFINITY PREDICTED BY RF-SCORE:    0.00 PKD
ROOT
HETATM    1  C   UNL     1     -12.030   6.459  72.065  1.00  0.00    -0.375 C  
HETATM    2  C   UNL     1     -12.235   7.779  71.354  1.00  0.00    -0.319 C  
ENDROOT
BRANCH   2   3
HETATM    3  O   UNL     1     -11.234   8.724  71.761  1.00  0.00    -0.292 OA 
BRANCH   3   4
HETATM    4  C   UNL     1     -10.514   9.297  70.754  1.00  0.00    -0.276 C  
HETATM    5  O   UNL     1     -10.767  10.375  70.230  1.00  0.00    -0.282 OA 
BRANCH   4   6
HETATM    6  C   UNL     1      -9.330   8.383  70.386  1.00  0.00    -0.161 C  
BRANCH   6   7
HETATM    7  N   UNL     1      -8.917   8.636  68.978  1.00  0.00    -0.141 NA 
HETATM    8  H   UNL     1      -7.901   8.596  68.893  1.00  0.00     0.000 HD 
BRANCH   7   9
HETATM    9  C   UNL     1      -9.549   7.752  67.993  1.00  0.00    -0.150 C  
BRANCH   9  10
HETATM   10  C   UNL     1     -10.525   8.488  67.048  1.00  0.00    -0.292 C  
BRANCH  10  11
HETATM   11  N   UNL     1     -10.582   9.947  67.228  1.00  0.00    -0.258 NA 
HETATM   12  H   UNL     1     -10.187  10.211  68.132  1.00  0.00     0.000 HD 
BRANCH  11  13
HETATM   13  C   UNL     1      -9.937  10.726  66.130  1.00  0.00    -0.232 C  
BRANCH  13  14
HETATM   14  C   UNL     1     -10.933  11.609  65.346  1.00  0.00    -0.270 C  
HETATM   15  H   UNL     1     -11.466  12.524  62.853  1.00  0.00     0.000 H  
HETATM   16  S   UNL     1     -10.570  11.729  63.558  1.00  0.00    -0.450 SA 
ENDBRANCH  13  14
BRANCH  13  17
HETATM   17  C   UNL     1      -8.799  11.595  66.708  1.00  0.00    -0.184 C  
HETATM   18  O   UNL     1      -8.795  12.820  66.757  1.00  0.00    -0.212 OA 
BRANCH  17  19
HETATM   19  O   UNL     1      -7.791  10.799  67.173  1.00  0.00    -0.116 OA 
BRANCH  19  20
HETATM   20  C   UNL     1      -7.023  10.114  66.175  1.00  0.00    -0.113 C  
HETATM   21  C   UNL     1      -5.712  10.829  65.922  1.00  0.00    -0.145 C  
ENDBRANCH  19  20
ENDBRANCH  17  19
ENDBRANCH  13  17
ENDBRANCH  11  13
ENDBRANCH  10  11
ENDBRANCH   9  10
ENDBRANCH   7   9
ENDBRANCH   6   7
BRANCH   6  22
HETATM   22  C   UNL     1      -8.222   8.537  71.449  1.00  0.00    -0.147 C  
HETATM   23  H   UNL     1      -5.847   7.486  72.244  1.00  0.00     0.000 H  
HETATM   24  S   UNL     1      -6.845   7.348  71.287  1.00  0.00    -0.051 SA 
ENDBRANCH   6  22
ENDBRANCH   4   6
ENDBRANCH   3   4
ENDBRANCH   2   3
TORSDOF 13
ENDMDL
MODEL      327
REMARK 921   NORMALIZED FREE ENERGY PREDICTED BY IDOCK:   -3.02 KCAL/MOL
REMARK 922        TOTAL FREE ENERGY PREDICTED BY IDOCK:   -5.90 KCAL/MOL
REMARK 923 INTER-LIGAND FREE ENERGY PREDICTED BY IDOCK:   -5.51 KCAL/MOL
REMARK 924 INTRA-LIGAND FREE ENERGY PREDICTED BY IDOCK:   -0.40 KCAL/MOL
REMARK 927      BINDING AFFINITY PREDICTED BY RF-SCORE:    0.00 PKD
ROOT
HETATM    1  C   UNL     1     -12.402  12.075  63.285  1.00  0.00    -0.553 C  
HETATM    2  C   UNL     1     -11.069  11.415  63.563  1.00  0.00    -0.285 C  
ENDROOT
BRANCH   2   3
HETATM    3  O   UNL     1     -10.526  11.895  64.802  1.00  0.00    -0.264 OA 
BRANCH   3   4
HETATM    4  C   UNL     1      -9.785  10.997  65.513  1.00  0.00    -0.229 C  
HETATM    5  O   UNL     1      -9.430   9.897  65.109  1.00  0.00    -0.236 OA 
BRANCH   4   6
HETATM    6  C   UNL     1      -9.455  11.586  66.898  1.00  0.00    -0.182 C  
BRANCH   6   7
HETATM    7  N   UNL     1     -10.289  12.795  67.143  1.00  0.00    -0.232 NA 
HETATM    8  H   UNL     1     -10.539  12.860  68.130  1.00  0.00     0.000 HD 
BRANCH   7   9
HETATM    9  C   UNL     1      -9.686  14.050  66.684  1.00  0.00    -0.289 C  
BRANCH   9  10
HETATM   10  C   UNL     1      -8.677  14.649  67.689  1.00  0.00    -0.177 C  
BRANCH  10  11
HETATM   11  N   UNL     1      -8.354  16.069  67.472  1.00  0.00    -0.156 NA 
HETATM   12  H   UNL     1      -8.768  16.399  66.600  1.00  0.00     0.000 HD 
BRANCH  11  13
HETATM   13  C   UNL     1      -8.736  16.964  68.604  1.00  0.00    -0.267 C  
BRANCH  13  14
HETATM   14  C   UNL     1      -8.142  18.385  68.481  1.00  0.00    -0.319 C  
HETATM   15  H   UNL     1      -6.514  19.887  66.922  1.00  0.00     0.000 H  
HETATM   16  S   UNL     1      -7.048  18.609  67.033  1.00  0.00    -0.203 SA 
ENDBRANCH  13  14
BRANCH  13  17
HETATM   17  C   UNL     1     -10.275  17.039  68.710  1.00  0.00    -0.317 C  
HETATM   18  O   UNL     1     -11.013  17.630  67.929  1.00  0.00    -0.316 OA 
BRANCH  17  19
HETATM   19  O   UNL     1     -10.704  16.340  69.802  1.00  0.00    -0.317 OA 
BRANCH  19  20
HETATM   20  C   UNL     1     -11.776  15.416  69.573  1.00  0.00    -0.346 C  
HETATM   21  C   UNL     1     -12.779  15.467  70.706  1.00  0.00    -0.516 C  
ENDBRANCH  19  20
ENDBRANCH  17  19
ENDBRANCH  13  17
ENDBRANCH  11  13
ENDBRANCH  10  11
ENDBRANCH   9  10
ENDBRANCH   7   9
ENDBRANCH   6   7
BRANCH   6  22
HETATM   22  C   UNL     1      -9.558  10.472  67.960  1.00  0.00    -0.148 C  
HETATM   23  H   UNL     1      -8.287   9.449  70.131  1.00  0.00     0.000 H  
HETATM   24  S   UNL     1      -8.194  10.452  69.174  1.00  0.00    -0.156 SA 
ENDBRANCH   6  22
ENDBRANCH   4   6
ENDBRANCH   3   4
ENDBRANCH   2   3
TORSDOF 13
ENDMDL
MODEL      328
REMARK 921   NORMALIZED FREE ENERGY PREDICTED BY IDOCK:   -3.01 KCAL/MOL
REMARK 922        TOTAL FREE ENERGY PREDICTED BY IDOCK:   -5.88 KCAL/MOL
REMARK 923 INTER-LIGAND FREE ENERGY PREDICTED BY IDOCK:   -5.12 KCAL/MOL
REMARK 924 INTRA-LIGAND FREE ENERGY PREDICTED BY IDOCK:   -0.77 KCAL/MOL
REMARK 927      BINDING AFFINITY PREDICTED BY RF-SCORE:    0.00 PKD
ROOT
HETATM    1  C   UNL     1      -8.861   5.465  72.037  1.00  0.00    -0.139 C  
HETATM    2  C   UNL     1      -8.765   5.801  70.564  1.00  0.00    -0.139 C  
ENDROOT
BRANCH   2   3
HETATM    3  O   UNL     1      -8.842   7.222  70.373  1.00  0.00    -0.148 OA 
BRANCH   3   4
HETATM    4  C   UNL     1      -9.601   7.639  69.319  1.00  0.00    -0.159 C  
HETATM    5  O   UNL     1     -10.775   7.343  69.134  1.00  0.00    -0.217 OA 
BRANCH   4   6
HETATM    6  C   UNL     1      -8.755   8.546  68.405  1.00  0.00    -0.143 C  
BRANCH   6   7
HETATM    7  N   UNL     1      -7.878   9.418  69.233  1.00  0.00    -0.081 NA 
HETATM    8  H   UNL     1      -6.943   9.016  69.305  1.00  0.00     0.000 HD 
BRANCH   7   9
HETATM    9  C   UNL     1      -7.803  10.810  68.778  1.00  0.00    -0.129 C  
BRANCH   9  10
HETATM   10  C   UNL     1      -9.111  11.313  68.127  1.00  0.00    -0.166 C  
BRANCH  10  11
HETATM   11  N   UNL     1      -9.877  12.274  68.937  1.00  0.00    -0.422 NA 
HETATM   12  H   UNL     1      -9.611  13.230  68.703  1.00  0.00     0.000 HD 
BRANCH  11  13
HETATM   13  C   UNL     1     -11.358  12.108  68.848  1.00  0.00    -0.283 C  
BRANCH  13  14
HETATM   14  C   UNL     1     -12.090  12.471  70.158  1.00  0.00    -0.292 C  
HETATM   15  H   UNL     1     -13.331  11.349  72.289  1.00  0.00     0.000 H  
HETATM   16  S   UNL     1     -12.671  11.022  71.109  1.00  0.00    -0.405 SA 
ENDBRANCH  13  14
BRANCH  13  17
HETATM   17  C   UNL     1     -11.906  12.958  67.680  1.00  0.00    -0.346 C  
HETATM   18  O   UNL     1     -12.102  14.168  67.714  1.00  0.00    -0.367 OA 
BRANCH  17  19
HETATM   19  O   UNL     1     -12.134  12.167  66.591  1.00  0.00    -0.622 OA 
BRANCH  19  20
HETATM   20  C   UNL     1     -12.179  12.839  65.326  1.00  0.00    -0.483 C  
HETATM   21  C   UNL     1     -10.796  12.930  64.717  1.00  0.00    -0.350 C  
ENDBRANCH  19  20
ENDBRANCH  17  19
ENDBRANCH  13  17
ENDBRANCH  11  13
ENDBRANCH  10  11
ENDBRANCH   9  10
ENDBRANCH   7   9
ENDBRANCH   6   7
BRANCH   6  22
HETATM   22  C   UNL     1      -8.038   7.677  67.352  1.00  0.00    -0.119 C  
HETATM   23  H   UNL     1      -7.980   7.136  64.691  1.00  0.00     0.000 H  
HETATM   24  S   UNL     1      -8.626   7.918  65.640  1.00  0.00    -0.107 SA 
ENDBRANCH   6  22
ENDBRANCH   4   6
ENDBRANCH   3   4
ENDBRANCH   2   3
TORSDOF 13
ENDMDL
MODEL      329
REMARK 921   NORMALIZED FREE ENERGY PREDICTED BY IDOCK:   -3.01 KCAL/MOL
REMARK 922        TOTAL FREE ENERGY PREDICTED BY IDOCK:   -5.88 KCAL/MOL
REMARK 923 INTER-LIGAND FREE ENERGY PREDICTED BY IDOCK:   -4.95 KCAL/MOL
REMARK 924 INTRA-LIGAND FREE ENERGY PREDICTED BY IDOCK:   -0.93 KCAL/MOL
REMARK 927      BINDING AFFINITY PREDICTED BY RF-SCORE:    0.00 PKD
ROOT
HETATM    1  C   UNL     1     -12.066  13.172  69.928  1.00  0.00    -0.357 C  
HETATM    2  C   UNL     1     -11.965  14.533  69.275  1.00  0.00    -0.319 C  
ENDROOT
BRANCH   2   3
HETATM    3  O   UNL     1     -11.993  14.402  67.845  1.00  0.00    -0.353 OA 
BRANCH   3   4
HETATM    4  C   UNL     1     -10.781  14.248  67.240  1.00  0.00    -0.277 C  
HETATM    5  O   UNL     1      -9.770  14.883  67.511  1.00  0.00    -0.211 OA 
BRANCH   4   6
HETATM    6  C   UNL     1     -10.880  13.144  66.169  1.00  0.00    -0.279 C  
BRANCH   6   7
HETATM    7  N   UNL     1     -11.813  12.079  66.628  1.00  0.00    -0.610 NA 
HETATM    8  H   UNL     1     -12.494  11.864  65.899  1.00  0.00     0.000 HD 
BRANCH   7   9
HETATM    9  C   UNL     1     -11.153  10.853  67.089  1.00  0.00    -0.240 C  
BRANCH   9  10
HETATM   10  C   UNL     1      -9.871  10.512  66.296  1.00  0.00    -0.217 C  
BRANCH  10  11
HETATM   11  N   UNL     1      -8.941   9.601  66.983  1.00  0.00    -0.134 NA 
HETATM   12  H   UNL     1      -8.079  10.089  67.226  1.00  0.00     0.000 HD 
BRANCH  11  13
HETATM   13  C   UNL     1      -9.517   8.928  68.185  1.00  0.00    -0.143 C  
BRANCH  13  14
HETATM   14  C   UNL     1      -9.466   7.387  68.101  1.00  0.00    -0.138 C  
HETATM   15  H   UNL     1      -8.303   5.364  66.724  1.00  0.00     0.000 H  
HETATM   16  S   UNL     1      -8.349   6.752  66.800  1.00  0.00    -0.118 SA 
ENDBRANCH  13  14
BRANCH  13  17
HETATM   17  C   UNL     1      -8.783   9.415  69.454  1.00  0.00    -0.157 C  
HETATM   18  O   UNL     1      -9.318   9.684  70.524  1.00  0.00    -0.253 OA 
BRANCH  17  19
HETATM   19  O   UNL     1      -7.441   9.494  69.218  1.00  0.00    -0.072 OA 
BRANCH  19  20
HETATM   20  C   UNL     1      -6.776  10.644  69.758  1.00  0.00    -0.130 C  
HETATM   21  C   UNL     1      -5.333  10.323  70.088  1.00  0.00    -0.042 C  
ENDBRANCH  19  20
ENDBRANCH  17  19
ENDBRANCH  13  17
ENDBRANCH  11  13
ENDBRANCH  10  11
ENDBRANCH   9  10
ENDBRANCH   7   9
ENDBRANCH   6   7
BRANCH   6  22
HETATM   22  C   UNL     1     -11.213  13.788  64.807  1.00  0.00    -0.366 C  
HETATM   23  H   UNL     1     -12.139  13.200  62.322  1.00  0.00     0.000 H  
HETATM   24  S   UNL     1     -11.839  12.621  63.549  1.00  0.00    -0.538 SA 
ENDBRANCH   6  22
ENDBRANCH   4   6
ENDBRANCH   3   4
ENDBRANCH   2   3
TORSDOF 13
ENDMDL
MODEL      330
REMARK 921   NORMALIZED FREE ENERGY PREDICTED BY IDOCK:   -3.00 KCAL/MOL
REMARK 922        TOTAL FREE ENERGY PREDICTED BY IDOCK:   -5.87 KCAL/MOL
REMARK 923 INTER-LIGAND FREE ENERGY PREDICTED BY IDOCK:   -4.95 KCAL/MOL
REMARK 924 INTRA-LIGAND FREE ENERGY PREDICTED BY IDOCK:   -0.91 KCAL/MOL
REMARK 927      BINDING AFFINITY PREDICTED BY RF-SCORE:    0.00 PKD
ROOT
HETATM    1  C   UNL     1      -7.138  13.467  67.458  1.00  0.00    -0.154 C  
HETATM    2  C   UNL     1      -8.416  13.103  68.182  1.00  0.00    -0.173 C  
ENDROOT
BRANCH   2   3
HETATM    3  O   UNL     1      -9.540  13.217  67.295  1.00  0.00    -0.220 OA 
BRANCH   3   4
HETATM    4  C   UNL     1     -10.379  12.143  67.260  1.00  0.00    -0.212 C  
HETATM    5  O   UNL     1     -10.027  10.973  67.171  1.00  0.00    -0.181 OA 
BRANCH   4   6
HETATM    6  C   UNL     1     -11.838  12.628  67.360  1.00  0.00    -0.328 C  
BRANCH   6   7
HETATM    7  N   UNL     1     -12.101  13.155  68.727  1.00  0.00    -0.268 NA 
HETATM    8  H   UNL     1     -13.097  13.336  68.853  1.00  0.00     0.000 HD 
BRANCH   7   9
HETATM    9  C   UNL     1     -11.593  12.308  69.811  1.00  0.00    -0.243 C  
BRANCH   9  10
HETATM   10  C   UNL     1     -12.441  11.038  70.044  1.00  0.00    -0.250 C  
BRANCH  10  11
HETATM   11  N   UNL     1     -11.793   9.778  69.643  1.00  0.00    -0.445 NA 
HETATM   12  H   UNL     1     -11.030   9.961  68.991  1.00  0.00     0.000 HD 
BRANCH  11  13
HETATM   13  C   UNL     1     -11.316   8.944  70.785  1.00  0.00    -0.278 C  
BRANCH  13  14
HETATM   14  C   UNL     1     -12.187   7.692  71.029  1.00  0.00    -0.236 C  
HETATM   15  H   UNL     1     -12.279   5.410  72.485  1.00  0.00     0.000 H  
HETATM   16  S   UNL     1     -11.495   6.537  72.266  1.00  0.00    -0.284 SA 
ENDBRANCH  13  14
BRANCH  13  17
HETATM   17  C   UNL     1      -9.847   8.530  70.546  1.00  0.00    -0.180 C  
HETATM   18  O   UNL     1      -9.444   7.849  69.609  1.00  0.00    -0.160 OA 
BRANCH  17  19
HETATM   19  O   UNL     1      -9.050   9.043  71.529  1.00  0.00    -0.257 OA 
BRANCH  19  20
HETATM   20  C   UNL     1      -7.685   8.604  71.523  1.00  0.00    -0.118 C  
HETATM   21  C   UNL     1      -7.331   7.937  72.836  1.00  0.00    -0.128 C  
ENDBRANCH  19  20
ENDBRANCH  17  19
ENDBRANCH  13  17
ENDBRANCH  11  13
ENDBRANCH  10  11
ENDBRANCH   9  10
ENDBRANCH   7   9
ENDBRANCH   6   7
BRANCH   6  22
HETATM   22  C   UNL     1     -12.129  13.600  66.197  1.00  0.00    -0.436 C  
HETATM   23  H   UNL     1     -12.103  13.776  63.487  1.00  0.00     0.000 H  
HETATM   24  S   UNL     1     -11.840  12.902  64.534  1.00  0.00    -0.403 SA 
ENDBRANCH   6  22
ENDBRANCH   4   6
ENDBRANCH   3   4
ENDBRANCH   2   3
TORSDOF 13
ENDMDL
MODEL      331
REMARK 921   NORMALIZED FREE ENERGY PREDICTED BY IDOCK:   -2.99 KCAL/MOL
REMARK 922        TOTAL FREE ENERGY PREDICTED BY IDOCK:   -5.85 KCAL/MOL
REMARK 923 INTER-LIGAND FREE ENERGY PREDICTED BY IDOCK:   -5.11 KCAL/MOL
REMARK 924 INTRA-LIGAND FREE ENERGY PREDICTED BY IDOCK:   -0.74 KCAL/MOL
REMARK 927      BINDING AFFINITY PREDICTED BY RF-SCORE:    0.00 PKD
ROOT
HETATM    1  C   UNL     1      -9.647   7.799  73.345  1.00  0.00    -0.352 C  
HETATM    2  C   UNL     1      -9.561   6.327  73.688  1.00  0.00    -0.159 C  
ENDROOT
BRANCH   2   3
HETATM    3  O   UNL     1      -9.233   5.562  72.518  1.00  0.00    -0.142 OA 
BRANCH   3   4
HETATM    4  C   UNL     1     -10.224   4.758  72.038  1.00  0.00    -0.195 C  
HETATM    5  O   UNL     1     -10.880   3.969  72.707  1.00  0.00    -0.144 OA 
BRANCH   4   6
HETATM    6  C   UNL     1     -10.396   5.004  70.527  1.00  0.00    -0.215 C  
BRANCH   6   7
HETATM    7  N   UNL     1     -11.080   6.307  70.303  1.00  0.00    -0.334 NA 
HETATM    8  H   UNL     1     -10.947   6.921  71.108  1.00  0.00     0.000 HD 
BRANCH   7   9
HETATM    9  C   UNL     1     -10.691   6.992  69.067  1.00  0.00    -0.210 C  
BRANCH   9  10
HETATM   10  C   UNL     1     -10.432   8.502  69.259  1.00  0.00    -0.215 C  
BRANCH  10  11
HETATM   11  N   UNL     1     -11.026   9.369  68.228  1.00  0.00    -0.471 NA 
HETATM   12  H   UNL     1     -11.615   8.823  67.599  1.00  0.00     0.000 HD 
BRANCH  11  13
HETATM   13  C   UNL     1     -11.781  10.537  68.769  1.00  0.00    -0.120 C  
BRANCH  13  14
HETATM   14  C   UNL     1     -11.458  10.838  70.249  1.00  0.00    -0.319 C  
HETATM   15  H   UNL     1     -12.559  10.793  72.724  1.00  0.00     0.000 H  
HETATM   16  S   UNL     1     -12.850  10.522  71.391  1.00  0.00    -0.476 SA 
ENDBRANCH  13  14
BRANCH  13  17
HETATM   17  C   UNL     1     -11.502  11.784  67.901  1.00  0.00    -0.317 C  
HETATM   18  O   UNL     1     -12.052  12.046  66.837  1.00  0.00    -0.608 OA 
BRANCH  17  19
HETATM   19  O   UNL     1     -10.554  12.566  68.496  1.00  0.00    -0.234 OA 
BRANCH  19  20
HETATM   20  C   UNL     1      -9.285  12.629  67.831  1.00  0.00    -0.201 C  
HETATM   21  C   UNL     1      -9.077  13.989  67.199  1.00  0.00    -0.239 C  
ENDBRANCH  19  20
ENDBRANCH  17  19
ENDBRANCH  13  17
ENDBRANCH  11  13
ENDBRANCH  10  11
ENDBRANCH   9  10
ENDBRANCH   7   9
ENDBRANCH   6   7
BRANCH   6  22
HETATM   22  C   UNL     1      -9.033   4.832  69.826  1.00  0.00    -0.096 C  
HETATM   23  H   UNL     1      -7.265   2.942  69.000  1.00  0.00     0.000 H  
HETATM   24  S   UNL     1      -8.493   3.097  69.631  1.00  0.00    -0.065 SA 
ENDBRANCH   6  22
ENDBRANCH   4   6
ENDBRANCH   3   4
ENDBRANCH   2   3
TORSDOF 13
ENDMDL
MODEL      332
REMARK 921   NORMALIZED FREE ENERGY PREDICTED BY IDOCK:   -2.98 KCAL/MOL
REMARK 922        TOTAL FREE ENERGY PREDICTED BY IDOCK:   -5.85 KCAL/MOL
REMARK 923 INTER-LIGAND FREE ENERGY PREDICTED BY IDOCK:   -4.56 KCAL/MOL
REMARK 924 INTRA-LIGAND FREE ENERGY PREDICTED BY IDOCK:   -1.29 KCAL/MOL
REMARK 927      BINDING AFFINITY PREDICTED BY RF-SCORE:    0.00 PKD
ROOT
HETATM    1  C   UNL     1     -11.090   4.624  73.247  1.00  0.00    -0.403 C  
HETATM    2  C   UNL     1     -11.593   5.974  72.783  1.00  0.00    -0.158 C  
ENDROOT
BRANCH   2   3
HETATM    3  O   UNL     1     -10.507   6.760  72.269  1.00  0.00    -0.203 OA 
BRANCH   3   4
HETATM    4  C   UNL     1     -10.787   7.509  71.165  1.00  0.00    -0.238 C  
HETATM    5  O   UNL     1     -11.274   7.080  70.125  1.00  0.00    -0.273 OA 
BRANCH   4   6
HETATM    6  C   UNL     1     -10.406   8.977  71.430  1.00  0.00    -0.326 C  
BRANCH   6   7
HETATM    7  N   UNL     1      -9.392   9.422  70.435  1.00  0.00    -0.252 NA 
HETATM    8  H   UNL     1      -9.369  10.441  70.382  1.00  0.00     0.000 HD 
BRANCH   7   9
HETATM    9  C   UNL     1      -8.044   8.892  70.665  1.00  0.00    -0.144 C  
BRANCH   9  10
HETATM   10  C   UNL     1      -7.437   8.203  69.423  1.00  0.00    -0.091 C  
BRANCH  10  11
HETATM   11  N   UNL     1      -8.314   7.218  68.769  1.00  0.00    -0.128 NA 
HETATM   12  H   UNL     1      -9.190   7.125  69.283  1.00  0.00     0.000 HD 
BRANCH  11  13
HETATM   13  C   UNL     1      -8.581   7.495  67.327  1.00  0.00    -0.118 C  
BRANCH  13  14
HETATM   14  C   UNL     1      -8.608   6.219  66.458  1.00  0.00    -0.128 C  
HETATM   15  H   UNL     1      -9.086   3.556  66.595  1.00  0.00     0.000 H  
HETATM   16  S   UNL     1      -9.062   4.705  67.378  1.00  0.00    -0.130 SA 
ENDBRANCH  13  14
BRANCH  13  17
HETATM   17  C   UNL     1      -9.914   8.264  67.185  1.00  0.00    -0.239 C  
HETATM   18  O   UNL     1     -11.014   7.750  67.019  1.00  0.00    -0.247 OA 
BRANCH  17  19
HETATM   19  O   UNL     1      -9.692   9.607  67.281  1.00  0.00    -0.154 OA 
BRANCH  19  20
HETATM   20  C   UNL     1     -10.093  10.392  66.150  1.00  0.00    -0.237 C  
HETATM   21  C   UNL     1     -11.054  11.485  66.568  1.00  0.00    -0.341 C  
ENDBRANCH  19  20
ENDBRANCH  17  19
ENDBRANCH  13  17
ENDBRANCH  11  13
ENDBRANCH  10  11
ENDBRANCH   9  10
ENDBRANCH   7   9
ENDBRANCH   6   7
BRANCH   6  22
HETATM   22  C   UNL     1     -11.690   9.828  71.507  1.00  0.00    -0.375 C  
HETATM   23  H   UNL     1     -12.988  11.875  70.280  1.00  0.00     0.000 H  
HETATM   24  S   UNL     1     -11.832  11.108  70.211  1.00  0.00    -0.374 SA 
ENDBRANCH   6  22
ENDBRANCH   4   6
ENDBRANCH   3   4
ENDBRANCH   2   3
TORSDOF 13
ENDMDL
MODEL      333
REMARK 921   NORMALIZED FREE ENERGY PREDICTED BY IDOCK:   -2.98 KCAL/MOL
REMARK 922        TOTAL FREE ENERGY PREDICTED BY IDOCK:   -5.84 KCAL/MOL
REMARK 923 INTER-LIGAND FREE ENERGY PREDICTED BY IDOCK:   -4.67 KCAL/MOL
REMARK 924 INTRA-LIGAND FREE ENERGY PREDICTED BY IDOCK:   -1.17 KCAL/MOL
REMARK 927      BINDING AFFINITY PREDICTED BY RF-SCORE:    0.00 PKD
ROOT
HETATM    1  C   UNL     1     -11.210   5.992  72.262  1.00  0.00    -0.341 C  
HETATM    2  C   UNL     1     -11.507   6.838  71.042  1.00  0.00    -0.324 C  
ENDROOT
BRANCH   2   3
HETATM    3  O   UNL     1     -10.636   7.979  71.005  1.00  0.00    -0.210 OA 
BRANCH   3   4
HETATM    4  C   UNL     1     -10.489   8.574  69.786  1.00  0.00    -0.220 C  
HETATM    5  O   UNL     1     -10.383   7.981  68.719  1.00  0.00    -0.207 OA 
BRANCH   4   6
HETATM    6  C   UNL     1     -10.487  10.105  69.959  1.00  0.00    -0.274 C  
BRANCH   6   7
HETATM    7  N   UNL     1      -9.687  10.733  68.872  1.00  0.00    -0.195 NA 
HETATM    8  H   UNL     1      -9.858  11.738  68.840  1.00  0.00     0.000 HD 
BRANCH   7   9
HETATM    9  C   UNL     1      -8.247  10.461  68.945  1.00  0.00    -0.132 C  
BRANCH   9  10
HETATM   10  C   UNL     1      -7.640  10.013  67.597  1.00  0.00    -0.091 C  
BRANCH  10  11
HETATM   11  N   UNL     1      -8.616   9.522  66.610  1.00  0.00    -0.133 NA 
HETATM   12  H   UNL     1      -9.563   9.580  66.986  1.00  0.00     0.000 HD 
BRANCH  11  13
HETATM   13  C   UNL     1      -8.538  10.198  65.282  1.00  0.00    -0.158 C  
BRANCH  13  14
HETATM   14  C   UNL     1      -8.364   9.212  64.107  1.00  0.00    -0.178 C  
HETATM   15  H   UNL     1      -6.872   8.783  61.886  1.00  0.00     0.000 H  
HETATM   16  S   UNL     1      -7.029   9.671  62.944  1.00  0.00    -0.107 SA 
ENDBRANCH  13  14
BRANCH  13  17
HETATM   17  C   UNL     1      -9.799  11.064  65.066  1.00  0.00    -0.269 C  
HETATM   18  O   UNL     1     -10.661  10.863  64.217  1.00  0.00    -0.368 OA 
BRANCH  17  19
HETATM   19  O   UNL     1      -9.825  12.088  65.968  1.00  0.00    -0.228 OA 
BRANCH  19  20
HETATM   20  C   UNL     1     -10.819  13.097  65.744  1.00  0.00    -0.273 C  
HETATM   21  C   UNL     1     -12.004  12.897  66.665  1.00  0.00    -0.436 C  
ENDBRANCH  19  20
ENDBRANCH  17  19
ENDBRANCH  13  17
ENDBRANCH  11  13
ENDBRANCH  10  11
ENDBRANCH   9  10
ENDBRANCH   7   9
ENDBRANCH   6   7
BRANCH   6  22
HETATM   22  C   UNL     1     -11.941  10.601  70.095  1.00  0.00    -0.334 C  
HETATM   23  H   UNL     1     -13.414  12.836  70.559  1.00  0.00     0.000 H  
HETATM   24  S   UNL     1     -12.104  12.388  70.436  1.00  0.00    -0.194 SA 
ENDBRANCH   6  22
ENDBRANCH   4   6
ENDBRANCH   3   4
ENDBRANCH   2   3
TORSDOF 13
ENDMDL
MODEL      334
REMARK 921   NORMALIZED FREE ENERGY PREDICTED BY IDOCK:   -2.97 KCAL/MOL
REMARK 922        TOTAL FREE ENERGY PREDICTED BY IDOCK:   -5.82 KCAL/MOL
REMARK 923 INTER-LIGAND FREE ENERGY PREDICTED BY IDOCK:   -5.15 KCAL/MOL
REMARK 924 INTRA-LIGAND FREE ENERGY PREDICTED BY IDOCK:   -0.68 KCAL/MOL
REMARK 927      BINDING AFFINITY PREDICTED BY RF-SCORE:    0.00 PKD
ROOT
HETATM    1  C   UNL     1     -10.042   6.440  70.575  1.00  0.00    -0.221 C  
HETATM    2  C   UNL     1     -10.893   7.679  70.755  1.00  0.00    -0.239 C  
ENDROOT
BRANCH   2   3
HETATM    3  O   UNL     1     -10.095   8.860  70.580  1.00  0.00    -0.185 OA 
BRANCH   3   4
HETATM    4  C   UNL     1     -10.718   9.912  69.977  1.00  0.00    -0.292 C  
HETATM    5  O   UNL     1     -11.785  10.399  70.330  1.00  0.00    -0.280 OA 
BRANCH   4   6
HETATM    6  C   UNL     1      -9.867  10.401  68.789  1.00  0.00    -0.185 C  
BRANCH   6   7
HETATM    7  N   UNL     1      -8.461  10.611  69.230  1.00  0.00    -0.303 NA 
HETATM    8  H   UNL     1      -7.894   9.790  69.016  1.00  0.00     0.000 HD 
BRANCH   7   9
HETATM    9  C   UNL     1      -7.832  11.822  68.693  1.00  0.00    -0.117 C  
BRANCH   9  10
HETATM   10  C   UNL     1      -8.845  12.829  68.104  1.00  0.00    -0.194 C  
BRANCH  10  11
HETATM   11  N   UNL     1      -8.773  14.185  68.673  1.00  0.00    -0.278 NA 
HETATM   12  H   UNL     1      -7.936  14.666  68.343  1.00  0.00     0.000 HD 
BRANCH  11  13
HETATM   13  C   UNL     1      -9.986  15.018  68.425  1.00  0.00    -0.225 C  
BRANCH  13  14
HETATM   14  C   UNL     1     -10.248  16.056  69.539  1.00  0.00    -0.274 C  
HETATM   15  H   UNL     1     -12.103  16.795  71.370  1.00  0.00     0.000 H  
HETATM   16  S   UNL     1     -11.867  15.861  70.367  1.00  0.00    -0.289 SA 
ENDBRANCH  13  14
BRANCH  13  17
HETATM   17  C   UNL     1      -9.859  15.728  67.059  1.00  0.00    -0.234 C  
HETATM   18  O   UNL     1      -8.851  16.285  66.640  1.00  0.00    -0.206 OA 
BRANCH  17  19
HETATM   19  O   UNL     1     -11.035  15.637  66.372  1.00  0.00    -0.291 OA 
BRANCH  19  20
HETATM   20  C   UNL     1     -11.180  14.489  65.525  1.00  0.00    -0.335 C  
HETATM   21  C   UNL     1     -12.599  13.963  65.572  1.00  0.00    -0.560 C  
ENDBRANCH  19  20
ENDBRANCH  17  19
ENDBRANCH  13  17
ENDBRANCH  11  13
ENDBRANCH  10  11
ENDBRANCH   9  10
ENDBRANCH   7   9
ENDBRANCH   6   7
BRANCH   6  22
HETATM   22  C   UNL     1     -10.060   9.440  67.598  1.00  0.00    -0.211 C  
HETATM   23  H   UNL     1     -10.280   9.391  64.891  1.00  0.00     0.000 H  
HETATM   24  S   UNL     1     -10.105  10.256  65.964  1.00  0.00    -0.227 SA 
ENDBRANCH   6  22
ENDBRANCH   4   6
ENDBRANCH   3   4
ENDBRANCH   2   3
TORSDOF 13
ENDMDL
MODEL      335
REMARK 921   NORMALIZED FREE ENERGY PREDICTED BY IDOCK:   -2.97 KCAL/MOL
REMARK 922        TOTAL FREE ENERGY PREDICTED BY IDOCK:   -5.82 KCAL/MOL
REMARK 923 INTER-LIGAND FREE ENERGY PREDICTED BY IDOCK:   -5.11 KCAL/MOL
REMARK 924 INTRA-LIGAND FREE ENERGY PREDICTED BY IDOCK:   -0.71 KCAL/MOL
REMARK 927      BINDING AFFINITY PREDICTED BY RF-SCORE:    0.00 PKD
ROOT
HETATM    1  C   UNL     1     -12.759   8.166  72.093  1.00  0.00    -0.332 C  
HETATM    2  C   UNL     1     -11.355   7.741  71.720  1.00  0.00    -0.261 C  
ENDROOT
BRANCH   2   3
HETATM    3  O   UNL     1     -11.288   7.417  70.323  1.00  0.00    -0.274 OA 
BRANCH   3   4
HETATM    4  C   UNL     1     -10.763   6.196  70.021  1.00  0.00    -0.305 C  
HETATM    5  O   UNL     1     -10.751   5.227  70.771  1.00  0.00    -0.221 OA 
BRANCH   4   6
HETATM    6  C   UNL     1     -10.196   6.220  68.589  1.00  0.00    -0.178 C  
BRANCH   6   7
HETATM    7  N   UNL     1     -10.694   7.426  67.871  1.00  0.00    -0.408 NA 
HETATM    8  H   UNL     1     -10.525   8.265  68.427  1.00  0.00     0.000 HD 
BRANCH   7   9
HETATM    9  C   UNL     1     -10.154   7.592  66.518  1.00  0.00    -0.124 C  
BRANCH   9  10
HETATM   10  C   UNL     1      -9.810   9.057  66.171  1.00  0.00    -0.278 C  
BRANCH  10  11
HETATM   11  N   UNL     1     -10.732  10.059  66.730  1.00  0.00    -0.151 NA 
HETATM   12  H   UNL     1     -11.083   9.754  67.638  1.00  0.00     0.000 HD 
BRANCH  11  13
HETATM   13  C   UNL     1     -10.159  11.434  66.827  1.00  0.00    -0.216 C  
BRANCH  13  14
HETATM   14  C   UNL     1      -9.925  12.094  65.450  1.00  0.00    -0.246 C  
HETATM   15  H   UNL     1     -11.216  12.786  63.171  1.00  0.00     0.000 H  
HETATM   16  S   UNL     1     -11.426  12.193  64.411  1.00  0.00    -0.355 SA 
ENDBRANCH  13  14
BRANCH  13  17
HETATM   17  C   UNL     1     -11.082  12.322  67.691  1.00  0.00    -0.268 C  
HETATM   18  O   UNL     1     -12.158  11.976  68.165  1.00  0.00    -0.480 OA 
BRANCH  17  19
HETATM   19  O   UNL     1     -10.520  13.555  67.862  1.00  0.00    -0.241 OA 
BRANCH  19  20
HETATM   20  C   UNL     1     -11.426  14.616  68.191  1.00  0.00    -0.323 C  
HETATM   21  C   UNL     1     -10.820  15.535  69.231  1.00  0.00    -0.252 C  
ENDBRANCH  19  20
ENDBRANCH  17  19
ENDBRANCH  13  17
ENDBRANCH  11  13
ENDBRANCH  10  11
ENDBRANCH   9  10
ENDBRANCH   7   9
ENDBRANCH   6   7
BRANCH   6  22
HETATM   22  C   UNL     1      -8.664   6.057  68.647  1.00  0.00    -0.110 C  
HETATM   23  H   UNL     1      -6.665   4.311  68.065  1.00  0.00     0.000 H  
HETATM   24  S   UNL     1      -8.046   4.459  68.013  1.00  0.00    -0.090 SA 
ENDBRANCH   6  22
ENDBRANCH   4   6
ENDBRANCH   3   4
ENDBRANCH   2   3
TORSDOF 13
ENDMDL
MODEL      336
REMARK 921   NORMALIZED FREE ENERGY PREDICTED BY IDOCK:   -2.96 KCAL/MOL
REMARK 922        TOTAL FREE ENERGY PREDICTED BY IDOCK:   -5.81 KCAL/MOL
REMARK 923 INTER-LIGAND FREE ENERGY PREDICTED BY IDOCK:   -5.27 KCAL/MOL
REMARK 924 INTRA-LIGAND FREE ENERGY PREDICTED BY IDOCK:   -0.53 KCAL/MOL
REMARK 927      BINDING AFFINITY PREDICTED BY RF-SCORE:    0.00 PKD
ROOT
HETATM    1  C   UNL     1     -10.380   8.050  71.161  1.00  0.00    -0.229 C  
HETATM    2  C   UNL     1     -11.329   9.154  70.746  1.00  0.00    -0.280 C  
ENDROOT
BRANCH   2   3
HETATM    3  O   UNL     1     -10.602  10.367  70.499  1.00  0.00    -0.184 OA 
BRANCH   3   4
HETATM    4  C   UNL     1     -10.092  10.508  69.242  1.00  0.00    -0.224 C  
HETATM    5  O   UNL     1      -8.918  10.736  68.977  1.00  0.00    -0.169 OA 
BRANCH   4   6
HETATM    6  C   UNL     1     -11.219  10.324  68.208  1.00  0.00    -0.232 C  
BRANCH   6   7
HETATM    7  N   UNL     1     -11.859  11.637  67.921  1.00  0.00    -0.596 NA 
HETATM    8  H   UNL     1     -12.873  11.565  68.010  1.00  0.00     0.000 HD 
BRANCH   7   9
HETATM    9  C   UNL     1     -11.352  12.748  68.733  1.00  0.00    -0.288 C  
BRANCH   9  10
HETATM   10  C   UNL     1     -11.938  14.119  68.328  1.00  0.00    -0.332 C  
BRANCH  10  11
HETATM   11  N   UNL     1     -11.012  14.998  67.597  1.00  0.00    -0.295 NA 
HETATM   12  H   UNL     1     -10.412  15.505  68.248  1.00  0.00     0.000 HD 
BRANCH  11  13
HETATM   13  C   UNL     1     -10.188  14.300  66.566  1.00  0.00    -0.276 C  
BRANCH  13  14
HETATM   14  C   UNL     1     -10.664  14.571  65.122  1.00  0.00    -0.406 C  
HETATM   15  H   UNL     1     -11.203  13.314  62.783  1.00  0.00     0.000 H  
HETATM   16  S   UNL     1     -10.775  13.070  64.083  1.00  0.00    -0.358 SA 
ENDBRANCH  13  14
BRANCH  13  17
HETATM   17  C   UNL     1      -8.706  14.707  66.722  1.00  0.00    -0.203 C  
HETATM   18  O   UNL     1      -8.220  15.771  66.353  1.00  0.00    -0.272 OA 
BRANCH  17  19
HETATM   19  O   UNL     1      -8.009  13.712  67.344  1.00  0.00    -0.171 OA 
BRANCH  19  20
HETATM   20  C   UNL     1      -6.708  14.066  67.829  1.00  0.00    -0.177 C  
HETATM   21  C   UNL     1      -6.640  13.926  69.335  1.00  0.00    -0.114 C  
ENDBRANCH  19  20
ENDBRANCH  17  19
ENDBRANCH  13  17
ENDBRANCH  11  13
ENDBRANCH  10  11
ENDBRANCH   9  10
ENDBRANCH   7   9
ENDBRANCH   6   7
BRANCH   6  22
HETATM   22  C   UNL     1     -10.665   9.565  66.984  1.00  0.00    -0.149 C  
HETATM   23  H   UNL     1      -9.831   7.109  66.176  1.00  0.00     0.000 H  
HETATM   24  S   UNL     1     -10.329   7.793  67.278  1.00  0.00    -0.322 SA 
ENDBRANCH   6  22
ENDBRANCH   4   6
ENDBRANCH   3   4
ENDBRANCH   2   3
TORSDOF 13
ENDMDL
MODEL      337
REMARK 921   NORMALIZED FREE ENERGY PREDICTED BY IDOCK:   -2.96 KCAL/MOL
REMARK 922        TOTAL FREE ENERGY PREDICTED BY IDOCK:   -5.80 KCAL/MOL
REMARK 923 INTER-LIGAND FREE ENERGY PREDICTED BY IDOCK:   -5.53 KCAL/MOL
REMARK 924 INTRA-LIGAND FREE ENERGY PREDICTED BY IDOCK:   -0.28 KCAL/MOL
REMARK 927      BINDING AFFINITY PREDICTED BY RF-SCORE:    0.00 PKD
ROOT
HETATM    1  C   UNL     1      -8.219   4.393  67.897  1.00  0.00    -0.095 C  
HETATM    2  C   UNL     1      -8.823   4.573  69.273  1.00  0.00    -0.090 C  
ENDROOT
BRANCH   2   3
HETATM    3  O   UNL     1     -10.232   4.827  69.169  1.00  0.00    -0.171 OA 
BRANCH   3   4
HETATM    4  C   UNL     1     -10.686   5.935  69.821  1.00  0.00    -0.340 C  
HETATM    5  O   UNL     1     -11.828   6.374  69.759  1.00  0.00    -0.357 OA 
BRANCH   4   6
HETATM    6  C   UNL     1      -9.542   6.544  70.655  1.00  0.00    -0.172 C  
BRANCH   6   7
HETATM    7  N   UNL     1      -8.924   7.676  69.912  1.00  0.00    -0.144 NA 
HETATM    8  H   UNL     1      -8.494   7.342  69.049  1.00  0.00     0.000 HD 
BRANCH   7   9
HETATM    9  C   UNL     1      -9.838   8.788  69.631  1.00  0.00    -0.183 C  
BRANCH   9  10
HETATM   10  C   UNL     1      -9.160   9.970  68.904  1.00  0.00    -0.159 C  
BRANCH  10  11
HETATM   11  N   UNL     1      -9.756  11.288  69.174  1.00  0.00    -0.413 NA 
HETATM   12  H   UNL     1      -9.116  12.033  68.896  1.00  0.00     0.000 HD 
BRANCH  11  13
HETATM   13  C   UNL     1     -11.098  11.494  68.553  1.00  0.00    -0.236 C  
BRANCH  13  14
HETATM   14  C   UNL     1     -12.104  12.190  69.495  1.00  0.00    -0.201 C  
HETATM   15  H   UNL     1     -13.549  11.778  71.749  1.00  0.00     0.000 H  
HETATM   16  S   UNL     1     -12.643  11.152  70.901  1.00  0.00    -0.367 SA 
ENDBRANCH  13  14
BRANCH  13  17
HETATM   17  C   UNL     1     -10.946  12.304  67.246  1.00  0.00    -0.256 C  
HETATM   18  O   UNL     1      -9.978  12.994  66.947  1.00  0.00    -0.234 OA 
BRANCH  17  19
HETATM   19  O   UNL     1     -12.048  12.134  66.459  1.00  0.00    -0.627 OA 
BRANCH  19  20
HETATM   20  C   UNL     1     -12.328  13.193  65.533  1.00  0.00    -0.474 C  
HETATM   21  C   UNL     1     -12.179  12.711  64.106  1.00  0.00    -0.532 C  
ENDBRANCH  19  20
ENDBRANCH  17  19
ENDBRANCH  13  17
ENDBRANCH  11  13
ENDBRANCH  10  11
ENDBRANCH   9  10
ENDBRANCH   7   9
ENDBRANCH   6   7
BRANCH   6  22
HETATM   22  C   UNL     1     -10.065   6.874  72.068  1.00  0.00    -0.185 C  
HETATM   23  H   UNL     1     -11.287   5.756  74.222  1.00  0.00     0.000 H  
HETATM   24  S   UNL     1     -10.816   5.460  72.949  1.00  0.00    -0.291 SA 
ENDBRANCH   6  22
ENDBRANCH   4   6
ENDBRANCH   3   4
ENDBRANCH   2   3
TORSDOF 13
ENDMDL
MODEL      338
REMARK 921   NORMALIZED FREE ENERGY PREDICTED BY IDOCK:   -2.95 KCAL/MOL
REMARK 922        TOTAL FREE ENERGY PREDICTED BY IDOCK:   -5.78 KCAL/MOL
REMARK 923 INTER-LIGAND FREE ENERGY PREDICTED BY IDOCK:   -4.85 KCAL/MOL
REMARK 924 INTRA-LIGAND FREE ENERGY PREDICTED BY IDOCK:   -0.93 KCAL/MOL
REMARK 927      BINDING AFFINITY PREDICTED BY RF-SCORE:    0.00 PKD
ROOT
HETATM    1  C   UNL     1      -6.133   6.800  66.501  1.00  0.00    -0.037 C  
HETATM    2  C   UNL     1      -6.469   8.194  66.986  1.00  0.00    -0.057 C  
ENDROOT
BRANCH   2   3
HETATM    3  O   UNL     1      -6.454   9.119  65.887  1.00  0.00    -0.060 OA 
BRANCH   3   4
HETATM    4  C   UNL     1      -7.572   9.885  65.741  1.00  0.00    -0.113 C  
HETATM    5  O   UNL     1      -7.683  11.050  66.101  1.00  0.00    -0.155 OA 
BRANCH   4   6
HETATM    6  C   UNL     1      -8.671   9.060  65.043  1.00  0.00    -0.183 C  
BRANCH   6   7
HETATM    7  N   UNL     1      -9.974   9.272  65.731  1.00  0.00    -0.414 NA 
HETATM    8  H   UNL     1     -10.745   9.174  65.069  1.00  0.00     0.000 HD 
BRANCH   7   9
HETATM    9  C   UNL     1     -10.189   8.413  66.899  1.00  0.00    -0.313 C  
BRANCH   9  10
HETATM   10  C   UNL     1     -10.083   9.168  68.243  1.00  0.00    -0.191 C  
BRANCH  10  11
HETATM   11  N   UNL     1     -11.278   9.084  69.097  1.00  0.00    -0.430 NA 
HETATM   12  H   UNL     1     -12.040   8.622  68.601  1.00  0.00     0.000 HD 
BRANCH  11  13
HETATM   13  C   UNL     1     -11.043   8.431  70.419  1.00  0.00    -0.231 C  
BRANCH  13  14
HETATM   14  C   UNL     1     -11.411   9.333  71.617  1.00  0.00    -0.397 C  
HETATM   15  H   UNL     1     -12.997  11.417  72.308  1.00  0.00     0.000 H  
HETATM   16  S   UNL     1     -12.666  10.605  71.229  1.00  0.00    -0.459 SA 
ENDBRANCH  13  14
BRANCH  13  17
HETATM   17  C   UNL     1     -11.833   7.105  70.490  1.00  0.00    -0.243 C  
HETATM   18  O   UNL     1     -12.772   6.878  71.245  1.00  0.00    -0.370 OA 
BRANCH  17  19
HETATM   19  O   UNL     1     -11.342   6.217  69.577  1.00  0.00    -0.418 OA 
BRANCH  19  20
HETATM   20  C   UNL     1      -9.968   5.842  69.743  1.00  0.00    -0.181 C  
HETATM   21  C   UNL     1      -9.808   4.897  70.915  1.00  0.00    -0.277 C  
ENDBRANCH  19  20
ENDBRANCH  17  19
ENDBRANCH  13  17
ENDBRANCH  11  13
ENDBRANCH  10  11
ENDBRANCH   9  10
ENDBRANCH   7   9
ENDBRANCH   6   7
BRANCH   6  22
HETATM   22  C   UNL     1      -8.651   9.367  63.531  1.00  0.00    -0.206 C  
HETATM   23  H   UNL     1      -7.629   8.486  61.173  1.00  0.00     0.000 H  
HETATM   24  S   UNL     1      -7.647   8.211  62.535  1.00  0.00    -0.121 SA 
ENDBRANCH   6  22
ENDBRANCH   4   6
ENDBRANCH   3   4
ENDBRANCH   2   3
TORSDOF 13
ENDMDL
MODEL      339
REMARK 921   NORMALIZED FREE ENERGY PREDICTED BY IDOCK:   -2.95 KCAL/MOL
REMARK 922        TOTAL FREE ENERGY PREDICTED BY IDOCK:   -5.78 KCAL/MOL
REMARK 923 INTER-LIGAND FREE ENERGY PREDICTED BY IDOCK:   -5.07 KCAL/MOL
REMARK 924 INTRA-LIGAND FREE ENERGY PREDICTED BY IDOCK:   -0.71 KCAL/MOL
REMARK 927      BINDING AFFINITY PREDICTED BY RF-SCORE:    0.00 PKD
ROOT
HETATM    1  C   UNL     1      -8.291   7.988  74.165  1.00  0.00    -0.311 C  
HETATM    2  C   UNL     1      -9.232   6.928  73.631  1.00  0.00    -0.162 C  
ENDROOT
BRANCH   2   3
HETATM    3  O   UNL     1      -9.032   6.751  72.221  1.00  0.00    -0.133 OA 
BRANCH   3   4
HETATM    4  C   UNL     1     -10.139   6.906  71.440  1.00  0.00    -0.185 C  
HETATM    5  O   UNL     1     -10.808   5.993  70.972  1.00  0.00    -0.257 OA 
BRANCH   4   6
HETATM    6  C   UNL     1     -10.425   8.408  71.249  1.00  0.00    -0.216 C  
BRANCH   6   7
HETATM    7  N   UNL     1      -9.439   8.991  70.298  1.00  0.00    -0.185 NA 
HETATM    8  H   UNL     1      -8.488   8.843  70.637  1.00  0.00     0.000 HD 
BRANCH   7   9
HETATM    9  C   UNL     1      -9.570   8.510  68.918  1.00  0.00    -0.160 C  
BRANCH   9  10
HETATM   10  C   UNL     1      -8.610   9.212  67.932  1.00  0.00    -0.121 C  
BRANCH  10  11
HETATM   11  N   UNL     1      -9.254  10.164  67.012  1.00  0.00    -0.145 NA 
HETATM   12  H   UNL     1     -10.091   9.752  66.600  1.00  0.00     0.000 HD 
BRANCH  11  13
HETATM   13  C   UNL     1      -9.572  11.488  67.624  1.00  0.00    -0.171 C  
BRANCH  13  14
HETATM   14  C   UNL     1      -8.660  12.627  67.115  1.00  0.00    -0.199 C  
HETATM   15  H   UNL     1      -7.255  14.777  67.975  1.00  0.00     0.000 H  
HETATM   16  S   UNL     1      -8.075  13.752  68.433  1.00  0.00    -0.136 SA 
ENDBRANCH  13  14
BRANCH  13  17
HETATM   17  C   UNL     1     -11.054  11.838  67.363  1.00  0.00    -0.282 C  
HETATM   18  O   UNL     1     -12.016  11.189  67.757  1.00  0.00    -0.630 OA 
BRANCH  17  19
HETATM   19  O   UNL     1     -11.142  12.990  66.635  1.00  0.00    -0.278 OA 
BRANCH  19  20
HETATM   20  C   UNL     1     -12.322  13.137  65.835  1.00  0.00    -0.398 C  
HETATM   21  C   UNL     1     -12.043  13.996  64.619  1.00  0.00    -0.462 C  
ENDBRANCH  19  20
ENDBRANCH  17  19
ENDBRANCH  13  17
ENDBRANCH  11  13
ENDBRANCH  10  11
ENDBRANCH   9  10
ENDBRANCH   7   9
ENDBRANCH   6   7
BRANCH   6  22
HETATM   22  C   UNL     1     -11.910   8.598  70.877  1.00  0.00    -0.225 C  
HETATM   23  H   UNL     1     -14.311   9.317  71.924  1.00  0.00     0.000 H  
HETATM   24  S   UNL     1     -12.974   9.146  72.258  1.00  0.00    -0.410 SA 
ENDBRANCH   6  22
ENDBRANCH   4   6
ENDBRANCH   3   4
ENDBRANCH   2   3
TORSDOF 13
ENDMDL
MODEL      340
REMARK 921   NORMALIZED FREE ENERGY PREDICTED BY IDOCK:   -2.94 KCAL/MOL
REMARK 922        TOTAL FREE ENERGY PREDICTED BY IDOCK:   -5.77 KCAL/MOL
REMARK 923 INTER-LIGAND FREE ENERGY PREDICTED BY IDOCK:   -5.22 KCAL/MOL
REMARK 924 INTRA-LIGAND FREE ENERGY PREDICTED BY IDOCK:   -0.55 KCAL/MOL
REMARK 927      BINDING AFFINITY PREDICTED BY RF-SCORE:    0.00 PKD
ROOT
HETATM    1  C   UNL     1     -10.387   5.236  70.122  1.00  0.00    -0.354 C  
HETATM    2  C   UNL     1     -11.277   6.364  69.647  1.00  0.00    -0.418 C  
ENDROOT
BRANCH   2   3
HETATM    3  O   UNL     1     -10.651   7.632  69.898  1.00  0.00    -0.227 OA 
BRANCH   3   4
HETATM    4  C   UNL     1      -9.696   8.010  69.002  1.00  0.00    -0.159 C  
HETATM    5  O   UNL     1      -8.491   7.831  69.136  1.00  0.00    -0.135 OA 
BRANCH   4   6
HETATM    6  C   UNL     1     -10.366   8.686  67.791  1.00  0.00    -0.242 C  
BRANCH   6   7
HETATM    7  N   UNL     1     -10.033  10.136  67.775  1.00  0.00    -0.162 NA 
HETATM    8  H   UNL     1      -9.102  10.283  67.385  1.00  0.00     0.000 HD 
BRANCH   7   9
HETATM    9  C   UNL     1     -11.016  10.977  67.084  1.00  0.00    -0.283 C  
BRANCH   9  10
HETATM   10  C   UNL     1     -10.380  12.155  66.313  1.00  0.00    -0.221 C  
BRANCH  10  11
HETATM   11  N   UNL     1     -10.225  13.394  67.092  1.00  0.00    -0.245 NA 
HETATM   12  H   UNL     1      -9.286  13.776  66.971  1.00  0.00     0.000 HD 
BRANCH  11  13
HETATM   13  C   UNL     1     -11.254  14.435  66.799  1.00  0.00    -0.337 C  
BRANCH  13  14
HETATM   14  C   UNL     1     -12.144  14.769  68.017  1.00  0.00    -0.128 C  
HETATM   15  H   UNL     1     -12.523  14.124  70.620  1.00  0.00     0.000 H  
HETATM   16  S   UNL     1     -11.721  13.824  69.525  1.00  0.00    -0.335 SA 
ENDBRANCH  13  14
BRANCH  13  17
HETATM   17  C   UNL     1     -10.563  15.716  66.280  1.00  0.00    -0.307 C  
HETATM   18  O   UNL     1     -10.577  16.109  65.119  1.00  0.00    -0.538 OA 
BRANCH  17  19
HETATM   19  O   UNL     1      -9.937  16.361  67.308  1.00  0.00    -0.248 OA 
BRANCH  19  20
HETATM   20  C   UNL     1      -8.974  17.353  66.933  1.00  0.00    -0.245 C  
HETATM   21  C   UNL     1      -8.160  17.791  68.132  1.00  0.00    -0.265 C  
ENDBRANCH  19  20
ENDBRANCH  17  19
ENDBRANCH  13  17
ENDBRANCH  11  13
ENDBRANCH  10  11
ENDBRANCH   9  10
ENDBRANCH   7   9
ENDBRANCH   6   7
BRANCH   6  22
HETATM   22  C   UNL     1     -10.011   7.901  66.511  1.00  0.00    -0.197 C  
HETATM   23  H   UNL     1      -8.412   7.980  64.317  1.00  0.00     0.000 H  
HETATM   24  S   UNL     1      -8.732   8.687  65.469  1.00  0.00    -0.172 SA 
ENDBRANCH   6  22
ENDBRANCH   4   6
ENDBRANCH   3   4
ENDBRANCH   2   3
TORSDOF 13
ENDMDL
MODEL      341
REMARK 921   NORMALIZED FREE ENERGY PREDICTED BY IDOCK:   -2.94 KCAL/MOL
REMARK 922        TOTAL FREE ENERGY PREDICTED BY IDOCK:   -5.76 KCAL/MOL
REMARK 923 INTER-LIGAND FREE ENERGY PREDICTED BY IDOCK:   -4.87 KCAL/MOL
REMARK 924 INTRA-LIGAND FREE ENERGY PREDICTED BY IDOCK:   -0.89 KCAL/MOL
REMARK 927      BINDING AFFINITY PREDICTED BY RF-SCORE:    0.00 PKD
ROOT
HETATM    1  C   UNL     1     -11.836   6.831  71.856  1.00  0.00    -0.366 C  
HETATM    2  C   UNL     1     -11.644   7.185  70.397  1.00  0.00    -0.258 C  
ENDROOT
BRANCH   2   3
HETATM    3  O   UNL     1     -11.450   5.995  69.617  1.00  0.00    -0.394 OA 
BRANCH   3   4
HETATM    4  C   UNL     1     -10.336   5.976  68.831  1.00  0.00    -0.218 C  
HETATM    5  O   UNL     1      -9.185   6.088  69.233  1.00  0.00    -0.126 OA 
BRANCH   4   6
HETATM    6  C   UNL     1     -10.750   5.780  67.360  1.00  0.00    -0.248 C  
BRANCH   6   7
HETATM    7  N   UNL     1     -11.255   7.065  66.803  1.00  0.00    -0.570 NA 
HETATM    8  H   UNL     1     -12.075   7.379  67.323  1.00  0.00     0.000 HD 
BRANCH   7   9
HETATM    9  C   UNL     1     -10.252   8.131  66.734  1.00  0.00    -0.302 C  
BRANCH   9  10
HETATM   10  C   UNL     1     -10.859   9.528  66.475  1.00  0.00     0.172 C  
BRANCH  10  11
HETATM   11  N   UNL     1     -11.544  10.131  67.630  1.00  0.00    -0.484 NA 
HETATM   12  H   UNL     1     -11.571   9.475  68.411  1.00  0.00     0.000 HD 
BRANCH  11  13
HETATM   13  C   UNL     1     -10.974  11.440  68.066  1.00  0.00    -0.237 C  
BRANCH  13  14
HETATM   14  C   UNL     1     -11.903  12.217  69.024  1.00  0.00    -0.305 C  
HETATM   15  H   UNL     1     -12.662  14.733  69.683  1.00  0.00     0.000 H  
HETATM   16  S   UNL     1     -11.826  14.033  68.820  1.00  0.00    -0.361 SA 
ENDBRANCH  13  14
BRANCH  13  17
HETATM   17  C   UNL     1      -9.598  11.211  68.730  1.00  0.00    -0.172 C  
HETATM   18  O   UNL     1      -9.316  10.280  69.476  1.00  0.00    -0.213 OA 
BRANCH  17  19
HETATM   19  O   UNL     1      -8.729  12.196  68.357  1.00  0.00    -0.176 OA 
BRANCH  19  20
HETATM   20  C   UNL     1      -8.341  12.201  66.977  1.00  0.00    -0.173 C  
HETATM   21  C   UNL     1      -7.122  11.330  66.759  1.00  0.00    -0.143 C  
ENDBRANCH  19  20
ENDBRANCH  17  19
ENDBRANCH  13  17
ENDBRANCH  11  13
ENDBRANCH  10  11
ENDBRANCH   9  10
ENDBRANCH   7   9
ENDBRANCH   6   7
BRANCH   6  22
HETATM   22  C   UNL     1      -9.586   5.125  66.588  1.00  0.00    -0.154 C  
HETATM   23  H   UNL     1      -8.295   2.759  66.249  1.00  0.00     0.000 H  
HETATM   24  S   UNL     1      -9.344   3.349  66.943  1.00  0.00    -0.142 SA 
ENDBRANCH   6  22
ENDBRANCH   4   6
ENDBRANCH   3   4
ENDBRANCH   2   3
TORSDOF 13
ENDMDL
MODEL      342
REMARK 921   NORMALIZED FREE ENERGY PREDICTED BY IDOCK:   -2.94 KCAL/MOL
REMARK 922        TOTAL FREE ENERGY PREDICTED BY IDOCK:   -5.76 KCAL/MOL
REMARK 923 INTER-LIGAND FREE ENERGY PREDICTED BY IDOCK:   -5.18 KCAL/MOL
REMARK 924 INTRA-LIGAND FREE ENERGY PREDICTED BY IDOCK:   -0.59 KCAL/MOL
REMARK 927      BINDING AFFINITY PREDICTED BY RF-SCORE:    0.00 PKD
ROOT
HETATM    1  C   UNL     1     -10.713   5.414  70.358  1.00  0.00    -0.276 C  
HETATM    2  C   UNL     1     -10.716   6.894  70.678  1.00  0.00    -0.236 C  
ENDROOT
BRANCH   2   3
HETATM    3  O   UNL     1      -9.758   7.581  69.859  1.00  0.00    -0.170 OA 
BRANCH   3   4
HETATM    4  C   UNL     1      -9.138   8.648  70.439  1.00  0.00    -0.159 C  
HETATM    5  O   UNL     1      -9.316   9.029  71.590  1.00  0.00    -0.265 OA 
BRANCH   4   6
HETATM    6  C   UNL     1      -8.171   9.292  69.427  1.00  0.00    -0.114 C  
BRANCH   6   7
HETATM    7  N   UNL     1      -8.109  10.762  69.656  1.00  0.00    -0.379 NA 
HETATM    8  H   UNL     1      -7.145  11.058  69.810  1.00  0.00     0.000 HD 
BRANCH   7   9
HETATM    9  C   UNL     1      -8.728  11.566  68.597  1.00  0.00    -0.103 C  
BRANCH   9  10
HETATM   10  C   UNL     1      -8.217  11.213  67.182  1.00  0.00    -0.137 C  
BRANCH  10  11
HETATM   11  N   UNL     1      -8.603  12.166  66.128  1.00  0.00    -0.394 NA 
HETATM   12  H   UNL     1      -7.803  12.380  65.532  1.00  0.00     0.000 HD 
BRANCH  11  13
HETATM   13  C   UNL     1      -9.767  11.729  65.303  1.00  0.00    -0.211 C  
BRANCH  13  14
HETATM   14  C   UNL     1      -9.872  10.195  65.162  1.00  0.00    -0.325 C  
HETATM   15  H   UNL     1      -8.947   8.122  63.683  1.00  0.00     0.000 H  
HETATM   16  S   UNL     1      -8.853   9.503  63.810  1.00  0.00    -0.170 SA 
ENDBRANCH  13  14
BRANCH  13  17
HETATM   17  C   UNL     1     -11.072  12.297  65.904  1.00  0.00    -0.322 C  
HETATM   18  O   UNL     1     -11.861  11.673  66.604  1.00  0.00    -0.533 OA 
BRANCH  17  19
HETATM   19  O   UNL     1     -11.218  13.609  65.553  1.00  0.00    -0.292 OA 
BRANCH  19  20
HETATM   20  C   UNL     1     -12.280  13.897  64.633  1.00  0.00    -0.419 C  
HETATM   21  C   UNL     1     -12.125  13.086  63.364  1.00  0.00    -0.591 C  
ENDBRANCH  19  20
ENDBRANCH  17  19
ENDBRANCH  13  17
ENDBRANCH  11  13
ENDBRANCH  10  11
ENDBRANCH   9  10
ENDBRANCH   7   9
ENDBRANCH   6   7
BRANCH   6  22
HETATM   22  C   UNL     1      -6.821   8.548  69.472  1.00  0.00    -0.044 C  
HETATM   23  H   UNL     1      -4.156   8.950  69.818  1.00  0.00     0.000 H  
HETATM   24  S   UNL     1      -5.373   9.620  69.778  1.00  0.00    -0.033 SA 
ENDBRANCH   6  22
ENDBRANCH   4   6
ENDBRANCH   3   4
ENDBRANCH   2   3
TORSDOF 13
ENDMDL
MODEL      343
REMARK 921   NORMALIZED FREE ENERGY PREDICTED BY IDOCK:   -2.93 KCAL/MOL
REMARK 922        TOTAL FREE ENERGY PREDICTED BY IDOCK:   -5.76 KCAL/MOL
REMARK 923 INTER-LIGAND FREE ENERGY PREDICTED BY IDOCK:   -5.02 KCAL/MOL
REMARK 924 INTRA-LIGAND FREE ENERGY PREDICTED BY IDOCK:   -0.74 KCAL/MOL
REMARK 927      BINDING AFFINITY PREDICTED BY RF-SCORE:    0.00 PKD
ROOT
HETATM    1  C   UNL     1     -11.038   6.615  67.159  1.00  0.00    -0.427 C  
HETATM    2  C   UNL     1     -10.432   6.669  68.545  1.00  0.00    -0.213 C  
ENDROOT
BRANCH   2   3
HETATM    3  O   UNL     1     -11.076   7.683  69.330  1.00  0.00    -0.126 OA 
BRANCH   3   4
HETATM    4  C   UNL     1     -10.634   8.958  69.130  1.00  0.00    -0.195 C  
HETATM    5  O   UNL     1     -11.352   9.933  68.942  1.00  0.00    -0.136 OA 
BRANCH   4   6
HETATM    6  C   UNL     1      -9.095   8.983  69.188  1.00  0.00    -0.140 C  
BRANCH   6   7
HETATM    7  N   UNL     1      -8.557   9.668  67.981  1.00  0.00    -0.119 NA 
HETATM    8  H   UNL     1      -9.076   9.383  67.150  1.00  0.00     0.000 HD 
BRANCH   7   9
HETATM    9  C   UNL     1      -8.513  11.130  68.082  1.00  0.00    -0.138 C  
BRANCH   9  10
HETATM   10  C   UNL     1      -8.287  11.831  66.725  1.00  0.00    -0.165 C  
BRANCH  10  11
HETATM   11  N   UNL     1      -9.038  13.084  66.541  1.00  0.00    -0.407 NA 
HETATM   12  H   UNL     1      -9.717  12.986  65.787  1.00  0.00     0.000 HD 
BRANCH  11  13
HETATM   13  C   UNL     1      -9.702  13.588  67.780  1.00  0.00    -0.226 C  
BRANCH  13  14
HETATM   14  C   UNL     1      -8.909  14.715  68.479  1.00  0.00    -0.182 C  
HETATM   15  H   UNL     1      -7.004  16.583  68.017  1.00  0.00     0.000 H  
HETATM   16  S   UNL     1      -7.717  15.570  67.388  1.00  0.00    -0.212 SA 
ENDBRANCH  13  14
BRANCH  13  17
HETATM   17  C   UNL     1     -11.129  14.074  67.442  1.00  0.00    -0.303 C  
HETATM   18  O   UNL     1     -11.656  15.089  67.884  1.00  0.00    -0.332 OA 
BRANCH  17  19
HETATM   19  O   UNL     1     -11.723  13.211  66.566  1.00  0.00    -0.345 OA 
BRANCH  19  20
HETATM   20  C   UNL     1     -12.679  13.788  65.668  1.00  0.00    -0.478 C  
HETATM   21  C   UNL     1     -11.993  14.352  64.442  1.00  0.00    -0.471 C  
ENDBRANCH  19  20
ENDBRANCH  17  19
ENDBRANCH  13  17
ENDBRANCH  11  13
ENDBRANCH  10  11
ENDBRANCH   9  10
ENDBRANCH   7   9
ENDBRANCH   6   7
BRANCH   6  22
HETATM   22  C   UNL     1      -8.648   9.564  70.546  1.00  0.00    -0.184 C  
HETATM   23  H   UNL     1      -8.412   8.936  73.178  1.00  0.00     0.000 H  
HETATM   24  S   UNL     1      -8.814   8.414  71.955  1.00  0.00    -0.220 SA 
ENDBRANCH   6  22
ENDBRANCH   4   6
ENDBRANCH   3   4
ENDBRANCH   2   3
TORSDOF 13
ENDMDL
MODEL      344
REMARK 921   NORMALIZED FREE ENERGY PREDICTED BY IDOCK:   -2.93 KCAL/MOL
REMARK 922        TOTAL FREE ENERGY PREDICTED BY IDOCK:   -5.75 KCAL/MOL
REMARK 923 INTER-LIGAND FREE ENERGY PREDICTED BY IDOCK:   -5.01 KCAL/MOL
REMARK 924 INTRA-LIGAND FREE ENERGY PREDICTED BY IDOCK:   -0.74 KCAL/MOL
REMARK 927      BINDING AFFINITY PREDICTED BY RF-SCORE:    0.00 PKD
ROOT
HETATM    1  C   UNL     1      -8.516   9.002  70.911  1.00  0.00    -0.253 C  
HETATM    2  C   UNL     1      -8.781   7.625  70.340  1.00  0.00    -0.143 C  
ENDROOT
BRANCH   2   3
HETATM    3  O   UNL     1     -10.159   7.504  69.955  1.00  0.00    -0.188 OA 
BRANCH   3   4
HETATM    4  C   UNL     1     -10.504   6.334  69.344  1.00  0.00    -0.243 C  
HETATM    5  O   UNL     1     -10.640   5.256  69.908  1.00  0.00    -0.306 OA 
BRANCH   4   6
HETATM    6  C   UNL     1     -10.705   6.583  67.837  1.00  0.00    -0.287 C  
BRANCH   6   7
HETATM    7  N   UNL     1     -10.968   8.028  67.595  1.00  0.00    -0.506 NA 
HETATM    8  H   UNL     1     -11.140   8.510  68.478  1.00  0.00     0.000 HD 
BRANCH   7   9
HETATM    9  C   UNL     1      -9.922   8.715  66.832  1.00  0.00    -0.260 C  
BRANCH   9  10
HETATM   10  C   UNL     1     -10.126  10.244  66.752  1.00  0.00    -0.216 C  
BRANCH  10  11
HETATM   11  N   UNL     1     -10.214  10.927  68.054  1.00  0.00    -0.173 NA 
HETATM   12  H   UNL     1      -9.617  10.464  68.740  1.00  0.00     0.000 HD 
BRANCH  11  13
HETATM   13  C   UNL     1      -9.915  12.388  68.002  1.00  0.00    -0.207 C  
BRANCH  13  14
HETATM   14  C   UNL     1      -8.616  12.715  67.233  1.00  0.00    -0.196 C  
HETATM   15  H   UNL     1      -6.537  14.452  67.200  1.00  0.00     0.000 H  
HETATM   16  S   UNL     1      -7.706  14.158  67.893  1.00  0.00    -0.177 SA 
ENDBRANCH  13  14
BRANCH  13  17
HETATM   17  C   UNL     1     -11.108  13.141  67.373  1.00  0.00    -0.275 C  
HETATM   18  O   UNL     1     -12.195  13.322  67.910  1.00  0.00    -0.275 OA 
BRANCH  17  19
HETATM   19  O   UNL     1     -10.775  13.590  66.127  1.00  0.00    -0.284 OA 
BRANCH  19  20
HETATM   20  C   UNL     1     -11.279  14.883  65.771  1.00  0.00    -0.334 C  
HETATM   21  C   UNL     1     -10.167  15.765  65.241  1.00  0.00    -0.323 C  
ENDBRANCH  19  20
ENDBRANCH  17  19
ENDBRANCH  13  17
ENDBRANCH  11  13
ENDBRANCH  10  11
ENDBRANCH   9  10
ENDBRANCH   7   9
ENDBRANCH   6   7
BRANCH   6  22
HETATM   22  C   UNL     1      -9.518   5.977  67.060  1.00  0.00    -0.127 C  
HETATM   23  H   UNL     1      -8.798   3.816  65.580  1.00  0.00     0.000 H  
HETATM   24  S   UNL     1      -9.867   4.362  66.279  1.00  0.00    -0.234 SA 
ENDBRANCH   6  22
ENDBRANCH   4   6
ENDBRANCH   3   4
ENDBRANCH   2   3
TORSDOF 13
ENDMDL
MODEL      345
REMARK 921   NORMALIZED FREE ENERGY PREDICTED BY IDOCK:   -2.92 KCAL/MOL
REMARK 922        TOTAL FREE ENERGY PREDICTED BY IDOCK:   -5.73 KCAL/MOL
REMARK 923 INTER-LIGAND FREE ENERGY PREDICTED BY IDOCK:   -5.05 KCAL/MOL
REMARK 924 INTRA-LIGAND FREE ENERGY PREDICTED BY IDOCK:   -0.68 KCAL/MOL
REMARK 927      BINDING AFFINITY PREDICTED BY RF-SCORE:    0.00 PKD
ROOT
HETATM    1  C   UNL     1      -6.843  20.286  65.089  1.00  0.00    -0.300 C  
HETATM    2  C   UNL     1      -7.395  19.442  66.217  1.00  0.00    -0.266 C  
ENDROOT
BRANCH   2   3
HETATM    3  O   UNL     1      -8.562  18.729  65.780  1.00  0.00    -0.420 OA 
BRANCH   3   4
HETATM    4  C   UNL     1      -9.700  18.958  66.496  1.00  0.00    -0.358 C  
HETATM    5  O   UNL     1     -10.206  20.057  66.686  1.00  0.00    -0.436 OA 
BRANCH   4   6
HETATM    6  C   UNL     1     -10.256  17.620  67.019  1.00  0.00    -0.332 C  
BRANCH   6   7
HETATM    7  N   UNL     1      -9.616  16.490  66.290  1.00  0.00    -0.288 NA 
HETATM    8  H   UNL     1      -9.324  15.765  66.946  1.00  0.00     0.000 HD 
BRANCH   7   9
HETATM    9  C   UNL     1     -10.439  15.914  65.222  1.00  0.00    -0.377 C  
BRANCH   9  10
HETATM   10  C   UNL     1     -10.657  14.391  65.371  1.00  0.00    -0.365 C  
BRANCH  10  11
HETATM   11  N   UNL     1      -9.424  13.587  65.388  1.00  0.00    -0.448 NA 
HETATM   12  H   UNL     1      -8.651  14.128  65.776  1.00  0.00     0.000 HD 
BRANCH  11  13
HETATM   13  C   UNL     1      -9.553  12.280  66.097  1.00  0.00    -0.240 C  
BRANCH  13  14
HETATM   14  C   UNL     1      -9.325  11.063  65.173  1.00  0.00    -0.220 C  
HETATM   15  H   UNL     1     -10.256   9.901  62.910  1.00  0.00     0.000 H  
HETATM   16  S   UNL     1     -10.460  10.996  63.741  1.00  0.00    -0.275 SA 
ENDBRANCH  13  14
BRANCH  13  17
HETATM   17  C   UNL     1      -8.569  12.235  67.287  1.00  0.00    -0.183 C  
HETATM   18  O   UNL     1      -7.831  11.296  67.562  1.00  0.00    -0.115 OA 
BRANCH  17  19
HETATM   19  O   UNL     1      -8.631  13.404  67.990  1.00  0.00    -0.156 OA 
BRANCH  19  20
HETATM   20  C   UNL     1      -7.393  14.110  68.143  1.00  0.00    -0.130 C  
HETATM   21  C   UNL     1      -6.989  14.175  69.601  1.00  0.00    -0.011 C  
ENDBRANCH  19  20
ENDBRANCH  17  19
ENDBRANCH  13  17
ENDBRANCH  11  13
ENDBRANCH  10  11
ENDBRANCH   9  10
ENDBRANCH   7   9
ENDBRANCH   6   7
BRANCH   6  22
HETATM   22  C   UNL     1     -10.131  17.585  68.556  1.00  0.00    -0.363 C  
HETATM   23  H   UNL     1      -8.306  17.676  70.566  1.00  0.00     0.000 H  
HETATM   24  S   UNL     1      -8.419  17.707  69.181  1.00  0.00     0.234 SA 
ENDBRANCH   6  22
ENDBRANCH   4   6
ENDBRANCH   3   4
ENDBRANCH   2   3
TORSDOF 13
ENDMDL
MODEL      346
REMARK 921   NORMALIZED FREE ENERGY PREDICTED BY IDOCK:   -2.92 KCAL/MOL
REMARK 922        TOTAL FREE ENERGY PREDICTED BY IDOCK:   -5.73 KCAL/MOL
REMARK 923 INTER-LIGAND FREE ENERGY PREDICTED BY IDOCK:   -4.91 KCAL/MOL
REMARK 924 INTRA-LIGAND FREE ENERGY PREDICTED BY IDOCK:   -0.82 KCAL/MOL
REMARK 927      BINDING AFFINITY PREDICTED BY RF-SCORE:    0.00 PKD
ROOT
HETATM    1  C   UNL     1     -12.217  14.192  64.380  1.00  0.00    -0.466 C  
HETATM    2  C   UNL     1     -12.428  12.985  65.269  1.00  0.00    -0.499 C  
ENDROOT
BRANCH   2   3
HETATM    3  O   UNL     1     -11.169  12.516  65.778  1.00  0.00    -0.296 OA 
BRANCH   3   4
HETATM    4  C   UNL     1     -10.578  13.306  66.719  1.00  0.00    -0.276 C  
HETATM    5  O   UNL     1      -9.511  13.891  66.582  1.00  0.00    -0.270 OA 
BRANCH   4   6
HETATM    6  C   UNL     1     -11.467  13.358  67.977  1.00  0.00    -0.304 C  
BRANCH   6   7
HETATM    7  N   UNL     1     -10.959  12.394  68.992  1.00  0.00    -0.348 NA 
HETATM    8  H   UNL     1     -10.943  12.827  69.916  1.00  0.00     0.000 HD 
BRANCH   7   9
HETATM    9  C   UNL     1     -11.684  11.121  69.035  1.00  0.00    -0.339 C  
BRANCH   9  10
HETATM   10  C   UNL     1     -10.976   9.985  68.263  1.00  0.00    -0.227 C  
BRANCH  10  11
HETATM   11  N   UNL     1     -10.332   8.968  69.110  1.00  0.00    -0.215 NA 
HETATM   12  H   UNL     1     -10.633   8.033  68.835  1.00  0.00     0.000 HD 
BRANCH  11  13
HETATM   13  C   UNL     1      -8.842   9.049  69.141  1.00  0.00    -0.142 C  
BRANCH  13  14
HETATM   14  C   UNL     1      -8.285   9.461  70.522  1.00  0.00    -0.189 C  
HETATM   15  H   UNL     1      -5.972  10.089  71.786  1.00  0.00     0.000 H  
HETATM   16  S   UNL     1      -6.474   9.718  70.543  1.00  0.00    -0.115 SA 
ENDBRANCH  13  14
BRANCH  13  17
HETATM   17  C   UNL     1      -8.239   7.694  68.709  1.00  0.00    -0.128 C  
HETATM   18  O   UNL     1      -7.562   7.507  67.704  1.00  0.00    -0.107 OA 
BRANCH  17  19
HETATM   19  O   UNL     1      -8.561   6.726  69.617  1.00  0.00    -0.131 OA 
BRANCH  19  20
HETATM   20  C   UNL     1      -7.858   5.484  69.486  1.00  0.00    -0.087 C  
HETATM   21  C   UNL     1      -8.827   4.336  69.296  1.00  0.00    -0.137 C  
ENDBRANCH  19  20
ENDBRANCH  17  19
ENDBRANCH  13  17
ENDBRANCH  11  13
ENDBRANCH  10  11
ENDBRANCH   9  10
ENDBRANCH   7   9
ENDBRANCH   6   7
BRANCH   6  22
HETATM   22  C   UNL     1     -11.597  14.821  68.446  1.00  0.00    -0.324 C  
HETATM   23  H   UNL     1     -11.690  16.361  70.682  1.00  0.00     0.000 H  
HETATM   24  S   UNL     1     -11.573  15.042  70.259  1.00  0.00    -0.310 SA 
ENDBRANCH   6  22
ENDBRANCH   4   6
ENDBRANCH   3   4
ENDBRANCH   2   3
TORSDOF 13
ENDMDL
MODEL      347
REMARK 921   NORMALIZED FREE ENERGY PREDICTED BY IDOCK:   -2.92 KCAL/MOL
REMARK 922        TOTAL FREE ENERGY PREDICTED BY IDOCK:   -5.73 KCAL/MOL
REMARK 923 INTER-LIGAND FREE ENERGY PREDICTED BY IDOCK:   -4.65 KCAL/MOL
REMARK 924 INTRA-LIGAND FREE ENERGY PREDICTED BY IDOCK:   -1.08 KCAL/MOL
REMARK 927      BINDING AFFINITY PREDICTED BY RF-SCORE:    0.00 PKD
ROOT
HETATM    1  C   UNL     1      -6.990  17.082  66.715  1.00  0.00    -0.268 C  
HETATM    2  C   UNL     1      -8.106  16.074  66.887  1.00  0.00    -0.247 C  
ENDROOT
BRANCH   2   3
HETATM    3  O   UNL     1      -9.325  16.740  67.249  1.00  0.00    -0.226 OA 
BRANCH   3   4
HETATM    4  C   UNL     1     -10.188  16.019  68.021  1.00  0.00    -0.245 C  
HETATM    5  O   UNL     1     -10.714  16.417  69.053  1.00  0.00    -0.279 OA 
BRANCH   4   6
HETATM    6  C   UNL     1     -10.407  14.632  67.387  1.00  0.00    -0.241 C  
BRANCH   6   7
HETATM    7  N   UNL     1     -10.507  13.600  68.455  1.00  0.00    -0.242 NA 
HETATM    8  H   UNL     1     -10.350  14.021  69.372  1.00  0.00     0.000 HD 
BRANCH   7   9
HETATM    9  C   UNL     1     -11.762  12.841  68.450  1.00  0.00    -0.339 C  
BRANCH   9  10
HETATM   10  C   UNL     1     -11.580  11.355  68.832  1.00  0.00    -0.323 C  
BRANCH  10  11
HETATM   11  N   UNL     1     -11.004  10.509  67.774  1.00  0.00    -0.294 NA 
HETATM   12  H   UNL     1     -11.204  10.902  66.854  1.00  0.00     0.000 HD 
BRANCH  11  13
HETATM   13  C   UNL     1      -9.542  10.249  67.925  1.00  0.00    -0.145 C  
BRANCH  13  14
HETATM   14  C   UNL     1      -9.209   8.756  68.140  1.00  0.00    -0.140 C  
HETATM   15  H   UNL     1     -10.207   6.270  67.737  1.00  0.00     0.000 H  
HETATM   16  S   UNL     1     -10.506   7.614  67.542  1.00  0.00    -0.261 SA 
ENDBRANCH  13  14
BRANCH  13  17
HETATM   17  C   UNL     1      -8.789  10.787  66.688  1.00  0.00    -0.145 C  
HETATM   18  O   UNL     1      -8.773  11.957  66.320  1.00  0.00    -0.167 OA 
BRANCH  17  19
HETATM   19  O   UNL     1      -8.128   9.770  66.062  1.00  0.00    -0.111 OA 
BRANCH  19  20
HETATM   20  C   UNL     1      -7.542  10.089  64.793  1.00  0.00    -0.143 C  
HETATM   21  C   UNL     1      -8.159   9.253  63.692  1.00  0.00    -0.155 C  
ENDBRANCH  19  20
ENDBRANCH  17  19
ENDBRANCH  13  17
ENDBRANCH  11  13
ENDBRANCH  10  11
ENDBRANCH   9  10
ENDBRANCH   7   9
ENDBRANCH   6   7
BRANCH   6  22
HETATM   22  C   UNL     1     -11.597  14.703  66.408  1.00  0.00    -0.339 C  
HETATM   23  H   UNL     1     -12.249  14.383  63.791  1.00  0.00     0.000 H  
HETATM   24  S   UNL     1     -11.178  14.318  64.673  1.00  0.00    -0.340 SA 
ENDBRANCH   6  22
ENDBRANCH   4   6
ENDBRANCH   3   4
ENDBRANCH   2   3
TORSDOF 13
ENDMDL
MODEL      348
REMARK 921   NORMALIZED FREE ENERGY PREDICTED BY IDOCK:   -2.91 KCAL/MOL
REMARK 922        TOTAL FREE ENERGY PREDICTED BY IDOCK:   -5.72 KCAL/MOL
REMARK 923 INTER-LIGAND FREE ENERGY PREDICTED BY IDOCK:   -4.96 KCAL/MOL
REMARK 924 INTRA-LIGAND FREE ENERGY PREDICTED BY IDOCK:   -0.76 KCAL/MOL
REMARK 927      BINDING AFFINITY PREDICTED BY RF-SCORE:    0.00 PKD
ROOT
HETATM    1  C   UNL     1      -7.290  11.378  66.783  1.00  0.00    -0.135 C  
HETATM    2  C   UNL     1      -8.106  10.184  67.228  1.00  0.00    -0.114 C  
ENDROOT
BRANCH   2   3
HETATM    3  O   UNL     1      -8.962  10.547  68.322  1.00  0.00    -0.131 OA 
BRANCH   3   4
HETATM    4  C   UNL     1     -10.302  10.470  68.078  1.00  0.00    -0.181 C  
HETATM    5  O   UNL     1     -10.843   9.635  67.365  1.00  0.00    -0.274 OA 
BRANCH   4   6
HETATM    6  C   UNL     1     -11.028  11.591  68.847  1.00  0.00    -0.229 C  
BRANCH   6   7
HETATM    7  N   UNL     1     -11.655  12.537  67.884  1.00  0.00    -0.328 NA 
HETATM    8  H   UNL     1     -12.504  12.939  68.283  1.00  0.00     0.000 HD 
BRANCH   7   9
HETATM    9  C   UNL     1     -10.761  13.598  67.409  1.00  0.00    -0.267 C  
BRANCH   9  10
HETATM   10  C   UNL     1     -10.636  14.781  68.396  1.00  0.00    -0.242 C  
BRANCH  10  11
HETATM   11  N   UNL     1      -9.974  15.977  67.849  1.00  0.00    -0.231 NA 
HETATM   12  H   UNL     1     -10.569  16.797  67.964  1.00  0.00     0.000 HD 
BRANCH  11  13
HETATM   13  C   UNL     1      -8.614  16.235  68.409  1.00  0.00    -0.200 C  
BRANCH  13  14
HETATM   14  C   UNL     1      -7.546  15.246  67.894  1.00  0.00    -0.139 C  
HETATM   15  H   UNL     1      -5.864  13.296  68.735  1.00  0.00     0.000 H  
HETATM   16  S   UNL     1      -6.825  14.187  69.199  1.00  0.00    -0.109 SA 
ENDBRANCH  13  14
BRANCH  13  17
HETATM   17  C   UNL     1      -8.190  17.687  68.093  1.00  0.00    -0.257 C  
HETATM   18  O   UNL     1      -7.331  18.322  68.693  1.00  0.00    -0.275 OA 
BRANCH  17  19
HETATM   19  O   UNL     1      -8.907  18.163  67.033  1.00  0.00    -0.250 OA 
BRANCH  19  20
HETATM   20  C   UNL     1      -9.205  19.566  67.056  1.00  0.00    -0.332 C  
HETATM   21  C   UNL     1     -10.469  19.832  67.845  1.00  0.00    -0.531 C  
ENDBRANCH  19  20
ENDBRANCH  17  19
ENDBRANCH  13  17
ENDBRANCH  11  13
ENDBRANCH  10  11
ENDBRANCH   9  10
ENDBRANCH   7   9
ENDBRANCH   6   7
BRANCH   6  22
HETATM   22  C   UNL     1     -11.979  10.959  69.884  1.00  0.00    -0.353 C  
HETATM   23  H   UNL     1     -12.062   9.128  71.889  1.00  0.00     0.000 H  
HETATM   24  S   UNL     1     -11.206   9.697  70.954  1.00  0.00    -0.379 SA 
ENDBRANCH   6  22
ENDBRANCH   4   6
ENDBRANCH   3   4
ENDBRANCH   2   3
TORSDOF 13
ENDMDL
MODEL      349
REMARK 921   NORMALIZED FREE ENERGY PREDICTED BY IDOCK:   -2.91 KCAL/MOL
REMARK 922        TOTAL FREE ENERGY PREDICTED BY IDOCK:   -5.71 KCAL/MOL
REMARK 923 INTER-LIGAND FREE ENERGY PREDICTED BY IDOCK:   -5.15 KCAL/MOL
REMARK 924 INTRA-LIGAND FREE ENERGY PREDICTED BY IDOCK:   -0.57 KCAL/MOL
REMARK 927      BINDING AFFINITY PREDICTED BY RF-SCORE:    0.00 PKD
ROOT
HETATM    1  C   UNL     1     -10.680  10.372  69.880  1.00  0.00    -0.331 C  
HETATM    2  C   UNL     1     -12.007  11.024  69.558  1.00  0.00    -0.342 C  
ENDROOT
BRANCH   2   3
HETATM    3  O   UNL     1     -11.942  11.680  68.282  1.00  0.00    -0.516 OA 
BRANCH   3   4
HETATM    4  C   UNL     1     -11.679  13.018  68.316  1.00  0.00    -0.353 C  
HETATM    5  O   UNL     1     -11.873  13.752  69.278  1.00  0.00    -0.300 OA 
BRANCH   4   6
HETATM    6  C   UNL     1     -11.093  13.460  66.962  1.00  0.00    -0.292 C  
BRANCH   6   7
HETATM    7  N   UNL     1     -11.909  12.897  65.852  1.00  0.00    -0.402 NA 
HETATM    8  H   UNL     1     -12.315  13.648  65.292  1.00  0.00     0.000 HD 
BRANCH   7   9
HETATM    9  C   UNL     1     -11.193  11.948  64.993  1.00  0.00    -0.293 C  
BRANCH   9  10
HETATM   10  C   UNL     1     -10.046  11.210  65.720  1.00  0.00    -0.249 C  
BRANCH  10  11
HETATM   11  N   UNL     1      -9.129  10.469  64.839  1.00  0.00    -0.192 NA 
HETATM   12  H   UNL     1      -8.616  11.113  64.236  1.00  0.00     0.000 HD 
BRANCH  11  13
HETATM   13  C   UNL     1      -8.186   9.563  65.558  1.00  0.00    -0.125 C  
BRANCH  13  14
HETATM   14  C   UNL     1      -8.036   9.906  67.056  1.00  0.00    -0.110 C  
HETATM   15  H   UNL     1      -6.241   9.863  69.084  1.00  0.00     0.000 H  
HETATM   16  S   UNL     1      -6.375   9.554  67.735  1.00  0.00    -0.058 SA 
ENDBRANCH  13  14
BRANCH  13  17
HETATM   17  C   UNL     1      -8.646   8.097  65.392  1.00  0.00    -0.129 C  
HETATM   18  O   UNL     1      -8.150   7.280  64.625  1.00  0.00    -0.127 OA 
BRANCH  17  19
HETATM   19  O   UNL     1      -9.687   7.835  66.236  1.00  0.00    -0.176 OA 
BRANCH  19  20
HETATM   20  C   UNL     1      -9.629   6.585  66.935  1.00  0.00    -0.158 C  
HETATM   21  C   UNL     1     -10.993   5.930  66.977  1.00  0.00    -0.301 C  
ENDBRANCH  19  20
ENDBRANCH  17  19
ENDBRANCH  13  17
ENDBRANCH  11  13
ENDBRANCH  10  11
ENDBRANCH   9  10
ENDBRANCH   7   9
ENDBRANCH   6   7
BRANCH   6  22
HETATM   22  C   UNL     1     -10.923  14.993  66.960  1.00  0.00    -0.318 C  
HETATM   23  H   UNL     1     -10.697  17.128  65.295  1.00  0.00     0.000 H  
HETATM   24  S   UNL     1     -10.851  15.747  65.297  1.00  0.00    -0.374 SA 
ENDBRANCH   6  22
ENDBRANCH   4   6
ENDBRANCH   3   4
ENDBRANCH   2   3
TORSDOF 13
ENDMDL
MODEL      350
REMARK 921   NORMALIZED FREE ENERGY PREDICTED BY IDOCK:   -2.91 KCAL/MOL
REMARK 922        TOTAL FREE ENERGY PREDICTED BY IDOCK:   -5.71 KCAL/MOL
REMARK 923 INTER-LIGAND FREE ENERGY PREDICTED BY IDOCK:   -5.57 KCAL/MOL
REMARK 924 INTRA-LIGAND FREE ENERGY PREDICTED BY IDOCK:   -0.14 KCAL/MOL
REMARK 927      BINDING AFFINITY PREDICTED BY RF-SCORE:    0.00 PKD
ROOT
HETATM    1  C   UNL     1      -9.370   6.784  68.647  1.00  0.00    -0.131 C  
HETATM    2  C   UNL     1     -10.130   7.703  69.579  1.00  0.00    -0.192 C  
ENDROOT
BRANCH   2   3
HETATM    3  O   UNL     1      -9.283   8.774  70.024  1.00  0.00    -0.157 OA 
BRANCH   3   4
HETATM    4  C   UNL     1      -8.893   9.660  69.063  1.00  0.00    -0.147 C  
HETATM    5  O   UNL     1      -7.838   9.613  68.445  1.00  0.00    -0.085 OA 
BRANCH   4   6
HETATM    6  C   UNL     1      -9.992  10.723  68.871  1.00  0.00    -0.202 C  
BRANCH   6   7
HETATM    7  N   UNL     1      -9.394  12.084  68.945  1.00  0.00    -0.398 NA 
HETATM    8  H   UNL     1      -8.377  12.023  69.013  1.00  0.00     0.000 HD 
BRANCH   7   9
HETATM    9  C   UNL     1      -9.780  12.977  67.848  1.00  0.00    -0.218 C  
BRANCH   9  10
HETATM   10  C   UNL     1      -8.678  13.988  67.464  1.00  0.00    -0.198 C  
BRANCH  10  11
HETATM   11  N   UNL     1      -9.170  15.290  66.985  1.00  0.00    -0.208 NA 
HETATM   12  H   UNL     1      -8.643  15.591  66.165  1.00  0.00     0.000 HD 
BRANCH  11  13
HETATM   13  C   UNL     1     -10.636  15.327  66.705  1.00  0.00    -0.304 C  
BRANCH  13  14
HETATM   14  C   UNL     1     -11.367  16.469  67.444  1.00  0.00     0.212 C  
HETATM   15  H   UNL     1     -10.906  18.669  68.956  1.00  0.00     0.000 H  
HETATM   16  S   UNL     1     -10.248  17.641  68.290  1.00  0.00    -0.392 SA 
ENDBRANCH  13  14
BRANCH  13  17
HETATM   17  C   UNL     1     -10.871  15.443  65.183  1.00  0.00    -0.431 C  
HETATM   18  O   UNL     1     -10.960  16.494  64.557  1.00  0.00    -0.827 OA 
BRANCH  17  19
HETATM   19  O   UNL     1     -10.957  14.200  64.625  1.00  0.00    -0.391 OA 
BRANCH  19  20
HETATM   20  C   UNL     1     -12.103  13.423  64.997  1.00  0.00    -0.401 C  
HETATM   21  C   UNL     1     -12.318  12.285  64.022  1.00  0.00    -0.569 C  
ENDBRANCH  19  20
ENDBRANCH  17  19
ENDBRANCH  13  17
ENDBRANCH  11  13
ENDBRANCH  10  11
ENDBRANCH   9  10
ENDBRANCH   7   9
ENDBRANCH   6   7
BRANCH   6  22
HETATM   22  C   UNL     1     -10.785  10.406  67.587  1.00  0.00    -0.286 C  
HETATM   23  H   UNL     1     -10.463   9.795  64.959  1.00  0.00     0.000 H  
HETATM   24  S   UNL     1      -9.750  10.081  66.117  1.00  0.00    -0.243 SA 
ENDBRANCH   6  22
ENDBRANCH   4   6
ENDBRANCH   3   4
ENDBRANCH   2   3
TORSDOF 13
ENDMDL
MODEL      351
REMARK 921   NORMALIZED FREE ENERGY PREDICTED BY IDOCK:   -2.91 KCAL/MOL
REMARK 922        TOTAL FREE ENERGY PREDICTED BY IDOCK:   -5.71 KCAL/MOL
REMARK 923 INTER-LIGAND FREE ENERGY PREDICTED BY IDOCK:   -4.82 KCAL/MOL
REMARK 924 INTRA-LIGAND FREE ENERGY PREDICTED BY IDOCK:   -0.89 KCAL/MOL
REMARK 927      BINDING AFFINITY PREDICTED BY RF-SCORE:    0.00 PKD
ROOT
HETATM    1  C   UNL     1     -11.566   7.731  71.026  1.00  0.00    -0.301 C  
HETATM    2  C   UNL     1     -12.133   9.011  71.600  1.00  0.00    -0.352 C  
ENDROOT
BRANCH   2   3
HETATM    3  O   UNL     1     -11.449  10.148  71.050  1.00  0.00    -0.354 OA 
BRANCH   3   4
HETATM    4  C   UNL     1     -12.223  11.244  70.804  1.00  0.00    -0.380 C  
HETATM    5  O   UNL     1     -13.158  11.619  71.500  1.00  0.00    -0.412 OA 
BRANCH   4   6
HETATM    6  C   UNL     1     -11.730  11.942  69.522  1.00  0.00    -0.345 C  
BRANCH   6   7
HETATM    7  N   UNL     1     -12.081  11.118  68.333  1.00  0.00    -0.727 NA 
HETATM    8  H   UNL     1     -13.009  11.368  67.989  1.00  0.00     0.000 HD 
BRANCH   7   9
HETATM    9  C   UNL     1     -11.100  11.174  67.246  1.00  0.00    -0.302 C  
BRANCH   9  10
HETATM   10  C   UNL     1      -9.682  10.737  67.678  1.00  0.00    -0.166 C  
BRANCH  10  11
HETATM   11  N   UNL     1      -9.643   9.635  68.653  1.00  0.00    -0.148 NA 
HETATM   12  H   UNL     1     -10.574   9.461  69.032  1.00  0.00     0.000 HD 
BRANCH  11  13
HETATM   13  C   UNL     1      -9.049   8.371  68.127  1.00  0.00    -0.138 C  
BRANCH  13  14
HETATM   14  C   UNL     1      -8.291   8.563  66.795  1.00  0.00    -0.109 C  
HETATM   15  H   UNL     1      -5.821   9.062  65.802  1.00  0.00     0.000 H  
HETATM   16  S   UNL     1      -6.503   8.888  67.000  1.00  0.00    -0.061 SA 
ENDBRANCH  13  14
BRANCH  13  17
HETATM   17  C   UNL     1      -8.109   7.758  69.189  1.00  0.00    -0.125 C  
HETATM   18  O   UNL     1      -7.553   8.379  70.088  1.00  0.00    -0.067 OA 
BRANCH  17  19
HETATM   19  O   UNL     1      -7.993   6.412  68.991  1.00  0.00    -0.107 OA 
BRANCH  19  20
HETATM   20  C   UNL     1      -7.714   5.627  70.158  1.00  0.00    -0.086 C  
HETATM   21  C   UNL     1      -8.992   5.067  70.746  1.00  0.00    -0.165 C  
ENDBRANCH  19  20
ENDBRANCH  17  19
ENDBRANCH  13  17
ENDBRANCH  11  13
ENDBRANCH  10  11
ENDBRANCH   9  10
ENDBRANCH   7   9
ENDBRANCH   6   7
BRANCH   6  22
HETATM   22  C   UNL     1     -12.245  13.396  69.508  1.00  0.00    -0.205 C  
HETATM   23  H   UNL     1     -11.453  15.951  69.034  1.00  0.00     0.000 H  
HETATM   24  S   UNL     1     -10.989  14.641  69.048  1.00  0.00    -0.267 SA 
ENDBRANCH   6  22
ENDBRANCH   4   6
ENDBRANCH   3   4
ENDBRANCH   2   3
TORSDOF 13
ENDMDL
MODEL      352
REMARK 921   NORMALIZED FREE ENERGY PREDICTED BY IDOCK:   -2.90 KCAL/MOL
REMARK 922        TOTAL FREE ENERGY PREDICTED BY IDOCK:   -5.70 KCAL/MOL
REMARK 923 INTER-LIGAND FREE ENERGY PREDICTED BY IDOCK:   -4.93 KCAL/MOL
REMARK 924 INTRA-LIGAND FREE ENERGY PREDICTED BY IDOCK:   -0.77 KCAL/MOL
REMARK 927      BINDING AFFINITY PREDICTED BY RF-SCORE:    0.00 PKD
ROOT
HETATM    1  C   UNL     1      -9.990  15.186  67.622  1.00  0.00    -0.229 C  
HETATM    2  C   UNL     1     -11.478  15.088  67.359  1.00  0.00    -0.317 C  
ENDROOT
BRANCH   2   3
HETATM    3  O   UNL     1     -11.726  14.278  66.200  1.00  0.00    -0.365 OA 
BRANCH   3   4
HETATM    4  C   UNL     1     -11.514  12.940  66.355  1.00  0.00    -0.341 C  
HETATM    5  O   UNL     1     -12.158  12.203  67.091  1.00  0.00    -0.575 OA 
BRANCH   4   6
HETATM    6  C   UNL     1     -10.347  12.497  65.452  1.00  0.00    -0.282 C  
BRANCH   6   7
HETATM    7  N   UNL     1      -9.921  11.119  65.818  1.00  0.00    -0.234 NA 
HETATM    8  H   UNL     1     -10.728  10.560  66.099  1.00  0.00     0.000 HD 
BRANCH   7   9
HETATM    9  C   UNL     1      -9.155  10.424  64.779  1.00  0.00    -0.213 C  
BRANCH   9  10
HETATM   10  C   UNL     1      -8.317   9.245  65.321  1.00  0.00    -0.145 C  
BRANCH  10  11
HETATM   11  N   UNL     1      -7.938   9.354  66.739  1.00  0.00    -0.108 NA 
HETATM   12  H   UNL     1      -8.543  10.020  67.220  1.00  0.00     0.000 HD 
BRANCH  11  13
HETATM   13  C   UNL     1      -7.911   8.052  67.468  1.00  0.00    -0.118 C  
BRANCH  13  14
HETATM   14  C   UNL     1      -7.057   8.093  68.755  1.00  0.00    -0.071 C  
HETATM   15  H   UNL     1      -6.031   6.493  70.685  1.00  0.00     0.000 H  
HETATM   16  S   UNL     1      -6.800   6.456  69.527  1.00  0.00    -0.067 SA 
ENDBRANCH  13  14
BRANCH  13  17
HETATM   17  C   UNL     1      -9.354   7.614  67.804  1.00  0.00    -0.142 C  
HETATM   18  O   UNL     1      -9.845   6.523  67.536  1.00  0.00    -0.118 OA 
BRANCH  17  19
HETATM   19  O   UNL     1     -10.009   8.620  68.455  1.00  0.00    -0.172 OA 
BRANCH  19  20
HETATM   20  C   UNL     1     -10.674   8.251  69.670  1.00  0.00    -0.194 C  
HETATM   21  C   UNL     1     -10.935   9.470  70.531  1.00  0.00    -0.348 C  
ENDBRANCH  19  20
ENDBRANCH  17  19
ENDBRANCH  13  17
ENDBRANCH  11  13
ENDBRANCH  10  11
ENDBRANCH   9  10
ENDBRANCH   7   9
ENDBRANCH   6   7
BRANCH   6  22
HETATM   22  C   UNL     1     -10.739  12.709  63.975  1.00  0.00    -0.425 C  
HETATM   23  H   UNL     1     -12.697  12.162  62.173  1.00  0.00     0.000 H  
HETATM   24  S   UNL     1     -12.343  11.972  63.503  1.00  0.00    -0.465 SA 
ENDBRANCH   6  22
ENDBRANCH   4   6
ENDBRANCH   3   4
ENDBRANCH   2   3
TORSDOF 13
ENDMDL
MODEL      353
REMARK 921   NORMALIZED FREE ENERGY PREDICTED BY IDOCK:   -2.90 KCAL/MOL
REMARK 922        TOTAL FREE ENERGY PREDICTED BY IDOCK:   -5.70 KCAL/MOL
REMARK 923 INTER-LIGAND FREE ENERGY PREDICTED BY IDOCK:   -5.12 KCAL/MOL
REMARK 924 INTRA-LIGAND FREE ENERGY PREDICTED BY IDOCK:   -0.58 KCAL/MOL
REMARK 927      BINDING AFFINITY PREDICTED BY RF-SCORE:    0.00 PKD
ROOT
HETATM    1  C   UNL     1     -12.802  14.244  70.403  1.00  0.00    -0.276 C  
HETATM    2  C   UNL     1     -11.399  14.131  69.845  1.00  0.00    -0.173 C  
ENDROOT
BRANCH   2   3
HETATM    3  O   UNL     1     -11.349  13.121  68.826  1.00  0.00    -0.254 OA 
BRANCH   3   4
HETATM    4  C   UNL     1     -11.450  13.569  67.542  1.00  0.00    -0.329 C  
HETATM    5  O   UNL     1     -12.264  14.394  67.143  1.00  0.00    -0.390 OA 
BRANCH   4   6
HETATM    6  C   UNL     1     -10.377  12.886  66.674  1.00  0.00    -0.251 C  
BRANCH   6   7
HETATM    7  N   UNL     1      -9.319  12.306  67.546  1.00  0.00    -0.178 NA 
HETATM    8  H   UNL     1      -8.925  11.467  67.117  1.00  0.00     0.000 HD 
BRANCH   7   9
HETATM    9  C   UNL     1      -8.252  13.243  67.910  1.00  0.00    -0.163 C  
BRANCH   9  10
HETATM   10  C   UNL     1      -8.169  14.470  66.974  1.00  0.00    -0.135 C  
BRANCH  10  11
HETATM   11  N   UNL     1      -7.191  15.493  67.378  1.00  0.00    -0.194 NA 
HETATM   12  H   UNL     1      -6.426  15.542  66.705  1.00  0.00     0.000 HD 
BRANCH  11  13
HETATM   13  C   UNL     1      -7.777  16.848  67.601  1.00  0.00    -0.165 C  
BRANCH  13  14
HETATM   14  C   UNL     1      -8.874  16.865  68.688  1.00  0.00    -0.262 C  
HETATM   15  H   UNL     1     -11.492  17.448  69.065  1.00  0.00     0.000 H  
HETATM   16  S   UNL     1     -10.505  17.433  68.086  1.00  0.00    -0.388 SA 
ENDBRANCH  13  14
BRANCH  13  17
HETATM   17  C   UNL     1      -6.655  17.846  67.963  1.00  0.00    -0.194 C  
HETATM   18  O   UNL     1      -5.877  18.359  67.167  1.00  0.00    -0.148 OA 
BRANCH  17  19
HETATM   19  O   UNL     1      -6.659  18.087  69.308  1.00  0.00    -0.250 OA 
BRANCH  19  20
HETATM   20  C   UNL     1      -5.532  18.811  69.818  1.00  0.00    -0.220 C  
HETATM   21  C   UNL     1      -5.899  20.254  70.089  1.00  0.00    -0.387 C  
ENDBRANCH  19  20
ENDBRANCH  17  19
ENDBRANCH  13  17
ENDBRANCH  11  13
ENDBRANCH  10  11
ENDBRANCH   9  10
ENDBRANCH   7   9
ENDBRANCH   6   7
BRANCH   6  22
HETATM   22  C   UNL     1     -11.061  11.903  65.702  1.00  0.00    -0.310 C  
HETATM   23  H   UNL     1     -11.636  11.530  63.073  1.00  0.00     0.000 H  
HETATM   24  S   UNL     1     -11.020  12.416  63.949  1.00  0.00    -0.454 SA 
ENDBRANCH   6  22
ENDBRANCH   4   6
ENDBRANCH   3   4
ENDBRANCH   2   3
TORSDOF 13
ENDMDL
MODEL      354
REMARK 921   NORMALIZED FREE ENERGY PREDICTED BY IDOCK:   -2.88 KCAL/MOL
REMARK 922        TOTAL FREE ENERGY PREDICTED BY IDOCK:   -5.66 KCAL/MOL
REMARK 923 INTER-LIGAND FREE ENERGY PREDICTED BY IDOCK:   -4.38 KCAL/MOL
REMARK 924 INTRA-LIGAND FREE ENERGY PREDICTED BY IDOCK:   -1.28 KCAL/MOL
REMARK 927      BINDING AFFINITY PREDICTED BY RF-SCORE:    0.00 PKD
ROOT
HETATM    1  C   UNL     1     -10.848   6.102  67.237  1.00  0.00    -0.438 C  
HETATM    2  C   UNL     1     -10.573   5.827  68.700  1.00  0.00    -0.235 C  
ENDROOT
BRANCH   2   3
HETATM    3  O   UNL     1     -11.650   6.321  69.510  1.00  0.00    -0.423 OA 
BRANCH   3   4
HETATM    4  C   UNL     1     -11.341   7.357  70.341  1.00  0.00    -0.249 C  
HETATM    5  O   UNL     1     -10.422   8.149  70.171  1.00  0.00    -0.215 OA 
BRANCH   4   6
HETATM    6  C   UNL     1     -12.333   7.384  71.519  1.00  0.00    -0.353 C  
BRANCH   6   7
HETATM    7  N   UNL     1     -12.187   6.143  72.328  1.00  0.00    -0.491 NA 
HETATM    8  H   UNL     1     -12.389   5.321  71.758  1.00  0.00     0.000 HD 
BRANCH   7   9
HETATM    9  C   UNL     1     -10.886   6.000  72.989  1.00  0.00    -0.260 C  
BRANCH   9  10
HETATM   10  C   UNL     1     -10.126   4.721  72.575  1.00  0.00    -0.181 C  
BRANCH  10  11
HETATM   11  N   UNL     1      -8.663   4.869  72.487  1.00  0.00    -0.119 NA 
HETATM   12  H   UNL     1      -8.272   4.174  71.851  1.00  0.00     0.000 HD 
BRANCH  11  13
HETATM   13  C   UNL     1      -8.207   6.239  72.109  1.00  0.00    -0.109 C  
BRANCH  13  14
HETATM   14  C   UNL     1      -7.285   6.886  73.166  1.00  0.00    -0.074 C  
HETATM   15  H   UNL     1      -5.851   6.300  75.388  1.00  0.00     0.000 H  
HETATM   16  S   UNL     1      -6.681   5.718  74.437  1.00  0.00    -0.077 SA 
ENDBRANCH  13  14
BRANCH  13  17
HETATM   17  C   UNL     1      -7.493   6.189  70.741  1.00  0.00    -0.091 C  
HETATM   18  O   UNL     1      -7.263   5.171  70.097  1.00  0.00    -0.055 OA 
BRANCH  17  19
HETATM   19  O   UNL     1      -7.158   7.451  70.340  1.00  0.00    -0.061 OA 
BRANCH  19  20
HETATM   20  C   UNL     1      -6.614   7.566  69.019  1.00  0.00    -0.044 C  
HETATM   21  C   UNL     1      -7.579   8.286  68.101  1.00  0.00    -0.098 C  
ENDBRANCH  19  20
ENDBRANCH  17  19
ENDBRANCH  13  17
ENDBRANCH  11  13
ENDBRANCH  10  11
ENDBRANCH   9  10
ENDBRANCH   7   9
ENDBRANCH   6   7
BRANCH   6  22
HETATM   22  C   UNL     1     -12.171   8.711  72.289  1.00  0.00    -0.378 C  
HETATM   23  H   UNL     1     -13.138  11.245  72.429  1.00  0.00     0.000 H  
HETATM   24  S   UNL     1     -13.284  10.050  71.736  1.00  0.00    -0.431 SA 
ENDBRANCH   6  22
ENDBRANCH   4   6
ENDBRANCH   3   4
ENDBRANCH   2   3
TORSDOF 13
ENDMDL
MODEL      355
REMARK 921   NORMALIZED FREE ENERGY PREDICTED BY IDOCK:   -2.87 KCAL/MOL
REMARK 922        TOTAL FREE ENERGY PREDICTED BY IDOCK:   -5.65 KCAL/MOL
REMARK 923 INTER-LIGAND FREE ENERGY PREDICTED BY IDOCK:   -5.13 KCAL/MOL
REMARK 924 INTRA-LIGAND FREE ENERGY PREDICTED BY IDOCK:   -0.52 KCAL/MOL
REMARK 927      BINDING AFFINITY PREDICTED BY RF-SCORE:    0.00 PKD
ROOT
HETATM    1  C   UNL     1     -10.092   3.831  63.509  1.00  0.00    -0.193 C  
HETATM    2  C   UNL     1      -9.865   3.602  64.988  1.00  0.00    -0.146 C  
ENDROOT
BRANCH   2   3
HETATM    3  O   UNL     1     -10.320   4.736  65.743  1.00  0.00    -0.249 OA 
BRANCH   3   4
HETATM    4  C   UNL     1      -9.899   4.795  67.038  1.00  0.00    -0.200 C  
HETATM    5  O   UNL     1      -9.500   3.842  67.696  1.00  0.00    -0.183 OA 
BRANCH   4   6
HETATM    6  C   UNL     1      -9.991   6.248  67.542  1.00  0.00    -0.134 C  
BRANCH   6   7
HETATM    7  N   UNL     1     -10.083   7.178  66.383  1.00  0.00    -0.459 NA 
HETATM    8  H   UNL     1     -11.060   7.334  66.129  1.00  0.00     0.000 HD 
BRANCH   7   9
HETATM    9  C   UNL     1      -9.395   8.458  66.576  1.00  0.00    -0.201 C  
BRANCH   9  10
HETATM   10  C   UNL     1     -10.154   9.659  65.971  1.00  0.00    -0.248 C  
BRANCH  10  11
HETATM   11  N   UNL     1      -9.309  10.811  65.613  1.00  0.00    -0.197 NA 
HETATM   12  H   UNL     1      -8.702  10.577  64.827  1.00  0.00     0.000 HD 
BRANCH  11  13
HETATM   13  C   UNL     1     -10.068  12.065  65.331  1.00  0.00    -0.256 C  
BRANCH  13  14
HETATM   14  C   UNL     1     -11.586  11.832  65.166  1.00  0.00    -0.145 C  
HETATM   15  H   UNL     1     -13.592  12.055  63.359  1.00  0.00     0.000 H  
HETATM   16  S   UNL     1     -12.226  12.264  63.508  1.00  0.00    -0.544 SA 
ENDBRANCH  13  14
BRANCH  13  17
HETATM   17  C   UNL     1      -9.808  13.093  66.454  1.00  0.00    -0.279 C  
HETATM   18  O   UNL     1      -9.629  12.822  67.636  1.00  0.00    -0.182 OA 
BRANCH  17  19
HETATM   19  O   UNL     1      -9.794  14.357  65.938  1.00  0.00    -0.305 OA 
BRANCH  19  20
HETATM   20  C   UNL     1     -10.467  15.358  66.713  1.00  0.00    -0.299 C  
HETATM   21  C   UNL     1     -10.140  16.744  66.199  1.00  0.00    -0.360 C  
ENDBRANCH  19  20
ENDBRANCH  17  19
ENDBRANCH  13  17
ENDBRANCH  11  13
ENDBRANCH  10  11
ENDBRANCH   9  10
ENDBRANCH   7   9
ENDBRANCH   6   7
BRANCH   6  22
HETATM   22  C   UNL     1     -11.127   6.354  68.580  1.00  0.00    -0.300 C  
HETATM   23  H   UNL     1     -11.760   7.490  70.965  1.00  0.00     0.000 H  
HETATM   24  S   UNL     1     -10.737   7.394  70.029  1.00  0.00    -0.247 SA 
ENDBRANCH   6  22
ENDBRANCH   4   6
ENDBRANCH   3   4
ENDBRANCH   2   3
TORSDOF 13
ENDMDL
MODEL      356
REMARK 921   NORMALIZED FREE ENERGY PREDICTED BY IDOCK:   -2.87 KCAL/MOL
REMARK 922        TOTAL FREE ENERGY PREDICTED BY IDOCK:   -5.65 KCAL/MOL
REMARK 923 INTER-LIGAND FREE ENERGY PREDICTED BY IDOCK:   -4.44 KCAL/MOL
REMARK 924 INTRA-LIGAND FREE ENERGY PREDICTED BY IDOCK:   -1.21 KCAL/MOL
REMARK 927      BINDING AFFINITY PREDICTED BY RF-SCORE:    0.00 PKD
ROOT
HETATM    1  C   UNL     1     -11.696  11.440  68.414  1.00  0.00    -0.373 C  
HETATM    2  C   UNL     1     -10.675  10.585  69.135  1.00  0.00    -0.231 C  
ENDROOT
BRANCH   2   3
HETATM    3  O   UNL     1     -11.230   9.296  69.437  1.00  0.00    -0.107 OA 
BRANCH   3   4
HETATM    4  C   UNL     1     -11.204   8.931  70.750  1.00  0.00    -0.272 C  
HETATM    5  O   UNL     1     -11.081   9.701  71.695  1.00  0.00    -0.348 OA 
BRANCH   4   6
HETATM    6  C   UNL     1     -11.364   7.403  70.862  1.00  0.00    -0.276 C  
BRANCH   6   7
HETATM    7  N   UNL     1     -10.289   6.727  70.086  1.00  0.00    -0.198 NA 
HETATM    8  H   UNL     1     -10.472   6.803  69.085  1.00  0.00     0.000 HD 
BRANCH   7   9
HETATM    9  C   UNL     1      -8.933   7.192  70.395  1.00  0.00    -0.155 C  
BRANCH   9  10
HETATM   10  C   UNL     1      -8.126   7.603  69.143  1.00  0.00    -0.125 C  
BRANCH  10  11
HETATM   11  N   UNL     1      -8.921   7.742  67.912  1.00  0.00    -0.126 NA 
HETATM   12  H   UNL     1      -9.245   8.703  67.803  1.00  0.00     0.000 HD 
BRANCH  11  13
HETATM   13  C   UNL     1      -8.221   7.284  66.675  1.00  0.00    -0.118 C  
BRANCH  13  14
HETATM   14  C   UNL     1      -8.471   5.795  66.351  1.00  0.00    -0.122 C  
HETATM   15  H   UNL     1     -10.405   3.899  66.397  1.00  0.00     0.000 H  
HETATM   16  S   UNL     1     -10.180   5.240  66.688  1.00  0.00    -0.277 SA 
ENDBRANCH  13  14
BRANCH  13  17
HETATM   17  C   UNL     1      -8.647   8.166  65.481  1.00  0.00    -0.149 C  
HETATM   18  O   UNL     1      -8.188   8.094  64.346  1.00  0.00    -0.154 OA 
BRANCH  17  19
HETATM   19  O   UNL     1      -9.623   9.039  65.868  1.00  0.00    -0.251 OA 
BRANCH  19  20
HETATM   20  C   UNL     1      -9.403  10.415  65.533  1.00  0.00    -0.197 C  
HETATM   21  C   UNL     1     -10.375  10.870  64.465  1.00  0.00    -0.417 C  
ENDBRANCH  19  20
ENDBRANCH  17  19
ENDBRANCH  13  17
ENDBRANCH  11  13
ENDBRANCH  10  11
ENDBRANCH   9  10
ENDBRANCH   7   9
ENDBRANCH   6   7
BRANCH   6  22
HETATM   22  C   UNL     1     -11.466   7.012  72.351  1.00  0.00    -0.261 C  
HETATM   23  H   UNL     1     -11.141   4.916  74.048  1.00  0.00     0.000 H  
HETATM   24  S   UNL     1     -11.050   5.269  72.707  1.00  0.00    -0.281 SA 
ENDBRANCH   6  22
ENDBRANCH   4   6
ENDBRANCH   3   4
ENDBRANCH   2   3
TORSDOF 13
ENDMDL
MODEL      357
REMARK 921   NORMALIZED FREE ENERGY PREDICTED BY IDOCK:   -2.87 KCAL/MOL
REMARK 922        TOTAL FREE ENERGY PREDICTED BY IDOCK:   -5.64 KCAL/MOL
REMARK 923 INTER-LIGAND FREE ENERGY PREDICTED BY IDOCK:   -5.02 KCAL/MOL
REMARK 924 INTRA-LIGAND FREE ENERGY PREDICTED BY IDOCK:   -0.62 KCAL/MOL
REMARK 927      BINDING AFFINITY PREDICTED BY RF-SCORE:    0.00 PKD
ROOT
HETATM    1  C   UNL     1     -10.410   3.802  62.917  1.00  0.00    -0.200 C  
HETATM    2  C   UNL     1     -10.427   3.767  64.430  1.00  0.00    -0.216 C  
ENDROOT
BRANCH   2   3
HETATM    3  O   UNL     1      -9.570   4.789  64.961  1.00  0.00    -0.139 OA 
BRANCH   3   4
HETATM    4  C   UNL     1      -9.505   4.862  66.321  1.00  0.00    -0.158 C  
HETATM    5  O   UNL     1      -9.755   3.943  67.090  1.00  0.00    -0.209 OA 
BRANCH   4   6
HETATM    6  C   UNL     1      -9.059   6.276  66.738  1.00  0.00    -0.135 C  
BRANCH   6   7
HETATM    7  N   UNL     1     -10.072   7.274  66.298  1.00  0.00    -0.455 NA 
HETATM    8  H   UNL     1     -10.855   7.297  66.952  1.00  0.00     0.000 HD 
BRANCH   7   9
HETATM    9  C   UNL     1      -9.541   8.625  66.089  1.00  0.00    -0.235 C  
BRANCH   9  10
HETATM   10  C   UNL     1     -10.162   9.680  67.031  1.00  0.00    -0.244 C  
BRANCH  10  11
HETATM   11  N   UNL     1      -9.669   9.641  68.418  1.00  0.00    -0.148 NA 
HETATM   12  H   UNL     1      -8.718  10.007  68.468  1.00  0.00     0.000 HD 
BRANCH  11  13
HETATM   13  C   UNL     1     -10.549  10.337  69.402  1.00  0.00    -0.237 C  
BRANCH  13  14
HETATM   14  C   UNL     1     -11.671  11.164  68.736  1.00  0.00    -0.326 C  
HETATM   15  H   UNL     1     -12.644  13.686  68.560  1.00  0.00     0.000 H  
HETATM   16  S   UNL     1     -11.634  12.942  69.160  1.00  0.00    -0.334 SA 
ENDBRANCH  13  14
BRANCH  13  17
HETATM   17  C   UNL     1     -11.158   9.304  70.376  1.00  0.00    -0.255 C  
HETATM   18  O   UNL     1     -11.214   8.095  70.184  1.00  0.00    -0.232 OA 
BRANCH  17  19
HETATM   19  O   UNL     1     -11.619   9.933  71.497  1.00  0.00    -0.373 OA 
BRANCH  19  20
HETATM   20  C   UNL     1     -13.044  10.005  71.635  1.00  0.00    -0.445 C  
HETATM   21  C   UNL     1     -13.550   8.909  72.549  1.00  0.00    -0.467 C  
ENDBRANCH  19  20
ENDBRANCH  17  19
ENDBRANCH  13  17
ENDBRANCH  11  13
ENDBRANCH  10  11
ENDBRANCH   9  10
ENDBRANCH   7   9
ENDBRANCH   6   7
BRANCH   6  22
HETATM   22  C   UNL     1      -8.723   6.278  68.244  1.00  0.00    -0.115 C  
HETATM   23  H   UNL     1      -6.790   6.994  70.013  1.00  0.00     0.000 H  
HETATM   24  S   UNL     1      -7.093   6.992  68.657  1.00  0.00    -0.095 SA 
ENDBRANCH   6  22
ENDBRANCH   4   6
ENDBRANCH   3   4
ENDBRANCH   2   3
TORSDOF 13
ENDMDL
MODEL      358
REMARK 921   NORMALIZED FREE ENERGY PREDICTED BY IDOCK:   -2.87 KCAL/MOL
REMARK 922        TOTAL FREE ENERGY PREDICTED BY IDOCK:   -5.64 KCAL/MOL
REMARK 923 INTER-LIGAND FREE ENERGY PREDICTED BY IDOCK:   -4.82 KCAL/MOL
REMARK 924 INTRA-LIGAND FREE ENERGY PREDICTED BY IDOCK:   -0.81 KCAL/MOL
REMARK 927      BINDING AFFINITY PREDICTED BY RF-SCORE:    0.00 PKD
ROOT
HETATM    1  C   UNL     1      -8.522  16.444  66.226  1.00  0.00    -0.372 C  
HETATM    2  C   UNL     1      -9.507  15.299  66.328  1.00  0.00    -0.309 C  
ENDROOT
BRANCH   2   3
HETATM    3  O   UNL     1     -10.678  15.713  67.048  1.00  0.00    -0.313 OA 
BRANCH   3   4
HETATM    4  C   UNL     1     -11.105  14.864  68.026  1.00  0.00    -0.295 C  
HETATM    5  O   UNL     1     -11.565  15.208  69.108  1.00  0.00    -0.287 OA 
BRANCH   4   6
HETATM    6  C   UNL     1     -10.929  13.408  67.554  1.00  0.00    -0.267 C  
BRANCH   6   7
HETATM    7  N   UNL     1     -10.406  12.577  68.672  1.00  0.00    -0.332 NA 
HETATM    8  H   UNL     1     -10.182  13.163  69.477  1.00  0.00     0.000 HD 
BRANCH   7   9
HETATM    9  C   UNL     1     -11.287  11.475  69.072  1.00  0.00    -0.276 C  
BRANCH   9  10
HETATM   10  C   UNL     1     -10.591  10.428  69.969  1.00  0.00    -0.229 C  
BRANCH  10  11
HETATM   11  N   UNL     1      -9.821   9.404  69.244  1.00  0.00    -0.168 NA 
HETATM   12  H   UNL     1      -9.158   8.947  69.870  1.00  0.00     0.000 HD 
BRANCH  11  13
HETATM   13  C   UNL     1     -10.659   8.389  68.541  1.00  0.00    -0.106 C  
BRANCH  13  14
HETATM   14  C   UNL     1     -10.521   8.447  67.003  1.00  0.00    -0.305 C  
HETATM   15  H   UNL     1      -8.675   8.705  65.037  1.00  0.00     0.000 H  
HETATM   16  S   UNL     1      -8.800   8.652  66.421  1.00  0.00    -0.149 SA 
ENDBRANCH  13  14
BRANCH  13  17
HETATM   17  C   UNL     1     -10.303   6.976  69.053  1.00  0.00    -0.200 C  
HETATM   18  O   UNL     1     -10.956   5.960  68.843  1.00  0.00    -0.314 OA 
BRANCH  17  19
HETATM   19  O   UNL     1      -9.143   7.017  69.771  1.00  0.00    -0.144 OA 
BRANCH  19  20
HETATM   20  C   UNL     1      -8.354   5.820  69.756  1.00  0.00    -0.112 C  
HETATM   21  C   UNL     1      -7.363   5.844  68.611  1.00  0.00    -0.085 C  
ENDBRANCH  19  20
ENDBRANCH  17  19
ENDBRANCH  13  17
ENDBRANCH  11  13
ENDBRANCH  10  11
ENDBRANCH   9  10
ENDBRANCH   7   9
ENDBRANCH   6   7
BRANCH   6  22
HETATM   22  C   UNL     1     -12.244  12.921  66.912  1.00  0.00    -0.106 C  
HETATM   23  H   UNL     1     -13.349  12.247  64.523  1.00  0.00     0.000 H  
HETATM   24  S   UNL     1     -12.164  12.686  65.102  1.00  0.00    -0.457 SA 
ENDBRANCH   6  22
ENDBRANCH   4   6
ENDBRANCH   3   4
ENDBRANCH   2   3
TORSDOF 13
ENDMDL
MODEL      359
REMARK 921   NORMALIZED FREE ENERGY PREDICTED BY IDOCK:   -2.86 KCAL/MOL
REMARK 922        TOTAL FREE ENERGY PREDICTED BY IDOCK:   -5.63 KCAL/MOL
REMARK 923 INTER-LIGAND FREE ENERGY PREDICTED BY IDOCK:   -5.26 KCAL/MOL
REMARK 924 INTRA-LIGAND FREE ENERGY PREDICTED BY IDOCK:   -0.37 KCAL/MOL
REMARK 927      BINDING AFFINITY PREDICTED BY RF-SCORE:    0.00 PKD
ROOT
HETATM    1  C   UNL     1     -12.022  13.203  66.242  1.00  0.00    -0.473 C  
HETATM    2  C   UNL     1     -11.418  13.033  67.620  1.00  0.00    -0.324 C  
ENDROOT
BRANCH   2   3
HETATM    3  O   UNL     1     -12.225  12.147  68.410  1.00  0.00    -0.324 OA 
BRANCH   3   4
HETATM    4  C   UNL     1     -12.049  12.230  69.760  1.00  0.00    -0.229 C  
HETATM    5  O   UNL     1     -11.991  13.271  70.402  1.00  0.00    -0.332 OA 
BRANCH   4   6
HETATM    6  C   UNL     1     -11.945  10.811  70.352  1.00  0.00    -0.357 C  
BRANCH   6   7
HETATM    7  N   UNL     1     -10.541  10.540  70.765  1.00  0.00    -0.151 NA 
HETATM    8  H   UNL     1     -10.522  10.054  71.662  1.00  0.00     0.000 HD 
BRANCH   7   9
HETATM    9  C   UNL     1      -9.746   9.811  69.771  1.00  0.00    -0.229 C  
BRANCH   9  10
HETATM   10  C   UNL     1      -8.432   9.234  70.341  1.00  0.00    -0.206 C  
BRANCH  10  11
HETATM   11  N   UNL     1      -8.567   8.543  71.635  1.00  0.00    -0.172 NA 
HETATM   12  H   UNL     1      -8.637   9.220  72.395  1.00  0.00     0.000 HD 
BRANCH  11  13
HETATM   13  C   UNL     1      -9.699   7.572  71.696  1.00  0.00    -0.161 C  
BRANCH  13  14
HETATM   14  C   UNL     1      -9.654   6.514  70.571  1.00  0.00    -0.169 C  
HETATM   15  H   UNL     1     -11.165   5.431  68.601  1.00  0.00     0.000 H  
HETATM   16  S   UNL     1     -11.206   6.384  69.613  1.00  0.00    -0.413 SA 
ENDBRANCH  13  14
BRANCH  13  17
HETATM   17  C   UNL     1      -9.715   6.879  73.076  1.00  0.00    -0.166 C  
HETATM   18  O   UNL     1      -9.590   7.446  74.156  1.00  0.00    -0.243 OA 
BRANCH  17  19
HETATM   19  O   UNL     1      -9.899   5.535  72.924  1.00  0.00    -0.161 OA 
BRANCH  19  20
HETATM   20  C   UNL     1     -10.845   4.926  73.813  1.00  0.00    -0.310 C  
HETATM   21  C   UNL     1     -10.770   3.417  73.724  1.00  0.00    -0.299 C  
ENDBRANCH  19  20
ENDBRANCH  17  19
ENDBRANCH  13  17
ENDBRANCH  11  13
ENDBRANCH  10  11
ENDBRANCH   9  10
ENDBRANCH   7   9
ENDBRANCH   6   7
BRANCH   6  22
HETATM   22  C   UNL     1     -13.013  10.641  71.452  1.00  0.00    -0.443 C  
HETATM   23  H   UNL     1     -14.919   8.926  72.349  1.00  0.00     0.000 H  
HETATM   24  S   UNL     1     -13.956   9.079  71.359  1.00  0.00    -0.100 SA 
ENDBRANCH   6  22
ENDBRANCH   4   6
ENDBRANCH   3   4
ENDBRANCH   2   3
TORSDOF 13
ENDMDL
MODEL      360
REMARK 921   NORMALIZED FREE ENERGY PREDICTED BY IDOCK:   -2.86 KCAL/MOL
REMARK 922        TOTAL FREE ENERGY PREDICTED BY IDOCK:   -5.63 KCAL/MOL
REMARK 923 INTER-LIGAND FREE ENERGY PREDICTED BY IDOCK:   -4.58 KCAL/MOL
REMARK 924 INTRA-LIGAND FREE ENERGY PREDICTED BY IDOCK:   -1.05 KCAL/MOL
REMARK 927      BINDING AFFINITY PREDICTED BY RF-SCORE:    0.00 PKD
ROOT
HETATM    1  C   UNL     1      -9.825  10.405  64.599  1.00  0.00    -0.405 C  
HETATM    2  C   UNL     1      -9.963  10.341  66.105  1.00  0.00    -0.238 C  
ENDROOT
BRANCH   2   3
HETATM    3  O   UNL     1     -10.373   9.027  66.512  1.00  0.00    -0.264 OA 
BRANCH   3   4
HETATM    4  C   UNL     1      -9.734   8.518  67.604  1.00  0.00    -0.160 C  
HETATM    5  O   UNL     1      -9.221   9.182  68.496  1.00  0.00    -0.136 OA 
BRANCH   4   6
HETATM    6  C   UNL     1      -9.768   6.978  67.547  1.00  0.00    -0.136 C  
BRANCH   6   7
HETATM    7  N   UNL     1     -11.170   6.500  67.694  1.00  0.00    -0.647 NA 
HETATM    8  H   UNL     1     -11.297   5.615  67.203  1.00  0.00     0.000 HD 
BRANCH   7   9
HETATM    9  C   UNL     1     -11.629   6.386  69.082  1.00  0.00    -0.017 C  
BRANCH   9  10
HETATM   10  C   UNL     1     -10.642   5.623  69.993  1.00  0.00    -0.318 C  
BRANCH  10  11
HETATM   11  N   UNL     1     -10.660   6.031  71.407  1.00  0.00    -0.237 NA 
HETATM   12  H   UNL     1      -9.920   5.556  71.925  1.00  0.00     0.000 HD 
BRANCH  11  13
HETATM   13  C   UNL     1     -10.581   7.506  71.621  1.00  0.00    -0.205 C  
BRANCH  13  14
HETATM   14  C   UNL     1     -11.698   8.048  72.540  1.00  0.00    -0.387 C  
HETATM   15  H   UNL     1     -13.817   9.735  72.554  1.00  0.00     0.000 H  
HETATM   16  S   UNL     1     -12.812   9.248  71.727  1.00  0.00    -0.415 SA 
ENDBRANCH  13  14
BRANCH  13  17
HETATM   17  C   UNL     1      -9.195   7.875  72.195  1.00  0.00    -0.158 C  
HETATM   18  O   UNL     1      -8.758   9.013  72.318  1.00  0.00    -0.367 OA 
BRANCH  17  19
HETATM   19  O   UNL     1      -8.524   6.743  72.560  1.00  0.00    -0.119 OA 
BRANCH  19  20
HETATM   20  C   UNL     1      -7.164   6.650  72.117  1.00  0.00    -0.081 C  
HETATM   21  C   UNL     1      -7.024   5.608  71.028  1.00  0.00    -0.065 C  
ENDBRANCH  19  20
ENDBRANCH  17  19
ENDBRANCH  13  17
ENDBRANCH  11  13
ENDBRANCH  10  11
ENDBRANCH   9  10
ENDBRANCH   7   9
ENDBRANCH   6   7
BRANCH   6  22
HETATM   22  C   UNL     1      -9.025   6.501  66.283  1.00  0.00    -0.156 C  
HETATM   23  H   UNL     1      -6.533   6.177  65.249  1.00  0.00     0.000 H  
HETATM   24  S   UNL     1      -7.204   6.607  66.388  1.00  0.00    -0.074 SA 
ENDBRANCH   6  22
ENDBRANCH   4   6
ENDBRANCH   3   4
ENDBRANCH   2   3
TORSDOF 13
ENDMDL
MODEL      361
REMARK 921   NORMALIZED FREE ENERGY PREDICTED BY IDOCK:   -2.86 KCAL/MOL
REMARK 922        TOTAL FREE ENERGY PREDICTED BY IDOCK:   -5.62 KCAL/MOL
REMARK 923 INTER-LIGAND FREE ENERGY PREDICTED BY IDOCK:   -4.91 KCAL/MOL
REMARK 924 INTRA-LIGAND FREE ENERGY PREDICTED BY IDOCK:   -0.72 KCAL/MOL
REMARK 927      BINDING AFFINITY PREDICTED BY RF-SCORE:    0.00 PKD
ROOT
HETATM    1  C   UNL     1      -6.599   7.009  63.477  1.00  0.00    -0.044 C  
HETATM    2  C   UNL     1      -7.673   6.887  64.536  1.00  0.00    -0.116 C  
ENDROOT
BRANCH   2   3
HETATM    3  O   UNL     1      -8.398   5.659  64.369  1.00  0.00    -0.131 OA 
BRANCH   3   4
HETATM    4  C   UNL     1      -8.553   4.904  65.494  1.00  0.00    -0.135 C  
HETATM    5  O   UNL     1      -7.659   4.612  66.278  1.00  0.00    -0.088 OA 
BRANCH   4   6
HETATM    6  C   UNL     1     -10.030   4.485  65.632  1.00  0.00    -0.231 C  
BRANCH   6   7
HETATM    7  N   UNL     1     -10.845   5.650  66.071  1.00  0.00    -0.653 NA 
HETATM    8  H   UNL     1     -11.765   5.341  66.387  1.00  0.00     0.000 HD 
BRANCH   7   9
HETATM    9  C   UNL     1     -10.206   6.485  67.094  1.00  0.00    -0.198 C  
BRANCH   9  10
HETATM   10  C   UNL     1     -10.739   7.935  67.121  1.00  0.00    -0.236 C  
BRANCH  10  11
HETATM   11  N   UNL     1      -9.995   8.885  66.277  1.00  0.00    -0.338 NA 
HETATM   12  H   UNL     1     -10.434   8.967  65.360  1.00  0.00     0.000 HD 
BRANCH  11  13
HETATM   13  C   UNL     1      -9.808  10.234  66.889  1.00  0.00    -0.197 C  
BRANCH  13  14
HETATM   14  C   UNL     1      -8.459  10.888  66.518  1.00  0.00    -0.159 C  
HETATM   15  H   UNL     1      -6.759  12.851  67.289  1.00  0.00     0.000 H  
HETATM   16  S   UNL     1      -7.974  12.262  67.622  1.00  0.00    -0.174 SA 
ENDBRANCH  13  14
BRANCH  13  17
HETATM   17  C   UNL     1     -10.977  11.156  66.477  1.00  0.00    -0.209 C  
HETATM   18  O   UNL     1     -11.816  11.622  67.240  1.00  0.00    -0.609 OA 
BRANCH  17  19
HETATM   19  O   UNL     1     -10.936  11.392  65.133  1.00  0.00    -0.267 OA 
BRANCH  19  20
HETATM   20  C   UNL     1     -11.610  12.574  64.682  1.00  0.00    -0.343 C  
HETATM   21  C   UNL     1     -10.665  13.758  64.669  1.00  0.00    -0.427 C  
ENDBRANCH  19  20
ENDBRANCH  17  19
ENDBRANCH  13  17
ENDBRANCH  11  13
ENDBRANCH  10  11
ENDBRANCH   9  10
ENDBRANCH   7   9
ENDBRANCH   6   7
BRANCH   6  22
HETATM   22  C   UNL     1     -10.486   3.800  64.327  1.00  0.00    -0.241 C  
HETATM   23  H   UNL     1     -10.113   1.564  62.830  1.00  0.00     0.000 H  
HETATM   24  S   UNL     1      -9.702   2.182  64.005  1.00  0.00    -0.111 SA 
ENDBRANCH   6  22
ENDBRANCH   4   6
ENDBRANCH   3   4
ENDBRANCH   2   3
TORSDOF 13
ENDMDL
MODEL      362
REMARK 921   NORMALIZED FREE ENERGY PREDICTED BY IDOCK:   -2.86 KCAL/MOL
REMARK 922        TOTAL FREE ENERGY PREDICTED BY IDOCK:   -5.62 KCAL/MOL
REMARK 923 INTER-LIGAND FREE ENERGY PREDICTED BY IDOCK:   -5.13 KCAL/MOL
REMARK 924 INTRA-LIGAND FREE ENERGY PREDICTED BY IDOCK:   -0.49 KCAL/MOL
REMARK 927      BINDING AFFINITY PREDICTED BY RF-SCORE:    0.00 PKD
ROOT
HETATM    1  C   UNL     1     -10.899  16.699  68.295  1.00  0.00    -0.356 C  
HETATM    2  C   UNL     1     -11.550  15.338  68.427  1.00  0.00    -0.349 C  
ENDROOT
BRANCH   2   3
HETATM    3  O   UNL     1     -11.786  14.772  67.129  1.00  0.00    -0.376 OA 
BRANCH   3   4
HETATM    4  C   UNL     1     -10.673  14.406  66.430  1.00  0.00    -0.306 C  
HETATM    5  O   UNL     1     -10.366  14.824  65.321  1.00  0.00    -0.350 OA 
BRANCH   4   6
HETATM    6  C   UNL     1      -9.858  13.393  67.257  1.00  0.00    -0.233 C  
BRANCH   6   7
HETATM    7  N   UNL     1     -10.165  12.009  66.802  1.00  0.00    -0.201 NA 
HETATM    8  H   UNL     1      -9.354  11.404  66.936  1.00  0.00     0.000 HD 
BRANCH   7   9
HETATM    9  C   UNL     1     -11.354  11.417  67.423  1.00  0.00    -0.288 C  
BRANCH   9  10
HETATM   10  C   UNL     1     -11.028  10.245  68.375  1.00  0.00    -0.260 C  
BRANCH  10  11
HETATM   11  N   UNL     1     -11.535  10.402  69.748  1.00  0.00    -0.267 NA 
HETATM   12  H   UNL     1     -12.540  10.233  69.779  1.00  0.00     0.000 HD 
BRANCH  11  13
HETATM   13  C   UNL     1     -10.832   9.561  70.762  1.00  0.00    -0.318 C  
BRANCH  13  14
HETATM   14  C   UNL     1     -11.741   9.143  71.939  1.00  0.00    -0.366 C  
HETATM   15  H   UNL     1     -14.297   9.303  72.820  1.00  0.00     0.000 H  
HETATM   16  S   UNL     1     -13.480   9.679  71.760  1.00  0.00    -0.374 SA 
ENDBRANCH  13  14
BRANCH  13  17
HETATM   17  C   UNL     1     -10.241   8.309  70.077  1.00  0.00    -0.202 C  
HETATM   18  O   UNL     1     -10.892   7.382  69.608  1.00  0.00    -0.239 OA 
BRANCH  17  19
HETATM   19  O   UNL     1      -8.877   8.386  70.058  1.00  0.00    -0.134 OA 
BRANCH  19  20
HETATM   20  C   UNL     1      -8.235   7.848  68.895  1.00  0.00    -0.126 C  
HETATM   21  C   UNL     1      -7.045   8.696  68.499  1.00  0.00    -0.073 C  
ENDBRANCH  19  20
ENDBRANCH  17  19
ENDBRANCH  13  17
ENDBRANCH  11  13
ENDBRANCH  10  11
ENDBRANCH   9  10
ENDBRANCH   7   9
ENDBRANCH   6   7
BRANCH   6  22
HETATM   22  C   UNL     1      -8.370  13.796  67.227  1.00  0.00    -0.174 C  
HETATM   23  H   UNL     1      -6.437  14.990  68.717  1.00  0.00     0.000 H  
HETATM   24  S   UNL     1      -7.778  14.626  68.743  1.00  0.00    -0.141 SA 
ENDBRANCH   6  22
ENDBRANCH   4   6
ENDBRANCH   3   4
ENDBRANCH   2   3
TORSDOF 13
ENDMDL
MODEL      363
REMARK 921   NORMALIZED FREE ENERGY PREDICTED BY IDOCK:   -2.86 KCAL/MOL
REMARK 922        TOTAL FREE ENERGY PREDICTED BY IDOCK:   -5.62 KCAL/MOL
REMARK 923 INTER-LIGAND FREE ENERGY PREDICTED BY IDOCK:   -4.90 KCAL/MOL
REMARK 924 INTRA-LIGAND FREE ENERGY PREDICTED BY IDOCK:   -0.72 KCAL/MOL
REMARK 927      BINDING AFFINITY PREDICTED BY RF-SCORE:    0.00 PKD
ROOT
HETATM    1  C   UNL     1      -7.000  12.909  67.593  1.00  0.00    -0.152 C  
HETATM    2  C   UNL     1      -7.750  11.907  68.444  1.00  0.00    -0.131 C  
ENDROOT
BRANCH   2   3
HETATM    3  O   UNL     1      -9.161  12.165  68.389  1.00  0.00    -0.192 OA 
BRANCH   3   4
HETATM    4  C   UNL     1      -9.953  11.081  68.149  1.00  0.00    -0.177 C  
HETATM    5  O   UNL     1      -9.575  10.024  67.660  1.00  0.00    -0.146 OA 
BRANCH   4   6
HETATM    6  C   UNL     1     -11.395  11.390  68.598  1.00  0.00    -0.265 C  
BRANCH   6   7
HETATM    7  N   UNL     1     -11.474  11.370  70.084  1.00  0.00    -0.483 NA 
HETATM    8  H   UNL     1     -12.424  11.577  70.392  1.00  0.00     0.000 HD 
BRANCH   7   9
HETATM    9  C   UNL     1     -10.995  10.128  70.700  1.00  0.00    -0.285 C  
BRANCH   9  10
HETATM   10  C   UNL     1     -11.783   8.878  70.249  1.00  0.00     0.045 C  
BRANCH  10  11
HETATM   11  N   UNL     1     -11.001   7.898  69.478  1.00  0.00    -0.429 NA 
HETATM   12  H   UNL     1     -10.014   8.156  69.470  1.00  0.00     0.000 HD 
BRANCH  11  13
HETATM   13  C   UNL     1     -11.168   6.486  69.932  1.00  0.00    -0.395 C  
BRANCH  13  14
HETATM   14  C   UNL     1     -10.298   5.486  69.139  1.00  0.00    -0.248 C  
HETATM   15  H   UNL     1      -8.933   3.162  69.416  1.00  0.00     0.000 H  
HETATM   16  S   UNL     1      -9.717   4.062  70.129  1.00  0.00    -0.144 SA 
ENDBRANCH  13  14
BRANCH  13  17
HETATM   17  C   UNL     1     -10.852   6.385  71.440  1.00  0.00    -0.253 C  
HETATM   18  O   UNL     1     -11.605   5.929  72.294  1.00  0.00    -0.303 OA 
BRANCH  17  19
HETATM   19  O   UNL     1      -9.601   6.870  71.691  1.00  0.00    -0.162 OA 
BRANCH  19  20
HETATM   20  C   UNL     1      -9.127   6.720  73.035  1.00  0.00    -0.127 C  
HETATM   21  C   UNL     1      -8.799   8.068  73.642  1.00  0.00    -0.326 C  
ENDBRANCH  19  20
ENDBRANCH  17  19
ENDBRANCH  13  17
ENDBRANCH  11  13
ENDBRANCH  10  11
ENDBRANCH   9  10
ENDBRANCH   7   9
ENDBRANCH   6   7
BRANCH   6  22
HETATM   22  C   UNL     1     -11.870  12.690  67.917  1.00  0.00    -0.332 C  
HETATM   23  H   UNL     1     -12.272  13.814  65.477  1.00  0.00     0.000 H  
HETATM   24  S   UNL     1     -11.844  12.643  66.091  1.00  0.00    -0.394 SA 
ENDBRANCH   6  22
ENDBRANCH   4   6
ENDBRANCH   3   4
ENDBRANCH   2   3
TORSDOF 13
ENDMDL
MODEL      364
REMARK 921   NORMALIZED FREE ENERGY PREDICTED BY IDOCK:   -2.86 KCAL/MOL
REMARK 922        TOTAL FREE ENERGY PREDICTED BY IDOCK:   -5.62 KCAL/MOL
REMARK 923 INTER-LIGAND FREE ENERGY PREDICTED BY IDOCK:   -4.93 KCAL/MOL
REMARK 924 INTRA-LIGAND FREE ENERGY PREDICTED BY IDOCK:   -0.70 KCAL/MOL
REMARK 927      BINDING AFFINITY PREDICTED BY RF-SCORE:    0.00 PKD
ROOT
HETATM    1  C   UNL     1      -6.672   7.035  63.561  1.00  0.00    -0.044 C  
HETATM    2  C   UNL     1      -7.778   6.941  64.590  1.00  0.00    -0.116 C  
ENDROOT
BRANCH   2   3
HETATM    3  O   UNL     1      -8.456   5.681  64.477  1.00  0.00    -0.135 OA 
BRANCH   3   4
HETATM    4  C   UNL     1      -8.701   5.031  65.651  1.00  0.00    -0.139 C  
HETATM    5  O   UNL     1      -7.877   4.837  66.536  1.00  0.00    -0.097 OA 
BRANCH   4   6
HETATM    6  C   UNL     1     -10.176   4.588  65.695  1.00  0.00    -0.253 C  
BRANCH   6   7
HETATM    7  N   UNL     1     -11.031   5.728  66.126  1.00  0.00    -0.703 NA 
HETATM    8  H   UNL     1     -11.956   5.395  66.400  1.00  0.00     0.000 HD 
BRANCH   7   9
HETATM    9  C   UNL     1     -10.449   6.554  67.190  1.00  0.00    -0.287 C  
BRANCH   9  10
HETATM   10  C   UNL     1     -10.483   8.066  66.878  1.00  0.00    -0.317 C  
BRANCH  10  11
HETATM   11  N   UNL     1     -10.028   8.936  67.976  1.00  0.00    -0.169 NA 
HETATM   12  H   UNL     1      -9.125   9.353  67.749  1.00  0.00     0.000 HD 
BRANCH  11  13
HETATM   13  C   UNL     1     -11.007   9.992  68.368  1.00  0.00    -0.217 C  
BRANCH  13  14
HETATM   14  C   UNL     1     -10.810  10.496  69.815  1.00  0.00    -0.281 C  
HETATM   15  H   UNL     1     -12.056  11.889  71.776  1.00  0.00     0.000 H  
HETATM   16  S   UNL     1     -12.234  11.435  70.474  1.00  0.00    -0.370 SA 
ENDBRANCH  13  14
BRANCH  13  17
HETATM   17  C   UNL     1     -10.921  11.174  67.378  1.00  0.00    -0.290 C  
HETATM   18  O   UNL     1     -11.845  11.592  66.690  1.00  0.00    -0.533 OA 
BRANCH  17  19
HETATM   19  O   UNL     1      -9.660  11.699  67.384  1.00  0.00    -0.166 OA 
BRANCH  19  20
HETATM   20  C   UNL     1      -9.566  13.107  67.133  1.00  0.00    -0.235 C  
HETATM   21  C   UNL     1      -9.889  13.898  68.384  1.00  0.00    -0.229 C  
ENDBRANCH  19  20
ENDBRANCH  17  19
ENDBRANCH  13  17
ENDBRANCH  11  13
ENDBRANCH  10  11
ENDBRANCH   9  10
ENDBRANCH   7   9
ENDBRANCH   6   7
BRANCH   6  22
HETATM   22  C   UNL     1     -10.551   3.940  64.347  1.00  0.00    -0.208 C  
HETATM   23  H   UNL     1      -9.964   1.828  62.742  1.00  0.00     0.000 H  
HETATM   24  S   UNL     1      -9.626   2.413  63.956  1.00  0.00    -0.136 SA 
ENDBRANCH   6  22
ENDBRANCH   4   6
ENDBRANCH   3   4
ENDBRANCH   2   3
TORSDOF 13
ENDMDL
MODEL      365
REMARK 921   NORMALIZED FREE ENERGY PREDICTED BY IDOCK:   -2.86 KCAL/MOL
REMARK 922        TOTAL FREE ENERGY PREDICTED BY IDOCK:   -5.62 KCAL/MOL
REMARK 923 INTER-LIGAND FREE ENERGY PREDICTED BY IDOCK:   -5.49 KCAL/MOL
REMARK 924 INTRA-LIGAND FREE ENERGY PREDICTED BY IDOCK:   -0.13 KCAL/MOL
REMARK 927      BINDING AFFINITY PREDICTED BY RF-SCORE:    0.00 PKD
ROOT
HETATM    1  C   UNL     1     -12.074  17.112  74.565  1.00  0.00    -0.003 C  
HETATM    2  C   UNL     1     -12.386  16.008  73.577  1.00  0.00    -0.562 C  
ENDROOT
BRANCH   2   3
HETATM    3  O   UNL     1     -12.118  16.450  72.237  1.00  0.00    -0.501 OA 
BRANCH   3   4
HETATM    4  C   UNL     1     -11.681  15.490  71.373  1.00  0.00    -0.408 C  
HETATM    5  O   UNL     1     -10.555  15.010  71.361  1.00  0.00     0.103 OA 
BRANCH   4   6
HETATM    6  C   UNL     1     -12.827  15.097  70.421  1.00  0.00    -0.304 C  
BRANCH   6   7
HETATM    7  N   UNL     1     -12.276  14.380  69.239  1.00  0.00    -0.504 NA 
HETATM    8  H   UNL     1     -13.001  13.813  68.797  1.00  0.00     0.000 HD 
BRANCH   7   9
HETATM    9  C   UNL     1     -11.632  15.248  68.248  1.00  0.00    -0.341 C  
BRANCH   9  10
HETATM   10  C   UNL     1     -10.205  14.793  67.871  1.00  0.00    -0.229 C  
BRANCH  10  11
HETATM   11  N   UNL     1     -10.101  14.074  66.591  1.00  0.00    -0.270 NA 
HETATM   12  H   UNL     1      -9.159  14.159  66.209  1.00  0.00     0.000 HD 
BRANCH  11  13
HETATM   13  C   UNL     1     -10.509  12.639  66.657  1.00  0.00    -0.245 C  
BRANCH  13  14
HETATM   14  C   UNL     1     -11.803  12.338  65.869  1.00  0.00    -0.354 C  
HETATM   15  H   UNL     1     -13.809  13.559  64.518  1.00  0.00     0.000 H  
HETATM   16  S   UNL     1     -12.644  13.830  65.227  1.00  0.00    -0.440 SA 
ENDBRANCH  13  14
BRANCH  13  17
HETATM   17  C   UNL     1      -9.356  11.747  66.146  1.00  0.00    -0.225 C  
HETATM   18  O   UNL     1      -9.469  10.842  65.328  1.00  0.00    -0.193 OA 
BRANCH  17  19
HETATM   19  O   UNL     1      -8.180  12.120  66.731  1.00  0.00    -0.164 OA 
BRANCH  19  20
HETATM   20  C   UNL     1      -8.112  11.968  68.155  1.00  0.00    -0.160 C  
HETATM   21  C   UNL     1      -6.738  12.342  68.669  1.00  0.00    -0.083 C  
ENDBRANCH  19  20
ENDBRANCH  17  19
ENDBRANCH  13  17
ENDBRANCH  11  13
ENDBRANCH  10  11
ENDBRANCH   9  10
ENDBRANCH   7   9
ENDBRANCH   6   7
BRANCH   6  22
HETATM   22  C   UNL     1     -13.913  14.345  71.218  1.00  0.00    -0.238 C  
HETATM   23  H   UNL     1     -14.329  12.102  72.693  1.00  0.00     0.000 H  
HETATM   24  S   UNL     1     -13.351  12.780  71.975  1.00  0.00    -0.369 SA 
ENDBRANCH   6  22
ENDBRANCH   4   6
ENDBRANCH   3   4
ENDBRANCH   2   3
TORSDOF 13
ENDMDL
MODEL      366
REMARK 921   NORMALIZED FREE ENERGY PREDICTED BY IDOCK:   -2.85 KCAL/MOL
REMARK 922        TOTAL FREE ENERGY PREDICTED BY IDOCK:   -5.60 KCAL/MOL
REMARK 923 INTER-LIGAND FREE ENERGY PREDICTED BY IDOCK:   -4.81 KCAL/MOL
REMARK 924 INTRA-LIGAND FREE ENERGY PREDICTED BY IDOCK:   -0.79 KCAL/MOL
REMARK 927      BINDING AFFINITY PREDICTED BY RF-SCORE:    0.00 PKD
ROOT
HETATM    1  C   UNL     1     -11.863  12.927  66.856  1.00  0.00    -0.444 C  
HETATM    2  C   UNL     1     -11.481  12.672  68.298  1.00  0.00    -0.313 C  
ENDROOT
BRANCH   2   3
HETATM    3  O   UNL     1     -12.272  11.603  68.840  1.00  0.00    -0.377 OA 
BRANCH   3   4
HETATM    4  C   UNL     1     -12.191  11.430  70.190  1.00  0.00    -0.321 C  
HETATM    5  O   UNL     1     -12.495  12.270  71.029  1.00  0.00    -0.370 OA 
BRANCH   4   6
HETATM    6  C   UNL     1     -11.670  10.013  70.496  1.00  0.00    -0.318 C  
BRANCH   6   7
HETATM    7  N   UNL     1     -10.192   9.971  70.318  1.00  0.00    -0.378 NA 
HETATM    8  H   UNL     1      -9.747   9.556  71.136  1.00  0.00     0.000 HD 
BRANCH   7   9
HETATM    9  C   UNL     1      -9.748   9.294  69.095  1.00  0.00    -0.164 C  
BRANCH   9  10
HETATM   10  C   UNL     1      -8.369   8.614  69.238  1.00  0.00    -0.118 C  
BRANCH  10  11
HETATM   11  N   UNL     1      -8.305   7.548  70.251  1.00  0.00    -0.131 NA 
HETATM   12  H   UNL     1      -8.538   7.917  71.173  1.00  0.00     0.000 HD 
BRANCH  11  13
HETATM   13  C   UNL     1      -9.145   6.354  69.939  1.00  0.00    -0.142 C  
BRANCH  13  14
HETATM   14  C   UNL     1      -8.880   5.776  68.531  1.00  0.00    -0.110 C  
HETATM   15  H   UNL     1     -10.087   5.334  66.147  1.00  0.00     0.000 H  
HETATM   16  S   UNL     1     -10.325   5.855  67.414  1.00  0.00    -0.251 SA 
ENDBRANCH  13  14
BRANCH  13  17
HETATM   17  C   UNL     1      -8.918   5.265  71.011  1.00  0.00    -0.138 C  
HETATM   18  O   UNL     1      -8.841   5.463  72.218  1.00  0.00    -0.129 OA 
BRANCH  17  19
HETATM   19  O   UNL     1      -8.825   4.038  70.420  1.00  0.00    -0.075 OA 
BRANCH  19  20
HETATM   20  C   UNL     1      -9.451   2.955  71.120  1.00  0.00    -0.155 C  
HETATM   21  C   UNL     1      -9.268   1.653  70.370  1.00  0.00    -0.158 C  
ENDBRANCH  19  20
ENDBRANCH  17  19
ENDBRANCH  13  17
ENDBRANCH  11  13
ENDBRANCH  10  11
ENDBRANCH   9  10
ENDBRANCH   7   9
ENDBRANCH   6   7
BRANCH   6  22
HETATM   22  C   UNL     1     -12.193   9.568  71.877  1.00  0.00    -0.358 C  
HETATM   23  H   UNL     1     -12.188   7.469  73.602  1.00  0.00     0.000 H  
HETATM   24  S   UNL     1     -11.717   7.871  72.358  1.00  0.00    -0.360 SA 
ENDBRANCH   6  22
ENDBRANCH   4   6
ENDBRANCH   3   4
ENDBRANCH   2   3
TORSDOF 13
ENDMDL
MODEL      367
REMARK 921   NORMALIZED FREE ENERGY PREDICTED BY IDOCK:   -2.85 KCAL/MOL
REMARK 922        TOTAL FREE ENERGY PREDICTED BY IDOCK:   -5.60 KCAL/MOL
REMARK 923 INTER-LIGAND FREE ENERGY PREDICTED BY IDOCK:   -5.15 KCAL/MOL
REMARK 924 INTRA-LIGAND FREE ENERGY PREDICTED BY IDOCK:   -0.45 KCAL/MOL
REMARK 927      BINDING AFFINITY PREDICTED BY RF-SCORE:    0.00 PKD
ROOT
HETATM    1  C   UNL     1     -10.399   6.751  74.023  1.00  0.00    -0.377 C  
HETATM    2  C   UNL     1     -10.861   7.403  72.738  1.00  0.00    -0.326 C  
ENDROOT
BRANCH   2   3
HETATM    3  O   UNL     1     -10.066   8.565  72.457  1.00  0.00    -0.298 OA 
BRANCH   3   4
HETATM    4  C   UNL     1      -9.575   8.656  71.188  1.00  0.00    -0.220 C  
HETATM    5  O   UNL     1      -8.491   9.138  70.883  1.00  0.00    -0.192 OA 
BRANCH   4   6
HETATM    6  C   UNL     1     -10.589   8.047  70.200  1.00  0.00    -0.237 C  
BRANCH   6   7
HETATM    7  N   UNL     1     -11.164   9.120  69.344  1.00  0.00    -0.441 NA 
HETATM    8  H   UNL     1     -12.008   8.788  68.877  1.00  0.00     0.000 HD 
BRANCH   7   9
HETATM    9  C   UNL     1     -11.429  10.380  70.046  1.00  0.00    -0.308 C  
BRANCH   9  10
HETATM   10  C   UNL     1     -12.192  11.412  69.186  1.00  0.00    -0.175 C  
BRANCH  10  11
HETATM   11  N   UNL     1     -11.338  12.362  68.455  1.00  0.00    -0.268 NA 
HETATM   12  H   UNL     1     -10.879  13.001  69.105  1.00  0.00     0.000 HD 
BRANCH  11  13
HETATM   13  C   UNL     1     -10.334  11.719  67.557  1.00  0.00    -0.196 C  
BRANCH  13  14
HETATM   14  C   UNL     1     -10.579  12.018  66.061  1.00  0.00    -0.268 C  
HETATM   15  H   UNL     1     -12.369  13.162  64.380  1.00  0.00     0.000 H  
HETATM   16  S   UNL     1     -12.149  12.893  65.727  1.00  0.00    -0.436 SA 
ENDBRANCH  13  14
BRANCH  13  17
HETATM   17  C   UNL     1      -8.913  12.168  67.962  1.00  0.00    -0.189 C  
HETATM   18  O   UNL     1      -8.241  11.672  68.860  1.00  0.00    -0.096 OA 
BRANCH  17  19
HETATM   19  O   UNL     1      -8.501  13.197  67.165  1.00  0.00    -0.192 OA 
BRANCH  19  20
HETATM   20  C   UNL     1      -8.351  14.469  67.810  1.00  0.00    -0.169 C  
HETATM   21  C   UNL     1      -8.631  15.598  66.842  1.00  0.00    -0.281 C  
ENDBRANCH  19  20
ENDBRANCH  17  19
ENDBRANCH  13  17
ENDBRANCH  11  13
ENDBRANCH  10  11
ENDBRANCH   9  10
ENDBRANCH   7   9
ENDBRANCH   6   7
BRANCH   6  22
HETATM   22  C   UNL     1      -9.926   6.873  69.452  1.00  0.00    -0.160 C  
HETATM   23  H   UNL     1     -10.074   5.431  67.154  1.00  0.00     0.000 H  
HETATM   24  S   UNL     1     -10.671   6.489  67.829  1.00  0.00    -0.321 SA 
ENDBRANCH   6  22
ENDBRANCH   4   6
ENDBRANCH   3   4
ENDBRANCH   2   3
TORSDOF 13
ENDMDL
MODEL      368
REMARK 921   NORMALIZED FREE ENERGY PREDICTED BY IDOCK:   -2.84 KCAL/MOL
REMARK 922        TOTAL FREE ENERGY PREDICTED BY IDOCK:   -5.60 KCAL/MOL
REMARK 923 INTER-LIGAND FREE ENERGY PREDICTED BY IDOCK:   -4.51 KCAL/MOL
REMARK 924 INTRA-LIGAND FREE ENERGY PREDICTED BY IDOCK:   -1.08 KCAL/MOL
REMARK 927      BINDING AFFINITY PREDICTED BY RF-SCORE:    0.00 PKD
ROOT
HETATM    1  C   UNL     1      -9.959   3.976  64.611  1.00  0.00    -0.205 C  
HETATM    2  C   UNL     1     -10.340   4.593  65.940  1.00  0.00    -0.283 C  
ENDROOT
BRANCH   2   3
HETATM    3  O   UNL     1      -9.208   4.615  66.822  1.00  0.00    -0.116 OA 
BRANCH   3   4
HETATM    4  C   UNL     1      -9.302   3.823  67.928  1.00  0.00    -0.186 C  
HETATM    5  O   UNL     1      -9.391   2.602  67.917  1.00  0.00    -0.193 OA 
BRANCH   4   6
HETATM    6  C   UNL     1      -9.267   4.702  69.193  1.00  0.00    -0.128 C  
BRANCH   6   7
HETATM    7  N   UNL     1      -8.821   3.890  70.358  1.00  0.00    -0.079 NA 
HETATM    8  H   UNL     1      -8.038   4.345  70.829  1.00  0.00     0.000 HD 
BRANCH   7   9
HETATM    9  C   UNL     1      -9.883   3.574  71.318  1.00  0.00    -0.135 C  
BRANCH   9  10
HETATM   10  C   UNL     1      -9.914   4.527  72.533  1.00  0.00    -0.170 C  
BRANCH  10  11
HETATM   11  N   UNL     1     -11.133   5.345  72.648  1.00  0.00    -0.268 NA 
HETATM   12  H   UNL     1     -11.574   5.202  73.556  1.00  0.00     0.000 HD 
BRANCH  11  13
HETATM   13  C   UNL     1     -10.920   6.801  72.395  1.00  0.00    -0.246 C  
BRANCH  13  14
HETATM   14  C   UNL     1      -9.430   7.182  72.254  1.00  0.00    -0.138 C  
HETATM   15  H   UNL     1      -7.381   8.310  73.620  1.00  0.00     0.000 H  
HETATM   16  S   UNL     1      -8.722   7.967  73.747  1.00  0.00    -0.259 SA 
ENDBRANCH  13  14
BRANCH  13  17
HETATM   17  C   UNL     1     -11.699   7.227  71.130  1.00  0.00    -0.303 C  
HETATM   18  O   UNL     1     -12.001   6.487  70.200  1.00  0.00    -0.383 OA 
BRANCH  17  19
HETATM   19  O   UNL     1     -12.014   8.554  71.199  1.00  0.00    -0.287 OA 
BRANCH  19  20
HETATM   20  C   UNL     1     -12.940   8.925  72.229  1.00  0.00    -0.419 C  
HETATM   21  C   UNL     1     -14.350   8.517  71.856  1.00  0.00    -0.536 C  
ENDBRANCH  19  20
ENDBRANCH  17  19
ENDBRANCH  13  17
ENDBRANCH  11  13
ENDBRANCH  10  11
ENDBRANCH   9  10
ENDBRANCH   7   9
ENDBRANCH   6   7
BRANCH   6  22
HETATM   22  C   UNL     1      -8.441   5.973  68.904  1.00  0.00    -0.116 C  
HETATM   23  H   UNL     1      -5.920   6.974  69.038  1.00  0.00     0.000 H  
HETATM   24  S   UNL     1      -6.663   5.829  69.298  1.00  0.00    -0.062 SA 
ENDBRANCH   6  22
ENDBRANCH   4   6
ENDBRANCH   3   4
ENDBRANCH   2   3
TORSDOF 13
ENDMDL
MODEL      369
REMARK 921   NORMALIZED FREE ENERGY PREDICTED BY IDOCK:   -2.84 KCAL/MOL
REMARK 922        TOTAL FREE ENERGY PREDICTED BY IDOCK:   -5.59 KCAL/MOL
REMARK 923 INTER-LIGAND FREE ENERGY PREDICTED BY IDOCK:   -4.97 KCAL/MOL
REMARK 924 INTRA-LIGAND FREE ENERGY PREDICTED BY IDOCK:   -0.63 KCAL/MOL
REMARK 927      BINDING AFFINITY PREDICTED BY RF-SCORE:    0.00 PKD
ROOT
HETATM    1  C   UNL     1     -10.236   6.852  70.546  1.00  0.00    -0.209 C  
HETATM    2  C   UNL     1     -11.095   8.085  70.361  1.00  0.00    -0.238 C  
ENDROOT
BRANCH   2   3
HETATM    3  O   UNL     1     -10.268   9.251  70.225  1.00  0.00    -0.196 OA 
BRANCH   3   4
HETATM    4  C   UNL     1     -10.631  10.125  69.244  1.00  0.00    -0.230 C  
HETATM    5  O   UNL     1     -11.748  10.608  69.105  1.00  0.00    -0.283 OA 
BRANCH   4   6
HETATM    6  C   UNL     1      -9.416  10.420  68.343  1.00  0.00    -0.149 C  
BRANCH   6   7
HETATM    7  N   UNL     1      -8.313  10.996  69.159  1.00  0.00    -0.346 NA 
HETATM    8  H   UNL     1      -7.728  10.253  69.543  1.00  0.00     0.000 HD 
BRANCH   7   9
HETATM    9  C   UNL     1      -7.489  11.983  68.454  1.00  0.00    -0.110 C  
BRANCH   9  10
HETATM   10  C   UNL     1      -8.318  13.037  67.687  1.00  0.00    -0.181 C  
BRANCH  10  11
HETATM   11  N   UNL     1      -9.361  13.704  68.483  1.00  0.00    -0.324 NA 
HETATM   12  H   UNL     1      -8.944  14.217  69.260  1.00  0.00     0.000 HD 
BRANCH  11  13
HETATM   13  C   UNL     1     -10.260  14.596  67.692  1.00  0.00    -0.232 C  
BRANCH  13  14
HETATM   14  C   UNL     1     -11.587  13.917  67.287  1.00  0.00    -0.365 C  
HETATM   15  H   UNL     1     -13.114  13.342  65.125  1.00  0.00     0.000 H  
HETATM   16  S   UNL     1     -11.919  13.953  65.489  1.00  0.00    -0.406 SA 
ENDBRANCH  13  14
BRANCH  13  17
HETATM   17  C   UNL     1     -10.547  15.886  68.492  1.00  0.00    -0.263 C  
HETATM   18  O   UNL     1     -10.969  15.928  69.643  1.00  0.00    -0.265 OA 
BRANCH  17  19
HETATM   19  O   UNL     1     -10.250  16.983  67.735  1.00  0.00    -0.288 OA 
BRANCH  19  20
HETATM   20  C   UNL     1      -8.920  17.500  67.875  1.00  0.00    -0.251 C  
HETATM   21  C   UNL     1      -8.363  17.915  66.530  1.00  0.00    -0.290 C  
ENDBRANCH  19  20
ENDBRANCH  17  19
ENDBRANCH  13  17
ENDBRANCH  11  13
ENDBRANCH  10  11
ENDBRANCH   9  10
ENDBRANCH   7   9
ENDBRANCH   6   7
BRANCH   6  22
HETATM   22  C   UNL     1      -9.064   9.153  67.537  1.00  0.00    -0.124 C  
HETATM   23  H   UNL     1      -8.769   8.235  64.997  1.00  0.00     0.000 H  
HETATM   24  S   UNL     1      -9.086   9.376  65.724  1.00  0.00    -0.216 SA 
ENDBRANCH   6  22
ENDBRANCH   4   6
ENDBRANCH   3   4
ENDBRANCH   2   3
TORSDOF 13
ENDMDL
MODEL      370
REMARK 921   NORMALIZED FREE ENERGY PREDICTED BY IDOCK:   -2.83 KCAL/MOL
REMARK 922        TOTAL FREE ENERGY PREDICTED BY IDOCK:   -5.58 KCAL/MOL
REMARK 923 INTER-LIGAND FREE ENERGY PREDICTED BY IDOCK:   -4.86 KCAL/MOL
REMARK 924 INTRA-LIGAND FREE ENERGY PREDICTED BY IDOCK:   -0.71 KCAL/MOL
REMARK 927      BINDING AFFINITY PREDICTED BY RF-SCORE:    0.00 PKD
ROOT
HETATM    1  C   UNL     1      -6.300   5.826  71.531  1.00  0.00    -0.044 C  
HETATM    2  C   UNL     1      -7.673   5.239  71.279  1.00  0.00    -0.102 C  
ENDROOT
BRANCH   2   3
HETATM    3  O   UNL     1      -8.619   6.286  71.013  1.00  0.00    -0.130 OA 
BRANCH   3   4
HETATM    4  C   UNL     1      -9.933   5.935  71.109  1.00  0.00    -0.189 C  
HETATM    5  O   UNL     1     -10.354   4.904  71.617  1.00  0.00    -0.203 OA 
BRANCH   4   6
HETATM    6  C   UNL     1     -10.806   7.043  70.488  1.00  0.00    -0.251 C  
BRANCH   6   7
HETATM    7  N   UNL     1     -11.656   6.469  69.409  1.00  0.00    -0.653 NA 
HETATM    8  H   UNL     1     -12.420   7.106  69.182  1.00  0.00     0.000 HD 
BRANCH   7   9
HETATM    9  C   UNL     1     -10.924   6.094  68.195  1.00  0.00    -0.307 C  
BRANCH   9  10
HETATM   10  C   UNL     1     -10.858   7.226  67.146  1.00  0.00    -0.308 C  
BRANCH  10  11
HETATM   11  N   UNL     1      -9.648   8.062  67.210  1.00  0.00    -0.153 NA 
HETATM   12  H   UNL     1      -8.851   7.566  66.809  1.00  0.00     0.000 HD 
BRANCH  11  13
HETATM   13  C   UNL     1      -9.796   9.407  66.580  1.00  0.00    -0.258 C  
BRANCH  13  14
HETATM   14  C   UNL     1      -9.226  10.550  67.447  1.00  0.00    -0.142 C  
HETATM   15  H   UNL     1      -8.040  11.026  69.836  1.00  0.00     0.000 H  
HETATM   16  S   UNL     1      -8.553   9.997  69.055  1.00  0.00    -0.164 SA 
ENDBRANCH  13  14
BRANCH  13  17
HETATM   17  C   UNL     1      -9.121   9.406  65.190  1.00  0.00    -0.225 C  
HETATM   18  O   UNL     1      -8.603   8.434  64.653  1.00  0.00    -0.131 OA 
BRANCH  17  19
HETATM   19  O   UNL     1      -9.191  10.652  64.635  1.00  0.00    -0.201 OA 
BRANCH  19  20
HETATM   20  C   UNL     1     -10.011  10.771  63.465  1.00  0.00    -0.344 C  
HETATM   21  C   UNL     1     -11.235  11.616  63.751  1.00  0.00    -0.498 C  
ENDBRANCH  19  20
ENDBRANCH  17  19
ENDBRANCH  13  17
ENDBRANCH  11  13
ENDBRANCH  10  11
ENDBRANCH   9  10
ENDBRANCH   7   9
ENDBRANCH   6   7
BRANCH   6  22
HETATM   22  C   UNL     1     -11.557   7.786  71.612  1.00  0.00    -0.267 C  
HETATM   23  H   UNL     1     -14.054   8.315  72.543  1.00  0.00     0.000 H  
HETATM   24  S   UNL     1     -13.377   7.646  71.530  1.00  0.00    -0.295 SA 
ENDBRANCH   6  22
ENDBRANCH   4   6
ENDBRANCH   3   4
ENDBRANCH   2   3
TORSDOF 13
ENDMDL
MODEL      371
REMARK 921   NORMALIZED FREE ENERGY PREDICTED BY IDOCK:   -2.83 KCAL/MOL
REMARK 922        TOTAL FREE ENERGY PREDICTED BY IDOCK:   -5.57 KCAL/MOL
REMARK 923 INTER-LIGAND FREE ENERGY PREDICTED BY IDOCK:   -4.76 KCAL/MOL
REMARK 924 INTRA-LIGAND FREE ENERGY PREDICTED BY IDOCK:   -0.81 KCAL/MOL
REMARK 927      BINDING AFFINITY PREDICTED BY RF-SCORE:    0.00 PKD
ROOT
HETATM    1  C   UNL     1     -10.260   3.477  62.989  1.00  0.00    -0.178 C  
HETATM    2  C   UNL     1     -10.753   3.837  64.375  1.00  0.00    -0.165 C  
ENDROOT
BRANCH   2   3
HETATM    3  O   UNL     1      -9.680   4.379  65.159  1.00  0.00    -0.170 OA 
BRANCH   3   4
HETATM    4  C   UNL     1      -9.823   4.278  66.512  1.00  0.00    -0.219 C  
HETATM    5  O   UNL     1      -9.689   3.248  67.161  1.00  0.00    -0.127 OA 
BRANCH   4   6
HETATM    6  C   UNL     1     -10.169   5.661  67.096  1.00  0.00    -0.212 C  
BRANCH   6   7
HETATM    7  N   UNL     1     -10.082   5.616  68.581  1.00  0.00    -0.168 NA 
HETATM    8  H   UNL     1      -9.211   6.042  68.899  1.00  0.00     0.000 HD 
BRANCH   7   9
HETATM    9  C   UNL     1     -11.227   6.214  69.274  1.00  0.00    -0.367 C  
BRANCH   9  10
HETATM   10  C   UNL     1     -10.840   7.398  70.187  1.00  0.00    -0.256 C  
BRANCH  10  11
HETATM   11  N   UNL     1     -11.462   8.685  69.831  1.00  0.00    -0.449 NA 
HETATM   12  H   UNL     1     -12.111   8.981  70.560  1.00  0.00     0.000 HD 
BRANCH  11  13
HETATM   13  C   UNL     1     -10.487   9.774  69.527  1.00  0.00    -0.232 C  
BRANCH  13  14
HETATM   14  C   UNL     1      -9.134   9.248  68.997  1.00  0.00    -0.147 C  
HETATM   15  H   UNL     1      -6.467   9.395  69.447  1.00  0.00     0.000 H  
HETATM   16  S   UNL     1      -7.684   9.868  69.923  1.00  0.00    -0.178 SA 
ENDBRANCH  13  14
BRANCH  13  17
HETATM   17  C   UNL     1     -11.108  10.758  68.511  1.00  0.00    -0.262 C  
HETATM   18  O   UNL     1     -12.281  11.115  68.495  1.00  0.00    -0.600 OA 
BRANCH  17  19
HETATM   19  O   UNL     1     -10.156  11.186  67.631  1.00  0.00    -0.175 OA 
BRANCH  19  20
HETATM   20  C   UNL     1     -10.578  11.323  66.268  1.00  0.00    -0.263 C  
HETATM   21  C   UNL     1      -9.945  10.255  65.401  1.00  0.00    -0.371 C  
ENDBRANCH  19  20
ENDBRANCH  17  19
ENDBRANCH  13  17
ENDBRANCH  11  13
ENDBRANCH  10  11
ENDBRANCH   9  10
ENDBRANCH   7   9
ENDBRANCH   6   7
BRANCH   6  22
HETATM   22  C   UNL     1      -9.303   6.734  66.404  1.00  0.00    -0.136 C  
HETATM   23  H   UNL     1      -6.750   7.640  66.214  1.00  0.00     0.000 H  
HETATM   24  S   UNL     1      -7.530   6.674  66.837  1.00  0.00    -0.088 SA 
ENDBRANCH   6  22
ENDBRANCH   4   6
ENDBRANCH   3   4
ENDBRANCH   2   3
TORSDOF 13
ENDMDL
MODEL      372
REMARK 921   NORMALIZED FREE ENERGY PREDICTED BY IDOCK:   -2.83 KCAL/MOL
REMARK 922        TOTAL FREE ENERGY PREDICTED BY IDOCK:   -5.57 KCAL/MOL
REMARK 923 INTER-LIGAND FREE ENERGY PREDICTED BY IDOCK:   -4.90 KCAL/MOL
REMARK 924 INTRA-LIGAND FREE ENERGY PREDICTED BY IDOCK:   -0.67 KCAL/MOL
REMARK 927      BINDING AFFINITY PREDICTED BY RF-SCORE:    0.00 PKD
ROOT
HETATM    1  C   UNL     1      -8.415   4.246  68.065  1.00  0.00    -0.101 C  
HETATM    2  C   UNL     1      -9.376   4.403  69.225  1.00  0.00    -0.156 C  
ENDROOT
BRANCH   2   3
HETATM    3  O   UNL     1     -10.559   5.097  68.800  1.00  0.00    -0.114 OA 
BRANCH   3   4
HETATM    4  C   UNL     1     -10.851   6.243  69.479  1.00  0.00    -0.340 C  
HETATM    5  O   UNL     1     -11.909   6.475  70.051  1.00  0.00    -0.404 OA 
BRANCH   4   6
HETATM    6  C   UNL     1      -9.641   7.195  69.422  1.00  0.00    -0.153 C  
BRANCH   6   7
HETATM    7  N   UNL     1      -9.543   7.805  68.068  1.00  0.00    -0.148 NA 
HETATM    8  H   UNL     1     -10.058   7.244  67.388  1.00  0.00     0.000 HD 
BRANCH   7   9
HETATM    9  C   UNL     1      -9.968   9.207  68.002  1.00  0.00    -0.178 C  
BRANCH   9  10
HETATM   10  C   UNL     1      -9.404   9.961  66.778  1.00  0.00    -0.151 C  
BRANCH  10  11
HETATM   11  N   UNL     1     -10.416  10.612  65.930  1.00  0.00    -0.211 NA 
HETATM   12  H   UNL     1     -11.356  10.374  66.250  1.00  0.00     0.000 HD 
BRANCH  11  13
HETATM   13  C   UNL     1     -10.262  12.092  65.818  1.00  0.00    -0.254 C  
BRANCH  13  14
HETATM   14  C   UNL     1     -10.187  12.586  64.356  1.00  0.00    -0.320 C  
HETATM   15  H   UNL     1      -9.821  11.700  61.823  1.00  0.00     0.000 H  
HETATM   16  S   UNL     1      -9.889  11.255  63.138  1.00  0.00    -0.367 SA 
ENDBRANCH  13  14
BRANCH  13  17
HETATM   17  C   UNL     1     -11.425  12.793  66.555  1.00  0.00    -0.355 C  
HETATM   18  O   UNL     1     -12.594  12.807  66.186  1.00  0.00    -0.428 OA 
BRANCH  17  19
HETATM   19  O   UNL     1     -10.965  13.391  67.693  1.00  0.00    -0.251 OA 
BRANCH  19  20
HETATM   20  C   UNL     1     -11.364  12.781  68.928  1.00  0.00    -0.296 C  
HETATM   21  C   UNL     1     -12.176  13.746  69.765  1.00  0.00    -0.368 C  
ENDBRANCH  19  20
ENDBRANCH  17  19
ENDBRANCH  13  17
ENDBRANCH  11  13
ENDBRANCH  10  11
ENDBRANCH   9  10
ENDBRANCH   7   9
ENDBRANCH   6   7
BRANCH   6  22
HETATM   22  C   UNL     1      -9.721   8.186  70.601  1.00  0.00    -0.170 C  
HETATM   23  H   UNL     1      -9.216   8.406  73.262  1.00  0.00     0.000 H  
HETATM   24  S   UNL     1      -9.145   7.513  72.199  1.00  0.00    -0.137 SA 
ENDBRANCH   6  22
ENDBRANCH   4   6
ENDBRANCH   3   4
ENDBRANCH   2   3
TORSDOF 13
ENDMDL
MODEL      373
REMARK 921   NORMALIZED FREE ENERGY PREDICTED BY IDOCK:   -2.82 KCAL/MOL
REMARK 922        TOTAL FREE ENERGY PREDICTED BY IDOCK:   -5.57 KCAL/MOL
REMARK 923 INTER-LIGAND FREE ENERGY PREDICTED BY IDOCK:   -5.72 KCAL/MOL
REMARK 924 INTRA-LIGAND FREE ENERGY PREDICTED BY IDOCK:    0.16 KCAL/MOL
REMARK 927      BINDING AFFINITY PREDICTED BY RF-SCORE:    0.00 PKD
ROOT
HETATM    1  C   UNL     1     -12.620  11.845  63.427  1.00  0.00    -0.555 C  
HETATM    2  C   UNL     1     -11.151  12.112  63.674  1.00  0.00    -0.457 C  
ENDROOT
BRANCH   2   3
HETATM    3  O   UNL     1     -10.972  13.408  64.265  1.00  0.00    -0.382 OA 
BRANCH   3   4
HETATM    4  C   UNL     1     -11.807  13.708  65.301  1.00  0.00    -0.349 C  
HETATM    5  O   UNL     1     -12.863  14.321  65.202  1.00  0.00    -0.659 OA 
BRANCH   4   6
HETATM    6  C   UNL     1     -11.222  13.147  66.611  1.00  0.00    -0.304 C  
BRANCH   6   7
HETATM    7  N   UNL     1      -9.798  12.766  66.403  1.00  0.00    -0.264 NA 
HETATM    8  H   UNL     1      -9.190  13.320  67.008  1.00  0.00     0.000 HD 
BRANCH   7   9
HETATM    9  C   UNL     1      -9.522  11.336  66.571  1.00  0.00    -0.193 C  
BRANCH   9  10
HETATM   10  C   UNL     1     -10.084  10.755  67.888  1.00  0.00    -0.172 C  
BRANCH  10  11
HETATM   11  N   UNL     1     -10.106   9.284  67.957  1.00  0.00    -0.183 NA 
HETATM   12  H   UNL     1      -9.766   8.881  67.083  1.00  0.00     0.000 HD 
BRANCH  11  13
HETATM   13  C   UNL     1      -9.363   8.714  69.119  1.00  0.00    -0.153 C  
BRANCH  13  14
HETATM   14  C   UNL     1      -8.448   9.742  69.819  1.00  0.00    -0.193 C  
HETATM   15  H   UNL     1      -6.217   9.918  71.346  1.00  0.00     0.000 H  
HETATM   16  S   UNL     1      -7.041   8.993  70.716  1.00  0.00    -0.103 SA 
ENDBRANCH  13  14
BRANCH  13  17
HETATM   17  C   UNL     1     -10.364   8.117  70.133  1.00  0.00    -0.215 C  
HETATM   18  O   UNL     1     -10.612   6.924  70.266  1.00  0.00    -0.206 OA 
BRANCH  17  19
HETATM   19  O   UNL     1     -10.931   9.114  70.873  1.00  0.00    -0.239 OA 
BRANCH  19  20
HETATM   20  C   UNL     1     -12.203   9.590  70.414  1.00  0.00     0.060 C  
HETATM   21  C   UNL     1     -12.802  10.563  71.408  1.00  0.00    -0.551 C  
ENDBRANCH  19  20
ENDBRANCH  17  19
ENDBRANCH  13  17
ENDBRANCH  11  13
ENDBRANCH  10  11
ENDBRANCH   9  10
ENDBRANCH   7   9
ENDBRANCH   6   7
BRANCH   6  22
HETATM   22  C   UNL     1     -11.490  14.146  67.755  1.00  0.00    -0.325 C  
HETATM   23  H   UNL     1     -10.668  16.532  68.760  1.00  0.00     0.000 H  
HETATM   24  S   UNL     1     -10.426  15.631  67.730  1.00  0.00    -0.280 SA 
ENDBRANCH   6  22
ENDBRANCH   4   6
ENDBRANCH   3   4
ENDBRANCH   2   3
TORSDOF 13
ENDMDL
MODEL      374
REMARK 921   NORMALIZED FREE ENERGY PREDICTED BY IDOCK:   -2.82 KCAL/MOL
REMARK 922        TOTAL FREE ENERGY PREDICTED BY IDOCK:   -5.56 KCAL/MOL
REMARK 923 INTER-LIGAND FREE ENERGY PREDICTED BY IDOCK:   -5.24 KCAL/MOL
REMARK 924 INTRA-LIGAND FREE ENERGY PREDICTED BY IDOCK:   -0.32 KCAL/MOL
REMARK 927      BINDING AFFINITY PREDICTED BY RF-SCORE:    0.00 PKD
ROOT
HETATM    1  C   UNL     1     -13.159  11.179  71.776  1.00  0.00    -0.536 C  
HETATM    2  C   UNL     1     -12.595   9.775  71.832  1.00  0.00    -0.391 C  
ENDROOT
BRANCH   2   3
HETATM    3  O   UNL     1     -11.184   9.795  71.568  1.00  0.00    -0.360 OA 
BRANCH   3   4
HETATM    4  C   UNL     1     -10.581   8.575  71.472  1.00  0.00    -0.263 C  
HETATM    5  O   UNL     1      -9.552   8.249  72.049  1.00  0.00    -0.197 OA 
BRANCH   4   6
HETATM    6  C   UNL     1     -11.402   7.669  70.534  1.00  0.00    -0.250 C  
BRANCH   6   7
HETATM    7  N   UNL     1     -11.043   7.954  69.118  1.00  0.00    -0.424 NA 
HETATM    8  H   UNL     1     -11.885   8.022  68.544  1.00  0.00     0.000 HD 
BRANCH   7   9
HETATM    9  C   UNL     1     -10.200   9.139  68.932  1.00  0.00    -0.207 C  
BRANCH   9  10
HETATM   10  C   UNL     1     -10.946  10.326  68.284  1.00  0.00    -0.264 C  
BRANCH  10  11
HETATM   11  N   UNL     1     -10.162  11.087  67.298  1.00  0.00    -0.192 NA 
HETATM   12  H   UNL     1      -9.168  11.050  67.527  1.00  0.00     0.000 HD 
BRANCH  11  13
HETATM   13  C   UNL     1     -10.387  10.672  65.882  1.00  0.00    -0.224 C  
BRANCH  13  14
HETATM   14  C   UNL     1     -10.497  11.866  64.909  1.00  0.00    -0.287 C  
HETATM   15  H   UNL     1     -10.969  14.533  64.852  1.00  0.00     0.000 H  
HETATM   16  S   UNL     1     -10.870  13.458  65.728  1.00  0.00    -0.277 SA 
ENDBRANCH  13  14
BRANCH  13  17
HETATM   17  C   UNL     1      -9.254   9.723  65.433  1.00  0.00    -0.227 C  
HETATM   18  O   UNL     1      -9.219   8.514  65.634  1.00  0.00    -0.178 OA 
BRANCH  17  19
HETATM   19  O   UNL     1      -8.294  10.425  64.763  1.00  0.00    -0.166 OA 
BRANCH  19  20
HETATM   20  C   UNL     1      -6.948   9.959  64.926  1.00  0.00    -0.131 C  
HETATM   21  C   UNL     1      -6.479  10.158  66.351  1.00  0.00    -0.082 C  
ENDBRANCH  19  20
ENDBRANCH  17  19
ENDBRANCH  13  17
ENDBRANCH  11  13
ENDBRANCH  10  11
ENDBRANCH   9  10
ENDBRANCH   7   9
ENDBRANCH   6   7
BRANCH   6  22
HETATM   22  C   UNL     1     -11.249   6.202  70.985  1.00  0.00    -0.296 C  
HETATM   23  H   UNL     1      -9.969   3.887  70.368  1.00  0.00     0.000 H  
HETATM   24  S   UNL     1     -10.107   5.209  69.962  1.00  0.00    -0.285 SA 
ENDBRANCH   6  22
ENDBRANCH   4   6
ENDBRANCH   3   4
ENDBRANCH   2   3
TORSDOF 13
ENDMDL
MODEL      375
REMARK 921   NORMALIZED FREE ENERGY PREDICTED BY IDOCK:   -2.82 KCAL/MOL
REMARK 922        TOTAL FREE ENERGY PREDICTED BY IDOCK:   -5.56 KCAL/MOL
REMARK 923 INTER-LIGAND FREE ENERGY PREDICTED BY IDOCK:   -4.92 KCAL/MOL
REMARK 924 INTRA-LIGAND FREE ENERGY PREDICTED BY IDOCK:   -0.64 KCAL/MOL
REMARK 927      BINDING AFFINITY PREDICTED BY RF-SCORE:    0.00 PKD
ROOT
HETATM    1  C   UNL     1      -9.248   2.223  67.649  1.00  0.00    -0.207 C  
HETATM    2  C   UNL     1      -9.167   3.248  66.538  1.00  0.00    -0.154 C  
ENDROOT
BRANCH   2   3
HETATM    3  O   UNL     1      -9.732   4.495  66.969  1.00  0.00    -0.176 OA 
BRANCH   3   4
HETATM    4  C   UNL     1      -8.923   5.586  66.848  1.00  0.00    -0.111 C  
HETATM    5  O   UNL     1      -7.699   5.563  66.863  1.00  0.00    -0.098 OA 
BRANCH   4   6
HETATM    6  C   UNL     1      -9.788   6.850  66.679  1.00  0.00    -0.153 C  
BRANCH   6   7
HETATM    7  N   UNL     1     -10.537   7.120  67.936  1.00  0.00    -0.273 NA 
HETATM    8  H   UNL     1     -11.345   6.500  68.009  1.00  0.00     0.000 HD 
BRANCH   7   9
HETATM    9  C   UNL     1      -9.724   7.045  69.154  1.00  0.00    -0.156 C  
BRANCH   9  10
HETATM   10  C   UNL     1     -10.265   6.036  70.191  1.00  0.00    -0.208 C  
BRANCH  10  11
HETATM   11  N   UNL     1     -11.594   6.361  70.737  1.00  0.00    -0.356 NA 
HETATM   12  H   UNL     1     -12.252   5.606  70.544  1.00  0.00     0.000 HD 
BRANCH  11  13
HETATM   13  C   UNL     1     -11.595   6.695  72.192  1.00  0.00    -0.298 C  
BRANCH  13  14
HETATM   14  C   UNL     1     -10.597   5.847  73.011  1.00  0.00    -0.243 C  
HETATM   15  H   UNL     1     -10.339   3.436  74.219  1.00  0.00     0.000 H  
HETATM   16  S   UNL     1     -11.237   4.200  73.482  1.00  0.00    -0.190 SA 
ENDBRANCH  13  14
BRANCH  13  17
HETATM   17  C   UNL     1     -11.292   8.198  72.379  1.00  0.00    -0.391 C  
HETATM   18  O   UNL     1     -10.187   8.718  72.275  1.00  0.00    -0.313 OA 
BRANCH  17  19
HETATM   19  O   UNL     1     -12.442   8.875  72.669  1.00  0.00    -0.331 OA 
BRANCH  19  20
HETATM   20  C   UNL     1     -13.212   9.315  71.542  1.00  0.00    -0.367 C  
HETATM   21  C   UNL     1     -13.118  10.818  71.382  1.00  0.00    -0.469 C  
ENDBRANCH  19  20
ENDBRANCH  17  19
ENDBRANCH  13  17
ENDBRANCH  11  13
ENDBRANCH  10  11
ENDBRANCH   9  10
ENDBRANCH   7   9
ENDBRANCH   6   7
BRANCH   6  22
HETATM   22  C   UNL     1      -8.904   8.004  66.163  1.00  0.00    -0.166 C  
HETATM   23  H   UNL     1      -9.005  10.602  65.376  1.00  0.00     0.000 H  
HETATM   24  S   UNL     1      -9.801   9.562  65.840  1.00  0.00    -0.261 SA 
ENDBRANCH   6  22
ENDBRANCH   4   6
ENDBRANCH   3   4
ENDBRANCH   2   3
TORSDOF 13
ENDMDL
MODEL      376
REMARK 921   NORMALIZED FREE ENERGY PREDICTED BY IDOCK:   -2.82 KCAL/MOL
REMARK 922        TOTAL FREE ENERGY PREDICTED BY IDOCK:   -5.55 KCAL/MOL
REMARK 923 INTER-LIGAND FREE ENERGY PREDICTED BY IDOCK:   -4.62 KCAL/MOL
REMARK 924 INTRA-LIGAND FREE ENERGY PREDICTED BY IDOCK:   -0.93 KCAL/MOL
REMARK 927      BINDING AFFINITY PREDICTED BY RF-SCORE:    0.00 PKD
ROOT
HETATM    1  C   UNL     1     -11.780  11.175  69.282  1.00  0.00    -0.401 C  
HETATM    2  C   UNL     1     -11.301  10.572  67.979  1.00  0.00    -0.246 C  
ENDROOT
BRANCH   2   3
HETATM    3  O   UNL     1     -10.412   9.475  68.236  1.00  0.00    -0.205 OA 
BRANCH   3   4
HETATM    4  C   UNL     1      -9.152   9.813  68.634  1.00  0.00    -0.130 C  
HETATM    5  O   UNL     1      -8.613   9.439  69.668  1.00  0.00    -0.140 OA 
BRANCH   4   6
HETATM    6  C   UNL     1      -8.508  10.728  67.575  1.00  0.00    -0.119 C  
BRANCH   6   7
HETATM    7  N   UNL     1      -8.363  12.105  68.120  1.00  0.00    -0.163 NA 
HETATM    8  H   UNL     1      -7.634  12.130  68.833  1.00  0.00     0.000 HD 
BRANCH   7   9
HETATM    9  C   UNL     1      -8.124  13.137  67.106  1.00  0.00    -0.098 C  
BRANCH   9  10
HETATM   10  C   UNL     1      -9.422  13.699  66.486  1.00  0.00    -0.259 C  
BRANCH  10  11
HETATM   11  N   UNL     1     -10.319  14.380  67.434  1.00  0.00    -0.251 NA 
HETATM   12  H   UNL     1     -10.470  13.801  68.261  1.00  0.00     0.000 HD 
BRANCH  11  13
HETATM   13  C   UNL     1      -9.869  15.747  67.830  1.00  0.00    -0.217 C  
BRANCH  13  14
HETATM   14  C   UNL     1     -10.908  16.845  67.511  1.00  0.00    -0.207 C  
HETATM   15  H   UNL     1     -11.208  19.163  66.142  1.00  0.00     0.000 H  
HETATM   16  S   UNL     1     -10.272  18.175  66.429  1.00  0.00    -0.392 SA 
ENDBRANCH  13  14
BRANCH  13  17
HETATM   17  C   UNL     1      -9.524  15.765  69.336  1.00  0.00    -0.275 C  
HETATM   18  O   UNL     1      -8.446  15.437  69.821  1.00  0.00    -0.209 OA 
BRANCH  17  19
HETATM   19  O   UNL     1     -10.594  16.211  70.057  1.00  0.00    -0.300 OA 
BRANCH  19  20
HETATM   20  C   UNL     1     -11.263  15.229  70.859  1.00  0.00    -0.327 C  
HETATM   21  C   UNL     1     -12.765  15.338  70.700  1.00  0.00    -0.470 C  
ENDBRANCH  19  20
ENDBRANCH  17  19
ENDBRANCH  13  17
ENDBRANCH  11  13
ENDBRANCH  10  11
ENDBRANCH   9  10
ENDBRANCH   7   9
ENDBRANCH   6   7
BRANCH   6  22
HETATM   22  C   UNL     1      -7.212  10.071  67.057  1.00  0.00    -0.090 C  
HETATM   23  H   UNL     1      -6.061   9.066  64.812  1.00  0.00     0.000 H  
HETATM   24  S   UNL     1      -7.228   9.658  65.278  1.00  0.00    -0.119 SA 
ENDBRANCH   6  22
ENDBRANCH   4   6
ENDBRANCH   3   4
ENDBRANCH   2   3
TORSDOF 13
ENDMDL
MODEL      377
REMARK 921   NORMALIZED FREE ENERGY PREDICTED BY IDOCK:   -2.81 KCAL/MOL
REMARK 922        TOTAL FREE ENERGY PREDICTED BY IDOCK:   -5.55 KCAL/MOL
REMARK 923 INTER-LIGAND FREE ENERGY PREDICTED BY IDOCK:   -5.02 KCAL/MOL
REMARK 924 INTRA-LIGAND FREE ENERGY PREDICTED BY IDOCK:   -0.53 KCAL/MOL
REMARK 927      BINDING AFFINITY PREDICTED BY RF-SCORE:    0.00 PKD
ROOT
HETATM    1  C   UNL     1     -12.158   8.256  72.299  1.00  0.00    -0.439 C  
HETATM    2  C   UNL     1     -10.685   8.573  72.152  1.00  0.00    -0.356 C  
ENDROOT
BRANCH   2   3
HETATM    3  O   UNL     1     -10.084   7.702  71.181  1.00  0.00    -0.185 OA 
BRANCH   3   4
HETATM    4  C   UNL     1     -10.169   6.368  71.447  1.00  0.00    -0.199 C  
HETATM    5  O   UNL     1      -9.985   5.853  72.543  1.00  0.00    -0.175 OA 
BRANCH   4   6
HETATM    6  C   UNL     1     -10.542   5.610  70.158  1.00  0.00    -0.309 C  
BRANCH   6   7
HETATM    7  N   UNL     1     -11.300   6.510  69.247  1.00  0.00    -0.571 NA 
HETATM    8  H   UNL     1     -11.312   7.462  69.616  1.00  0.00     0.000 HD 
BRANCH   7   9
HETATM    9  C   UNL     1     -10.828   6.505  67.859  1.00  0.00    -0.304 C  
BRANCH   9  10
HETATM   10  C   UNL     1      -9.823   7.637  67.550  1.00  0.00    -0.165 C  
BRANCH  10  11
HETATM   11  N   UNL     1     -10.343   8.710  66.688  1.00  0.00    -0.275 NA 
HETATM   12  H   UNL     1     -11.097   9.211  67.158  1.00  0.00     0.000 HD 
BRANCH  11  13
HETATM   13  C   UNL     1      -9.304   9.667  66.204  1.00  0.00    -0.194 C  
BRANCH  13  14
HETATM   14  C   UNL     1      -9.448  10.014  64.706  1.00  0.00    -0.304 C  
HETATM   15  H   UNL     1      -8.197   9.724  62.320  1.00  0.00     0.000 H  
HETATM   16  S   UNL     1      -8.068   9.411  63.669  1.00  0.00    -0.167 SA 
ENDBRANCH  13  14
BRANCH  13  17
HETATM   17  C   UNL     1      -9.348  10.955  67.054  1.00  0.00    -0.163 C  
HETATM   18  O   UNL     1      -8.439  11.773  67.153  1.00  0.00    -0.156 OA 
BRANCH  17  19
HETATM   19  O   UNL     1     -10.557  11.063  67.679  1.00  0.00    -0.192 OA 
BRANCH  19  20
HETATM   20  C   UNL     1     -11.284  12.275  67.435  1.00  0.00    -0.301 C  
HETATM   21  C   UNL     1     -11.806  12.858  68.731  1.00  0.00    -0.353 C  
ENDBRANCH  19  20
ENDBRANCH  17  19
ENDBRANCH  13  17
ENDBRANCH  11  13
ENDBRANCH  10  11
ENDBRANCH   9  10
ENDBRANCH   7   9
ENDBRANCH   6   7
BRANCH   6  22
HETATM   22  C   UNL     1      -9.273   4.966  69.563  1.00  0.00    -0.119 C  
HETATM   23  H   UNL     1      -7.712   2.748  69.722  1.00  0.00     0.000 H  
HETATM   24  S   UNL     1      -8.856   3.329  70.258  1.00  0.00    -0.093 SA 
ENDBRANCH   6  22
ENDBRANCH   4   6
ENDBRANCH   3   4
ENDBRANCH   2   3
TORSDOF 13
ENDMDL
MODEL      378
REMARK 921   NORMALIZED FREE ENERGY PREDICTED BY IDOCK:   -2.81 KCAL/MOL
REMARK 922        TOTAL FREE ENERGY PREDICTED BY IDOCK:   -5.54 KCAL/MOL
REMARK 923 INTER-LIGAND FREE ENERGY PREDICTED BY IDOCK:   -4.71 KCAL/MOL
REMARK 924 INTRA-LIGAND FREE ENERGY PREDICTED BY IDOCK:   -0.83 KCAL/MOL
REMARK 927      BINDING AFFINITY PREDICTED BY RF-SCORE:    0.00 PKD
ROOT
HETATM    1  C   UNL     1      -7.028   8.044  65.752  1.00  0.00    -0.060 C  
HETATM    2  C   UNL     1      -6.688   8.452  67.170  1.00  0.00    -0.063 C  
ENDROOT
BRANCH   2   3
HETATM    3  O   UNL     1      -7.747   9.246  67.726  1.00  0.00    -0.088 OA 
BRANCH   3   4
HETATM    4  C   UNL     1      -8.597   8.593  68.570  1.00  0.00    -0.135 C  
HETATM    5  O   UNL     1      -8.258   7.806  69.444  1.00  0.00    -0.127 OA 
BRANCH   4   6
HETATM    6  C   UNL     1     -10.048   9.009  68.258  1.00  0.00    -0.192 C  
BRANCH   6   7
HETATM    7  N   UNL     1     -10.177  10.489  68.348  1.00  0.00    -0.165 NA 
HETATM    8  H   UNL     1      -9.295  10.906  68.646  1.00  0.00     0.000 HD 
BRANCH   7   9
HETATM    9  C   UNL     1     -10.656  11.131  67.119  1.00  0.00    -0.244 C  
BRANCH   9  10
HETATM   10  C   UNL     1     -11.786  12.156  67.364  1.00  0.00    -0.304 C  
BRANCH  10  11
HETATM   11  N   UNL     1     -11.408  13.561  67.141  1.00  0.00    -0.309 NA 
HETATM   12  H   UNL     1     -11.238  14.030  68.031  1.00  0.00     0.000 HD 
BRANCH  11  13
HETATM   13  C   UNL     1     -10.244  13.745  66.224  1.00  0.00    -0.297 C  
BRANCH  13  14
HETATM   14  C   UNL     1     -10.651  13.824  64.736  1.00  0.00    -0.428 C  
HETATM   15  H   UNL     1     -12.537  14.865  63.094  1.00  0.00     0.000 H  
HETATM   16  S   UNL     1     -12.172  14.794  64.433  1.00  0.00    -0.294 SA 
ENDBRANCH  13  14
BRANCH  13  17
HETATM   17  C   UNL     1      -9.460  15.013  66.628  1.00  0.00    -0.266 C  
HETATM   18  O   UNL     1      -8.824  15.728  65.862  1.00  0.00    -0.302 OA 
BRANCH  17  19
HETATM   19  O   UNL     1      -9.585  15.233  67.970  1.00  0.00    -0.201 OA 
BRANCH  19  20
HETATM   20  C   UNL     1      -9.492  16.600  68.392  1.00  0.00    -0.231 C  
HETATM   21  C   UNL     1     -10.772  17.347  68.082  1.00  0.00    -0.343 C  
ENDBRANCH  19  20
ENDBRANCH  17  19
ENDBRANCH  13  17
ENDBRANCH  11  13
ENDBRANCH  10  11
ENDBRANCH   9  10
ENDBRANCH   7   9
ENDBRANCH   6   7
BRANCH   6  22
HETATM   22  C   UNL     1     -10.480   8.376  66.920  1.00  0.00    -0.289 C  
HETATM   23  H   UNL     1     -11.114   5.996  65.774  1.00  0.00     0.000 H  
HETATM   24  S   UNL     1     -10.724   6.567  66.980  1.00  0.00    -0.373 SA 
ENDBRANCH   6  22
ENDBRANCH   4   6
ENDBRANCH   3   4
ENDBRANCH   2   3
TORSDOF 13
ENDMDL
MODEL      379
REMARK 921   NORMALIZED FREE ENERGY PREDICTED BY IDOCK:   -2.80 KCAL/MOL
REMARK 922        TOTAL FREE ENERGY PREDICTED BY IDOCK:   -5.52 KCAL/MOL
REMARK 923 INTER-LIGAND FREE ENERGY PREDICTED BY IDOCK:   -4.83 KCAL/MOL
REMARK 924 INTRA-LIGAND FREE ENERGY PREDICTED BY IDOCK:   -0.69 KCAL/MOL
REMARK 927      BINDING AFFINITY PREDICTED BY RF-SCORE:    0.00 PKD
ROOT
HETATM    1  C   UNL     1     -10.480  14.397  67.408  1.00  0.00    -0.261 C  
HETATM    2  C   UNL     1     -11.776  13.652  67.166  1.00  0.00    -0.383 C  
ENDROOT
BRANCH   2   3
HETATM    3  O   UNL     1     -11.508  12.358  66.604  1.00  0.00    -0.327 OA 
BRANCH   3   4
HETATM    4  C   UNL     1     -11.317  11.350  67.501  1.00  0.00    -0.292 C  
HETATM    5  O   UNL     1     -12.129  10.990  68.344  1.00  0.00    -0.594 OA 
BRANCH   4   6
HETATM    6  C   UNL     1      -9.925  10.726  67.283  1.00  0.00    -0.187 C  
BRANCH   6   7
HETATM    7  N   UNL     1      -9.317  10.380  68.597  1.00  0.00    -0.159 NA 
HETATM    8  H   UNL     1     -10.013   9.957  69.210  1.00  0.00     0.000 HD 
BRANCH   7   9
HETATM    9  C   UNL     1      -8.127   9.527  68.508  1.00  0.00    -0.101 C  
BRANCH   9  10
HETATM   10  C   UNL     1      -8.306   8.154  69.193  1.00  0.00    -0.131 C  
BRANCH  10  11
HETATM   11  N   UNL     1      -9.105   8.177  70.429  1.00  0.00    -0.149 NA 
HETATM   12  H   UNL     1     -10.044   8.528  70.240  1.00  0.00     0.000 HD 
BRANCH  11  13
HETATM   13  C   UNL     1      -9.171   6.867  71.141  1.00  0.00    -0.154 C  
BRANCH  13  14
HETATM   14  C   UNL     1      -9.171   7.010  72.679  1.00  0.00    -0.134 C  
HETATM   15  H   UNL     1      -8.071   5.956  74.919  1.00  0.00     0.000 H  
HETATM   16  S   UNL     1      -8.071   5.827  73.534  1.00  0.00    -0.111 SA 
ENDBRANCH  13  14
BRANCH  13  17
HETATM   17  C   UNL     1     -10.423   6.088  70.680  1.00  0.00    -0.246 C  
HETATM   18  O   UNL     1     -10.498   4.870  70.564  1.00  0.00    -0.216 OA 
BRANCH  17  19
HETATM   19  O   UNL     1     -11.448   6.955  70.429  1.00  0.00    -0.308 OA 
BRANCH  19  20
HETATM   20  C   UNL     1     -12.640   6.757  71.199  1.00  0.00    -0.250 C  
HETATM   21  C   UNL     1     -13.297   8.083  71.520  1.00  0.00    -0.324 C  
ENDBRANCH  19  20
ENDBRANCH  17  19
ENDBRANCH  13  17
ENDBRANCH  11  13
ENDBRANCH  10  11
ENDBRANCH   9  10
ENDBRANCH   7   9
ENDBRANCH   6   7
BRANCH   6  22
HETATM   22  C   UNL     1     -10.041   9.568  66.270  1.00  0.00    -0.257 C  
HETATM   23  H   UNL     1      -9.226   8.783  63.801  1.00  0.00     0.000 H  
HETATM   24  S   UNL     1      -9.121   9.826  64.713  1.00  0.00    -0.249 SA 
ENDBRANCH   6  22
ENDBRANCH   4   6
ENDBRANCH   3   4
ENDBRANCH   2   3
TORSDOF 13
ENDMDL
MODEL      380
REMARK 921   NORMALIZED FREE ENERGY PREDICTED BY IDOCK:   -2.78 KCAL/MOL
REMARK 922        TOTAL FREE ENERGY PREDICTED BY IDOCK:   -5.49 KCAL/MOL
REMARK 923 INTER-LIGAND FREE ENERGY PREDICTED BY IDOCK:   -4.71 KCAL/MOL
REMARK 924 INTRA-LIGAND FREE ENERGY PREDICTED BY IDOCK:   -0.77 KCAL/MOL
REMARK 927      BINDING AFFINITY PREDICTED BY RF-SCORE:    0.00 PKD
ROOT
HETATM    1  C   UNL     1     -12.904  11.003  71.509  1.00  0.00    -0.555 C  
HETATM    2  C   UNL     1     -13.200   9.525  71.647  1.00  0.00    -0.406 C  
ENDROOT
BRANCH   2   3
HETATM    3  O   UNL     1     -12.006   8.809  71.995  1.00  0.00    -0.333 OA 
BRANCH   3   4
HETATM    4  C   UNL     1     -11.676   7.770  71.175  1.00  0.00    -0.284 C  
HETATM    5  O   UNL     1     -12.422   6.848  70.868  1.00  0.00    -0.378 OA 
BRANCH   4   6
HETATM    6  C   UNL     1     -10.225   7.942  70.686  1.00  0.00    -0.196 C  
BRANCH   6   7
HETATM    7  N   UNL     1     -10.095   9.222  69.936  1.00  0.00    -0.197 NA 
HETATM    8  H   UNL     1      -9.126   9.542  69.946  1.00  0.00     0.000 HD 
BRANCH   7   9
HETATM    9  C   UNL     1     -10.604   9.173  68.562  1.00  0.00    -0.169 C  
BRANCH   9  10
HETATM   10  C   UNL     1     -11.047  10.552  68.024  1.00  0.00    -0.300 C  
BRANCH  10  11
HETATM   11  N   UNL     1     -10.203  11.682  68.445  1.00  0.00    -0.202 NA 
HETATM   12  H   UNL     1      -9.937  11.583  69.425  1.00  0.00     0.000 HD 
BRANCH  11  13
HETATM   13  C   UNL     1      -8.994  11.894  67.595  1.00  0.00    -0.169 C  
BRANCH  13  14
HETATM   14  C   UNL     1      -7.811  10.981  67.983  1.00  0.00    -0.112 C  
HETATM   15  H   UNL     1      -5.686  10.841  69.658  1.00  0.00     0.000 H  
HETATM   16  S   UNL     1      -6.751  11.663  69.309  1.00  0.00    -0.104 SA 
ENDBRANCH  13  14
BRANCH  13  17
HETATM   17  C   UNL     1      -9.361  11.686  66.109  1.00  0.00    -0.224 C  
HETATM   18  O   UNL     1     -10.253  12.274  65.509  1.00  0.00    -0.259 OA 
BRANCH  17  19
HETATM   19  O   UNL     1      -8.536  10.752  65.550  1.00  0.00    -0.182 OA 
BRANCH  19  20
HETATM   20  C   UNL     1      -9.180   9.721  64.791  1.00  0.00    -0.261 C  
HETATM   21  C   UNL     1      -9.036   8.379  65.477  1.00  0.00    -0.149 C  
ENDBRANCH  19  20
ENDBRANCH  17  19
ENDBRANCH  13  17
ENDBRANCH  11  13
ENDBRANCH  10  11
ENDBRANCH   9  10
ENDBRANCH   7   9
ENDBRANCH   6   7
BRANCH   6  22
HETATM   22  C   UNL     1      -9.264   7.762  71.879  1.00  0.00    -0.141 C  
HETATM   23  H   UNL     1      -6.745   8.342  72.716  1.00  0.00     0.000 H  
HETATM   24  S   UNL     1      -7.611   8.504  71.642  1.00  0.00    -0.095 SA 
ENDBRANCH   6  22
ENDBRANCH   4   6
ENDBRANCH   3   4
ENDBRANCH   2   3
TORSDOF 13
ENDMDL
MODEL      381
REMARK 921   NORMALIZED FREE ENERGY PREDICTED BY IDOCK:   -2.77 KCAL/MOL
REMARK 922        TOTAL FREE ENERGY PREDICTED BY IDOCK:   -5.46 KCAL/MOL
REMARK 923 INTER-LIGAND FREE ENERGY PREDICTED BY IDOCK:   -4.68 KCAL/MOL
REMARK 924 INTRA-LIGAND FREE ENERGY PREDICTED BY IDOCK:   -0.78 KCAL/MOL
REMARK 927      BINDING AFFINITY PREDICTED BY RF-SCORE:    0.00 PKD
ROOT
HETATM    1  C   UNL     1     -11.056   4.555  73.528  1.00  0.00    -0.398 C  
HETATM    2  C   UNL     1     -11.907   5.527  72.740  1.00  0.00    -0.102 C  
ENDROOT
BRANCH   2   3
HETATM    3  O   UNL     1     -11.105   6.621  72.268  1.00  0.00    -0.239 OA 
BRANCH   3   4
HETATM    4  C   UNL     1     -11.519   7.203  71.107  1.00  0.00    -0.290 C  
HETATM    5  O   UNL     1     -11.882   6.600  70.105  1.00  0.00    -0.389 OA 
BRANCH   4   6
HETATM    6  C   UNL     1     -11.470   8.736  71.255  1.00  0.00    -0.292 C  
BRANCH   6   7
HETATM    7  N   UNL     1     -10.435   9.297  70.345  1.00  0.00    -0.226 NA 
HETATM    8  H   UNL     1     -10.594  10.294  70.198  1.00  0.00     0.000 HD 
BRANCH   7   9
HETATM    9  C   UNL     1      -9.054   9.056  70.775  1.00  0.00    -0.245 C  
BRANCH   9  10
HETATM   10  C   UNL     1      -8.007   9.807  69.924  1.00  0.00    -0.175 C  
BRANCH  10  11
HETATM   11  N   UNL     1      -8.395  10.032  68.521  1.00  0.00    -0.110 NA 
HETATM   12  H   UNL     1      -9.411  10.054  68.431  1.00  0.00     0.000 HD 
BRANCH  11  13
HETATM   13  C   UNL     1      -7.789  11.250  67.905  1.00  0.00    -0.116 C  
BRANCH  13  14
HETATM   14  C   UNL     1      -6.770  10.924  66.791  1.00  0.00    -0.120 C  
HETATM   15  H   UNL     1      -6.099   8.993  65.014  1.00  0.00     0.000 H  
HETATM   16  S   UNL     1      -7.017   9.286  66.016  1.00  0.00    -0.091 SA 
ENDBRANCH  13  14
BRANCH  13  17
HETATM   17  C   UNL     1      -8.907  12.161  67.352  1.00  0.00    -0.181 C  
HETATM   18  O   UNL     1      -9.266  12.214  66.181  1.00  0.00    -0.220 OA 
BRANCH  17  19
HETATM   19  O   UNL     1      -9.452  12.900  68.363  1.00  0.00    -0.215 OA 
BRANCH  19  20
HETATM   20  C   UNL     1     -10.812  13.313  68.176  1.00  0.00    -0.251 C  
HETATM   21  C   UNL     1     -11.769  12.232  68.634  1.00  0.00    -0.377 C  
ENDBRANCH  19  20
ENDBRANCH  17  19
ENDBRANCH  13  17
ENDBRANCH  11  13
ENDBRANCH  10  11
ENDBRANCH   9  10
ENDBRANCH   7   9
ENDBRANCH   6   7
BRANCH   6  22
HETATM   22  C   UNL     1     -12.894   9.307  71.088  1.00  0.00    -0.222 C  
HETATM   23  H   UNL     1     -15.456   8.971  71.925  1.00  0.00     0.000 H  
HETATM   24  S   UNL     1     -14.174   8.457  72.075  1.00  0.00    -0.428 SA 
ENDBRANCH   6  22
ENDBRANCH   4   6
ENDBRANCH   3   4
ENDBRANCH   2   3
TORSDOF 13
ENDMDL
MODEL      382
REMARK 921   NORMALIZED FREE ENERGY PREDICTED BY IDOCK:   -2.76 KCAL/MOL
REMARK 922        TOTAL FREE ENERGY PREDICTED BY IDOCK:   -5.46 KCAL/MOL
REMARK 923 INTER-LIGAND FREE ENERGY PREDICTED BY IDOCK:   -5.20 KCAL/MOL
REMARK 924 INTRA-LIGAND FREE ENERGY PREDICTED BY IDOCK:   -0.26 KCAL/MOL
REMARK 927      BINDING AFFINITY PREDICTED BY RF-SCORE:    0.00 PKD
ROOT
HETATM    1  C   UNL     1      -9.382   8.098  72.484  1.00  0.00    -0.329 C  
HETATM    2  C   UNL     1      -8.602   7.162  71.586  1.00  0.00    -0.114 C  
ENDROOT
BRANCH   2   3
HETATM    3  O   UNL     1      -8.060   7.882  70.468  1.00  0.00    -0.105 OA 
BRANCH   3   4
HETATM    4  C   UNL     1      -8.233   7.299  69.247  1.00  0.00    -0.131 C  
HETATM    5  O   UNL     1      -7.379   7.228  68.372  1.00  0.00    -0.097 OA 
BRANCH   4   6
HETATM    6  C   UNL     1      -9.663   6.736  69.145  1.00  0.00    -0.146 C  
BRANCH   6   7
HETATM    7  N   UNL     1     -10.566   7.761  68.552  1.00  0.00    -0.350 NA 
HETATM    8  H   UNL     1     -11.412   7.858  69.115  1.00  0.00     0.000 HD 
BRANCH   7   9
HETATM    9  C   UNL     1      -9.940   9.069  68.338  1.00  0.00    -0.180 C  
BRANCH   9  10
HETATM   10  C   UNL     1     -10.776  10.008  67.440  1.00  0.00    -0.274 C  
BRANCH  10  11
HETATM   11  N   UNL     1     -10.484  11.442  67.601  1.00  0.00    -0.188 NA 
HETATM   12  H   UNL     1      -9.803  11.747  66.905  1.00  0.00     0.000 HD 
BRANCH  11  13
HETATM   13  C   UNL     1     -11.691  12.321  67.571  1.00  0.00    -0.332 C  
BRANCH  13  14
HETATM   14  C   UNL     1     -11.726  13.344  68.728  1.00  0.00    -0.340 C  
HETATM   15  H   UNL     1     -10.819  15.797  69.433  1.00  0.00     0.000 H  
HETATM   16  S   UNL     1     -10.787  14.876  68.392  1.00  0.00    -0.261 SA 
ENDBRANCH  13  14
BRANCH  13  17
HETATM   17  C   UNL     1     -11.765  13.053  66.213  1.00  0.00    -0.387 C  
HETATM   18  O   UNL     1     -12.735  13.678  65.796  1.00  0.00    -0.471 OA 
BRANCH  17  19
HETATM   19  O   UNL     1     -10.585  12.915  65.540  1.00  0.00    -0.271 OA 
BRANCH  19  20
HETATM   20  C   UNL     1     -10.667  12.978  64.110  1.00  0.00    -0.402 C  
HETATM   21  C   UNL     1     -11.039  11.628  63.534  1.00  0.00    -0.476 C  
ENDBRANCH  19  20
ENDBRANCH  17  19
ENDBRANCH  13  17
ENDBRANCH  11  13
ENDBRANCH  10  11
ENDBRANCH   9  10
ENDBRANCH   7   9
ENDBRANCH   6   7
BRANCH   6  22
HETATM   22  C   UNL     1      -9.622   5.376  68.419  1.00  0.00    -0.129 C  
HETATM   23  H   UNL     1      -9.959   4.231  65.979  1.00  0.00     0.000 H  
HETATM   24  S   UNL     1      -9.996   5.457  66.633  1.00  0.00    -0.218 SA 
ENDBRANCH   6  22
ENDBRANCH   4   6
ENDBRANCH   3   4
ENDBRANCH   2   3
TORSDOF 13
ENDMDL
MODEL      383
REMARK 921   NORMALIZED FREE ENERGY PREDICTED BY IDOCK:   -2.76 KCAL/MOL
REMARK 922        TOTAL FREE ENERGY PREDICTED BY IDOCK:   -5.45 KCAL/MOL
REMARK 923 INTER-LIGAND FREE ENERGY PREDICTED BY IDOCK:   -4.60 KCAL/MOL
REMARK 924 INTRA-LIGAND FREE ENERGY PREDICTED BY IDOCK:   -0.85 KCAL/MOL
REMARK 927      BINDING AFFINITY PREDICTED BY RF-SCORE:    0.00 PKD
ROOT
HETATM    1  C   UNL     1      -9.068   6.344  71.029  1.00  0.00    -0.154 C  
HETATM    2  C   UNL     1      -9.422   6.792  69.627  1.00  0.00    -0.146 C  
ENDROOT
BRANCH   2   3
HETATM    3  O   UNL     1      -8.966   8.135  69.405  1.00  0.00    -0.146 OA 
BRANCH   3   4
HETATM    4  C   UNL     1      -9.732   8.891  68.568  1.00  0.00    -0.161 C  
HETATM    5  O   UNL     1     -10.957   8.896  68.543  1.00  0.00    -0.052 OA 
BRANCH   4   6
HETATM    6  C   UNL     1      -8.820   9.745  67.667  1.00  0.00    -0.125 C  
BRANCH   6   7
HETATM    7  N   UNL     1      -7.775  10.410  68.494  1.00  0.00    -0.096 NA 
HETATM    8  H   UNL     1      -6.877   9.940  68.376  1.00  0.00     0.000 HD 
BRANCH   7   9
HETATM    9  C   UNL     1      -7.635  11.849  68.251  1.00  0.00    -0.116 C  
BRANCH   9  10
HETATM   10  C   UNL     1      -8.948  12.524  67.797  1.00  0.00    -0.184 C  
BRANCH  10  11
HETATM   11  N   UNL     1      -9.810  13.003  68.890  1.00  0.00    -0.417 NA 
HETATM   12  H   UNL     1      -9.438  13.866  69.286  1.00  0.00     0.000 HD 
BRANCH  11  13
HETATM   13  C   UNL     1     -11.243  13.179  68.509  1.00  0.00    -0.272 C  
BRANCH  13  14
HETATM   14  C   UNL     1     -11.615  12.461  67.193  1.00  0.00    -0.365 C  
HETATM   15  H   UNL     1     -12.422  12.948  64.654  1.00  0.00     0.000 H  
HETATM   16  S   UNL     1     -12.087  13.594  65.838  1.00  0.00    -0.464 SA 
ENDBRANCH  13  14
BRANCH  13  17
HETATM   17  C   UNL     1     -12.150  12.684  69.658  1.00  0.00    -0.213 C  
HETATM   18  O   UNL     1     -12.478  11.519  69.852  1.00  0.00    -0.200 OA 
BRANCH  17  19
HETATM   19  O   UNL     1     -12.529  13.736  70.441  1.00  0.00    -0.331 OA 
BRANCH  19  20
HETATM   20  C   UNL     1     -12.957  13.408  71.770  1.00  0.00    -0.342 C  
HETATM   21  C   UNL     1     -12.902  14.626  72.668  1.00  0.00    -0.499 C  
ENDBRANCH  19  20
ENDBRANCH  17  19
ENDBRANCH  13  17
ENDBRANCH  11  13
ENDBRANCH  10  11
ENDBRANCH   9  10
ENDBRANCH   7   9
ENDBRANCH   6   7
BRANCH   6  22
HETATM   22  C   UNL     1      -8.303   8.877  66.501  1.00  0.00    -0.115 C  
HETATM   23  H   UNL     1      -8.239   8.739  63.789  1.00  0.00     0.000 H  
HETATM   24  S   UNL     1      -8.705   9.520  64.839  1.00  0.00    -0.201 SA 
ENDBRANCH   6  22
ENDBRANCH   4   6
ENDBRANCH   3   4
ENDBRANCH   2   3
TORSDOF 13
ENDMDL
MODEL      384
REMARK 921   NORMALIZED FREE ENERGY PREDICTED BY IDOCK:   -2.76 KCAL/MOL
REMARK 922        TOTAL FREE ENERGY PREDICTED BY IDOCK:   -5.45 KCAL/MOL
REMARK 923 INTER-LIGAND FREE ENERGY PREDICTED BY IDOCK:   -5.50 KCAL/MOL
REMARK 924 INTRA-LIGAND FREE ENERGY PREDICTED BY IDOCK:    0.05 KCAL/MOL
REMARK 927      BINDING AFFINITY PREDICTED BY RF-SCORE:    0.00 PKD
ROOT
HETATM    1  C   UNL     1     -12.609  11.847  63.433  1.00  0.00    -0.555 C  
HETATM    2  C   UNL     1     -11.147  12.214  63.576  1.00  0.00    -0.452 C  
ENDROOT
BRANCH   2   3
HETATM    3  O   UNL     1     -11.018  13.544  64.101  1.00  0.00    -0.367 OA 
BRANCH   3   4
HETATM    4  C   UNL     1     -11.731  13.807  65.233  1.00  0.00    -0.338 C  
HETATM    5  O   UNL     1     -12.884  14.219  65.262  1.00  0.00    -0.630 OA 
BRANCH   4   6
HETATM    6  C   UNL     1     -10.865  13.495  66.469  1.00  0.00    -0.282 C  
BRANCH   6   7
HETATM    7  N   UNL     1      -9.436  13.386  66.068  1.00  0.00    -0.483 NA 
HETATM    8  H   UNL     1      -8.890  14.137  66.491  1.00  0.00     0.000 HD 
BRANCH   7   9
HETATM    9  C   UNL     1      -8.824  12.084  66.355  1.00  0.00    -0.126 C  
BRANCH   9  10
HETATM   10  C   UNL     1      -8.995  11.637  67.824  1.00  0.00    -0.170 C  
BRANCH  10  11
HETATM   11  N   UNL     1      -8.631  10.236  68.092  1.00  0.00    -0.118 NA 
HETATM   12  H   UNL     1      -8.372   9.763  67.226  1.00  0.00     0.000 HD 
BRANCH  11  13
HETATM   13  C   UNL     1      -7.563  10.066  69.120  1.00  0.00    -0.096 C  
BRANCH  13  14
HETATM   14  C   UNL     1      -6.823  11.380  69.451  1.00  0.00    -0.112 C  
HETATM   15  H   UNL     1      -4.463  12.319  70.394  1.00  0.00     0.000 H  
HETATM   16  S   UNL     1      -5.129  11.136  70.095  1.00  0.00    -0.064 SA 
ENDBRANCH  13  14
BRANCH  13  17
HETATM   17  C   UNL     1      -8.170   9.460  70.405  1.00  0.00    -0.188 C  
HETATM   18  O   UNL     1      -7.650   9.483  71.515  1.00  0.00    -0.285 OA 
BRANCH  17  19
HETATM   19  O   UNL     1      -9.385   8.900  70.129  1.00  0.00    -0.162 OA 
BRANCH  19  20
HETATM   20  C   UNL     1      -9.381   7.489  69.875  1.00  0.00    -0.150 C  
HETATM   21  C   UNL     1     -10.795   6.961  69.758  1.00  0.00    -0.295 C  
ENDBRANCH  19  20
ENDBRANCH  17  19
ENDBRANCH  13  17
ENDBRANCH  11  13
ENDBRANCH  10  11
ENDBRANCH   9  10
ENDBRANCH   7   9
ENDBRANCH   6   7
BRANCH   6  22
HETATM   22  C   UNL     1     -11.176  14.522  67.577  1.00  0.00    -0.321 C  
HETATM   23  H   UNL     1     -10.739  17.105  68.297  1.00  0.00     0.000 H  
HETATM   24  S   UNL     1     -10.460  16.179  67.299  1.00  0.00    -0.305 SA 
ENDBRANCH   6  22
ENDBRANCH   4   6
ENDBRANCH   3   4
ENDBRANCH   2   3
TORSDOF 13
ENDMDL
MODEL      385
REMARK 921   NORMALIZED FREE ENERGY PREDICTED BY IDOCK:   -2.75 KCAL/MOL
REMARK 922        TOTAL FREE ENERGY PREDICTED BY IDOCK:   -5.44 KCAL/MOL
REMARK 923 INTER-LIGAND FREE ENERGY PREDICTED BY IDOCK:   -4.31 KCAL/MOL
REMARK 924 INTRA-LIGAND FREE ENERGY PREDICTED BY IDOCK:   -1.13 KCAL/MOL
REMARK 927      BINDING AFFINITY PREDICTED BY RF-SCORE:    0.00 PKD
ROOT
HETATM    1  C   UNL     1      -8.799  14.210  67.112  1.00  0.00    -0.241 C  
HETATM    2  C   UNL     1     -10.245  13.916  66.772  1.00  0.00    -0.268 C  
ENDROOT
BRANCH   2   3
HETATM    3  O   UNL     1     -10.321  12.930  65.732  1.00  0.00    -0.274 OA 
BRANCH   3   4
HETATM    4  C   UNL     1     -10.247  11.630  66.140  1.00  0.00    -0.226 C  
HETATM    5  O   UNL     1     -10.996  11.102  66.953  1.00  0.00    -0.278 OA 
BRANCH   4   6
HETATM    6  C   UNL     1      -9.084  10.929  65.412  1.00  0.00    -0.198 C  
BRANCH   6   7
HETATM    7  N   UNL     1      -8.253  10.182  66.395  1.00  0.00    -0.119 NA 
HETATM    8  H   UNL     1      -8.455  10.498  67.345  1.00  0.00     0.000 HD 
BRANCH   7   9
HETATM    9  C   UNL     1      -8.371   8.723  66.305  1.00  0.00    -0.118 C  
BRANCH   9  10
HETATM   10  C   UNL     1      -9.192   8.103  67.458  1.00  0.00    -0.137 C  
BRANCH  10  11
HETATM   11  N   UNL     1      -9.441   9.003  68.596  1.00  0.00    -0.146 NA 
HETATM   12  H   UNL     1     -10.430   8.996  68.847  1.00  0.00     0.000 HD 
BRANCH  11  13
HETATM   13  C   UNL     1      -8.596   8.725  69.795  1.00  0.00    -0.131 C  
BRANCH  13  14
HETATM   14  C   UNL     1      -7.622   9.875  70.132  1.00  0.00    -0.175 C  
HETATM   15  H   UNL     1      -5.234  10.370  71.312  1.00  0.00     0.000 H  
HETATM   16  S   UNL     1      -6.111   9.334  71.008  1.00  0.00    -0.074 SA 
ENDBRANCH  13  14
BRANCH  13  17
HETATM   17  C   UNL     1      -9.502   8.424  71.009  1.00  0.00    -0.170 C  
HETATM   18  O   UNL     1      -9.707   9.185  71.948  1.00  0.00    -0.282 OA 
BRANCH  17  19
HETATM   19  O   UNL     1     -10.056   7.182  70.884  1.00  0.00    -0.193 OA 
BRANCH  19  20
HETATM   20  C   UNL     1     -11.473   7.146  70.667  1.00  0.00    -0.308 C  
HETATM   21  C   UNL     1     -12.176   6.475  71.828  1.00  0.00    -0.374 C  
ENDBRANCH  19  20
ENDBRANCH  17  19
ENDBRANCH  13  17
ENDBRANCH  11  13
ENDBRANCH  10  11
ENDBRANCH   9  10
ENDBRANCH   7   9
ENDBRANCH   6   7
BRANCH   6  22
HETATM   22  C   UNL     1      -9.647  10.099  64.240  1.00  0.00    -0.290 C  
HETATM   23  H   UNL     1      -9.888  10.091  61.534  1.00  0.00     0.000 H  
HETATM   24  S   UNL     1      -9.382  10.838  62.591  1.00  0.00    -0.304 SA 
ENDBRANCH   6  22
ENDBRANCH   4   6
ENDBRANCH   3   4
ENDBRANCH   2   3
TORSDOF 13
ENDMDL
MODEL      386
REMARK 921   NORMALIZED FREE ENERGY PREDICTED BY IDOCK:   -2.75 KCAL/MOL
REMARK 922        TOTAL FREE ENERGY PREDICTED BY IDOCK:   -5.43 KCAL/MOL
REMARK 923 INTER-LIGAND FREE ENERGY PREDICTED BY IDOCK:   -4.87 KCAL/MOL
REMARK 924 INTRA-LIGAND FREE ENERGY PREDICTED BY IDOCK:   -0.56 KCAL/MOL
REMARK 927      BINDING AFFINITY PREDICTED BY RF-SCORE:    0.00 PKD
ROOT
HETATM    1  C   UNL     1      -5.656  20.120  63.104  1.00  0.00    -0.303 C  
HETATM    2  C   UNL     1      -5.903  19.195  64.277  1.00  0.00    -0.261 C  
ENDROOT
BRANCH   2   3
HETATM    3  O   UNL     1      -6.178  19.957  65.462  1.00  0.00    -0.196 OA 
BRANCH   3   4
HETATM    4  C   UNL     1      -6.594  19.241  66.545  1.00  0.00    -0.188 C  
HETATM    5  O   UNL     1      -5.890  18.925  67.497  1.00  0.00    -0.173 OA 
BRANCH   4   6
HETATM    6  C   UNL     1      -8.088  18.899  66.392  1.00  0.00    -0.292 C  
BRANCH   6   7
HETATM    7  N   UNL     1      -8.246  17.447  66.103  1.00  0.00    -0.484 NA 
HETATM    8  H   UNL     1      -7.402  17.079  65.663  1.00  0.00     0.000 HD 
BRANCH   7   9
HETATM    9  C   UNL     1      -8.612  16.634  67.267  1.00  0.00    -0.191 C  
BRANCH   9  10
HETATM   10  C   UNL     1      -9.771  15.652  66.987  1.00  0.00    -0.227 C  
BRANCH  10  11
HETATM   11  N   UNL     1      -9.938  14.587  67.990  1.00  0.00    -0.219 NA 
HETATM   12  H   UNL     1     -10.693  14.820  68.636  1.00  0.00     0.000 HD 
BRANCH  11  13
HETATM   13  C   UNL     1     -10.146  13.227  67.412  1.00  0.00    -0.233 C  
BRANCH  13  14
HETATM   14  C   UNL     1      -8.876  12.645  66.754  1.00  0.00    -0.168 C  
HETATM   15  H   UNL     1      -6.187  12.515  67.056  1.00  0.00     0.000 H  
HETATM   16  S   UNL     1      -7.330  13.038  67.649  1.00  0.00    -0.152 SA 
ENDBRANCH  13  14
BRANCH  13  17
HETATM   17  C   UNL     1     -10.660  12.269  68.510  1.00  0.00    -0.234 C  
HETATM   18  O   UNL     1     -11.441  12.571  69.406  1.00  0.00    -0.270 OA 
BRANCH  17  19
HETATM   19  O   UNL     1     -10.126  11.025  68.335  1.00  0.00    -0.170 OA 
BRANCH  19  20
HETATM   20  C   UNL     1      -9.876  10.275  69.531  1.00  0.00    -0.220 C  
HETATM   21  C   UNL     1      -8.407   9.928  69.649  1.00  0.00    -0.181 C  
ENDBRANCH  19  20
ENDBRANCH  17  19
ENDBRANCH  13  17
ENDBRANCH  11  13
ENDBRANCH  10  11
ENDBRANCH   9  10
ENDBRANCH   7   9
ENDBRANCH   6   7
BRANCH   6  22
HETATM   22  C   UNL     1      -8.858  19.428  67.620  1.00  0.00    -0.308 C  
HETATM   23  H   UNL     1     -11.311  20.284  68.413  1.00  0.00     0.000 H  
HETATM   24  S   UNL     1     -10.617  19.808  67.307  1.00  0.00    -0.397 SA 
ENDBRANCH   6  22
ENDBRANCH   4   6
ENDBRANCH   3   4
ENDBRANCH   2   3
TORSDOF 13
ENDMDL
MODEL      387
REMARK 921   NORMALIZED FREE ENERGY PREDICTED BY IDOCK:   -2.74 KCAL/MOL
REMARK 922        TOTAL FREE ENERGY PREDICTED BY IDOCK:   -5.42 KCAL/MOL
REMARK 923 INTER-LIGAND FREE ENERGY PREDICTED BY IDOCK:   -5.02 KCAL/MOL
REMARK 924 INTRA-LIGAND FREE ENERGY PREDICTED BY IDOCK:   -0.40 KCAL/MOL
REMARK 927      BINDING AFFINITY PREDICTED BY RF-SCORE:    0.00 PKD
ROOT
HETATM    1  C   UNL     1     -11.404   6.194  69.434  1.00  0.00    -0.401 C  
HETATM    2  C   UNL     1     -10.764   6.785  70.672  1.00  0.00    -0.235 C  
ENDROOT
BRANCH   2   3
HETATM    3  O   UNL     1      -9.335   6.782  70.543  1.00  0.00    -0.162 OA 
BRANCH   3   4
HETATM    4  C   UNL     1      -8.803   7.800  69.808  1.00  0.00    -0.139 C  
HETATM    5  O   UNL     1      -8.478   7.725  68.629  1.00  0.00    -0.128 OA 
BRANCH   4   6
HETATM    6  C   UNL     1      -8.684   9.059  70.687  1.00  0.00    -0.213 C  
BRANCH   6   7
HETATM    7  N   UNL     1      -9.966   9.815  70.661  1.00  0.00    -0.350 NA 
HETATM    8  H   UNL     1      -9.980  10.518  71.400  1.00  0.00     0.000 HD 
BRANCH   7   9
HETATM    9  C   UNL     1     -10.283  10.427  69.367  1.00  0.00    -0.234 C  
BRANCH   9  10
HETATM   10  C   UNL     1     -11.756  10.875  69.245  1.00  0.00    -0.324 C  
BRANCH  10  11
HETATM   11  N   UNL     1     -12.104  11.523  67.970  1.00  0.00    -0.598 NA 
HETATM   12  H   UNL     1     -12.741  12.304  68.129  1.00  0.00     0.000 HD 
BRANCH  11  13
HETATM   13  C   UNL     1     -10.927  11.966  67.165  1.00  0.00    -0.269 C  
BRANCH  13  14
HETATM   14  C   UNL     1     -10.973  11.477  65.701  1.00  0.00    -0.236 C  
HETATM   15  H   UNL     1      -9.620   9.949  63.920  1.00  0.00     0.000 H  
HETATM   16  S   UNL     1      -9.579  10.389  65.239  1.00  0.00    -0.284 SA 
ENDBRANCH  13  14
BRANCH  13  17
HETATM   17  C   UNL     1     -10.819  13.507  67.208  1.00  0.00    -0.276 C  
HETATM   18  O   UNL     1     -11.088  14.263  66.281  1.00  0.00    -0.312 OA 
BRANCH  17  19
HETATM   19  O   UNL     1     -10.389  13.913  68.438  1.00  0.00    -0.237 OA 
BRANCH  19  20
HETATM   20  C   UNL     1     -10.909  15.165  68.903  1.00  0.00    -0.241 C  
HETATM   21  C   UNL     1      -9.794  16.169  69.104  1.00  0.00    -0.250 C  
ENDBRANCH  19  20
ENDBRANCH  17  19
ENDBRANCH  13  17
ENDBRANCH  11  13
ENDBRANCH  10  11
ENDBRANCH   9  10
ENDBRANCH   7   9
ENDBRANCH   6   7
BRANCH   6  22
HETATM   22  C   UNL     1      -8.170   8.656  72.084  1.00  0.00    -0.062 C  
HETATM   23  H   UNL     1      -5.889   8.175  73.479  1.00  0.00     0.000 H  
HETATM   24  S   UNL     1      -6.352   8.539  72.220  1.00  0.00    -0.068 SA 
ENDBRANCH   6  22
ENDBRANCH   4   6
ENDBRANCH   3   4
ENDBRANCH   2   3
TORSDOF 13
ENDMDL
MODEL      388
REMARK 921   NORMALIZED FREE ENERGY PREDICTED BY IDOCK:   -2.74 KCAL/MOL
REMARK 922        TOTAL FREE ENERGY PREDICTED BY IDOCK:   -5.41 KCAL/MOL
REMARK 923 INTER-LIGAND FREE ENERGY PREDICTED BY IDOCK:   -5.04 KCAL/MOL
REMARK 924 INTRA-LIGAND FREE ENERGY PREDICTED BY IDOCK:   -0.37 KCAL/MOL
REMARK 927      BINDING AFFINITY PREDICTED BY RF-SCORE:    0.00 PKD
ROOT
HETATM    1  C   UNL     1     -10.983   6.606  67.463  1.00  0.00    -0.416 C  
HETATM    2  C   UNL     1     -11.285   6.323  68.919  1.00  0.00    -0.309 C  
ENDROOT
BRANCH   2   3
HETATM    3  O   UNL     1     -10.077   5.996  69.623  1.00  0.00    -0.169 OA 
BRANCH   3   4
HETATM    4  C   UNL     1      -9.835   6.719  70.753  1.00  0.00    -0.183 C  
HETATM    5  O   UNL     1     -10.082   6.350  71.895  1.00  0.00    -0.183 OA 
BRANCH   4   6
HETATM    6  C   UNL     1      -9.194   8.068  70.373  1.00  0.00    -0.155 C  
BRANCH   6   7
HETATM    7  N   UNL     1      -9.985   9.184  70.958  1.00  0.00    -0.275 NA 
HETATM    8  H   UNL     1      -9.367   9.941  71.252  1.00  0.00     0.000 HD 
BRANCH   7   9
HETATM    9  C   UNL     1     -11.045   9.699  70.085  1.00  0.00    -0.269 C  
BRANCH   9  10
HETATM   10  C   UNL     1     -10.558  10.793  69.109  1.00  0.00    -0.222 C  
BRANCH  10  11
HETATM   11  N   UNL     1     -11.450  11.048  67.967  1.00  0.00    -0.443 NA 
HETATM   12  H   UNL     1     -12.401  10.747  68.183  1.00  0.00     0.000 HD 
BRANCH  11  13
HETATM   13  C   UNL     1     -11.447  12.463  67.490  1.00  0.00    -0.346 C  
BRANCH  13  14
HETATM   14  C   UNL     1     -11.286  13.489  68.632  1.00  0.00    -0.288 C  
HETATM   15  H   UNL     1     -11.325  16.152  69.126  1.00  0.00     0.000 H  
HETATM   16  S   UNL     1     -11.470  15.228  68.098  1.00  0.00    -0.331 SA 
ENDBRANCH  13  14
BRANCH  13  17
HETATM   17  C   UNL     1     -10.328  12.654  66.442  1.00  0.00    -0.249 C  
HETATM   18  O   UNL     1      -9.254  12.063  66.434  1.00  0.00    -0.216 OA 
BRANCH  17  19
HETATM   19  O   UNL     1     -10.712  13.576  65.510  1.00  0.00    -0.278 OA 
BRANCH  19  20
HETATM   20  C   UNL     1     -11.988  13.353  64.896  1.00  0.00    -0.378 C  
HETATM   21  C   UNL     1     -12.401  14.551  64.067  1.00  0.00    -0.207 C  
ENDBRANCH  19  20
ENDBRANCH  17  19
ENDBRANCH  13  17
ENDBRANCH  11  13
ENDBRANCH  10  11
ENDBRANCH   9  10
ENDBRANCH   7   9
ENDBRANCH   6   7
BRANCH   6  22
HETATM   22  C   UNL     1      -7.697   8.039  70.742  1.00  0.00    -0.082 C  
HETATM   23  H   UNL     1      -5.288   7.128  69.878  1.00  0.00     0.000 H  
HETATM   24  S   UNL     1      -6.637   7.154  69.546  1.00  0.00    -0.045 SA 
ENDBRANCH   6  22
ENDBRANCH   4   6
ENDBRANCH   3   4
ENDBRANCH   2   3
TORSDOF 13
ENDMDL
MODEL      389
REMARK 921   NORMALIZED FREE ENERGY PREDICTED BY IDOCK:   -2.73 KCAL/MOL
REMARK 922        TOTAL FREE ENERGY PREDICTED BY IDOCK:   -5.41 KCAL/MOL
REMARK 923 INTER-LIGAND FREE ENERGY PREDICTED BY IDOCK:   -4.71 KCAL/MOL
REMARK 924 INTRA-LIGAND FREE ENERGY PREDICTED BY IDOCK:   -0.69 KCAL/MOL
REMARK 927      BINDING AFFINITY PREDICTED BY RF-SCORE:    0.00 PKD
ROOT
HETATM    1  C   UNL     1      -8.078   8.578  70.690  1.00  0.00    -0.119 C  
HETATM    2  C   UNL     1      -8.374   7.326  69.892  1.00  0.00    -0.135 C  
ENDROOT
BRANCH   2   3
HETATM    3  O   UNL     1      -9.791   7.163  69.730  1.00  0.00    -0.172 OA 
BRANCH   3   4
HETATM    4  C   UNL     1     -10.186   6.045  69.056  1.00  0.00    -0.193 C  
HETATM    5  O   UNL     1     -10.188   4.909  69.513  1.00  0.00    -0.234 OA 
BRANCH   4   6
HETATM    6  C   UNL     1     -10.641   6.435  67.637  1.00  0.00    -0.274 C  
BRANCH   6   7
HETATM    7  N   UNL     1     -11.018   7.875  67.607  1.00  0.00    -0.512 NA 
HETATM    8  H   UNL     1     -10.951   8.279  68.541  1.00  0.00     0.000 HD 
BRANCH   7   9
HETATM    9  C   UNL     1     -10.260   8.680  66.644  1.00  0.00    -0.273 C  
BRANCH   9  10
HETATM   10  C   UNL     1     -10.190  10.177  67.019  1.00  0.00    -0.234 C  
BRANCH  10  11
HETATM   11  N   UNL     1      -9.557  11.041  66.009  1.00  0.00    -0.206 NA 
HETATM   12  H   UNL     1      -9.554  10.581  65.099  1.00  0.00     0.000 HD 
BRANCH  11  13
HETATM   13  C   UNL     1     -10.156  12.404  65.904  1.00  0.00    -0.253 C  
BRANCH  13  14
HETATM   14  C   UNL     1     -11.635  12.452  66.347  1.00  0.00    -0.384 C  
HETATM   15  H   UNL     1     -13.935  13.829  65.951  1.00  0.00     0.000 H  
HETATM   16  S   UNL     1     -12.604  13.785  65.552  1.00  0.00    -0.477 SA 
ENDBRANCH  13  14
BRANCH  13  17
HETATM   17  C   UNL     1      -9.321  13.404  66.733  1.00  0.00    -0.256 C  
HETATM   18  O   UNL     1      -9.676  14.533  67.051  1.00  0.00    -0.233 OA 
BRANCH  17  19
HETATM   19  O   UNL     1      -8.123  12.844  67.074  1.00  0.00    -0.146 OA 
BRANCH  19  20
HETATM   20  C   UNL     1      -7.769  12.916  68.461  1.00  0.00    -0.109 C  
HETATM   21  C   UNL     1      -7.064  11.651  68.902  1.00  0.00    -0.115 C  
ENDBRANCH  19  20
ENDBRANCH  17  19
ENDBRANCH  13  17
ENDBRANCH  11  13
ENDBRANCH  10  11
ENDBRANCH   9  10
ENDBRANCH   7   9
ENDBRANCH   6   7
BRANCH   6  22
HETATM   22  C   UNL     1      -9.562   6.002  66.623  1.00  0.00    -0.154 C  
HETATM   23  H   UNL     1      -8.944   4.038  64.850  1.00  0.00     0.000 H  
HETATM   24  S   UNL     1      -9.915   4.429  65.764  1.00  0.00    -0.236 SA 
ENDBRANCH   6  22
ENDBRANCH   4   6
ENDBRANCH   3   4
ENDBRANCH   2   3
TORSDOF 13
ENDMDL
MODEL      390
REMARK 921   NORMALIZED FREE ENERGY PREDICTED BY IDOCK:   -2.73 KCAL/MOL
REMARK 922        TOTAL FREE ENERGY PREDICTED BY IDOCK:   -5.41 KCAL/MOL
REMARK 923 INTER-LIGAND FREE ENERGY PREDICTED BY IDOCK:   -4.80 KCAL/MOL
REMARK 924 INTRA-LIGAND FREE ENERGY PREDICTED BY IDOCK:   -0.61 KCAL/MOL
REMARK 927      BINDING AFFINITY PREDICTED BY RF-SCORE:    0.00 PKD
ROOT
HETATM    1  C   UNL     1      -5.287  17.242  70.117  1.00  0.00    -0.226 C  
HETATM    2  C   UNL     1      -5.921  15.868  70.060  1.00  0.00    -0.156 C  
ENDROOT
BRANCH   2   3
HETATM    3  O   UNL     1      -6.479  15.632  68.759  1.00  0.00    -0.105 OA 
BRANCH   3   4
HETATM    4  C   UNL     1      -7.841  15.615  68.691  1.00  0.00    -0.152 C  
HETATM    5  O   UNL     1      -8.578  16.521  69.061  1.00  0.00    -0.246 OA 
BRANCH   4   6
HETATM    6  C   UNL     1      -8.308  14.286  68.068  1.00  0.00    -0.157 C  
BRANCH   6   7
HETATM    7  N   UNL     1      -8.420  14.434  66.591  1.00  0.00    -0.421 NA 
HETATM    8  H   UNL     1      -7.943  13.665  66.119  1.00  0.00     0.000 HD 
BRANCH   7   9
HETATM    9  C   UNL     1      -9.795  14.562  66.097  1.00  0.00    -0.318 C  
BRANCH   9  10
HETATM   10  C   UNL     1     -10.287  13.317  65.326  1.00  0.00    -0.312 C  
BRANCH  10  11
HETATM   11  N   UNL     1      -9.471  12.107  65.515  1.00  0.00    -0.422 NA 
HETATM   12  H   UNL     1      -8.930  12.174  66.378  1.00  0.00     0.000 HD 
BRANCH  11  13
HETATM   13  C   UNL     1     -10.246  10.832  65.482  1.00  0.00    -0.266 C  
BRANCH  13  14
HETATM   14  C   UNL     1      -9.471   9.666  64.831  1.00  0.00    -0.220 C  
HETATM   15  H   UNL     1      -7.123   9.086  63.611  1.00  0.00     0.000 H  
HETATM   16  S   UNL     1      -7.820  10.135  64.198  1.00  0.00    -0.120 SA 
ENDBRANCH  13  14
BRANCH  13  17
HETATM   17  C   UNL     1     -10.676  10.449  66.916  1.00  0.00    -0.207 C  
HETATM   18  O   UNL     1     -11.625  10.930  67.525  1.00  0.00    -0.526 OA 
BRANCH  17  19
HETATM   19  O   UNL     1      -9.848   9.481  67.410  1.00  0.00    -0.154 OA 
BRANCH  19  20
HETATM   20  C   UNL     1     -10.492   8.378  68.060  1.00  0.00    -0.184 C  
HETATM   21  C   UNL     1     -10.775   7.265  67.073  1.00  0.00    -0.406 C  
ENDBRANCH  19  20
ENDBRANCH  17  19
ENDBRANCH  13  17
ENDBRANCH  11  13
ENDBRANCH  10  11
ENDBRANCH   9  10
ENDBRANCH   7   9
ENDBRANCH   6   7
BRANCH   6  22
HETATM   22  C   UNL     1      -7.393  13.146  68.561  1.00  0.00    -0.111 C  
HETATM   23  H   UNL     1      -5.518  11.374  67.711  1.00  0.00     0.000 H  
HETATM   24  S   UNL     1      -6.342  12.401  67.266  1.00  0.00    -0.091 SA 
ENDBRANCH   6  22
ENDBRANCH   4   6
ENDBRANCH   3   4
ENDBRANCH   2   3
TORSDOF 13
ENDMDL
MODEL      391
REMARK 921   NORMALIZED FREE ENERGY PREDICTED BY IDOCK:   -2.73 KCAL/MOL
REMARK 922        TOTAL FREE ENERGY PREDICTED BY IDOCK:   -5.40 KCAL/MOL
REMARK 923 INTER-LIGAND FREE ENERGY PREDICTED BY IDOCK:   -4.57 KCAL/MOL
REMARK 924 INTRA-LIGAND FREE ENERGY PREDICTED BY IDOCK:   -0.84 KCAL/MOL
REMARK 927      BINDING AFFINITY PREDICTED BY RF-SCORE:    0.00 PKD
ROOT
HETATM    1  C   UNL     1      -5.742  14.775  69.049  1.00  0.00    -0.092 C  
HETATM    2  C   UNL     1      -6.478  14.286  67.821  1.00  0.00    -0.166 C  
ENDROOT
BRANCH   2   3
HETATM    3  O   UNL     1      -7.641  13.536  68.204  1.00  0.00    -0.112 OA 
BRANCH   3   4
HETATM    4  C   UNL     1      -7.844  12.369  67.529  1.00  0.00    -0.169 C  
HETATM    5  O   UNL     1      -6.960  11.658  67.065  1.00  0.00    -0.132 OA 
BRANCH   4   6
HETATM    6  C   UNL     1      -9.355  12.078  67.448  1.00  0.00    -0.178 C  
BRANCH   6   7
HETATM    7  N   UNL     1      -9.626  10.692  67.917  1.00  0.00    -0.160 NA 
HETATM    8  H   UNL     1      -8.889  10.060  67.603  1.00  0.00     0.000 HD 
BRANCH   7   9
HETATM    9  C   UNL     1      -9.823  10.569  69.365  1.00  0.00    -0.182 C  
BRANCH   9  10
HETATM   10  C   UNL     1      -8.796   9.638  70.046  1.00  0.00    -0.232 C  
BRANCH  10  11
HETATM   11  N   UNL     1      -9.373   8.456  70.707  1.00  0.00    -0.156 NA 
HETATM   12  H   UNL     1      -9.656   8.684  71.660  1.00  0.00     0.000 HD 
BRANCH  11  13
HETATM   13  C   UNL     1     -10.503   7.827  69.963  1.00  0.00    -0.230 C  
BRANCH  13  14
HETATM   14  C   UNL     1     -10.153   6.437  69.387  1.00  0.00    -0.173 C  
HETATM   15  H   UNL     1      -9.185   4.012  70.109  1.00  0.00     0.000 H  
HETATM   16  S   UNL     1      -9.501   5.263  70.628  1.00  0.00    -0.177 SA 
ENDBRANCH  13  14
BRANCH  13  17
HETATM   17  C   UNL     1     -11.738   7.723  70.885  1.00  0.00    -0.265 C  
HETATM   18  O   UNL     1     -12.630   6.888  70.786  1.00  0.00    -0.324 OA 
BRANCH  17  19
HETATM   19  O   UNL     1     -11.691   8.696  71.842  1.00  0.00    -0.305 OA 
BRANCH  19  20
HETATM   20  C   UNL     1     -12.958   9.161  72.327  1.00  0.00    -0.420 C  
HETATM   21  C   UNL     1     -13.248  10.557  71.817  1.00  0.00    -0.522 C  
ENDBRANCH  19  20
ENDBRANCH  17  19
ENDBRANCH  13  17
ENDBRANCH  11  13
ENDBRANCH  10  11
ENDBRANCH   9  10
ENDBRANCH   7   9
ENDBRANCH   6   7
BRANCH   6  22
HETATM   22  C   UNL     1     -10.125  13.197  68.178  1.00  0.00    -0.237 C  
HETATM   23  H   UNL     1     -12.530  14.460  68.245  1.00  0.00     0.000 H  
HETATM   24  S   UNL     1     -11.835  13.452  67.587  1.00  0.00    -0.335 SA 
ENDBRANCH   6  22
ENDBRANCH   4   6
ENDBRANCH   3   4
ENDBRANCH   2   3
TORSDOF 13
ENDMDL
MODEL      392
REMARK 921   NORMALIZED FREE ENERGY PREDICTED BY IDOCK:   -2.72 KCAL/MOL
REMARK 922        TOTAL FREE ENERGY PREDICTED BY IDOCK:   -5.38 KCAL/MOL
REMARK 923 INTER-LIGAND FREE ENERGY PREDICTED BY IDOCK:   -4.54 KCAL/MOL
REMARK 924 INTRA-LIGAND FREE ENERGY PREDICTED BY IDOCK:   -0.84 KCAL/MOL
REMARK 927      BINDING AFFINITY PREDICTED BY RF-SCORE:    0.00 PKD
ROOT
HETATM    1  C   UNL     1      -6.921   6.817  63.067  1.00  0.00    -0.052 C  
HETATM    2  C   UNL     1      -8.091   6.455  63.957  1.00  0.00    -0.043 C  
ENDROOT
BRANCH   2   3
HETATM    3  O   UNL     1      -8.738   5.270  63.471  1.00  0.00    -0.098 OA 
BRANCH   3   4
HETATM    4  C   UNL     1      -8.798   4.225  64.345  1.00  0.00    -0.144 C  
HETATM    5  O   UNL     1      -7.844   3.759  64.956  1.00  0.00    -0.084 OA 
BRANCH   4   6
HETATM    6  C   UNL     1     -10.253   3.729  64.452  1.00  0.00    -0.222 C  
BRANCH   6   7
HETATM    7  N   UNL     1     -11.068   4.719  65.207  1.00  0.00    -0.885 NA 
HETATM    8  H   UNL     1     -12.030   4.390  65.300  1.00  0.00     0.000 HD 
BRANCH   7   9
HETATM    9  C   UNL     1     -10.521   5.080  66.519  1.00  0.00    -0.276 C  
BRANCH   9  10
HETATM   10  C   UNL     1     -11.112   6.389  67.089  1.00  0.00    -0.341 C  
BRANCH  10  11
HETATM   11  N   UNL     1     -10.528   7.624  66.539  1.00  0.00    -0.486 NA 
HETATM   12  H   UNL     1     -10.954   7.849  65.640  1.00  0.00     0.000 HD 
BRANCH  11  13
HETATM   13  C   UNL     1     -10.596   8.797  67.459  1.00  0.00    -0.228 C  
BRANCH  13  14
HETATM   14  C   UNL     1      -9.833   8.576  68.783  1.00  0.00    -0.173 C  
HETATM   15  H   UNL     1     -10.158   8.670  71.471  1.00  0.00     0.000 H  
HETATM   16  S   UNL     1     -10.845   8.868  70.279  1.00  0.00    -0.241 SA 
ENDBRANCH  13  14
BRANCH  13  17
HETATM   17  C   UNL     1     -10.056  10.053  66.738  1.00  0.00    -0.226 C  
HETATM   18  O   UNL     1     -10.727  10.831  66.069  1.00  0.00    -0.196 OA 
BRANCH  17  19
HETATM   19  O   UNL     1      -8.716  10.182  66.963  1.00  0.00    -0.132 OA 
BRANCH  19  20
HETATM   20  C   UNL     1      -7.951  10.748  65.890  1.00  0.00    -0.140 C  
HETATM   21  C   UNL     1      -6.962   9.739  65.347  1.00  0.00    -0.105 C  
ENDBRANCH  19  20
ENDBRANCH  17  19
ENDBRANCH  13  17
ENDBRANCH  11  13
ENDBRANCH  10  11
ENDBRANCH   9  10
ENDBRANCH   7   9
ENDBRANCH   6   7
BRANCH   6  22
HETATM   22  C   UNL     1     -10.769   3.366  63.045  1.00  0.00    -0.205 C  
HETATM   23  H   UNL     1     -11.750   1.296  61.584  1.00  0.00     0.000 H  
HETATM   24  S   UNL     1     -11.284   1.624  62.851  1.00  0.00    -0.262 SA 
ENDBRANCH   6  22
ENDBRANCH   4   6
ENDBRANCH   3   4
ENDBRANCH   2   3
TORSDOF 13
ENDMDL
MODEL      393
REMARK 921   NORMALIZED FREE ENERGY PREDICTED BY IDOCK:   -2.71 KCAL/MOL
REMARK 922        TOTAL FREE ENERGY PREDICTED BY IDOCK:   -5.37 KCAL/MOL
REMARK 923 INTER-LIGAND FREE ENERGY PREDICTED BY IDOCK:   -4.45 KCAL/MOL
REMARK 924 INTRA-LIGAND FREE ENERGY PREDICTED BY IDOCK:   -0.91 KCAL/MOL
REMARK 927      BINDING AFFINITY PREDICTED BY RF-SCORE:    0.00 PKD
ROOT
HETATM    1  C   UNL     1      -6.576   7.435  71.652  1.00  0.00    -0.046 C  
HETATM    2  C   UNL     1      -7.516   7.169  70.497  1.00  0.00    -0.087 C  
ENDROOT
BRANCH   2   3
HETATM    3  O   UNL     1      -8.842   7.613  70.822  1.00  0.00    -0.141 OA 
BRANCH   3   4
HETATM    4  C   UNL     1      -9.810   6.653  70.810  1.00  0.00    -0.183 C  
HETATM    5  O   UNL     1      -9.660   5.494  71.177  1.00  0.00    -0.155 OA 
BRANCH   4   6
HETATM    6  C   UNL     1     -11.123   7.254  70.274  1.00  0.00    -0.266 C  
BRANCH   6   7
HETATM    7  N   UNL     1     -11.526   6.552  69.025  1.00  0.00    -0.615 NA 
HETATM    8  H   UNL     1     -12.389   6.951  68.655  1.00  0.00     0.000 HD 
BRANCH   7   9
HETATM    9  C   UNL     1     -10.490   6.521  67.987  1.00  0.00    -0.216 C  
BRANCH   9  10
HETATM   10  C   UNL     1     -10.562   7.720  67.015  1.00  0.00    -0.326 C  
BRANCH  10  11
HETATM   11  N   UNL     1      -9.968   8.967  67.523  1.00  0.00    -0.188 NA 
HETATM   12  H   UNL     1      -8.985   8.824  67.756  1.00  0.00     0.000 HD 
BRANCH  11  13
HETATM   13  C   UNL     1     -10.123  10.137  66.610  1.00  0.00    -0.223 C  
BRANCH  13  14
HETATM   14  C   UNL     1     -11.093  11.209  67.156  1.00  0.00    -0.287 C  
HETATM   15  H   UNL     1     -12.422  11.936  69.402  1.00  0.00     0.000 H  
HETATM   16  S   UNL     1     -11.548  10.972  68.911  1.00  0.00    -0.325 SA 
ENDBRANCH  13  14
BRANCH  13  17
HETATM   17  C   UNL     1      -8.740  10.766  66.332  1.00  0.00    -0.158 C  
HETATM   18  O   UNL     1      -7.733  10.148  66.005  1.00  0.00    -0.109 OA 
BRANCH  17  19
HETATM   19  O   UNL     1      -8.800  12.121  66.492  1.00  0.00    -0.204 OA 
BRANCH  19  20
HETATM   20  C   UNL     1      -7.667  12.728  67.126  1.00  0.00    -0.067 C  
HETATM   21  C   UNL     1      -8.002  13.140  68.544  1.00  0.00    -0.094 C  
ENDBRANCH  19  20
ENDBRANCH  17  19
ENDBRANCH  13  17
ENDBRANCH  11  13
ENDBRANCH  10  11
ENDBRANCH   9  10
ENDBRANCH   7   9
ENDBRANCH   6   7
BRANCH   6  22
HETATM   22  C   UNL     1     -12.173   7.268  71.405  1.00  0.00    -0.349 C  
HETATM   23  H   UNL     1     -13.491   8.940  73.092  1.00  0.00     0.000 H  
HETATM   24  S   UNL     1     -12.546   8.927  72.074  1.00  0.00    -0.412 SA 
ENDBRANCH   6  22
ENDBRANCH   4   6
ENDBRANCH   3   4
ENDBRANCH   2   3
TORSDOF 13
ENDMDL
MODEL      394
REMARK 921   NORMALIZED FREE ENERGY PREDICTED BY IDOCK:   -2.69 KCAL/MOL
REMARK 922        TOTAL FREE ENERGY PREDICTED BY IDOCK:   -5.33 KCAL/MOL
REMARK 923 INTER-LIGAND FREE ENERGY PREDICTED BY IDOCK:   -4.99 KCAL/MOL
REMARK 924 INTRA-LIGAND FREE ENERGY PREDICTED BY IDOCK:   -0.34 KCAL/MOL
REMARK 927      BINDING AFFINITY PREDICTED BY RF-SCORE:    0.00 PKD
ROOT
HETATM    1  C   UNL     1      -6.925  18.033  67.516  1.00  0.00    -0.201 C  
HETATM    2  C   UNL     1      -8.192  18.493  66.828  1.00  0.00    -0.257 C  
ENDROOT
BRANCH   2   3
HETATM    3  O   UNL     1      -9.345  17.981  67.514  1.00  0.00    -0.255 OA 
BRANCH   3   4
HETATM    4  C   UNL     1     -10.061  17.034  66.845  1.00  0.00    -0.298 C  
HETATM    5  O   UNL     1     -10.605  17.195  65.760  1.00  0.00    -0.405 OA 
BRANCH   4   6
HETATM    6  C   UNL     1     -10.070  15.726  67.660  1.00  0.00    -0.247 C  
BRANCH   6   7
HETATM    7  N   UNL     1     -10.107  14.558  66.738  1.00  0.00    -0.259 NA 
HETATM    8  H   UNL     1      -9.355  13.906  66.962  1.00  0.00     0.000 HD 
BRANCH   7   9
HETATM    9  C   UNL     1     -11.395  13.860  66.696  1.00  0.00    -0.331 C  
BRANCH   9  10
HETATM   10  C   UNL     1     -11.756  13.158  68.025  1.00  0.00    -0.355 C  
BRANCH  10  11
HETATM   11  N   UNL     1     -12.269  11.786  67.882  1.00  0.00    -0.437 NA 
HETATM   12  H   UNL     1     -12.272  11.507  66.901  1.00  0.00     0.000 HD 
BRANCH  11  13
HETATM   13  C   UNL     1     -11.552  10.773  68.711  1.00  0.00    -0.280 C  
BRANCH  13  14
HETATM   14  C   UNL     1     -10.063  11.117  68.936  1.00  0.00    -0.186 C  
HETATM   15  H   UNL     1      -7.671  11.164  67.666  1.00  0.00     0.000 H  
HETATM   16  S   UNL     1      -9.011  10.855  67.464  1.00  0.00    -0.137 SA 
ENDBRANCH  13  14
BRANCH  13  17
HETATM   17  C   UNL     1     -12.270  10.610  70.069  1.00  0.00    -0.298 C  
HETATM   18  O   UNL     1     -12.586  11.527  70.819  1.00  0.00    -0.338 OA 
BRANCH  17  19
HETATM   19  O   UNL     1     -12.517   9.289  70.313  1.00  0.00     0.187 OA 
BRANCH  19  20
HETATM   20  C   UNL     1     -11.580   8.624  71.170  1.00  0.00    -0.281 C  
HETATM   21  C   UNL     1     -10.989   7.412  70.482  1.00  0.00    -0.270 C  
ENDBRANCH  19  20
ENDBRANCH  17  19
ENDBRANCH  13  17
ENDBRANCH  11  13
ENDBRANCH  10  11
ENDBRANCH   9  10
ENDBRANCH   7   9
ENDBRANCH   6   7
BRANCH   6  22
HETATM   22  C   UNL     1      -8.904  15.750  68.669  1.00  0.00    -0.199 C  
HETATM   23  H   UNL     1      -6.649  14.411  69.379  1.00  0.00     0.000 H  
HETATM   24  S   UNL     1      -7.700  14.390  68.470  1.00  0.00    -0.141 SA 
ENDBRANCH   6  22
ENDBRANCH   4   6
ENDBRANCH   3   4
ENDBRANCH   2   3
TORSDOF 13
ENDMDL
MODEL      395
REMARK 921   NORMALIZED FREE ENERGY PREDICTED BY IDOCK:   -2.68 KCAL/MOL
REMARK 922        TOTAL FREE ENERGY PREDICTED BY IDOCK:   -5.31 KCAL/MOL
REMARK 923 INTER-LIGAND FREE ENERGY PREDICTED BY IDOCK:   -4.38 KCAL/MOL
REMARK 924 INTRA-LIGAND FREE ENERGY PREDICTED BY IDOCK:   -0.93 KCAL/MOL
REMARK 927      BINDING AFFINITY PREDICTED BY RF-SCORE:    0.00 PKD
ROOT
HETATM    1  C   UNL     1     -12.079  11.871  70.868  1.00  0.00    -0.237 C  
HETATM    2  C   UNL     1     -11.705  13.084  70.043  1.00  0.00    -0.215 C  
ENDROOT
BRANCH   2   3
HETATM    3  O   UNL     1     -11.737  12.763  68.644  1.00  0.00    -0.288 OA 
BRANCH   3   4
HETATM    4  C   UNL     1     -10.588  13.010  67.952  1.00  0.00    -0.229 C  
HETATM    5  O   UNL     1      -9.910  14.025  68.049  1.00  0.00    -0.216 OA 
BRANCH   4   6
HETATM    6  C   UNL     1     -10.272  11.811  67.038  1.00  0.00    -0.214 C  
BRANCH   6   7
HETATM    7  N   UNL     1     -11.253  10.719  67.283  1.00  0.00    -0.374 NA 
HETATM    8  H   UNL     1     -11.627  10.373  66.399  1.00  0.00     0.000 HD 
BRANCH   7   9
HETATM    9  C   UNL     1     -10.736   9.609  68.089  1.00  0.00    -0.217 C  
BRANCH   9  10
HETATM   10  C   UNL     1      -9.221   9.714  68.376  1.00  0.00    -0.133 C  
BRANCH  10  11
HETATM   11  N   UNL     1      -8.766   8.995  69.577  1.00  0.00    -0.139 NA 
HETATM   12  H   UNL     1      -8.749   9.621  70.383  1.00  0.00     0.000 HD 
BRANCH  11  13
HETATM   13  C   UNL     1      -9.551   7.764  69.889  1.00  0.00    -0.164 C  
BRANCH  13  14
HETATM   14  C   UNL     1      -8.876   6.469  69.387  1.00  0.00    -0.133 C  
HETATM   15  H   UNL     1      -9.374   4.221  67.961  1.00  0.00     0.000 H  
HETATM   16  S   UNL     1      -9.982   5.386  68.413  1.00  0.00    -0.161 SA 
ENDBRANCH  13  14
BRANCH  13  17
HETATM   17  C   UNL     1      -9.798   7.678  71.412  1.00  0.00    -0.174 C  
HETATM   18  O   UNL     1      -8.955   7.382  72.252  1.00  0.00    -0.125 OA 
BRANCH  17  19
HETATM   19  O   UNL     1     -11.096   7.990  71.695  1.00  0.00    -0.240 OA 
BRANCH  19  20
HETATM   20  C   UNL     1     -12.085   7.092  71.175  1.00  0.00    -0.369 C  
HETATM   21  C   UNL     1     -13.466   7.709  71.255  1.00  0.00    -0.283 C  
ENDBRANCH  19  20
ENDBRANCH  17  19
ENDBRANCH  13  17
ENDBRANCH  11  13
ENDBRANCH  10  11
ENDBRANCH   9  10
ENDBRANCH   7   9
ENDBRANCH   6   7
BRANCH   6  22
HETATM   22  C   UNL     1     -10.161  12.301  65.579  1.00  0.00    -0.269 C  
HETATM   23  H   UNL     1     -11.434  12.212  63.181  1.00  0.00     0.000 H  
HETATM   24  S   UNL     1     -11.533  11.771  64.495  1.00  0.00    -0.202 SA 
ENDBRANCH   6  22
ENDBRANCH   4   6
ENDBRANCH   3   4
ENDBRANCH   2   3
TORSDOF 13
ENDMDL
MODEL      396
REMARK 921   NORMALIZED FREE ENERGY PREDICTED BY IDOCK:   -2.66 KCAL/MOL
REMARK 922        TOTAL FREE ENERGY PREDICTED BY IDOCK:   -5.28 KCAL/MOL
REMARK 923 INTER-LIGAND FREE ENERGY PREDICTED BY IDOCK:   -5.26 KCAL/MOL
REMARK 924 INTRA-LIGAND FREE ENERGY PREDICTED BY IDOCK:   -0.03 KCAL/MOL
REMARK 927      BINDING AFFINITY PREDICTED BY RF-SCORE:    0.00 PKD
ROOT
HETATM    1  C   UNL     1     -12.612  11.857  63.445  1.00  0.00    -0.555 C  
HETATM    2  C   UNL     1     -11.154  12.174  63.704  1.00  0.00    -0.457 C  
ENDROOT
BRANCH   2   3
HETATM    3  O   UNL     1     -11.016  13.517  64.191  1.00  0.00    -0.367 OA 
BRANCH   3   4
HETATM    4  C   UNL     1     -11.890  13.886  65.171  1.00  0.00    -0.362 C  
HETATM    5  O   UNL     1     -12.979  14.414  64.984  1.00  0.00    -0.643 OA 
BRANCH   4   6
HETATM    6  C   UNL     1     -11.298  13.527  66.547  1.00  0.00    -0.319 C  
BRANCH   6   7
HETATM    7  N   UNL     1      -9.850  13.211  66.406  1.00  0.00    -0.274 NA 
HETATM    8  H   UNL     1      -9.286  13.908  66.894  1.00  0.00     0.000 HD 
BRANCH   7   9
HETATM    9  C   UNL     1      -9.480  11.859  66.837  1.00  0.00    -0.199 C  
BRANCH   9  10
HETATM   10  C   UNL     1     -10.005  11.500  68.244  1.00  0.00    -0.202 C  
BRANCH  10  11
HETATM   11  N   UNL     1      -9.891  10.077  68.604  1.00  0.00    -0.155 NA 
HETATM   12  H   UNL     1      -9.489   9.545  67.831  1.00  0.00     0.000 HD 
BRANCH  11  13
HETATM   13  C   UNL     1      -9.132   9.821  69.864  1.00  0.00    -0.229 C  
BRANCH  13  14
HETATM   14  C   UNL     1      -9.339   8.395  70.419  1.00  0.00    -0.161 C  
HETATM   15  H   UNL     1      -9.238   6.967  72.719  1.00  0.00     0.000 H  
HETATM   16  S   UNL     1      -9.052   8.251  72.219  1.00  0.00    -0.241 SA 
ENDBRANCH  13  14
BRANCH  13  17
HETATM   17  C   UNL     1      -7.629  10.085  69.628  1.00  0.00    -0.147 C  
HETATM   18  O   UNL     1      -7.020  11.089  69.981  1.00  0.00    -0.121 OA 
BRANCH  17  19
HETATM   19  O   UNL     1      -7.064   9.029  68.972  1.00  0.00    -0.062 OA 
BRANCH  19  20
HETATM   20  C   UNL     1      -6.980   9.147  67.546  1.00  0.00    -0.078 C  
HETATM   21  C   UNL     1      -6.189   7.998  66.958  1.00  0.00    -0.055 C  
ENDBRANCH  19  20
ENDBRANCH  17  19
ENDBRANCH  13  17
ENDBRANCH  11  13
ENDBRANCH  10  11
ENDBRANCH   9  10
ENDBRANCH   7   9
ENDBRANCH   6   7
BRANCH   6  22
HETATM   22  C   UNL     1     -11.648  14.641  67.555  1.00  0.00    -0.375 C  
HETATM   23  H   UNL     1     -10.988  17.177  68.270  1.00  0.00     0.000 H  
HETATM   24  S   UNL     1     -10.673  16.173  67.363  1.00  0.00    -0.255 SA 
ENDBRANCH   6  22
ENDBRANCH   4   6
ENDBRANCH   3   4
ENDBRANCH   2   3
TORSDOF 13
ENDMDL
MODEL      397
REMARK 921   NORMALIZED FREE ENERGY PREDICTED BY IDOCK:   -2.66 KCAL/MOL
REMARK 922        TOTAL FREE ENERGY PREDICTED BY IDOCK:   -5.27 KCAL/MOL
REMARK 923 INTER-LIGAND FREE ENERGY PREDICTED BY IDOCK:   -4.83 KCAL/MOL
REMARK 924 INTRA-LIGAND FREE ENERGY PREDICTED BY IDOCK:   -0.45 KCAL/MOL
REMARK 927      BINDING AFFINITY PREDICTED BY RF-SCORE:    0.00 PKD
ROOT
HETATM    1  C   UNL     1     -12.278  12.033  64.019  1.00  0.00    -0.505 C  
HETATM    2  C   UNL     1     -10.908  11.493  63.669  1.00  0.00    -0.415 C  
ENDROOT
BRANCH   2   3
HETATM    3  O   UNL     1     -10.187  11.154  64.863  1.00  0.00    -0.265 OA 
BRANCH   3   4
HETATM    4  C   UNL     1      -8.953  10.604  64.676  1.00  0.00    -0.197 C  
HETATM    5  O   UNL     1      -8.381  10.505  63.598  1.00  0.00    -0.166 OA 
BRANCH   4   6
HETATM    6  C   UNL     1      -8.388  10.139  66.031  1.00  0.00    -0.130 C  
BRANCH   6   7
HETATM    7  N   UNL     1      -9.490  10.030  67.026  1.00  0.00    -0.160 NA 
HETATM    8  H   UNL     1      -9.685   9.051  67.234  1.00  0.00     0.000 HD 
BRANCH   7   9
HETATM    9  C   UNL     1      -9.265  10.782  68.265  1.00  0.00    -0.157 C  
BRANCH   9  10
HETATM   10  C   UNL     1      -8.116  10.212  69.126  1.00  0.00    -0.134 C  
BRANCH  10  11
HETATM   11  N   UNL     1      -8.422  10.081  70.560  1.00  0.00    -0.368 NA 
HETATM   12  H   UNL     1      -9.082  10.802  70.851  1.00  0.00     0.000 HD 
BRANCH  11  13
HETATM   13  C   UNL     1      -8.916   8.730  70.960  1.00  0.00    -0.217 C  
BRANCH  13  14
HETATM   14  C   UNL     1      -8.434   8.298  72.363  1.00  0.00    -0.190 C  
HETATM   15  H   UNL     1      -9.264   7.017  74.601  1.00  0.00     0.000 H  
HETATM   16  S   UNL     1      -9.697   7.406  73.338  1.00  0.00    -0.294 SA 
ENDBRANCH  13  14
BRANCH  13  17
HETATM   17  C   UNL     1     -10.459   8.701  70.897  1.00  0.00    -0.214 C  
HETATM   18  O   UNL     1     -11.130   7.856  70.315  1.00  0.00    -0.257 OA 
BRANCH  17  19
HETATM   19  O   UNL     1     -10.976   9.754  71.596  1.00  0.00    -0.240 OA 
BRANCH  19  20
HETATM   20  C   UNL     1     -12.378   9.995  71.421  1.00  0.00    -0.415 C  
HETATM   21  C   UNL     1     -12.610  11.141  70.460  1.00  0.00    -0.360 C  
ENDBRANCH  19  20
ENDBRANCH  17  19
ENDBRANCH  13  17
ENDBRANCH  11  13
ENDBRANCH  10  11
ENDBRANCH   9  10
ENDBRANCH   7   9
ENDBRANCH   6   7
BRANCH   6  22
HETATM   22  C   UNL     1      -7.547   8.863  65.818  1.00  0.00    -0.090 C  
HETATM   23  H   UNL     1      -4.983   7.990  65.607  1.00  0.00     0.000 H  
HETATM   24  S   UNL     1      -5.741   9.139  65.799  1.00  0.00    -0.050 SA 
ENDBRANCH   6  22
ENDBRANCH   4   6
ENDBRANCH   3   4
ENDBRANCH   2   3
TORSDOF 13
ENDMDL
MODEL      398
REMARK 921   NORMALIZED FREE ENERGY PREDICTED BY IDOCK:   -2.66 KCAL/MOL
REMARK 922        TOTAL FREE ENERGY PREDICTED BY IDOCK:   -5.27 KCAL/MOL
REMARK 923 INTER-LIGAND FREE ENERGY PREDICTED BY IDOCK:   -4.40 KCAL/MOL
REMARK 924 INTRA-LIGAND FREE ENERGY PREDICTED BY IDOCK:   -0.88 KCAL/MOL
REMARK 927      BINDING AFFINITY PREDICTED BY RF-SCORE:    0.00 PKD
ROOT
HETATM    1  C   UNL     1     -10.799   6.512  68.032  1.00  0.00    -0.372 C  
HETATM    2  C   UNL     1     -11.212   6.052  69.414  1.00  0.00    -0.327 C  
ENDROOT
BRANCH   2   3
HETATM    3  O   UNL     1     -10.090   6.097  70.308  1.00  0.00    -0.177 OA 
BRANCH   3   4
HETATM    4  C   UNL     1     -10.332   6.640  71.536  1.00  0.00    -0.209 C  
HETATM    5  O   UNL     1     -10.975   6.106  72.431  1.00  0.00    -0.232 OA 
BRANCH   4   6
HETATM    6  C   UNL     1      -9.661   8.024  71.625  1.00  0.00    -0.171 C  
BRANCH   6   7
HETATM    7  N   UNL     1     -10.685   9.061  71.933  1.00  0.00    -0.355 NA 
HETATM    8  H   UNL     1     -10.243   9.973  72.050  1.00  0.00     0.000 HD 
BRANCH   7   9
HETATM    9  C   UNL     1     -11.777   9.143  70.957  1.00  0.00    -0.301 C  
BRANCH   9  10
HETATM   10  C   UNL     1     -11.377   9.864  69.651  1.00  0.00    -0.165 C  
BRANCH  10  11
HETATM   11  N   UNL     1     -10.195  10.734  69.759  1.00  0.00    -0.448 NA 
HETATM   12  H   UNL     1      -9.510  10.327  70.397  1.00  0.00     0.000 HD 
BRANCH  11  13
HETATM   13  C   UNL     1      -9.557  11.068  68.452  1.00  0.00    -0.181 C  
BRANCH  13  14
HETATM   14  C   UNL     1     -10.033  10.162  67.295  1.00  0.00    -0.195 C  
HETATM   15  H   UNL     1      -9.175   9.012  64.996  1.00  0.00     0.000 H  
HETATM   16  S   UNL     1      -8.747   9.828  66.038  1.00  0.00    -0.145 SA 
ENDBRANCH  13  14
BRANCH  13  17
HETATM   17  C   UNL     1      -9.821  12.550  68.108  1.00  0.00    -0.221 C  
HETATM   18  O   UNL     1     -10.880  13.142  68.288  1.00  0.00    -0.236 OA 
BRANCH  17  19
HETATM   19  O   UNL     1      -8.697  13.117  67.581  1.00  0.00    -0.168 OA 
BRANCH  19  20
HETATM   20  C   UNL     1      -7.493  12.946  68.340  1.00  0.00    -0.124 C  
HETATM   21  C   UNL     1      -6.336  12.574  67.437  1.00  0.00    -0.157 C  
ENDBRANCH  19  20
ENDBRANCH  17  19
ENDBRANCH  13  17
ENDBRANCH  11  13
ENDBRANCH  10  11
ENDBRANCH   9  10
ENDBRANCH   7   9
ENDBRANCH   6   7
BRANCH   6  22
HETATM   22  C   UNL     1      -8.468   7.948  72.600  1.00  0.00    -0.150 C  
HETATM   23  H   UNL     1      -5.923   7.024  72.812  1.00  0.00     0.000 H  
HETATM   24  S   UNL     1      -6.998   7.093  71.934  1.00  0.00    -0.060 SA 
ENDBRANCH   6  22
ENDBRANCH   4   6
ENDBRANCH   3   4
ENDBRANCH   2   3
TORSDOF 13
ENDMDL
MODEL      399
REMARK 921   NORMALIZED FREE ENERGY PREDICTED BY IDOCK:   -2.65 KCAL/MOL
REMARK 922        TOTAL FREE ENERGY PREDICTED BY IDOCK:   -5.25 KCAL/MOL
REMARK 923 INTER-LIGAND FREE ENERGY PREDICTED BY IDOCK:   -4.70 KCAL/MOL
REMARK 924 INTRA-LIGAND FREE ENERGY PREDICTED BY IDOCK:   -0.55 KCAL/MOL
REMARK 927      BINDING AFFINITY PREDICTED BY RF-SCORE:    0.00 PKD
ROOT
HETATM    1  C   UNL     1      -8.195   3.656  67.587  1.00  0.00    -0.091 C  
HETATM    2  C   UNL     1      -8.516   4.250  68.942  1.00  0.00    -0.082 C  
ENDROOT
BRANCH   2   3
HETATM    3  O   UNL     1      -9.098   5.553  68.789  1.00  0.00    -0.116 OA 
BRANCH   3   4
HETATM    4  C   UNL     1      -9.944   5.946  69.784  1.00  0.00    -0.181 C  
HETATM    5  O   UNL     1     -11.084   5.528  69.947  1.00  0.00    -0.260 OA 
BRANCH   4   6
HETATM    6  C   UNL     1      -9.240   6.987  70.675  1.00  0.00    -0.158 C  
BRANCH   6   7
HETATM    7  N   UNL     1      -9.770   8.346  70.376  1.00  0.00    -0.171 NA 
HETATM    8  H   UNL     1      -9.428   9.019  71.063  1.00  0.00     0.000 HD 
BRANCH   7   9
HETATM    9  C   UNL     1      -9.495   8.818  69.015  1.00  0.00    -0.160 C  
BRANCH   9  10
HETATM   10  C   UNL     1     -10.752   9.331  68.279  1.00  0.00    -0.145 C  
BRANCH  10  11
HETATM   11  N   UNL     1     -10.483  10.089  67.047  1.00  0.00    -0.245 NA 
HETATM   12  H   UNL     1     -11.283  10.038  66.415  1.00  0.00     0.000 HD 
BRANCH  11  13
HETATM   13  C   UNL     1     -10.089  11.511  67.275  1.00  0.00    -0.199 C  
BRANCH  13  14
HETATM   14  C   UNL     1      -8.814  11.919  66.503  1.00  0.00    -0.178 C  
HETATM   15  H   UNL     1      -6.405  13.110  66.845  1.00  0.00     0.000 H  
HETATM   16  S   UNL     1      -7.553  12.742  67.540  1.00  0.00    -0.159 SA 
ENDBRANCH  13  14
BRANCH  13  17
HETATM   17  C   UNL     1     -11.261  12.442  66.893  1.00  0.00    -0.305 C  
HETATM   18  O   UNL     1     -12.133  12.836  67.660  1.00  0.00    -0.330 OA 
BRANCH  17  19
HETATM   19  O   UNL     1     -11.182  12.777  65.572  1.00  0.00    -0.283 OA 
BRANCH  19  20
HETATM   20  C   UNL     1     -12.424  12.800  64.856  1.00  0.00    -0.497 C  
HETATM   21  C   UNL     1     -12.241  12.275  63.448  1.00  0.00    -0.630 C  
ENDBRANCH  19  20
ENDBRANCH  17  19
ENDBRANCH  13  17
ENDBRANCH  11  13
ENDBRANCH  10  11
ENDBRANCH   9  10
ENDBRANCH   7   9
ENDBRANCH   6   7
BRANCH   6  22
HETATM   22  C   UNL     1      -9.332   6.538  72.148  1.00  0.00    -0.142 C  
HETATM   23  H   UNL     1     -10.778   6.902  74.418  1.00  0.00     0.000 H  
HETATM   24  S   UNL     1     -10.695   7.306  73.091  1.00  0.00    -0.371 SA 
ENDBRANCH   6  22
ENDBRANCH   4   6
ENDBRANCH   3   4
ENDBRANCH   2   3
TORSDOF 13
ENDMDL
MODEL      400
REMARK 921   NORMALIZED FREE ENERGY PREDICTED BY IDOCK:   -2.64 KCAL/MOL
REMARK 922        TOTAL FREE ENERGY PREDICTED BY IDOCK:   -5.24 KCAL/MOL
REMARK 923 INTER-LIGAND FREE ENERGY PREDICTED BY IDOCK:   -4.54 KCAL/MOL
REMARK 924 INTRA-LIGAND FREE ENERGY PREDICTED BY IDOCK:   -0.70 KCAL/MOL
REMARK 927      BINDING AFFINITY PREDICTED BY RF-SCORE:    0.00 PKD
ROOT
HETATM    1  C   UNL     1      -8.914   2.499  69.099  1.00  0.00    -0.169 C  
HETATM    2  C   UNL     1      -9.469   3.171  67.861  1.00  0.00    -0.160 C  
ENDROOT
BRANCH   2   3
HETATM    3  O   UNL     1      -8.921   4.491  67.723  1.00  0.00    -0.108 OA 
BRANCH   3   4
HETATM    4  C   UNL     1      -9.737   5.516  68.102  1.00  0.00    -0.132 C  
HETATM    5  O   UNL     1     -10.836   5.758  67.621  1.00  0.00    -0.258 OA 
BRANCH   4   6
HETATM    6  C   UNL     1      -9.066   6.313  69.237  1.00  0.00    -0.134 C  
BRANCH   6   7
HETATM    7  N   UNL     1      -8.714   7.676  68.755  1.00  0.00    -0.129 NA 
HETATM    8  H   UNL     1      -8.680   7.695  67.735  1.00  0.00     0.000 HD 
BRANCH   7   9
HETATM    9  C   UNL     1      -9.588   8.741  69.256  1.00  0.00    -0.162 C  
BRANCH   9  10
HETATM   10  C   UNL     1      -9.588  10.004  68.366  1.00  0.00    -0.145 C  
BRANCH  10  11
HETATM   11  N   UNL     1      -9.673  11.279  69.098  1.00  0.00    -0.413 NA 
HETATM   12  H   UNL     1      -8.797  11.796  69.016  1.00  0.00     0.000 HD 
BRANCH  11  13
HETATM   13  C   UNL     1     -10.827  12.138  68.701  1.00  0.00    -0.235 C  
BRANCH  13  14
HETATM   14  C   UNL     1     -11.428  11.753  67.331  1.00  0.00    -0.305 C  
HETATM   15  H   UNL     1     -11.470  12.514  64.732  1.00  0.00     0.000 H  
HETATM   16  S   UNL     1     -10.928  12.860  65.964  1.00  0.00    -0.282 SA 
ENDBRANCH  13  14
BRANCH  13  17
HETATM   17  C   UNL     1     -11.916  12.082  69.794  1.00  0.00    -0.300 C  
HETATM   18  O   UNL     1     -12.458  11.062  70.205  1.00  0.00    -0.305 OA 
BRANCH  17  19
HETATM   19  O   UNL     1     -12.187  13.340  70.251  1.00  0.00    -0.340 OA 
BRANCH  19  20
HETATM   20  C   UNL     1     -11.300  14.374  69.804  1.00  0.00    -0.237 C  
HETATM   21  C   UNL     1     -11.512  15.644  70.601  1.00  0.00    -0.400 C  
ENDBRANCH  19  20
ENDBRANCH  17  19
ENDBRANCH  13  17
ENDBRANCH  11  13
ENDBRANCH  10  11
ENDBRANCH   9  10
ENDBRANCH   7   9
ENDBRANCH   6   7
BRANCH   6  22
HETATM   22  C   UNL     1      -9.958   6.254  70.494  1.00  0.00    -0.186 C  
HETATM   23  H   UNL     1      -9.847   6.040  73.200  1.00  0.00     0.000 H  
HETATM   24  S   UNL     1      -9.044   6.092  72.067  1.00  0.00    -0.142 SA 
ENDBRANCH   6  22
ENDBRANCH   4   6
ENDBRANCH   3   4
ENDBRANCH   2   3
TORSDOF 13
ENDMDL
MODEL      401
REMARK 921   NORMALIZED FREE ENERGY PREDICTED BY IDOCK:   -2.63 KCAL/MOL
REMARK 922        TOTAL FREE ENERGY PREDICTED BY IDOCK:   -5.22 KCAL/MOL
REMARK 923 INTER-LIGAND FREE ENERGY PREDICTED BY IDOCK:   -4.52 KCAL/MOL
REMARK 924 INTRA-LIGAND FREE ENERGY PREDICTED BY IDOCK:   -0.71 KCAL/MOL
REMARK 927      BINDING AFFINITY PREDICTED BY RF-SCORE:    0.00 PKD
ROOT
HETATM    1  C   UNL     1      -9.505  16.954  66.228  1.00  0.00    -0.298 C  
HETATM    2  C   UNL     1      -9.402  15.453  66.065  1.00  0.00    -0.329 C  
ENDROOT
BRANCH   2   3
HETATM    3  O   UNL     1     -10.481  14.802  66.753  1.00  0.00    -0.274 OA 
BRANCH   3   4
HETATM    4  C   UNL     1     -10.250  13.513  67.135  1.00  0.00    -0.247 C  
HETATM    5  O   UNL     1     -10.038  13.144  68.283  1.00  0.00    -0.237 OA 
BRANCH   4   6
HETATM    6  C   UNL     1     -10.309  12.595  65.899  1.00  0.00    -0.276 C  
BRANCH   6   7
HETATM    7  N   UNL     1      -9.543  11.346  66.164  1.00  0.00    -0.210 NA 
HETATM    8  H   UNL     1      -8.888  11.487  66.933  1.00  0.00     0.000 HD 
BRANCH   7   9
HETATM    9  C   UNL     1     -10.376  10.165  66.411  1.00  0.00    -0.188 C  
BRANCH   9  10
HETATM   10  C   UNL     1      -9.982   9.395  67.691  1.00  0.00    -0.190 C  
BRANCH  10  11
HETATM   11  N   UNL     1      -9.538   8.009  67.468  1.00  0.00    -0.148 NA 
HETATM   12  H   UNL     1      -8.524   7.940  67.564  1.00  0.00     0.000 HD 
BRANCH  11  13
HETATM   13  C   UNL     1     -10.214   7.001  68.338  1.00  0.00    -0.179 C  
BRANCH  13  14
HETATM   14  C   UNL     1     -10.878   5.858  67.539  1.00  0.00    -0.242 C  
HETATM   15  H   UNL     1     -10.307   3.858  65.804  1.00  0.00     0.000 H  
HETATM   16  S   UNL     1      -9.709   4.886  66.523  1.00  0.00    -0.210 SA 
ENDBRANCH  13  14
BRANCH  13  17
HETATM   17  C   UNL     1      -9.198   6.422  69.348  1.00  0.00    -0.143 C  
HETATM   18  O   UNL     1      -9.478   5.708  70.305  1.00  0.00    -0.154 OA 
BRANCH  17  19
HETATM   19  O   UNL     1      -7.933   6.812  69.016  1.00  0.00    -0.112 OA 
BRANCH  19  20
HETATM   20  C   UNL     1      -6.868   6.038  69.583  1.00  0.00    -0.065 C  
HETATM   21  C   UNL     1      -6.446   4.933  68.638  1.00  0.00    -0.037 C  
ENDBRANCH  19  20
ENDBRANCH  17  19
ENDBRANCH  13  17
ENDBRANCH  11  13
ENDBRANCH  10  11
ENDBRANCH   9  10
ENDBRANCH   7   9
ENDBRANCH   6   7
BRANCH   6  22
HETATM   22  C   UNL     1     -11.781  12.404  65.479  1.00  0.00    -0.407 C  
HETATM   23  H   UNL     1     -13.372  12.121  63.296  1.00  0.00     0.000 H  
HETATM   24  S   UNL     1     -12.047  12.292  63.675  1.00  0.00    -0.572 SA 
ENDBRANCH   6  22
ENDBRANCH   4   6
ENDBRANCH   3   4
ENDBRANCH   2   3
TORSDOF 13
ENDMDL
MODEL      402
REMARK 921   NORMALIZED FREE ENERGY PREDICTED BY IDOCK:   -2.63 KCAL/MOL
REMARK 922        TOTAL FREE ENERGY PREDICTED BY IDOCK:   -5.22 KCAL/MOL
REMARK 923 INTER-LIGAND FREE ENERGY PREDICTED BY IDOCK:   -4.36 KCAL/MOL
REMARK 924 INTRA-LIGAND FREE ENERGY PREDICTED BY IDOCK:   -0.86 KCAL/MOL
REMARK 927      BINDING AFFINITY PREDICTED BY RF-SCORE:    0.00 PKD
ROOT
HETATM    1  C   UNL     1      -9.760   7.138  68.779  1.00  0.00    -0.145 C  
HETATM    2  C   UNL     1      -8.471   6.710  68.110  1.00  0.00    -0.116 C  
ENDROOT
BRANCH   2   3
HETATM    3  O   UNL     1      -8.053   7.699  67.157  1.00  0.00    -0.114 OA 
BRANCH   3   4
HETATM    4  C   UNL     1      -8.307   7.408  65.849  1.00  0.00    -0.140 C  
HETATM    5  O   UNL     1      -8.248   6.291  65.350  1.00  0.00    -0.132 OA 
BRANCH   4   6
HETATM    6  C   UNL     1      -8.689   8.699  65.101  1.00  0.00    -0.144 C  
BRANCH   6   7
HETATM    7  N   UNL     1      -8.998   9.776  66.080  1.00  0.00    -0.147 NA 
HETATM    8  H   UNL     1      -8.268   9.830  66.791  1.00  0.00     0.000 HD 
BRANCH   7   9
HETATM    9  C   UNL     1      -9.226  11.095  65.480  1.00  0.00    -0.216 C  
BRANCH   9  10
HETATM   10  C   UNL     1     -10.718  11.398  65.216  1.00  0.00    -0.265 C  
BRANCH  10  11
HETATM   11  N   UNL     1     -11.145  12.761  65.572  1.00  0.00    -0.280 NA 
HETATM   12  H   UNL     1     -12.135  12.771  65.819  1.00  0.00     0.000 HD 
BRANCH  11  13
HETATM   13  C   UNL     1     -10.332  13.398  66.650  1.00  0.00    -0.269 C  
BRANCH  13  14
HETATM   14  C   UNL     1     -10.166  14.922  66.466  1.00  0.00    -0.275 C  
HETATM   15  H   UNL     1     -10.772  16.942  64.767  1.00  0.00     0.000 H  
HETATM   16  S   UNL     1     -10.922  15.570  64.933  1.00  0.00    -0.386 SA 
ENDBRANCH  13  14
BRANCH  13  17
HETATM   17  C   UNL     1     -10.967  13.095  68.026  1.00  0.00    -0.247 C  
HETATM   18  O   UNL     1     -10.757  12.092  68.699  1.00  0.00    -0.223 OA 
BRANCH  17  19
HETATM   19  O   UNL     1     -11.795  14.116  68.395  1.00  0.00    -0.330 OA 
BRANCH  19  20
HETATM   20  C   UNL     1     -12.206  14.126  69.768  1.00  0.00    -0.344 C  
HETATM   21  C   UNL     1     -12.444  15.542  70.248  1.00  0.00    -0.403 C  
ENDBRANCH  19  20
ENDBRANCH  17  19
ENDBRANCH  13  17
ENDBRANCH  11  13
ENDBRANCH  10  11
ENDBRANCH   9  10
ENDBRANCH   7   9
ENDBRANCH   6   7
BRANCH   6  22
HETATM   22  C   UNL     1      -7.595   9.027  64.064  1.00  0.00    -0.118 C  
HETATM   23  H   UNL     1      -4.934   9.521  63.832  1.00  0.00     0.000 H  
HETATM   24  S   UNL     1      -5.920   9.226  64.765  1.00  0.00    -0.067 SA 
ENDBRANCH   6  22
ENDBRANCH   4   6
ENDBRANCH   3   4
ENDBRANCH   2   3
TORSDOF 13
ENDMDL
MODEL      403
REMARK 921   NORMALIZED FREE ENERGY PREDICTED BY IDOCK:   -2.63 KCAL/MOL
REMARK 922        TOTAL FREE ENERGY PREDICTED BY IDOCK:   -5.22 KCAL/MOL
REMARK 923 INTER-LIGAND FREE ENERGY PREDICTED BY IDOCK:   -4.45 KCAL/MOL
REMARK 924 INTRA-LIGAND FREE ENERGY PREDICTED BY IDOCK:   -0.77 KCAL/MOL
REMARK 927      BINDING AFFINITY PREDICTED BY RF-SCORE:    0.00 PKD
ROOT
HETATM    1  C   UNL     1      -7.023  15.588  69.498  1.00  0.00    -0.190 C  
HETATM    2  C   UNL     1      -8.104  15.496  68.442  1.00  0.00    -0.136 C  
ENDROOT
BRANCH   2   3
HETATM    3  O   UNL     1      -9.321  16.085  68.923  1.00  0.00    -0.206 OA 
BRANCH   3   4
HETATM    4  C   UNL     1     -10.285  15.209  69.328  1.00  0.00    -0.251 C  
HETATM    5  O   UNL     1     -10.858  15.240  70.410  1.00  0.00    -0.286 OA 
BRANCH   4   6
HETATM    6  C   UNL     1     -10.547  14.182  68.210  1.00  0.00    -0.251 C  
BRANCH   6   7
HETATM    7  N   UNL     1     -10.616  12.813  68.790  1.00  0.00    -0.357 NA 
HETATM    8  H   UNL     1     -10.865  12.858  69.778  1.00  0.00     0.000 HD 
BRANCH   7   9
HETATM    9  C   UNL     1     -11.512  11.897  68.077  1.00  0.00    -0.323 C  
BRANCH   9  10
HETATM   10  C   UNL     1     -10.765  10.853  67.218  1.00  0.00    -0.268 C  
BRANCH  10  11
HETATM   11  N   UNL     1     -10.041  11.407  66.061  1.00  0.00    -0.225 NA 
HETATM   12  H   UNL     1      -9.308  12.046  66.371  1.00  0.00     0.000 HD 
BRANCH  11  13
HETATM   13  C   UNL     1      -9.479  10.376  65.139  1.00  0.00    -0.249 C  
BRANCH  13  14
HETATM   14  C   UNL     1      -9.313  10.884  63.690  1.00  0.00    -0.262 C  
HETATM   15  H   UNL     1      -8.807  10.019  61.173  1.00  0.00     0.000 H  
HETATM   16  S   UNL     1      -8.957   9.562  62.477  1.00  0.00    -0.214 SA 
ENDBRANCH  13  14
BRANCH  13  17
HETATM   17  C   UNL     1      -8.123   9.875  65.684  1.00  0.00    -0.128 C  
HETATM   18  O   UNL     1      -7.669   8.748  65.529  1.00  0.00    -0.088 OA 
BRANCH  17  19
HETATM   19  O   UNL     1      -7.491  10.879  66.362  1.00  0.00    -0.139 OA 
BRANCH  19  20
HETATM   20  C   UNL     1      -6.085  11.011  66.118  1.00  0.00    -0.119 C  
HETATM   21  C   UNL     1      -5.435  11.872  67.181  1.00  0.00    -0.128 C  
ENDBRANCH  19  20
ENDBRANCH  17  19
ENDBRANCH  13  17
ENDBRANCH  11  13
ENDBRANCH  10  11
ENDBRANCH   9  10
ENDBRANCH   7   9
ENDBRANCH   6   7
BRANCH   6  22
HETATM   22  C   UNL     1     -11.776  14.627  67.391  1.00  0.00    -0.390 C  
HETATM   23  H   UNL     1     -12.559  15.272  64.871  1.00  0.00     0.000 H  
HETATM   24  S   UNL     1     -11.453  14.870  65.609  1.00  0.00    -0.241 SA 
ENDBRANCH   6  22
ENDBRANCH   4   6
ENDBRANCH   3   4
ENDBRANCH   2   3
TORSDOF 13
ENDMDL
MODEL      404
REMARK 921   NORMALIZED FREE ENERGY PREDICTED BY IDOCK:   -2.62 KCAL/MOL
REMARK 922        TOTAL FREE ENERGY PREDICTED BY IDOCK:   -5.21 KCAL/MOL
REMARK 923 INTER-LIGAND FREE ENERGY PREDICTED BY IDOCK:   -4.64 KCAL/MOL
REMARK 924 INTRA-LIGAND FREE ENERGY PREDICTED BY IDOCK:   -0.57 KCAL/MOL
REMARK 927      BINDING AFFINITY PREDICTED BY RF-SCORE:    0.00 PKD
ROOT
HETATM    1  C   UNL     1     -12.743  10.802  70.991  1.00  0.00    -0.513 C  
HETATM    2  C   UNL     1     -12.239   9.582  71.732  1.00  0.00    -0.387 C  
ENDROOT
BRANCH   2   3
HETATM    3  O   UNL     1     -11.310   8.853  70.916  1.00  0.00    -0.264 OA 
BRANCH   3   4
HETATM    4  C   UNL     1     -11.484   7.501  70.882  1.00  0.00    -0.281 C  
HETATM    5  O   UNL     1     -12.534   6.930  70.614  1.00  0.00    -0.321 OA 
BRANCH   4   6
HETATM    6  C   UNL     1     -10.153   6.803  71.223  1.00  0.00    -0.187 C  
BRANCH   6   7
HETATM    7  N   UNL     1      -9.020   7.561  70.625  1.00  0.00    -0.153 NA 
HETATM    8  H   UNL     1      -8.143   7.307  71.081  1.00  0.00     0.000 HD 
BRANCH   7   9
HETATM    9  C   UNL     1      -8.899   7.423  69.170  1.00  0.00    -0.136 C  
BRANCH   9  10
HETATM   10  C   UNL     1      -8.668   8.767  68.445  1.00  0.00    -0.135 C  
BRANCH  10  11
HETATM   11  N   UNL     1      -8.481   8.661  66.989  1.00  0.00    -0.109 NA 
HETATM   12  H   UNL     1      -9.138   7.989  66.592  1.00  0.00     0.000 HD 
BRANCH  11  13
HETATM   13  C   UNL     1      -8.565   9.963  66.263  1.00  0.00    -0.128 C  
BRANCH  13  14
HETATM   14  C   UNL     1      -9.994  10.302  65.785  1.00  0.00    -0.271 C  
HETATM   15  H   UNL     1     -11.352  11.296  63.663  1.00  0.00     0.000 H  
HETATM   16  S   UNL     1     -10.066  10.991  64.093  1.00  0.00    -0.372 SA 
ENDBRANCH  13  14
BRANCH  13  17
HETATM   17  C   UNL     1      -8.024  11.096  67.164  1.00  0.00    -0.139 C  
HETATM   18  O   UNL     1      -6.842  11.293  67.425  1.00  0.00    -0.083 OA 
BRANCH  17  19
HETATM   19  O   UNL     1      -9.057  11.860  67.626  1.00  0.00    -0.169 OA 
BRANCH  19  20
HETATM   20  C   UNL     1      -8.794  13.265  67.744  1.00  0.00    -0.197 C  
HETATM   21  C   UNL     1      -9.544  14.042  66.683  1.00  0.00    -0.299 C  
ENDBRANCH  19  20
ENDBRANCH  17  19
ENDBRANCH  13  17
ENDBRANCH  11  13
ENDBRANCH  10  11
ENDBRANCH   9  10
ENDBRANCH   7   9
ENDBRANCH   6   7
BRANCH   6  22
HETATM   22  C   UNL     1     -10.077   6.572  72.746  1.00  0.00    -0.176 C  
HETATM   23  H   UNL     1     -10.948   4.914  74.714  1.00  0.00     0.000 H  
HETATM   24  S   UNL     1     -11.016   5.123  73.342  1.00  0.00    -0.318 SA 
ENDBRANCH   6  22
ENDBRANCH   4   6
ENDBRANCH   3   4
ENDBRANCH   2   3
TORSDOF 13
ENDMDL
MODEL      405
REMARK 921   NORMALIZED FREE ENERGY PREDICTED BY IDOCK:   -2.61 KCAL/MOL
REMARK 922        TOTAL FREE ENERGY PREDICTED BY IDOCK:   -5.19 KCAL/MOL
REMARK 923 INTER-LIGAND FREE ENERGY PREDICTED BY IDOCK:   -4.56 KCAL/MOL
REMARK 924 INTRA-LIGAND FREE ENERGY PREDICTED BY IDOCK:   -0.63 KCAL/MOL
REMARK 927      BINDING AFFINITY PREDICTED BY RF-SCORE:    0.00 PKD
ROOT
HETATM    1  C   UNL     1     -12.732  12.494  63.662  1.00  0.00    -0.398 C  
HETATM    2  C   UNL     1     -11.430  11.747  63.468  1.00  0.00    -0.394 C  
ENDROOT
BRANCH   2   3
HETATM    3  O   UNL     1     -10.795  11.516  64.735  1.00  0.00    -0.305 OA 
BRANCH   3   4
HETATM    4  C   UNL     1      -9.820  10.563  64.745  1.00  0.00    -0.323 C  
HETATM    5  O   UNL     1      -9.352  10.020  63.751  1.00  0.00    -0.267 OA 
BRANCH   4   6
HETATM    6  C   UNL     1      -9.391  10.282  66.198  1.00  0.00    -0.170 C  
BRANCH   6   7
HETATM    7  N   UNL     1      -9.176   8.822  66.386  1.00  0.00    -0.174 NA 
HETATM    8  H   UNL     1      -8.367   8.656  66.987  1.00  0.00     0.000 HD 
BRANCH   7   9
HETATM    9  C   UNL     1     -10.346   8.097  66.893  1.00  0.00    -0.331 C  
BRANCH   9  10
HETATM   10  C   UNL     1     -10.647   8.383  68.380  1.00  0.00    -0.105 C  
BRANCH  10  11
HETATM   11  N   UNL     1     -10.922   7.191  69.198  1.00  0.00    -0.414 NA 
HETATM   12  H   UNL     1     -11.377   6.470  68.637  1.00  0.00     0.000 HD 
BRANCH  11  13
HETATM   13  C   UNL     1      -9.723   6.632  69.891  1.00  0.00    -0.157 C  
BRANCH  13  14
HETATM   14  C   UNL     1      -8.583   7.661  70.056  1.00  0.00    -0.138 C  
HETATM   15  H   UNL     1      -5.973   7.856  70.756  1.00  0.00     0.000 H  
HETATM   16  S   UNL     1      -7.000   6.930  70.608  1.00  0.00    -0.064 SA 
ENDBRANCH  13  14
BRANCH  13  17
HETATM   17  C   UNL     1     -10.136   6.071  71.270  1.00  0.00    -0.192 C  
HETATM   18  O   UNL     1     -10.299   4.885  71.534  1.00  0.00    -0.200 OA 
BRANCH  17  19
HETATM   19  O   UNL     1     -10.283   7.091  72.166  1.00  0.00    -0.185 OA 
BRANCH  19  20
HETATM   20  C   UNL     1     -11.555   7.170  72.824  1.00  0.00    -0.140 C  
HETATM   21  C   UNL     1     -12.579   7.842  71.933  1.00  0.00    -0.348 C  
ENDBRANCH  19  20
ENDBRANCH  17  19
ENDBRANCH  13  17
ENDBRANCH  11  13
ENDBRANCH  10  11
ENDBRANCH   9  10
ENDBRANCH   7   9
ENDBRANCH   6   7
BRANCH   6  22
HETATM   22  C   UNL     1      -8.197  11.190  66.558  1.00  0.00    -0.167 C  
HETATM   23  H   UNL     1      -6.128  11.427  68.302  1.00  0.00     0.000 H  
HETATM   24  S   UNL     1      -7.204  10.610  67.977  1.00  0.00    -0.088 SA 
ENDBRANCH   6  22
ENDBRANCH   4   6
ENDBRANCH   3   4
ENDBRANCH   2   3
TORSDOF 13
ENDMDL
MODEL      406
REMARK 921   NORMALIZED FREE ENERGY PREDICTED BY IDOCK:   -2.61 KCAL/MOL
REMARK 922        TOTAL FREE ENERGY PREDICTED BY IDOCK:   -5.19 KCAL/MOL
REMARK 923 INTER-LIGAND FREE ENERGY PREDICTED BY IDOCK:   -4.54 KCAL/MOL
REMARK 924 INTRA-LIGAND FREE ENERGY PREDICTED BY IDOCK:   -0.66 KCAL/MOL
REMARK 927      BINDING AFFINITY PREDICTED BY RF-SCORE:    0.00 PKD
ROOT
HETATM    1  C   UNL     1      -9.255   2.383  67.854  1.00  0.00    -0.248 C  
HETATM    2  C   UNL     1      -8.954   2.879  66.456  1.00  0.00    -0.152 C  
ENDROOT
BRANCH   2   3
HETATM    3  O   UNL     1      -9.250   4.280  66.351  1.00  0.00    -0.130 OA 
BRANCH   3   4
HETATM    4  C   UNL     1      -8.196   5.087  66.036  1.00  0.00    -0.113 C  
HETATM    5  O   UNL     1      -7.023   4.849  66.293  1.00  0.00    -0.063 OA 
BRANCH   4   6
HETATM    6  C   UNL     1      -8.710   6.338  65.298  1.00  0.00     0.004 C  
BRANCH   6   7
HETATM    7  N   UNL     1      -9.725   7.035  66.135  1.00  0.00    -0.410 NA 
HETATM    8  H   UNL     1     -10.465   6.388  66.408  1.00  0.00     0.000 HD 
BRANCH   7   9
HETATM    9  C   UNL     1      -9.176   7.711  67.315  1.00  0.00    -0.131 C  
BRANCH   9  10
HETATM   10  C   UNL     1     -10.256   8.373  68.199  1.00  0.00    -0.208 C  
BRANCH  10  11
HETATM   11  N   UNL     1     -11.122   9.338  67.502  1.00  0.00    -0.408 NA 
HETATM   12  H   UNL     1     -12.002   8.897  67.234  1.00  0.00     0.000 HD 
BRANCH  11  13
HETATM   13  C   UNL     1     -11.378  10.595  68.265  1.00  0.00    -0.289 C  
BRANCH  13  14
HETATM   14  C   UNL     1     -10.962  10.500  69.749  1.00  0.00    -0.294 C  
HETATM   15  H   UNL     1     -11.991  10.190  72.236  1.00  0.00     0.000 H  
HETATM   16  S   UNL     1     -12.366  10.275  70.900  1.00  0.00    -0.404 SA 
ENDBRANCH  13  14
BRANCH  13  17
HETATM   17  C   UNL     1     -10.649  11.774  67.583  1.00  0.00    -0.205 C  
HETATM   18  O   UNL     1      -9.434  11.940  67.562  1.00  0.00    -0.171 OA 
BRANCH  17  19
HETATM   19  O   UNL     1     -11.555  12.607  66.993  1.00  0.00    -0.325 OA 
BRANCH  19  20
HETATM   20  C   UNL     1     -11.754  12.422  65.585  1.00  0.00    -0.414 C  
HETATM   21  C   UNL     1     -11.322  13.652  64.816  1.00  0.00    -0.365 C  
ENDBRANCH  19  20
ENDBRANCH  17  19
ENDBRANCH  13  17
ENDBRANCH  11  13
ENDBRANCH  10  11
ENDBRANCH   9  10
ENDBRANCH   7   9
ENDBRANCH   6   7
BRANCH   6  22
HETATM   22  C   UNL     1      -7.507   7.192  64.850  1.00  0.00    -0.095 C  
HETATM   23  H   UNL     1      -6.438   8.426  62.679  1.00  0.00     0.000 H  
HETATM   24  S   UNL     1      -7.521   7.657  63.083  1.00  0.00    -0.119 SA 
ENDBRANCH   6  22
ENDBRANCH   4   6
ENDBRANCH   3   4
ENDBRANCH   2   3
TORSDOF 13
ENDMDL
MODEL      407
REMARK 921   NORMALIZED FREE ENERGY PREDICTED BY IDOCK:   -2.61 KCAL/MOL
REMARK 922        TOTAL FREE ENERGY PREDICTED BY IDOCK:   -5.18 KCAL/MOL
REMARK 923 INTER-LIGAND FREE ENERGY PREDICTED BY IDOCK:   -4.82 KCAL/MOL
REMARK 924 INTRA-LIGAND FREE ENERGY PREDICTED BY IDOCK:   -0.36 KCAL/MOL
REMARK 927      BINDING AFFINITY PREDICTED BY RF-SCORE:    0.00 PKD
ROOT
HETATM    1  C   UNL     1      -5.580  19.941  65.548  1.00  0.00    -0.192 C  
HETATM    2  C   UNL     1      -6.950  20.534  65.298  1.00  0.00    -0.154 C  
ENDROOT
BRANCH   2   3
HETATM    3  O   UNL     1      -7.700  20.588  66.521  1.00  0.00    -0.230 OA 
BRANCH   3   4
HETATM    4  C   UNL     1      -8.904  19.949  66.508  1.00  0.00    -0.365 C  
HETATM    5  O   UNL     1      -9.943  20.407  66.047  1.00  0.00    -0.348 OA 
BRANCH   4   6
HETATM    6  C   UNL     1      -8.754  18.557  67.152  1.00  0.00    -0.270 C  
BRANCH   6   7
HETATM    7  N   UNL     1      -8.542  17.533  66.094  1.00  0.00    -0.488 NA 
HETATM    8  H   UNL     1      -7.861  16.838  66.402  1.00  0.00     0.000 HD 
BRANCH   7   9
HETATM    9  C   UNL     1      -9.769  16.876  65.631  1.00  0.00     0.037 C  
BRANCH   9  10
HETATM   10  C   UNL     1     -10.629  16.307  66.781  1.00  0.00    -0.257 C  
BRANCH  10  11
HETATM   11  N   UNL     1     -11.603  15.279  66.378  1.00  0.00    -0.090 NA 
HETATM   12  H   UNL     1     -11.699  15.259  65.362  1.00  0.00     0.000 HD 
BRANCH  11  13
HETATM   13  C   UNL     1     -11.307  13.913  66.902  1.00  0.00    -0.328 C  
BRANCH  13  14
HETATM   14  C   UNL     1     -11.150  12.856  65.787  1.00  0.00    -0.284 C  
HETATM   15  H   UNL     1     -11.517  12.490  63.128  1.00  0.00     0.000 H  
HETATM   16  S   UNL     1     -11.659  13.442  64.132  1.00  0.00    -0.387 SA 
ENDBRANCH  13  14
BRANCH  13  17
HETATM   17  C   UNL     1     -10.034  13.957  67.775  1.00  0.00    -0.241 C  
HETATM   18  O   UNL     1      -9.935  14.524  68.858  1.00  0.00    -0.228 OA 
BRANCH  17  19
HETATM   19  O   UNL     1      -9.027  13.260  67.171  1.00  0.00    -0.212 OA 
BRANCH  19  20
HETATM   20  C   UNL     1      -8.259  12.401  68.024  1.00  0.00    -0.168 C  
HETATM   21  C   UNL     1      -8.037  11.054  67.370  1.00  0.00    -0.122 C  
ENDBRANCH  19  20
ENDBRANCH  17  19
ENDBRANCH  13  17
ENDBRANCH  11  13
ENDBRANCH  10  11
ENDBRANCH   9  10
ENDBRANCH   7   9
ENDBRANCH   6   7
BRANCH   6  22
HETATM   22  C   UNL     1      -7.673  18.622  68.251  1.00  0.00    -0.298 C  
HETATM   23  H   UNL     1      -5.926  17.074  69.640  1.00  0.00     0.000 H  
HETATM   24  S   UNL     1      -6.900  17.016  68.651  1.00  0.00    -0.197 SA 
ENDBRANCH   6  22
ENDBRANCH   4   6
ENDBRANCH   3   4
ENDBRANCH   2   3
TORSDOF 13
ENDMDL
MODEL      408
REMARK 921   NORMALIZED FREE ENERGY PREDICTED BY IDOCK:   -2.60 KCAL/MOL
REMARK 922        TOTAL FREE ENERGY PREDICTED BY IDOCK:   -5.18 KCAL/MOL
REMARK 923 INTER-LIGAND FREE ENERGY PREDICTED BY IDOCK:   -4.45 KCAL/MOL
REMARK 924 INTRA-LIGAND FREE ENERGY PREDICTED BY IDOCK:   -0.72 KCAL/MOL
REMARK 927      BINDING AFFINITY PREDICTED BY RF-SCORE:    0.00 PKD
ROOT
HETATM    1  C   UNL     1      -6.566   5.476  67.133  1.00  0.00    -0.057 C  
HETATM    2  C   UNL     1      -7.101   6.697  67.849  1.00  0.00    -0.085 C  
ENDROOT
BRANCH   2   3
HETATM    3  O   UNL     1      -6.811   7.883  67.094  1.00  0.00    -0.069 OA 
BRANCH   3   4
HETATM    4  C   UNL     1      -7.846   8.759  66.945  1.00  0.00    -0.101 C  
HETATM    5  O   UNL     1      -8.046   9.742  67.648  1.00  0.00    -0.112 OA 
BRANCH   4   6
HETATM    6  C   UNL     1      -8.717   8.326  65.751  1.00  0.00    -0.166 C  
BRANCH   6   7
HETATM    7  N   UNL     1     -10.153   8.347  66.141  1.00  0.00    -0.444 NA 
HETATM    8  H   UNL     1     -10.747   8.349  65.311  1.00  0.00     0.000 HD 
BRANCH   7   9
HETATM    9  C   UNL     1     -10.550   7.269  67.052  1.00  0.00    -0.344 C  
BRANCH   9  10
HETATM   10  C   UNL     1     -10.853   7.758  68.485  1.00  0.00     0.062 C  
BRANCH  10  11
HETATM   11  N   UNL     1     -11.437   6.743  69.377  1.00  0.00    -0.598 NA 
HETATM   12  H   UNL     1     -10.970   5.845  69.248  1.00  0.00     0.000 HD 
BRANCH  11  13
HETATM   13  C   UNL     1     -11.447   7.125  70.819  1.00  0.00    -0.305 C  
BRANCH  13  14
HETATM   14  C   UNL     1     -12.870   7.231  71.411  1.00  0.00    -0.382 C  
HETATM   15  H   UNL     1     -14.721   9.045  72.197  1.00  0.00     0.000 H  
HETATM   16  S   UNL     1     -13.441   8.950  71.664  1.00  0.00    -0.369 SA 
ENDBRANCH  13  14
BRANCH  13  17
HETATM   17  C   UNL     1     -10.609   6.112  71.631  1.00  0.00    -0.230 C  
HETATM   18  O   UNL     1     -11.059   5.155  72.252  1.00  0.00    -0.198 OA 
BRANCH  17  19
HETATM   19  O   UNL     1      -9.283   6.428  71.549  1.00  0.00    -0.145 OA 
BRANCH  19  20
HETATM   20  C   UNL     1      -8.561   6.430  72.787  1.00  0.00    -0.125 C  
HETATM   21  C   UNL     1      -8.737   7.749  73.509  1.00  0.00    -0.296 C  
ENDBRANCH  19  20
ENDBRANCH  17  19
ENDBRANCH  13  17
ENDBRANCH  11  13
ENDBRANCH  10  11
ENDBRANCH   9  10
ENDBRANCH   7   9
ENDBRANCH   6   7
BRANCH   6  22
HETATM   22  C   UNL     1      -8.343   9.174  64.517  1.00  0.00    -0.168 C  
HETATM   23  H   UNL     1      -9.150  11.320  63.061  1.00  0.00     0.000 H  
HETATM   24  S   UNL     1      -9.486  10.556  64.171  1.00  0.00    -0.317 SA 
ENDBRANCH   6  22
ENDBRANCH   4   6
ENDBRANCH   3   4
ENDBRANCH   2   3
TORSDOF 13
ENDMDL
MODEL      409
REMARK 921   NORMALIZED FREE ENERGY PREDICTED BY IDOCK:   -2.60 KCAL/MOL
REMARK 922        TOTAL FREE ENERGY PREDICTED BY IDOCK:   -5.17 KCAL/MOL
REMARK 923 INTER-LIGAND FREE ENERGY PREDICTED BY IDOCK:   -4.51 KCAL/MOL
REMARK 924 INTRA-LIGAND FREE ENERGY PREDICTED BY IDOCK:   -0.65 KCAL/MOL
REMARK 927      BINDING AFFINITY PREDICTED BY RF-SCORE:    0.00 PKD
ROOT
HETATM    1  C   UNL     1      -7.665   6.011  68.847  1.00  0.00    -0.092 C  
HETATM    2  C   UNL     1      -8.825   6.920  69.193  1.00  0.00    -0.134 C  
ENDROOT
BRANCH   2   3
HETATM    3  O   UNL     1      -8.722   8.155  68.468  1.00  0.00    -0.133 OA 
BRANCH   3   4
HETATM    4  C   UNL     1      -9.868   8.889  68.381  1.00  0.00    -0.174 C  
HETATM    5  O   UNL     1     -10.998   8.461  68.580  1.00  0.00     0.008 OA 
BRANCH   4   6
HETATM    6  C   UNL     1      -9.520  10.342  68.003  1.00  0.00    -0.146 C  
BRANCH   6   7
HETATM    7  N   UNL     1      -9.750  11.235  69.171  1.00  0.00    -0.413 NA 
HETATM    8  H   UNL     1      -9.008  11.932  69.237  1.00  0.00     0.000 HD 
BRANCH   7   9
HETATM    9  C   UNL     1     -11.065  11.884  69.189  1.00  0.00    -0.228 C  
BRANCH   9  10
HETATM   10  C   UNL     1     -11.063  13.289  68.546  1.00  0.00    -0.265 C  
BRANCH  10  11
HETATM   11  N   UNL     1      -9.728  13.829  68.242  1.00  0.00    -0.228 NA 
HETATM   12  H   UNL     1      -9.038  13.078  68.209  1.00  0.00     0.000 HD 
BRANCH  11  13
HETATM   13  C   UNL     1      -9.667  14.649  66.996  1.00  0.00    -0.243 C  
BRANCH  13  14
HETATM   14  C   UNL     1     -10.981  14.620  66.185  1.00  0.00    -0.329 C  
HETATM   15  H   UNL     1     -12.076  13.577  63.937  1.00  0.00     0.000 H  
HETATM   16  S   UNL     1     -10.893  13.603  64.667  1.00  0.00    -0.406 SA 
ENDBRANCH  13  14
BRANCH  13  17
HETATM   17  C   UNL     1      -9.294  16.106  67.350  1.00  0.00    -0.217 C  
HETATM   18  O   UNL     1      -8.156  16.561  67.374  1.00  0.00    -0.143 OA 
BRANCH  17  19
HETATM   19  O   UNL     1     -10.422  16.824  67.625  1.00  0.00    -0.311 OA 
BRANCH  19  20
HETATM   20  C   UNL     1     -10.519  18.106  66.990  1.00  0.00    -0.370 C  
HETATM   21  C   UNL     1     -10.366  19.220  68.004  1.00  0.00    -0.506 C  
ENDBRANCH  19  20
ENDBRANCH  17  19
ENDBRANCH  13  17
ENDBRANCH  11  13
ENDBRANCH  10  11
ENDBRANCH   9  10
ENDBRANCH   7   9
ENDBRANCH   6   7
BRANCH   6  22
HETATM   22  C   UNL     1      -8.103  10.381  67.395  1.00  0.00    -0.107 C  
HETATM   23  H   UNL     1      -5.625  11.424  67.788  1.00  0.00     0.000 H  
HETATM   24  S   UNL     1      -6.902  11.388  68.334  1.00  0.00    -0.073 SA 
ENDBRANCH   6  22
ENDBRANCH   4   6
ENDBRANCH   3   4
ENDBRANCH   2   3
TORSDOF 13
ENDMDL
MODEL      410
REMARK 921   NORMALIZED FREE ENERGY PREDICTED BY IDOCK:   -2.60 KCAL/MOL
REMARK 922        TOTAL FREE ENERGY PREDICTED BY IDOCK:   -5.16 KCAL/MOL
REMARK 923 INTER-LIGAND FREE ENERGY PREDICTED BY IDOCK:   -4.46 KCAL/MOL
REMARK 924 INTRA-LIGAND FREE ENERGY PREDICTED BY IDOCK:   -0.70 KCAL/MOL
REMARK 927      BINDING AFFINITY PREDICTED BY RF-SCORE:    0.00 PKD
ROOT
HETATM    1  C   UNL     1     -11.078   6.501  67.271  1.00  0.00    -0.429 C  
HETATM    2  C   UNL     1     -10.813   5.742  68.555  1.00  0.00    -0.184 C  
ENDROOT
BRANCH   2   3
HETATM    3  O   UNL     1     -11.549   6.329  69.639  1.00  0.00    -0.430 OA 
BRANCH   3   4
HETATM    4  C   UNL     1     -10.942   7.372  70.272  1.00  0.00    -0.255 C  
HETATM    5  O   UNL     1     -11.354   8.526  70.288  1.00  0.00    -0.232 OA 
BRANCH   4   6
HETATM    6  C   UNL     1      -9.663   6.874  70.973  1.00  0.00    -0.174 C  
BRANCH   6   7
HETATM    7  N   UNL     1      -8.511   6.954  70.034  1.00  0.00    -0.138 NA 
HETATM    8  H   UNL     1      -8.672   6.359  69.221  1.00  0.00     0.000 HD 
BRANCH   7   9
HETATM    9  C   UNL     1      -8.167   8.316  69.611  1.00  0.00    -0.118 C  
BRANCH   9  10
HETATM   10  C   UNL     1      -7.878   8.432  68.098  1.00  0.00    -0.111 C  
BRANCH  10  11
HETATM   11  N   UNL     1      -8.485   9.600  67.438  1.00  0.00    -0.125 NA 
HETATM   12  H   UNL     1      -9.275   9.312  66.860  1.00  0.00     0.000 HD 
BRANCH  11  13
HETATM   13  C   UNL     1      -8.892  10.690  68.373  1.00  0.00    -0.145 C  
BRANCH  13  14
HETATM   14  C   UNL     1      -8.001  11.947  68.265  1.00  0.00    -0.148 C  
HETATM   15  H   UNL     1      -5.528  12.867  68.879  1.00  0.00     0.000 H  
HETATM   16  S   UNL     1      -6.330  11.735  68.976  1.00  0.00    -0.086 SA 
ENDBRANCH  13  14
BRANCH  13  17
HETATM   17  C   UNL     1     -10.370  11.063  68.123  1.00  0.00    -0.182 C  
HETATM   18  O   UNL     1     -11.173  10.393  67.484  1.00  0.00    -0.314 OA 
BRANCH  17  19
HETATM   19  O   UNL     1     -10.662  12.251  68.730  1.00  0.00    -0.228 OA 
BRANCH  19  20
HETATM   20  C   UNL     1     -12.025  12.428  69.139  1.00  0.00    -0.240 C  
HETATM   21  C   UNL     1     -12.237  11.896  70.541  1.00  0.00    -0.426 C  
ENDBRANCH  19  20
ENDBRANCH  17  19
ENDBRANCH  13  17
ENDBRANCH  11  13
ENDBRANCH  10  11
ENDBRANCH   9  10
ENDBRANCH   7   9
ENDBRANCH   6   7
BRANCH   6  22
HETATM   22  C   UNL     1      -9.493   7.623  72.311  1.00  0.00    -0.160 C  
HETATM   23  H   UNL     1     -10.382   7.664  74.877  1.00  0.00     0.000 H  
HETATM   24  S   UNL     1     -10.535   6.990  73.672  1.00  0.00    -0.334 SA 
ENDBRANCH   6  22
ENDBRANCH   4   6
ENDBRANCH   3   4
ENDBRANCH   2   3
TORSDOF 13
ENDMDL
MODEL      411
REMARK 921   NORMALIZED FREE ENERGY PREDICTED BY IDOCK:   -2.60 KCAL/MOL
REMARK 922        TOTAL FREE ENERGY PREDICTED BY IDOCK:   -5.16 KCAL/MOL
REMARK 923 INTER-LIGAND FREE ENERGY PREDICTED BY IDOCK:   -4.58 KCAL/MOL
REMARK 924 INTRA-LIGAND FREE ENERGY PREDICTED BY IDOCK:   -0.58 KCAL/MOL
REMARK 927      BINDING AFFINITY PREDICTED BY RF-SCORE:    0.00 PKD
ROOT
HETATM    1  C   UNL     1      -6.154  21.371  63.093  1.00  0.00    -0.351 C  
HETATM    2  C   UNL     1      -5.552  20.669  64.292  1.00  0.00    -0.222 C  
ENDROOT
BRANCH   2   3
HETATM    3  O   UNL     1      -6.257  21.035  65.488  1.00  0.00    -0.247 OA 
BRANCH   3   4
HETATM    4  C   UNL     1      -6.327  20.074  66.453  1.00  0.00    -0.189 C  
HETATM    5  O   UNL     1      -5.514  19.919  67.356  1.00  0.00    -0.170 OA 
BRANCH   4   6
HETATM    6  C   UNL     1      -7.592  19.222  66.238  1.00  0.00    -0.277 C  
BRANCH   6   7
HETATM    7  N   UNL     1      -7.211  17.874  65.735  1.00  0.00    -0.511 NA 
HETATM    8  H   UNL     1      -6.356  17.930  65.182  1.00  0.00     0.000 HD 
BRANCH   7   9
HETATM    9  C   UNL     1      -7.080  16.852  66.779  1.00  0.00    -0.238 C  
BRANCH   9  10
HETATM   10  C   UNL     1      -8.093  15.695  66.635  1.00  0.00    -0.204 C  
BRANCH  10  11
HETATM   11  N   UNL     1      -8.181  14.799  67.800  1.00  0.00    -0.148 NA 
HETATM   12  H   UNL     1      -9.157  14.627  68.043  1.00  0.00     0.000 HD 
BRANCH  11  13
HETATM   13  C   UNL     1      -7.447  13.510  67.639  1.00  0.00    -0.181 C  
BRANCH  13  14
HETATM   14  C   UNL     1      -6.119  13.465  68.426  1.00  0.00    -0.092 C  
HETATM   15  H   UNL     1      -4.766  14.737  70.398  1.00  0.00     0.000 H  
HETATM   16  S   UNL     1      -5.961  14.777  69.690  1.00  0.00    -0.124 SA 
ENDBRANCH  13  14
BRANCH  13  17
HETATM   17  C   UNL     1      -8.358  12.337  68.066  1.00  0.00    -0.165 C  
HETATM   18  O   UNL     1      -7.985  11.324  68.648  1.00  0.00    -0.133 OA 
BRANCH  17  19
HETATM   19  O   UNL     1      -9.651  12.595  67.711  1.00  0.00    -0.185 OA 
BRANCH  19  20
HETATM   20  C   UNL     1     -10.646  11.765  68.323  1.00  0.00    -0.211 C  
HETATM   21  C   UNL     1     -11.398  10.969  67.277  1.00  0.00    -0.265 C  
ENDBRANCH  19  20
ENDBRANCH  17  19
ENDBRANCH  13  17
ENDBRANCH  11  13
ENDBRANCH  10  11
ENDBRANCH   9  10
ENDBRANCH   7   9
ENDBRANCH   6   7
BRANCH   6  22
HETATM   22  C   UNL     1      -8.444  19.244  67.524  1.00  0.00    -0.291 C  
HETATM   23  H   UNL     1     -10.636  20.405  68.630  1.00  0.00     0.000 H  
HETATM   24  S   UNL     1      -9.869  20.385  67.472  1.00  0.00    -0.375 SA 
ENDBRANCH   6  22
ENDBRANCH   4   6
ENDBRANCH   3   4
ENDBRANCH   2   3
TORSDOF 13
ENDMDL
MODEL      412
REMARK 921   NORMALIZED FREE ENERGY PREDICTED BY IDOCK:   -2.59 KCAL/MOL
REMARK 922        TOTAL FREE ENERGY PREDICTED BY IDOCK:   -5.16 KCAL/MOL
REMARK 923 INTER-LIGAND FREE ENERGY PREDICTED BY IDOCK:   -4.86 KCAL/MOL
REMARK 924 INTRA-LIGAND FREE ENERGY PREDICTED BY IDOCK:   -0.30 KCAL/MOL
REMARK 927      BINDING AFFINITY PREDICTED BY RF-SCORE:    0.00 PKD
ROOT
HETATM    1  C   UNL     1     -10.687  15.134  64.884  1.00  0.00    -0.421 C  
HETATM    2  C   UNL     1     -10.334  15.359  66.339  1.00  0.00    -0.296 C  
ENDROOT
BRANCH   2   3
HETATM    3  O   UNL     1     -11.482  15.131  67.170  1.00  0.00    -0.330 OA 
BRANCH   3   4
HETATM    4  C   UNL     1     -11.805  13.824  67.391  1.00  0.00    -0.396 C  
HETATM    5  O   UNL     1     -11.857  12.955  66.530  1.00  0.00    -0.379 OA 
BRANCH   4   6
HETATM    6  C   UNL     1     -12.082  13.610  68.891  1.00  0.00    -0.300 C  
BRANCH   6   7
HETATM    7  N   UNL     1     -11.044  12.717  69.473  1.00  0.00    -0.460 NA 
HETATM    8  H   UNL     1     -10.578  13.175  70.257  1.00  0.00     0.000 HD 
BRANCH   7   9
HETATM    9  C   UNL     1     -11.536  11.395  69.873  1.00  0.00    -0.323 C  
BRANCH   9  10
HETATM   10  C   UNL     1     -10.416  10.341  70.014  1.00  0.00    -0.241 C  
BRANCH  10  11
HETATM   11  N   UNL     1      -9.682  10.045  68.773  1.00  0.00    -0.164 NA 
HETATM   12  H   UNL     1     -10.017  10.636  68.011  1.00  0.00     0.000 HD 
BRANCH  11  13
HETATM   13  C   UNL     1      -8.198  10.147  68.898  1.00  0.00    -0.124 C  
BRANCH  13  14
HETATM   14  C   UNL     1      -7.442   9.118  68.030  1.00  0.00    -0.084 C  
HETATM   15  H   UNL     1      -6.914   8.485  65.449  1.00  0.00     0.000 H  
HETATM   16  S   UNL     1      -7.594   9.412  66.231  1.00  0.00    -0.097 SA 
ENDBRANCH  13  14
BRANCH  13  17
HETATM   17  C   UNL     1      -7.744  11.580  68.539  1.00  0.00    -0.134 C  
HETATM   18  O   UNL     1      -8.471  12.469  68.112  1.00  0.00    -0.168 OA 
BRANCH  17  19
HETATM   19  O   UNL     1      -6.406  11.720  68.777  1.00  0.00    -0.054 OA 
BRANCH  19  20
HETATM   20  C   UNL     1      -6.033  11.952  70.141  1.00  0.00    -0.159 C  
HETATM   21  C   UNL     1      -5.620  13.394  70.348  1.00  0.00    -0.153 C  
ENDBRANCH  19  20
ENDBRANCH  17  19
ENDBRANCH  13  17
ENDBRANCH  11  13
ENDBRANCH  10  11
ENDBRANCH   9  10
ENDBRANCH   7   9
ENDBRANCH   6   7
BRANCH   6  22
HETATM   22  C   UNL     1     -12.248  14.982  69.576  1.00  0.00    -0.232 C  
HETATM   23  H   UNL     1     -10.830  17.095  70.528  1.00  0.00     0.000 H  
HETATM   24  S   UNL     1     -10.681  15.859  69.911  1.00  0.00    -0.347 SA 
ENDBRANCH   6  22
ENDBRANCH   4   6
ENDBRANCH   3   4
ENDBRANCH   2   3
TORSDOF 13
ENDMDL
MODEL      413
REMARK 921   NORMALIZED FREE ENERGY PREDICTED BY IDOCK:   -2.58 KCAL/MOL
REMARK 922        TOTAL FREE ENERGY PREDICTED BY IDOCK:   -5.13 KCAL/MOL
REMARK 923 INTER-LIGAND FREE ENERGY PREDICTED BY IDOCK:   -4.97 KCAL/MOL
REMARK 924 INTRA-LIGAND FREE ENERGY PREDICTED BY IDOCK:   -0.15 KCAL/MOL
REMARK 927      BINDING AFFINITY PREDICTED BY RF-SCORE:    0.00 PKD
ROOT
HETATM    1  C   UNL     1     -11.890  17.160  74.542  1.00  0.00     0.086 C  
HETATM    2  C   UNL     1     -12.298  16.113  73.527  1.00  0.00    -0.559 C  
ENDROOT
BRANCH   2   3
HETATM    3  O   UNL     1     -11.994  16.563  72.198  1.00  0.00    -0.471 OA 
BRANCH   3   4
HETATM    4  C   UNL     1     -11.640  15.592  71.309  1.00  0.00    -0.404 C  
HETATM    5  O   UNL     1     -10.551  15.033  71.269  1.00  0.00     0.053 OA 
BRANCH   4   6
HETATM    6  C   UNL     1     -12.827  15.299  70.370  1.00  0.00    -0.317 C  
BRANCH   6   7
HETATM    7  N   UNL     1     -12.334  14.662  69.119  1.00  0.00    -0.573 NA 
HETATM    8  H   UNL     1     -13.048  14.047  68.728  1.00  0.00     0.000 HD 
BRANCH   7   9
HETATM    9  C   UNL     1     -11.860  15.608  68.103  1.00  0.00    -0.083 C  
BRANCH   9  10
HETATM   10  C   UNL     1     -10.379  15.399  67.715  1.00  0.00    -0.253 C  
BRANCH  10  11
HETATM   11  N   UNL     1      -9.404  15.873  68.711  1.00  0.00    -0.207 NA 
HETATM   12  H   UNL     1      -8.930  15.083  69.150  1.00  0.00     0.000 HD 
BRANCH  11  13
HETATM   13  C   UNL     1      -8.409  16.849  68.179  1.00  0.00    -0.212 C  
BRANCH  13  14
HETATM   14  C   UNL     1      -7.377  17.302  69.235  1.00  0.00    -0.078 C  
HETATM   15  H   UNL     1      -6.162  19.516  70.216  1.00  0.00     0.000 H  
HETATM   16  S   UNL     1      -7.091  19.108  69.265  1.00  0.00    -0.220 SA 
ENDBRANCH  13  14
BRANCH  13  17
HETATM   17  C   UNL     1      -7.685  16.239  66.958  1.00  0.00    -0.214 C  
HETATM   18  O   UNL     1      -7.092  15.166  66.947  1.00  0.00    -0.148 OA 
BRANCH  17  19
HETATM   19  O   UNL     1      -7.809  17.067  65.878  1.00  0.00    -0.438 OA 
BRANCH  19  20
HETATM   20  C   UNL     1      -7.396  18.425  66.078  1.00  0.00    -0.238 C  
HETATM   21  C   UNL     1      -6.424  18.854  65.000  1.00  0.00    -0.205 C  
ENDBRANCH  19  20
ENDBRANCH  17  19
ENDBRANCH  13  17
ENDBRANCH  11  13
ENDBRANCH  10  11
ENDBRANCH   9  10
ENDBRANCH   7   9
ENDBRANCH   6   7
BRANCH   6  22
HETATM   22  C   UNL     1     -13.904  14.513  71.145  1.00  0.00    -0.228 C  
HETATM   23  H   UNL     1     -14.311  12.199  72.509  1.00  0.00     0.000 H  
HETATM   24  S   UNL     1     -13.341  12.908  71.811  1.00  0.00    -0.264 SA 
ENDBRANCH   6  22
ENDBRANCH   4   6
ENDBRANCH   3   4
ENDBRANCH   2   3
TORSDOF 13
ENDMDL
MODEL      414
REMARK 921   NORMALIZED FREE ENERGY PREDICTED BY IDOCK:   -2.58 KCAL/MOL
REMARK 922        TOTAL FREE ENERGY PREDICTED BY IDOCK:   -5.13 KCAL/MOL
REMARK 923 INTER-LIGAND FREE ENERGY PREDICTED BY IDOCK:   -4.74 KCAL/MOL
REMARK 924 INTRA-LIGAND FREE ENERGY PREDICTED BY IDOCK:   -0.39 KCAL/MOL
REMARK 927      BINDING AFFINITY PREDICTED BY RF-SCORE:    0.00 PKD
ROOT
HETATM    1  C   UNL     1     -13.258  11.312  71.777  1.00  0.00    -0.480 C  
HETATM    2  C   UNL     1     -13.057   9.831  72.015  1.00  0.00    -0.452 C  
ENDROOT
BRANCH   2   3
HETATM    3  O   UNL     1     -11.682   9.475  71.806  1.00  0.00    -0.383 OA 
BRANCH   3   4
HETATM    4  C   UNL     1     -11.317   8.235  72.240  1.00  0.00    -0.378 C  
HETATM    5  O   UNL     1     -10.990   7.956  73.387  1.00  0.00    -0.257 OA 
BRANCH   4   6
HETATM    6  C   UNL     1     -11.392   7.238  71.067  1.00  0.00    -0.274 C  
BRANCH   6   7
HETATM    7  N   UNL     1     -10.403   7.616  70.021  1.00  0.00    -0.217 NA 
HETATM    8  H   UNL     1     -10.881   7.961  69.188  1.00  0.00     0.000 HD 
BRANCH   7   9
HETATM    9  C   UNL     1      -9.390   8.579  70.465  1.00  0.00    -0.170 C  
BRANCH   9  10
HETATM   10  C   UNL     1      -9.161   9.733  69.464  1.00  0.00    -0.213 C  
BRANCH  10  11
HETATM   11  N   UNL     1      -8.299   9.399  68.319  1.00  0.00    -0.118 NA 
HETATM   12  H   UNL     1      -7.865   8.486  68.454  1.00  0.00     0.000 HD 
BRANCH  11  13
HETATM   13  C   UNL     1      -8.986   9.459  66.995  1.00  0.00    -0.130 C  
BRANCH  13  14
HETATM   14  C   UNL     1      -8.103  10.059  65.879  1.00  0.00    -0.126 C  
HETATM   15  H   UNL     1      -8.224  11.017  63.348  1.00  0.00     0.000 H  
HETATM   16  S   UNL     1      -9.019  10.478  64.353  1.00  0.00    -0.216 SA 
ENDBRANCH  13  14
BRANCH  13  17
HETATM   17  C   UNL     1      -9.463   8.046  66.593  1.00  0.00    -0.212 C  
HETATM   18  O   UNL     1     -10.605   7.619  66.720  1.00  0.00    -0.325 OA 
BRANCH  17  19
HETATM   19  O   UNL     1      -8.426   7.336  66.060  1.00  0.00    -0.132 OA 
BRANCH  19  20
HETATM   20  C   UNL     1      -8.545   5.908  66.123  1.00  0.00    -0.137 C  
HETATM   21  C   UNL     1      -8.632   5.315  64.732  1.00  0.00    -0.136 C  
ENDBRANCH  19  20
ENDBRANCH  17  19
ENDBRANCH  13  17
ENDBRANCH  11  13
ENDBRANCH  10  11
ENDBRANCH   9  10
ENDBRANCH   7   9
ENDBRANCH   6   7
BRANCH   6  22
HETATM   22  C   UNL     1     -11.275   5.801  71.615  1.00  0.00    -0.192 C  
HETATM   23  H   UNL     1      -9.665   3.614  71.582  1.00  0.00     0.000 H  
HETATM   24  S   UNL     1      -9.771   4.908  71.089  1.00  0.00    -0.190 SA 
ENDBRANCH   6  22
ENDBRANCH   4   6
ENDBRANCH   3   4
ENDBRANCH   2   3
TORSDOF 13
ENDMDL
MODEL      415
REMARK 921   NORMALIZED FREE ENERGY PREDICTED BY IDOCK:   -2.56 KCAL/MOL
REMARK 922        TOTAL FREE ENERGY PREDICTED BY IDOCK:   -5.11 KCAL/MOL
REMARK 923 INTER-LIGAND FREE ENERGY PREDICTED BY IDOCK:   -4.45 KCAL/MOL
REMARK 924 INTRA-LIGAND FREE ENERGY PREDICTED BY IDOCK:   -0.65 KCAL/MOL
REMARK 927      BINDING AFFINITY PREDICTED BY RF-SCORE:    0.00 PKD
ROOT
HETATM    1  C   UNL     1      -9.145   9.108  65.222  1.00  0.00    -0.252 C  
HETATM    2  C   UNL     1      -9.084  10.615  65.101  1.00  0.00    -0.201 C  
ENDROOT
BRANCH   2   3
HETATM    3  O   UNL     1     -10.192  11.214  65.791  1.00  0.00    -0.240 OA 
BRANCH   3   4
HETATM    4  C   UNL     1      -9.884  11.887  66.937  1.00  0.00    -0.202 C  
HETATM    5  O   UNL     1      -9.164  12.876  67.003  1.00  0.00    -0.212 OA 
BRANCH   4   6
HETATM    6  C   UNL     1     -10.590  11.217  68.131  1.00  0.00    -0.192 C  
BRANCH   6   7
HETATM    7  N   UNL     1      -9.612  10.989  69.230  1.00  0.00    -0.421 NA 
HETATM    8  H   UNL     1     -10.100  10.795  70.105  1.00  0.00     0.000 HD 
BRANCH   7   9
HETATM    9  C   UNL     1      -8.622   9.943  68.953  1.00  0.00    -0.135 C  
BRANCH   9  10
HETATM   10  C   UNL     1      -9.010   8.564  69.533  1.00  0.00    -0.149 C  
BRANCH  10  11
HETATM   11  N   UNL     1      -8.704   7.417  68.662  1.00  0.00    -0.128 NA 
HETATM   12  H   UNL     1      -7.695   7.299  68.570  1.00  0.00     0.000 HD 
BRANCH  11  13
HETATM   13  C   UNL     1      -9.343   6.137  69.087  1.00  0.00    -0.126 C  
BRANCH  13  14
HETATM   14  C   UNL     1      -8.965   5.717  70.525  1.00  0.00    -0.143 C  
HETATM   15  H   UNL     1      -6.847   4.970  72.040  1.00  0.00     0.000 H  
HETATM   16  S   UNL     1      -7.187   5.348  70.746  1.00  0.00    -0.072 SA 
ENDBRANCH  13  14
BRANCH  13  17
HETATM   17  C   UNL     1     -10.877   6.253  68.954  1.00  0.00    -0.333 C  
HETATM   18  O   UNL     1     -11.484   6.489  67.916  1.00  0.00    -0.146 OA 
BRANCH  17  19
HETATM   19  O   UNL     1     -11.470   6.042  70.167  1.00  0.00    -0.356 OA 
BRANCH  19  20
HETATM   20  C   UNL     1     -11.952   7.212  70.841  1.00  0.00    -0.334 C  
HETATM   21  C   UNL     1     -13.243   6.915  71.574  1.00  0.00    -0.322 C  
ENDBRANCH  19  20
ENDBRANCH  17  19
ENDBRANCH  13  17
ENDBRANCH  11  13
ENDBRANCH  10  11
ENDBRANCH   9  10
ENDBRANCH   7   9
ENDBRANCH   6   7
BRANCH   6  22
HETATM   22  C   UNL     1     -11.842  12.037  68.505  1.00  0.00    -0.311 C  
HETATM   23  H   UNL     1     -12.686  14.058  70.112  1.00  0.00     0.000 H  
HETATM   24  S   UNL     1     -11.558  13.319  69.775  1.00  0.00    -0.178 SA 
ENDBRANCH   6  22
ENDBRANCH   4   6
ENDBRANCH   3   4
ENDBRANCH   2   3
TORSDOF 13
ENDMDL
MODEL      416
REMARK 921   NORMALIZED FREE ENERGY PREDICTED BY IDOCK:   -2.56 KCAL/MOL
REMARK 922        TOTAL FREE ENERGY PREDICTED BY IDOCK:   -5.10 KCAL/MOL
REMARK 923 INTER-LIGAND FREE ENERGY PREDICTED BY IDOCK:   -4.32 KCAL/MOL
REMARK 924 INTRA-LIGAND FREE ENERGY PREDICTED BY IDOCK:   -0.78 KCAL/MOL
REMARK 927      BINDING AFFINITY PREDICTED BY RF-SCORE:    0.00 PKD
ROOT
HETATM    1  C   UNL     1      -6.374   7.507  63.482  1.00  0.00    -0.054 C  
HETATM    2  C   UNL     1      -5.511   6.868  64.548  1.00  0.00    -0.031 C  
ENDROOT
BRANCH   2   3
HETATM    3  O   UNL     1      -5.952   7.272  65.853  1.00  0.00    -0.035 OA 
BRANCH   3   4
HETATM    4  C   UNL     1      -6.610   6.323  66.578  1.00  0.00    -0.048 C  
HETATM    5  O   UNL     1      -6.129   5.261  66.954  1.00  0.00    -0.028 OA 
BRANCH   4   6
HETATM    6  C   UNL     1      -8.049   6.798  66.859  1.00  0.00    -0.109 C  
BRANCH   6   7
HETATM    7  N   UNL     1      -8.098   8.286  66.851  1.00  0.00    -0.103 NA 
HETATM    8  H   UNL     1      -7.197   8.670  66.564  1.00  0.00     0.000 HD 
BRANCH   7   9
HETATM    9  C   UNL     1      -9.178   8.853  66.038  1.00  0.00    -0.228 C  
BRANCH   9  10
HETATM   10  C   UNL     1     -10.361   9.385  66.877  1.00  0.00    -0.238 C  
BRANCH  10  11
HETATM   11  N   UNL     1     -10.179  10.744  67.414  1.00  0.00    -0.195 NA 
HETATM   12  H   UNL     1      -9.389  11.203  66.960  1.00  0.00     0.000 HD 
BRANCH  11  13
HETATM   13  C   UNL     1     -11.397  11.603  67.337  1.00  0.00    -0.300 C  
BRANCH  13  14
HETATM   14  C   UNL     1     -11.895  12.076  68.720  1.00  0.00    -0.302 C  
HETATM   15  H   UNL     1     -12.218  11.231  71.273  1.00  0.00     0.000 H  
HETATM   16  S   UNL     1     -11.769  10.805  70.028  1.00  0.00    -0.365 SA 
ENDBRANCH  13  14
BRANCH  13  17
HETATM   17  C   UNL     1     -11.117  12.820  66.428  1.00  0.00    -0.285 C  
HETATM   18  O   UNL     1     -11.415  13.981  66.685  1.00  0.00    -0.335 OA 
BRANCH  17  19
HETATM   19  O   UNL     1     -10.475  12.419  65.292  1.00  0.00    -0.272 OA 
BRANCH  19  20
HETATM   20  C   UNL     1     -10.962  12.978  64.065  1.00  0.00    -0.389 C  
HETATM   21  C   UNL     1     -12.034  12.095  63.460  1.00  0.00    -0.619 C  
ENDBRANCH  19  20
ENDBRANCH  17  19
ENDBRANCH  13  17
ENDBRANCH  11  13
ENDBRANCH  10  11
ENDBRANCH   9  10
ENDBRANCH   7   9
ENDBRANCH   6   7
BRANCH   6  22
HETATM   22  C   UNL     1      -9.015   6.089  65.888  1.00  0.00    -0.133 C  
HETATM   23  H   UNL     1     -10.845   4.085  65.761  1.00  0.00     0.000 H  
HETATM   24  S   UNL     1      -9.974   4.725  66.634  1.00  0.00    -0.247 SA 
ENDBRANCH   6  22
ENDBRANCH   4   6
ENDBRANCH   3   4
ENDBRANCH   2   3
TORSDOF 13
ENDMDL
MODEL      417
REMARK 921   NORMALIZED FREE ENERGY PREDICTED BY IDOCK:   -2.55 KCAL/MOL
REMARK 922        TOTAL FREE ENERGY PREDICTED BY IDOCK:   -5.08 KCAL/MOL
REMARK 923 INTER-LIGAND FREE ENERGY PREDICTED BY IDOCK:   -4.30 KCAL/MOL
REMARK 924 INTRA-LIGAND FREE ENERGY PREDICTED BY IDOCK:   -0.78 KCAL/MOL
REMARK 927      BINDING AFFINITY PREDICTED BY RF-SCORE:    0.00 PKD
ROOT
HETATM    1  C   UNL     1     -10.977   4.160  73.469  1.00  0.00    -0.360 C  
HETATM    2  C   UNL     1     -10.813   5.524  72.833  1.00  0.00    -0.269 C  
ENDROOT
BRANCH   2   3
HETATM    3  O   UNL     1      -9.480   5.678  72.324  1.00  0.00    -0.145 OA 
BRANCH   3   4
HETATM    4  C   UNL     1      -9.384   6.086  71.026  1.00  0.00    -0.161 C  
HETATM    5  O   UNL     1      -9.037   7.202  70.660  1.00  0.00    -0.156 OA 
BRANCH   4   6
HETATM    6  C   UNL     1      -9.768   4.922  70.092  1.00  0.00    -0.213 C  
BRANCH   6   7
HETATM    7  N   UNL     1      -9.849   5.409  68.688  1.00  0.00    -0.138 NA 
HETATM    8  H   UNL     1      -9.695   4.639  68.036  1.00  0.00     0.000 HD 
BRANCH   7   9
HETATM    9  C   UNL     1     -11.091   6.115  68.361  1.00  0.00    -0.248 C  
BRANCH   9  10
HETATM   10  C   UNL     1     -10.910   7.207  67.283  1.00  0.00    -0.312 C  
BRANCH  10  11
HETATM   11  N   UNL     1     -10.205   8.417  67.738  1.00  0.00    -0.211 NA 
HETATM   12  H   UNL     1      -9.197   8.261  67.745  1.00  0.00     0.000 HD 
BRANCH  11  13
HETATM   13  C   UNL     1     -10.538   9.648  66.964  1.00  0.00    -0.197 C  
BRANCH  13  14
HETATM   14  C   UNL     1     -11.241  10.730  67.814  1.00  0.00    -0.316 C  
HETATM   15  H   UNL     1     -12.005  11.280  70.354  1.00  0.00     0.000 H  
HETATM   16  S   UNL     1     -11.373  10.307  69.589  1.00  0.00    -0.246 SA 
ENDBRANCH  13  14
BRANCH  13  17
HETATM   17  C   UNL     1      -9.254  10.225  66.327  1.00  0.00    -0.159 C  
HETATM   18  O   UNL     1      -8.379  10.839  66.927  1.00  0.00    -0.126 OA 
BRANCH  17  19
HETATM   19  O   UNL     1      -9.226   9.942  64.992  1.00  0.00    -0.203 OA 
BRANCH  19  20
HETATM   20  C   UNL     1     -10.123  10.701  64.171  1.00  0.00    -0.334 C  
HETATM   21  C   UNL     1      -9.461  11.083  62.864  1.00  0.00    -0.378 C  
ENDBRANCH  19  20
ENDBRANCH  17  19
ENDBRANCH  13  17
ENDBRANCH  11  13
ENDBRANCH  10  11
ENDBRANCH   9  10
ENDBRANCH   7   9
ENDBRANCH   6   7
BRANCH   6  22
HETATM   22  C   UNL     1      -8.812   3.737  70.339  1.00  0.00    -0.086 C  
HETATM   23  H   UNL     1      -6.233   2.951  70.005  1.00  0.00     0.000 H  
HETATM   24  S   UNL     1      -7.095   4.018  69.783  1.00  0.00    -0.042 SA 
ENDBRANCH   6  22
ENDBRANCH   4   6
ENDBRANCH   3   4
ENDBRANCH   2   3
TORSDOF 13
ENDMDL
MODEL      418
REMARK 921   NORMALIZED FREE ENERGY PREDICTED BY IDOCK:   -2.55 KCAL/MOL
REMARK 922        TOTAL FREE ENERGY PREDICTED BY IDOCK:   -5.08 KCAL/MOL
REMARK 923 INTER-LIGAND FREE ENERGY PREDICTED BY IDOCK:   -4.03 KCAL/MOL
REMARK 924 INTRA-LIGAND FREE ENERGY PREDICTED BY IDOCK:   -1.05 KCAL/MOL
REMARK 927      BINDING AFFINITY PREDICTED BY RF-SCORE:    0.00 PKD
ROOT
HETATM    1  C   UNL     1     -10.577   9.009  71.708  1.00  0.00    -0.426 C  
HETATM    2  C   UNL     1     -10.716   7.521  71.948  1.00  0.00    -0.217 C  
ENDROOT
BRANCH   2   3
HETATM    3  O   UNL     1     -11.282   6.881  70.794  1.00  0.00    -0.263 OA 
BRANCH   3   4
HETATM    4  C   UNL     1     -10.676   5.725  70.400  1.00  0.00    -0.302 C  
HETATM    5  O   UNL     1     -10.158   4.907  71.150  1.00  0.00    -0.199 OA 
BRANCH   4   6
HETATM    6  C   UNL     1     -10.755   5.603  68.866  1.00  0.00    -0.209 C  
BRANCH   6   7
HETATM    7  N   UNL     1     -11.387   6.823  68.295  1.00  0.00    -0.553 NA 
HETATM    8  H   UNL     1     -11.440   7.559  69.000  1.00  0.00     0.000 HD 
BRANCH   7   9
HETATM    9  C   UNL     1     -10.743   7.327  67.077  1.00  0.00    -0.336 C  
BRANCH   9  10
HETATM   10  C   UNL     1     -10.453   8.843  67.120  1.00  0.00    -0.274 C  
BRANCH  10  11
HETATM   11  N   UNL     1      -9.200   9.254  66.466  1.00  0.00    -0.152 NA 
HETATM   12  H   UNL     1      -9.386   9.954  65.747  1.00  0.00     0.000 HD 
BRANCH  11  13
HETATM   13  C   UNL     1      -8.147   9.738  67.406  1.00  0.00    -0.114 C  
BRANCH  13  14
HETATM   14  C   UNL     1      -8.636  10.873  68.333  1.00  0.00    -0.146 C  
HETATM   15  H   UNL     1      -9.249  13.512  68.331  1.00  0.00     0.000 H  
HETATM   16  S   UNL     1      -8.810  12.490  67.497  1.00  0.00    -0.195 SA 
ENDBRANCH  13  14
BRANCH  13  17
HETATM   17  C   UNL     1      -7.619   8.556  68.248  1.00  0.00    -0.097 C  
HETATM   18  O   UNL     1      -7.894   8.342  69.423  1.00  0.00    -0.098 OA 
BRANCH  17  19
HETATM   19  O   UNL     1      -6.802   7.768  67.488  1.00  0.00    -0.066 OA 
BRANCH  19  20
HETATM   20  C   UNL     1      -5.583   8.377  67.040  1.00  0.00    -0.038 C  
HETATM   21  C   UNL     1      -5.305   8.019  65.595  1.00  0.00    -0.028 C  
ENDBRANCH  19  20
ENDBRANCH  17  19
ENDBRANCH  13  17
ENDBRANCH  11  13
ENDBRANCH  10  11
ENDBRANCH   9  10
ENDBRANCH   7   9
ENDBRANCH   6   7
BRANCH   6  22
HETATM   22  C   UNL     1      -9.359   5.248  68.314  1.00  0.00    -0.118 C  
HETATM   23  H   UNL     1      -8.032   3.364  66.875  1.00  0.00     0.000 H  
HETATM   24  S   UNL     1      -9.289   3.684  67.373  1.00  0.00    -0.199 SA 
ENDBRANCH   6  22
ENDBRANCH   4   6
ENDBRANCH   3   4
ENDBRANCH   2   3
TORSDOF 13
ENDMDL
MODEL      419
REMARK 921   NORMALIZED FREE ENERGY PREDICTED BY IDOCK:   -2.52 KCAL/MOL
REMARK 922        TOTAL FREE ENERGY PREDICTED BY IDOCK:   -5.03 KCAL/MOL
REMARK 923 INTER-LIGAND FREE ENERGY PREDICTED BY IDOCK:   -4.21 KCAL/MOL
REMARK 924 INTRA-LIGAND FREE ENERGY PREDICTED BY IDOCK:   -0.82 KCAL/MOL
REMARK 927      BINDING AFFINITY PREDICTED BY RF-SCORE:    0.00 PKD
ROOT
HETATM    1  C   UNL     1      -9.787   8.364  72.218  1.00  0.00    -0.383 C  
HETATM    2  C   UNL     1      -9.719   6.875  71.953  1.00  0.00    -0.161 C  
ENDROOT
BRANCH   2   3
HETATM    3  O   UNL     1     -10.706   6.497  70.982  1.00  0.00    -0.228 OA 
BRANCH   3   4
HETATM    4  C   UNL     1     -10.333   5.519  70.107  1.00  0.00    -0.284 C  
HETATM    5  O   UNL     1      -9.778   4.471  70.413  1.00  0.00    -0.181 OA 
BRANCH   4   6
HETATM    6  C   UNL     1     -10.729   5.933  68.676  1.00  0.00    -0.269 C  
BRANCH   6   7
HETATM    7  N   UNL     1     -11.275   7.317  68.685  1.00  0.00    -0.446 NA 
HETATM    8  H   UNL     1     -11.299   7.684  69.638  1.00  0.00     0.000 HD 
BRANCH   7   9
HETATM    9  C   UNL     1     -10.576   8.250  67.796  1.00  0.00    -0.168 C  
BRANCH   9  10
HETATM   10  C   UNL     1     -10.021   9.493  68.527  1.00  0.00    -0.167 C  
BRANCH  10  11
HETATM   11  N   UNL     1      -8.736   9.993  68.011  1.00  0.00    -0.125 NA 
HETATM   12  H   UNL     1      -8.789  10.140  67.003  1.00  0.00     0.000 HD 
BRANCH  11  13
HETATM   13  C   UNL     1      -8.239  11.225  68.692  1.00  0.00    -0.146 C  
BRANCH  13  14
HETATM   14  C   UNL     1      -6.795  11.087  69.222  1.00  0.00    -0.110 C  
HETATM   15  H   UNL     1      -5.289   9.645  70.952  1.00  0.00     0.000 H  
HETATM   16  S   UNL     1      -6.589   9.770  70.475  1.00  0.00    -0.115 SA 
ENDBRANCH  13  14
BRANCH  13  17
HETATM   17  C   UNL     1      -8.337  12.427  67.726  1.00  0.00    -0.164 C  
HETATM   18  O   UNL     1      -7.392  12.948  67.144  1.00  0.00    -0.108 OA 
BRANCH  17  19
HETATM   19  O   UNL     1      -9.637  12.825  67.603  1.00  0.00    -0.182 OA 
BRANCH  19  20
HETATM   20  C   UNL     1     -10.168  12.831  66.272  1.00  0.00    -0.253 C  
HETATM   21  C   UNL     1     -10.322  14.249  65.762  1.00  0.00    -0.341 C  
ENDBRANCH  19  20
ENDBRANCH  17  19
ENDBRANCH  13  17
ENDBRANCH  11  13
ENDBRANCH  10  11
ENDBRANCH   9  10
ENDBRANCH   7   9
ENDBRANCH   6   7
BRANCH   6  22
HETATM   22  C   UNL     1      -9.536   5.687  67.730  1.00  0.00    -0.119 C  
HETATM   23  H   UNL     1      -8.877   4.537  65.358  1.00  0.00     0.000 H  
HETATM   24  S   UNL     1      -9.951   4.759  66.211  1.00  0.00    -0.265 SA 
ENDBRANCH   6  22
ENDBRANCH   4   6
ENDBRANCH   3   4
ENDBRANCH   2   3
TORSDOF 13
ENDMDL
MODEL      420
REMARK 921   NORMALIZED FREE ENERGY PREDICTED BY IDOCK:   -2.52 KCAL/MOL
REMARK 922        TOTAL FREE ENERGY PREDICTED BY IDOCK:   -5.03 KCAL/MOL
REMARK 923 INTER-LIGAND FREE ENERGY PREDICTED BY IDOCK:   -4.53 KCAL/MOL
REMARK 924 INTRA-LIGAND FREE ENERGY PREDICTED BY IDOCK:   -0.50 KCAL/MOL
REMARK 927      BINDING AFFINITY PREDICTED BY RF-SCORE:    0.00 PKD
ROOT
HETATM    1  C   UNL     1      -8.132   8.581  70.705  1.00  0.00    -0.119 C  
HETATM    2  C   UNL     1      -8.497   7.303  69.980  1.00  0.00    -0.139 C  
ENDROOT
BRANCH   2   3
HETATM    3  O   UNL     1      -9.918   7.229  69.787  1.00  0.00    -0.179 OA 
BRANCH   3   4
HETATM    4  C   UNL     1     -10.384   6.066  69.249  1.00  0.00    -0.233 C  
HETATM    5  O   UNL     1     -10.532   5.014  69.859  1.00  0.00    -0.280 OA 
BRANCH   4   6
HETATM    6  C   UNL     1     -10.705   6.283  67.758  1.00  0.00    -0.306 C  
BRANCH   6   7
HETATM    7  N   UNL     1     -11.034   7.715  67.517  1.00  0.00    -0.534 NA 
HETATM    8  H   UNL     1     -11.086   8.221  68.401  1.00  0.00     0.000 HD 
BRANCH   7   9
HETATM    9  C   UNL     1     -10.127   8.397  66.589  1.00  0.00    -0.288 C  
BRANCH   9  10
HETATM   10  C   UNL     1     -10.150   9.936  66.731  1.00  0.00    -0.230 C  
BRANCH  10  11
HETATM   11  N   UNL     1      -9.906  10.436  68.094  1.00  0.00    -0.149 NA 
HETATM   12  H   UNL     1      -9.483   9.709  68.671  1.00  0.00     0.000 HD 
BRANCH  11  13
HETATM   13  C   UNL     1      -9.095  11.688  68.152  1.00  0.00    -0.183 C  
BRANCH  13  14
HETATM   14  C   UNL     1      -7.973  11.734  67.092  1.00  0.00    -0.166 C  
HETATM   15  H   UNL     1      -5.468  12.679  66.678  1.00  0.00     0.000 H  
HETATM   16  S   UNL     1      -6.478  12.637  67.633  1.00  0.00    -0.157 SA 
ENDBRANCH  13  14
BRANCH  13  17
HETATM   17  C   UNL     1     -10.021  12.915  67.999  1.00  0.00    -0.236 C  
HETATM   18  O   UNL     1     -10.111  13.615  66.997  1.00  0.00    -0.242 OA 
BRANCH  17  19
HETATM   19  O   UNL     1     -10.739  13.105  69.145  1.00  0.00    -0.161 OA 
BRANCH  19  20
HETATM   20  C   UNL     1     -11.954  12.352  69.255  1.00  0.00    -0.253 C  
HETATM   21  C   UNL     1     -12.176  11.899  70.683  1.00  0.00    -0.424 C  
ENDBRANCH  19  20
ENDBRANCH  17  19
ENDBRANCH  13  17
ENDBRANCH  11  13
ENDBRANCH  10  11
ENDBRANCH   9  10
ENDBRANCH   7   9
ENDBRANCH   6   7
BRANCH   6  22
HETATM   22  C   UNL     1      -9.559   5.704  66.903  1.00  0.00    -0.141 C  
HETATM   23  H   UNL     1      -8.741   3.430  65.663  1.00  0.00     0.000 H  
HETATM   24  S   UNL     1      -9.773   3.952  66.433  1.00  0.00    -0.107 SA 
ENDBRANCH   6  22
ENDBRANCH   4   6
ENDBRANCH   3   4
ENDBRANCH   2   3
TORSDOF 13
ENDMDL
MODEL      421
REMARK 921   NORMALIZED FREE ENERGY PREDICTED BY IDOCK:   -2.52 KCAL/MOL
REMARK 922        TOTAL FREE ENERGY PREDICTED BY IDOCK:   -5.03 KCAL/MOL
REMARK 923 INTER-LIGAND FREE ENERGY PREDICTED BY IDOCK:   -4.56 KCAL/MOL
REMARK 924 INTRA-LIGAND FREE ENERGY PREDICTED BY IDOCK:   -0.47 KCAL/MOL
REMARK 927      BINDING AFFINITY PREDICTED BY RF-SCORE:    0.00 PKD
ROOT
HETATM    1  C   UNL     1      -9.993   4.243  65.554  1.00  0.00    -0.233 C  
HETATM    2  C   UNL     1     -10.584   5.294  66.468  1.00  0.00    -0.285 C  
ENDROOT
BRANCH   2   3
HETATM    3  O   UNL     1      -9.565   5.846  67.316  1.00  0.00    -0.111 OA 
BRANCH   3   4
HETATM    4  C   UNL     1      -9.993   6.736  68.257  1.00  0.00    -0.146 C  
HETATM    5  O   UNL     1     -11.062   6.676  68.851  1.00  0.00    -0.272 OA 
BRANCH   4   6
HETATM    6  C   UNL     1      -8.920   7.822  68.462  1.00  0.00    -0.133 C  
BRANCH   6   7
HETATM    7  N   UNL     1      -9.465   9.150  68.070  1.00  0.00    -0.141 NA 
HETATM    8  H   UNL     1      -8.746   9.869  68.155  1.00  0.00     0.000 HD 
BRANCH   7   9
HETATM    9  C   UNL     1     -10.069   9.187  66.734  1.00  0.00    -0.271 C  
BRANCH   9  10
HETATM   10  C   UNL     1      -9.482  10.291  65.827  1.00  0.00    -0.203 C  
BRANCH  10  11
HETATM   11  N   UNL     1     -10.126  11.608  65.958  1.00  0.00    -0.216 NA 
HETATM   12  H   UNL     1     -11.128  11.534  65.781  1.00  0.00     0.000 HD 
BRANCH  11  13
HETATM   13  C   UNL     1      -9.875  12.287  67.263  1.00  0.00    -0.205 C  
BRANCH  13  14
HETATM   14  C   UNL     1      -8.796  13.389  67.178  1.00  0.00    -0.222 C  
HETATM   15  H   UNL     1      -6.175  13.849  67.683  1.00  0.00     0.000 H  
HETATM   16  S   UNL     1      -7.146  12.857  67.760  1.00  0.00    -0.154 SA 
ENDBRANCH  13  14
BRANCH  13  17
HETATM   17  C   UNL     1     -11.196  12.878  67.803  1.00  0.00    -0.280 C  
HETATM   18  O   UNL     1     -12.091  12.239  68.345  1.00  0.00    -0.321 OA 
BRANCH  17  19
HETATM   19  O   UNL     1     -11.222  14.228  67.601  1.00  0.00    -0.282 OA 
BRANCH  19  20
HETATM   20  C   UNL     1     -11.542  15.028  68.747  1.00  0.00    -0.335 C  
HETATM   21  C   UNL     1     -11.043  16.447  68.567  1.00  0.00    -0.357 C  
ENDBRANCH  19  20
ENDBRANCH  17  19
ENDBRANCH  13  17
ENDBRANCH  11  13
ENDBRANCH  10  11
ENDBRANCH   9  10
ENDBRANCH   7   9
ENDBRANCH   6   7
BRANCH   6  22
HETATM   22  C   UNL     1      -8.365   7.720  69.898  1.00  0.00    -0.130 C  
HETATM   23  H   UNL     1      -8.671   8.742  72.397  1.00  0.00     0.000 H  
HETATM   24  S   UNL     1      -9.170   8.833  71.103  1.00  0.00    -0.258 SA 
ENDBRANCH   6  22
ENDBRANCH   4   6
ENDBRANCH   3   4
ENDBRANCH   2   3
TORSDOF 13
ENDMDL
MODEL      422
REMARK 921   NORMALIZED FREE ENERGY PREDICTED BY IDOCK:   -2.52 KCAL/MOL
REMARK 922        TOTAL FREE ENERGY PREDICTED BY IDOCK:   -5.03 KCAL/MOL
REMARK 923 INTER-LIGAND FREE ENERGY PREDICTED BY IDOCK:   -4.35 KCAL/MOL
REMARK 924 INTRA-LIGAND FREE ENERGY PREDICTED BY IDOCK:   -0.68 KCAL/MOL
REMARK 927      BINDING AFFINITY PREDICTED BY RF-SCORE:    0.00 PKD
ROOT
HETATM    1  C   UNL     1     -12.869  10.325  70.824  1.00  0.00    -0.427 C  
HETATM    2  C   UNL     1     -11.905   9.478  71.625  1.00  0.00    -0.397 C  
ENDROOT
BRANCH   2   3
HETATM    3  O   UNL     1     -11.160   8.614  70.753  1.00  0.00    -0.244 OA 
BRANCH   3   4
HETATM    4  C   UNL     1     -11.547   7.306  70.741  1.00  0.00    -0.302 C  
HETATM    5  O   UNL     1     -12.239   6.766  71.595  1.00  0.00    -0.336 OA 
BRANCH   4   6
HETATM    6  C   UNL     1     -10.989   6.618  69.480  1.00  0.00    -0.313 C  
BRANCH   6   7
HETATM    7  N   UNL     1     -10.227   7.603  68.664  1.00  0.00    -0.195 NA 
HETATM    8  H   UNL     1      -9.255   7.307  68.568  1.00  0.00     0.000 HD 
BRANCH   7   9
HETATM    9  C   UNL     1     -10.810   7.880  67.348  1.00  0.00    -0.102 C  
BRANCH   9  10
HETATM   10  C   UNL     1      -9.894   8.730  66.439  1.00  0.00    -0.282 C  
BRANCH  10  11
HETATM   11  N   UNL     1      -9.135   9.783  67.134  1.00  0.00    -0.134 NA 
HETATM   12  H   UNL     1      -8.211   9.441  67.398  1.00  0.00     0.000 HD 
BRANCH  11  13
HETATM   13  C   UNL     1      -9.021  11.061  66.372  1.00  0.00    -0.181 C  
BRANCH  13  14
HETATM   14  C   UNL     1     -10.354  11.838  66.286  1.00  0.00    -0.224 C  
HETATM   15  H   UNL     1     -12.410  12.720  67.813  1.00  0.00     0.000 H  
HETATM   16  S   UNL     1     -11.210  12.021  67.891  1.00  0.00    -0.287 SA 
ENDBRANCH  13  14
BRANCH  13  17
HETATM   17  C   UNL     1      -7.930  11.949  67.009  1.00  0.00    -0.158 C  
HETATM   18  O   UNL     1      -8.086  13.104  67.389  1.00  0.00    -0.170 OA 
BRANCH  17  19
HETATM   19  O   UNL     1      -6.757  11.257  67.101  1.00  0.00    -0.093 OA 
BRANCH  19  20
HETATM   20  C   UNL     1      -6.049  11.055  65.871  1.00  0.00    -0.057 C  
HETATM   21  C   UNL     1      -5.176   9.821  65.950  1.00  0.00    -0.036 C  
ENDBRANCH  19  20
ENDBRANCH  17  19
ENDBRANCH  13  17
ENDBRANCH  11  13
ENDBRANCH  10  11
ENDBRANCH   9  10
ENDBRANCH   7   9
ENDBRANCH   6   7
BRANCH   6  22
HETATM   22  C   UNL     1     -10.218   5.348  69.895  1.00  0.00    -0.281 C  
HETATM   23  H   UNL     1      -7.950   4.524  71.143  1.00  0.00     0.000 H  
HETATM   24  S   UNL     1      -8.646   5.667  70.769  1.00  0.00    -0.129 SA 
ENDBRANCH   6  22
ENDBRANCH   4   6
ENDBRANCH   3   4
ENDBRANCH   2   3
TORSDOF 13
ENDMDL
MODEL      423
REMARK 921   NORMALIZED FREE ENERGY PREDICTED BY IDOCK:   -2.51 KCAL/MOL
REMARK 922        TOTAL FREE ENERGY PREDICTED BY IDOCK:   -5.02 KCAL/MOL
REMARK 923 INTER-LIGAND FREE ENERGY PREDICTED BY IDOCK:   -4.30 KCAL/MOL
REMARK 924 INTRA-LIGAND FREE ENERGY PREDICTED BY IDOCK:   -0.72 KCAL/MOL
REMARK 927      BINDING AFFINITY PREDICTED BY RF-SCORE:    0.00 PKD
ROOT
HETATM    1  C   UNL     1      -8.955   1.716  67.684  1.00  0.00    -0.163 C  
HETATM    2  C   UNL     1      -9.034   2.869  66.706  1.00  0.00    -0.158 C  
ENDROOT
BRANCH   2   3
HETATM    3  O   UNL     1      -9.248   4.103  67.408  1.00  0.00    -0.134 OA 
BRANCH   3   4
HETATM    4  C   UNL     1      -8.219   4.997  67.363  1.00  0.00    -0.106 C  
HETATM    5  O   UNL     1      -7.030   4.709  67.418  1.00  0.00    -0.058 OA 
BRANCH   4   6
HETATM    6  C   UNL     1      -8.785   6.423  67.221  1.00  0.00    -0.106 C  
BRANCH   6   7
HETATM    7  N   UNL     1      -8.995   7.018  68.569  1.00  0.00    -0.124 NA 
HETATM    8  H   UNL     1      -8.268   7.705  68.772  1.00  0.00     0.000 HD 
BRANCH   7   9
HETATM    9  C   UNL     1     -10.324   7.604  68.773  1.00  0.00    -0.204 C  
BRANCH   9  10
HETATM   10  C   UNL     1     -10.279   9.062  69.280  1.00  0.00    -0.205 C  
BRANCH  10  11
HETATM   11  N   UNL     1     -10.039   9.210  70.725  1.00  0.00    -0.245 NA 
HETATM   12  H   UNL     1      -9.299   9.891  70.895  1.00  0.00     0.000 HD 
BRANCH  11  13
HETATM   13  C   UNL     1     -11.257   9.552  71.517  1.00  0.00    -0.367 C  
BRANCH  13  14
HETATM   14  C   UNL     1     -12.253  10.445  70.745  1.00  0.00    -0.359 C  
HETATM   15  H   UNL     1     -13.908  12.565  71.068  1.00  0.00     0.000 H  
HETATM   16  S   UNL     1     -13.011  11.762  71.763  1.00  0.00    -0.251 SA 
ENDBRANCH  13  14
BRANCH  13  17
HETATM   17  C   UNL     1     -11.956   8.255  71.981  1.00  0.00    -0.348 C  
HETATM   18  O   UNL     1     -12.828   7.658  71.360  1.00  0.00    -0.337 OA 
BRANCH  17  19
HETATM   19  O   UNL     1     -11.453   7.857  73.186  1.00  0.00    -0.323 OA 
BRANCH  19  20
HETATM   20  C   UNL     1     -10.747   6.610  73.190  1.00  0.00    -0.278 C  
HETATM   21  C   UNL     1      -9.447   6.731  73.958  1.00  0.00    -0.255 C  
ENDBRANCH  19  20
ENDBRANCH  17  19
ENDBRANCH  13  17
ENDBRANCH  11  13
ENDBRANCH  10  11
ENDBRANCH   9  10
ENDBRANCH   7   9
ENDBRANCH   6   7
BRANCH   6  22
HETATM   22  C   UNL     1      -7.887   7.232  66.262  1.00  0.00    -0.106 C  
HETATM   23  H   UNL     1      -7.871   9.444  64.686  1.00  0.00     0.000 H  
HETATM   24  S   UNL     1      -8.680   8.715  65.550  1.00  0.00    -0.172 SA 
ENDBRANCH   6  22
ENDBRANCH   4   6
ENDBRANCH   3   4
ENDBRANCH   2   3
TORSDOF 13
ENDMDL
MODEL      424
REMARK 921   NORMALIZED FREE ENERGY PREDICTED BY IDOCK:   -2.51 KCAL/MOL
REMARK 922        TOTAL FREE ENERGY PREDICTED BY IDOCK:   -5.02 KCAL/MOL
REMARK 923 INTER-LIGAND FREE ENERGY PREDICTED BY IDOCK:   -4.15 KCAL/MOL
REMARK 924 INTRA-LIGAND FREE ENERGY PREDICTED BY IDOCK:   -0.87 KCAL/MOL
REMARK 927      BINDING AFFINITY PREDICTED BY RF-SCORE:    0.00 PKD
ROOT
HETATM    1  C   UNL     1      -8.697   7.912  65.592  1.00  0.00    -0.145 C  
HETATM    2  C   UNL     1      -8.041   9.078  66.300  1.00  0.00    -0.110 C  
ENDROOT
BRANCH   2   3
HETATM    3  O   UNL     1      -8.646  10.313  65.889  1.00  0.00    -0.142 OA 
BRANCH   3   4
HETATM    4  C   UNL     1      -8.867  11.224  66.880  1.00  0.00    -0.165 C  
HETATM    5  O   UNL     1      -8.254  12.275  67.022  1.00  0.00    -0.177 OA 
BRANCH   4   6
HETATM    6  C   UNL     1     -10.012  10.732  67.785  1.00  0.00    -0.171 C  
BRANCH   6   7
HETATM    7  N   UNL     1      -9.625  10.884  69.214  1.00  0.00    -0.407 NA 
HETATM    8  H   UNL     1     -10.457  10.935  69.804  1.00  0.00     0.000 HD 
BRANCH   7   9
HETATM    9  C   UNL     1      -8.710   9.851  69.708  1.00  0.00    -0.212 C  
BRANCH   9  10
HETATM   10  C   UNL     1      -9.233   9.118  70.964  1.00  0.00    -0.252 C  
BRANCH  10  11
HETATM   11  N   UNL     1     -10.267   8.104  70.704  1.00  0.00    -0.195 NA 
HETATM   12  H   UNL     1     -10.353   7.930  69.702  1.00  0.00     0.000 HD 
BRANCH  11  13
HETATM   13  C   UNL     1     -10.068   6.821  71.440  1.00  0.00    -0.182 C  
BRANCH  13  14
HETATM   14  C   UNL     1     -11.393   6.153  71.868  1.00  0.00    -0.296 C  
HETATM   15  H   UNL     1     -12.380   4.218  73.487  1.00  0.00     0.000 H  
HETATM   16  S   UNL     1     -11.187   4.820  73.102  1.00  0.00    -0.287 SA 
ENDBRANCH  13  14
BRANCH  13  17
HETATM   17  C   UNL     1      -9.239   5.848  70.573  1.00  0.00    -0.152 C  
HETATM   18  O   UNL     1      -8.106   5.456  70.831  1.00  0.00    -0.107 OA 
BRANCH  17  19
HETATM   19  O   UNL     1      -9.956   5.474  69.473  1.00  0.00    -0.174 OA 
BRANCH  19  20
HETATM   20  C   UNL     1      -9.232   5.430  68.237  1.00  0.00    -0.111 C  
HETATM   21  C   UNL     1      -9.896   4.484  67.259  1.00  0.00    -0.216 C  
ENDBRANCH  19  20
ENDBRANCH  17  19
ENDBRANCH  13  17
ENDBRANCH  11  13
ENDBRANCH  10  11
ENDBRANCH   9  10
ENDBRANCH   7   9
ENDBRANCH   6   7
BRANCH   6  22
HETATM   22  C   UNL     1     -11.324  11.426  67.366  1.00  0.00    -0.288 C  
HETATM   23  H   UNL     1     -12.790  13.676  67.777  1.00  0.00     0.000 H  
HETATM   24  S   UNL     1     -11.609  13.049  68.154  1.00  0.00    -0.362 SA 
ENDBRANCH   6  22
ENDBRANCH   4   6
ENDBRANCH   3   4
ENDBRANCH   2   3
TORSDOF 13
ENDMDL
MODEL      425
REMARK 921   NORMALIZED FREE ENERGY PREDICTED BY IDOCK:   -2.48 KCAL/MOL
REMARK 922        TOTAL FREE ENERGY PREDICTED BY IDOCK:   -4.96 KCAL/MOL
REMARK 923 INTER-LIGAND FREE ENERGY PREDICTED BY IDOCK:   -4.58 KCAL/MOL
REMARK 924 INTRA-LIGAND FREE ENERGY PREDICTED BY IDOCK:   -0.38 KCAL/MOL
REMARK 927      BINDING AFFINITY PREDICTED BY RF-SCORE:    0.00 PKD
ROOT
HETATM    1  C   UNL     1      -8.562   6.670  69.970  1.00  0.00    -0.140 C  
HETATM    2  C   UNL     1      -8.359   6.715  68.471  1.00  0.00    -0.122 C  
ENDROOT
BRANCH   2   3
HETATM    3  O   UNL     1      -8.991   7.880  67.918  1.00  0.00    -0.130 OA 
BRANCH   3   4
HETATM    4  C   UNL     1      -8.644   8.191  66.637  1.00  0.00    -0.135 C  
HETATM    5  O   UNL     1      -8.683   7.419  65.687  1.00  0.00    -0.145 OA 
BRANCH   4   6
HETATM    6  C   UNL     1      -8.205   9.666  66.568  1.00  0.00    -0.119 C  
BRANCH   6   7
HETATM    7  N   UNL     1      -9.339  10.507  66.095  1.00  0.00    -0.170 NA 
HETATM    8  H   UNL     1      -9.675  10.174  65.191  1.00  0.00     0.000 HD 
BRANCH   7   9
HETATM    9  C   UNL     1     -10.450  10.616  67.046  1.00  0.00    -0.243 C  
BRANCH   9  10
HETATM   10  C   UNL     1     -10.567  12.014  67.693  1.00  0.00    -0.210 C  
BRANCH  10  11
HETATM   11  N   UNL     1     -11.922  12.590  67.684  1.00  0.00    -0.452 NA 
HETATM   12  H   UNL     1     -12.426  12.330  68.532  1.00  0.00     0.000 HD 
BRANCH  11  13
HETATM   13  C   UNL     1     -11.959  14.070  67.488  1.00  0.00    -0.395 C  
BRANCH  13  14
HETATM   14  C   UNL     1     -11.676  14.861  68.784  1.00  0.00    -0.325 C  
HETATM   15  H   UNL     1     -11.950  14.712  71.475  1.00  0.00     0.000 H  
HETATM   16  S   UNL     1     -12.204  14.000  70.309  1.00  0.00    -0.372 SA 
ENDBRANCH  13  14
BRANCH  13  17
HETATM   17  C   UNL     1     -10.951  14.473  66.389  1.00  0.00    -0.324 C  
HETATM   18  O   UNL     1     -11.031  14.166  65.205  1.00  0.00    -0.307 OA 
BRANCH  17  19
HETATM   19  O   UNL     1      -9.953  15.236  66.926  1.00  0.00    -0.234 OA 
BRANCH  19  20
HETATM   20  C   UNL     1      -9.511  16.342  66.128  1.00  0.00    -0.339 C  
HETATM   21  C   UNL     1      -9.633  17.641  66.897  1.00  0.00    -0.286 C  
ENDBRANCH  19  20
ENDBRANCH  17  19
ENDBRANCH  13  17
ENDBRANCH  11  13
ENDBRANCH  10  11
ENDBRANCH   9  10
ENDBRANCH   7   9
ENDBRANCH   6   7
BRANCH   6  22
HETATM   22  C   UNL     1      -7.585  10.074  67.920  1.00  0.00    -0.089 C  
HETATM   23  H   UNL     1      -5.256  10.021  69.318  1.00  0.00     0.000 H  
HETATM   24  S   UNL     1      -5.816   9.654  68.101  1.00  0.00    -0.039 SA 
ENDBRANCH   6  22
ENDBRANCH   4   6
ENDBRANCH   3   4
ENDBRANCH   2   3
TORSDOF 13
ENDMDL
MODEL      426
REMARK 921   NORMALIZED FREE ENERGY PREDICTED BY IDOCK:   -2.48 KCAL/MOL
REMARK 922        TOTAL FREE ENERGY PREDICTED BY IDOCK:   -4.95 KCAL/MOL
REMARK 923 INTER-LIGAND FREE ENERGY PREDICTED BY IDOCK:   -4.13 KCAL/MOL
REMARK 924 INTRA-LIGAND FREE ENERGY PREDICTED BY IDOCK:   -0.83 KCAL/MOL
REMARK 927      BINDING AFFINITY PREDICTED BY RF-SCORE:    0.00 PKD
ROOT
HETATM    1  C   UNL     1      -9.301   9.478  65.080  1.00  0.00    -0.294 C  
HETATM    2  C   UNL     1      -9.163  10.974  64.891  1.00  0.00    -0.188 C  
ENDROOT
BRANCH   2   3
HETATM    3  O   UNL     1     -10.362  11.641  65.312  1.00  0.00    -0.247 OA 
BRANCH   3   4
HETATM    4  C   UNL     1     -10.205  12.590  66.278  1.00  0.00    -0.248 C  
HETATM    5  O   UNL     1      -9.920  13.764  66.077  1.00  0.00    -0.297 OA 
BRANCH   4   6
HETATM    6  C   UNL     1     -10.454  11.959  67.662  1.00  0.00    -0.208 C  
BRANCH   6   7
HETATM    7  N   UNL     1      -9.325  12.286  68.575  1.00  0.00    -0.361 NA 
HETATM    8  H   UNL     1      -9.652  12.341  69.540  1.00  0.00     0.000 HD 
BRANCH   7   9
HETATM    9  C   UNL     1      -8.180  11.376  68.473  1.00  0.00    -0.153 C  
BRANCH   9  10
HETATM   10  C   UNL     1      -8.142  10.312  69.593  1.00  0.00    -0.145 C  
BRANCH  10  11
HETATM   11  N   UNL     1      -8.607   8.974  69.194  1.00  0.00    -0.131 NA 
HETATM   12  H   UNL     1      -7.812   8.365  68.996  1.00  0.00     0.000 HD 
BRANCH  11  13
HETATM   13  C   UNL     1      -9.530   8.327  70.172  1.00  0.00    -0.167 C  
BRANCH  13  14
HETATM   14  C   UNL     1     -10.058   6.957  69.695  1.00  0.00    -0.184 C  
HETATM   15  H   UNL     1      -9.533   4.964  67.936  1.00  0.00     0.000 H  
HETATM   16  S   UNL     1      -9.057   6.198  68.366  1.00  0.00    -0.111 SA 
ENDBRANCH  13  14
BRANCH  13  17
HETATM   17  C   UNL     1      -8.819   8.176  71.535  1.00  0.00    -0.154 C  
HETATM   18  O   UNL     1      -9.126   8.766  72.565  1.00  0.00    -0.367 OA 
BRANCH  17  19
HETATM   19  O   UNL     1      -7.796   7.278  71.433  1.00  0.00    -0.094 OA 
BRANCH  19  20
HETATM   20  C   UNL     1      -6.578   7.635  72.099  1.00  0.00    -0.055 C  
HETATM   21  C   UNL     1      -6.242   6.630  73.180  1.00  0.00    -0.059 C  
ENDBRANCH  19  20
ENDBRANCH  17  19
ENDBRANCH  13  17
ENDBRANCH  11  13
ENDBRANCH  10  11
ENDBRANCH   9  10
ENDBRANCH   7   9
ENDBRANCH   6   7
BRANCH   6  22
HETATM   22  C   UNL     1     -11.858  12.362  68.158  1.00  0.00    -0.315 C  
HETATM   23  H   UNL     1     -13.130  14.029  69.884  1.00  0.00     0.000 H  
HETATM   24  S   UNL     1     -11.866  13.666  69.437  1.00  0.00    -0.348 SA 
ENDBRANCH   6  22
ENDBRANCH   4   6
ENDBRANCH   3   4
ENDBRANCH   2   3
TORSDOF 13
ENDMDL
MODEL      427
REMARK 921   NORMALIZED FREE ENERGY PREDICTED BY IDOCK:   -2.46 KCAL/MOL
REMARK 922        TOTAL FREE ENERGY PREDICTED BY IDOCK:   -4.93 KCAL/MOL
REMARK 923 INTER-LIGAND FREE ENERGY PREDICTED BY IDOCK:   -4.42 KCAL/MOL
REMARK 924 INTRA-LIGAND FREE ENERGY PREDICTED BY IDOCK:   -0.51 KCAL/MOL
REMARK 927      BINDING AFFINITY PREDICTED BY RF-SCORE:    0.00 PKD
ROOT
HETATM    1  C   UNL     1      -8.468   7.953  74.173  1.00  0.00    -0.312 C  
HETATM    2  C   UNL     1      -9.578   7.003  73.776  1.00  0.00    -0.244 C  
ENDROOT
BRANCH   2   3
HETATM    3  O   UNL     1      -9.663   6.908  72.345  1.00  0.00    -0.154 OA 
BRANCH   3   4
HETATM    4  C   UNL     1     -10.921   6.946  71.821  1.00  0.00    -0.230 C  
HETATM    5  O   UNL     1     -11.511   5.991  71.331  1.00  0.00    -0.277 OA 
BRANCH   4   6
HETATM    6  C   UNL     1     -11.489   8.372  71.951  1.00  0.00    -0.318 C  
BRANCH   6   7
HETATM    7  N   UNL     1     -10.534   9.350  71.359  1.00  0.00    -0.331 NA 
HETATM    8  H   UNL     1      -9.588   9.173  71.699  1.00  0.00     0.000 HD 
BRANCH   7   9
HETATM    9  C   UNL     1     -10.551   9.401  69.894  1.00  0.00    -0.234 C  
BRANCH   9  10
HETATM   10  C   UNL     1      -9.953  10.705  69.320  1.00  0.00    -0.193 C  
BRANCH  10  11
HETATM   11  N   UNL     1      -9.372  10.580  67.973  1.00  0.00    -0.143 NA 
HETATM   12  H   UNL     1      -8.672   9.838  67.954  1.00  0.00     0.000 HD 
BRANCH  11  13
HETATM   13  C   UNL     1     -10.377  10.379  66.888  1.00  0.00    -0.240 C  
BRANCH  13  14
HETATM   14  C   UNL     1     -10.743  11.685  66.149  1.00  0.00    -0.278 C  
HETATM   15  H   UNL     1     -10.296  14.357  66.194  1.00  0.00     0.000 H  
HETATM   16  S   UNL     1      -9.965  13.181  66.859  1.00  0.00    -0.250 SA 
ENDBRANCH  13  14
BRANCH  13  17
HETATM   17  C   UNL     1      -9.852   9.331  65.882  1.00  0.00    -0.265 C  
HETATM   18  O   UNL     1      -9.521   8.183  66.161  1.00  0.00    -0.201 OA 
BRANCH  17  19
HETATM   19  O   UNL     1      -9.817   9.863  64.625  1.00  0.00    -0.285 OA 
BRANCH  19  20
HETATM   20  C   UNL     1      -8.876   9.273  63.720  1.00  0.00    -0.118 C  
HETATM   21  C   UNL     1      -8.444  10.273  62.668  1.00  0.00    -0.193 C  
ENDBRANCH  19  20
ENDBRANCH  17  19
ENDBRANCH  13  17
ENDBRANCH  11  13
ENDBRANCH  10  11
ENDBRANCH   9  10
ENDBRANCH   7   9
ENDBRANCH   6   7
BRANCH   6  22
HETATM   22  C   UNL     1     -12.921   8.402  71.381  1.00  0.00    -0.229 C  
HETATM   23  H   UNL     1     -15.533   8.410  72.130  1.00  0.00     0.000 H  
HETATM   24  S   UNL     1     -14.242   8.383  72.643  1.00  0.00     0.077 SA 
ENDBRANCH   6  22
ENDBRANCH   4   6
ENDBRANCH   3   4
ENDBRANCH   2   3
TORSDOF 13
ENDMDL
MODEL      428
REMARK 921   NORMALIZED FREE ENERGY PREDICTED BY IDOCK:   -2.45 KCAL/MOL
REMARK 922        TOTAL FREE ENERGY PREDICTED BY IDOCK:   -4.91 KCAL/MOL
REMARK 923 INTER-LIGAND FREE ENERGY PREDICTED BY IDOCK:   -4.03 KCAL/MOL
REMARK 924 INTRA-LIGAND FREE ENERGY PREDICTED BY IDOCK:   -0.88 KCAL/MOL
REMARK 927      BINDING AFFINITY PREDICTED BY RF-SCORE:    0.00 PKD
ROOT
HETATM    1  C   UNL     1     -11.016   6.534  67.598  1.00  0.00    -0.426 C  
HETATM    2  C   UNL     1     -11.113   6.251  69.082  1.00  0.00    -0.390 C  
ENDROOT
BRANCH   2   3
HETATM    3  O   UNL     1      -9.875   5.710  69.567  1.00  0.00    -0.156 OA 
BRANCH   3   4
HETATM    4  C   UNL     1      -9.688   5.772  70.916  1.00  0.00    -0.174 C  
HETATM    5  O   UNL     1     -10.446   5.304  71.756  1.00  0.00    -0.212 OA 
BRANCH   4   6
HETATM    6  C   UNL     1      -8.372   6.514  71.218  1.00  0.00    -0.125 C  
BRANCH   6   7
HETATM    7  N   UNL     1      -8.651   7.715  72.053  1.00  0.00    -0.106 NA 
HETATM    8  H   UNL     1      -7.881   7.884  72.701  1.00  0.00     0.000 HD 
BRANCH   7   9
HETATM    9  C   UNL     1      -8.953   8.928  71.288  1.00  0.00    -0.243 C  
BRANCH   9  10
HETATM   10  C   UNL     1      -7.747   9.459  70.481  1.00  0.00    -0.161 C  
BRANCH  10  11
HETATM   11  N   UNL     1      -7.894  10.835  69.978  1.00  0.00    -0.359 NA 
HETATM   12  H   UNL     1      -7.090  11.401  70.249  1.00  0.00     0.000 HD 
BRANCH  11  13
HETATM   13  C   UNL     1      -8.126  10.928  68.507  1.00  0.00    -0.137 C  
BRANCH  13  14
HETATM   14  C   UNL     1      -7.530   9.740  67.720  1.00  0.00    -0.090 C  
HETATM   15  H   UNL     1      -6.869   8.961  65.212  1.00  0.00     0.000 H  
HETATM   16  S   UNL     1      -7.405  10.031  65.919  1.00  0.00    -0.121 SA 
ENDBRANCH  13  14
BRANCH  13  17
HETATM   17  C   UNL     1      -9.641  11.043  68.227  1.00  0.00    -0.171 C  
HETATM   18  O   UNL     1     -10.460  10.143  68.373  1.00  0.00    -0.187 OA 
BRANCH  17  19
HETATM   19  O   UNL     1      -9.945  12.304  67.800  1.00  0.00    -0.191 OA 
BRANCH  19  20
HETATM   20  C   UNL     1     -10.481  12.405  66.474  1.00  0.00    -0.230 C  
HETATM   21  C   UNL     1     -11.957  12.740  66.517  1.00  0.00    -0.428 C  
ENDBRANCH  19  20
ENDBRANCH  17  19
ENDBRANCH  13  17
ENDBRANCH  11  13
ENDBRANCH  10  11
ENDBRANCH   9  10
ENDBRANCH   7   9
ENDBRANCH   6   7
BRANCH   6  22
HETATM   22  C   UNL     1      -7.349   5.516  71.798  1.00  0.00    -0.091 C  
HETATM   23  H   UNL     1      -5.722   3.456  71.096  1.00  0.00     0.000 H  
HETATM   24  S   UNL     1      -6.644   4.356  70.575  1.00  0.00    -0.036 SA 
ENDBRANCH   6  22
ENDBRANCH   4   6
ENDBRANCH   3   4
ENDBRANCH   2   3
TORSDOF 13
ENDMDL
MODEL      429
REMARK 921   NORMALIZED FREE ENERGY PREDICTED BY IDOCK:   -2.45 KCAL/MOL
REMARK 922        TOTAL FREE ENERGY PREDICTED BY IDOCK:   -4.90 KCAL/MOL
REMARK 923 INTER-LIGAND FREE ENERGY PREDICTED BY IDOCK:   -3.98 KCAL/MOL
REMARK 924 INTRA-LIGAND FREE ENERGY PREDICTED BY IDOCK:   -0.92 KCAL/MOL
REMARK 927      BINDING AFFINITY PREDICTED BY RF-SCORE:    0.00 PKD
ROOT
HETATM    1  C   UNL     1      -6.631  12.944  67.354  1.00  0.00    -0.132 C  
HETATM    2  C   UNL     1      -6.794  11.940  68.474  1.00  0.00    -0.076 C  
ENDROOT
BRANCH   2   3
HETATM    3  O   UNL     1      -8.185  11.760  68.783  1.00  0.00    -0.121 OA 
BRANCH   3   4
HETATM    4  C   UNL     1      -8.729  10.569  68.401  1.00  0.00    -0.137 C  
HETATM    5  O   UNL     1      -8.505   9.998  67.341  1.00  0.00    -0.121 OA 
BRANCH   4   6
HETATM    6  C   UNL     1      -9.659  10.050  69.514  1.00  0.00    -0.230 C  
BRANCH   6   7
HETATM    7  N   UNL     1      -8.874   9.811  70.756  1.00  0.00    -0.364 NA 
HETATM    8  H   UNL     1      -9.493   9.542  71.521  1.00  0.00     0.000 HD 
BRANCH   7   9
HETATM    9  C   UNL     1      -7.789   8.836  70.609  1.00  0.00    -0.107 C  
BRANCH   9  10
HETATM   10  C   UNL     1      -8.279   7.435  70.179  1.00  0.00    -0.133 C  
BRANCH  10  11
HETATM   11  N   UNL     1      -8.742   6.575  71.281  1.00  0.00    -0.130 NA 
HETATM   12  H   UNL     1      -8.764   7.099  72.156  1.00  0.00     0.000 HD 
BRANCH  11  13
HETATM   13  C   UNL     1     -10.059   5.917  71.033  1.00  0.00    -0.200 C  
BRANCH  13  14
HETATM   14  C   UNL     1     -10.004   4.379  71.165  1.00  0.00    -0.173 C  
HETATM   15  H   UNL     1      -9.163   2.158  69.863  1.00  0.00     0.000 H  
HETATM   16  S   UNL     1      -9.213   3.542  69.745  1.00  0.00    -0.161 SA 
ENDBRANCH  13  14
BRANCH  13  17
HETATM   17  C   UNL     1     -11.118   6.495  71.999  1.00  0.00    -0.258 C  
HETATM   18  O   UNL     1     -11.634   5.889  72.931  1.00  0.00    -0.227 OA 
BRANCH  17  19
HETATM   19  O   UNL     1     -11.393   7.792  71.671  1.00  0.00    -0.244 OA 
BRANCH  19  20
HETATM   20  C   UNL     1     -12.466   8.408  72.395  1.00  0.00    -0.331 C  
HETATM   21  C   UNL     1     -13.804   8.025  71.800  1.00  0.00    -0.452 C  
ENDBRANCH  19  20
ENDBRANCH  17  19
ENDBRANCH  13  17
ENDBRANCH  11  13
ENDBRANCH  10  11
ENDBRANCH   9  10
ENDBRANCH   7   9
ENDBRANCH   6   7
BRANCH   6  22
HETATM   22  C   UNL     1     -10.864  11.004  69.653  1.00  0.00    -0.183 C  
HETATM   23  H   UNL     1     -12.782  12.269  68.204  1.00  0.00     0.000 H  
HETATM   24  S   UNL     1     -11.697  11.410  68.079  1.00  0.00    -0.198 SA 
ENDBRANCH   6  22
ENDBRANCH   4   6
ENDBRANCH   3   4
ENDBRANCH   2   3
TORSDOF 13
ENDMDL
MODEL      430
REMARK 921   NORMALIZED FREE ENERGY PREDICTED BY IDOCK:   -2.45 KCAL/MOL
REMARK 922        TOTAL FREE ENERGY PREDICTED BY IDOCK:   -4.90 KCAL/MOL
REMARK 923 INTER-LIGAND FREE ENERGY PREDICTED BY IDOCK:   -4.07 KCAL/MOL
REMARK 924 INTRA-LIGAND FREE ENERGY PREDICTED BY IDOCK:   -0.83 KCAL/MOL
REMARK 927      BINDING AFFINITY PREDICTED BY RF-SCORE:    0.00 PKD
ROOT
HETATM    1  C   UNL     1      -7.704   6.930  63.451  1.00  0.00    -0.106 C  
HETATM    2  C   UNL     1      -7.020   6.091  64.510  1.00  0.00    -0.051 C  
ENDROOT
BRANCH   2   3
HETATM    3  O   UNL     1      -7.450   6.495  65.819  1.00  0.00    -0.077 OA 
BRANCH   3   4
HETATM    4  C   UNL     1      -7.360   5.544  66.792  1.00  0.00    -0.083 C  
HETATM    5  O   UNL     1      -6.333   4.959  67.115  1.00  0.00    -0.038 OA 
BRANCH   4   6
HETATM    6  C   UNL     1      -8.745   5.329  67.430  1.00  0.00    -0.106 C  
BRANCH   6   7
HETATM    7  N   UNL     1      -9.524   6.597  67.383  1.00  0.00    -0.127 NA 
HETATM    8  H   UNL     1      -9.374   7.073  66.492  1.00  0.00     0.000 HD 
BRANCH   7   9
HETATM    9  C   UNL     1     -10.958   6.438  67.643  1.00  0.00    -0.349 C  
BRANCH   9  10
HETATM   10  C   UNL     1     -11.272   5.995  69.090  1.00  0.00    -0.267 C  
BRANCH  10  11
HETATM   11  N   UNL     1     -11.581   7.093  70.021  1.00  0.00    -0.520 NA 
HETATM   12  H   UNL     1     -12.496   6.950  70.449  1.00  0.00     0.000 HD 
BRANCH  11  13
HETATM   13  C   UNL     1     -10.544   7.319  71.070  1.00  0.00    -0.221 C  
BRANCH  13  14
HETATM   14  C   UNL     1      -9.928   8.734  71.021  1.00  0.00    -0.234 C  
HETATM   15  H   UNL     1     -10.383  11.225  70.056  1.00  0.00     0.000 H  
HETATM   16  S   UNL     1     -10.938   9.950  70.101  1.00  0.00    -0.322 SA 
ENDBRANCH  13  14
BRANCH  13  17
HETATM   17  C   UNL     1     -11.149   7.051  72.465  1.00  0.00    -0.274 C  
HETATM   18  O   UNL     1     -11.303   7.891  73.345  1.00  0.00    -0.250 OA 
BRANCH  17  19
HETATM   19  O   UNL     1     -11.503   5.737  72.578  1.00  0.00    -0.293 OA 
BRANCH  19  20
HETATM   20  C   UNL     1     -10.426   4.812  72.777  1.00  0.00    -0.202 C  
HETATM   21  C   UNL     1     -10.101   4.674  74.249  1.00  0.00    -0.249 C  
ENDBRANCH  19  20
ENDBRANCH  17  19
ENDBRANCH  13  17
ENDBRANCH  11  13
ENDBRANCH  10  11
ENDBRANCH   9  10
ENDBRANCH   7   9
ENDBRANCH   6   7
BRANCH   6  22
HETATM   22  C   UNL     1      -9.418   4.103  66.780  1.00  0.00    -0.193 C  
HETATM   23  H   UNL     1      -9.918   1.463  67.178  1.00  0.00     0.000 H  
HETATM   24  S   UNL     1      -9.312   2.568  67.764  1.00  0.00    -0.113 SA 
ENDBRANCH   6  22
ENDBRANCH   4   6
ENDBRANCH   3   4
ENDBRANCH   2   3
TORSDOF 13
ENDMDL
MODEL      431
REMARK 921   NORMALIZED FREE ENERGY PREDICTED BY IDOCK:   -2.45 KCAL/MOL
REMARK 922        TOTAL FREE ENERGY PREDICTED BY IDOCK:   -4.90 KCAL/MOL
REMARK 923 INTER-LIGAND FREE ENERGY PREDICTED BY IDOCK:   -5.14 KCAL/MOL
REMARK 924 INTRA-LIGAND FREE ENERGY PREDICTED BY IDOCK:    0.24 KCAL/MOL
REMARK 927      BINDING AFFINITY PREDICTED BY RF-SCORE:    0.00 PKD
ROOT
HETATM    1  C   UNL     1     -10.650  14.977  64.897  1.00  0.00    -0.400 C  
HETATM    2  C   UNL     1      -9.993  15.287  66.225  1.00  0.00    -0.284 C  
ENDROOT
BRANCH   2   3
HETATM    3  O   UNL     1     -10.984  15.386  67.259  1.00  0.00    -0.316 OA 
BRANCH   3   4
HETATM    4  C   UNL     1     -11.910  14.386  67.291  1.00  0.00    -0.405 C  
HETATM    5  O   UNL     1     -12.641  14.070  66.360  1.00  0.00    -0.428 OA 
BRANCH   4   6
HETATM    6  C   UNL     1     -11.887  13.708  68.675  1.00  0.00    -0.374 C  
BRANCH   6   7
HETATM    7  N   UNL     1     -10.622  12.939  68.837  1.00  0.00    -0.400 NA 
HETATM    8  H   UNL     1      -9.990  13.426  69.474  1.00  0.00     0.000 HD 
BRANCH   7   9
HETATM    9  C   UNL     1     -10.809  11.549  69.264  1.00  0.00    -0.167 C  
BRANCH   9  10
HETATM   10  C   UNL     1      -9.519  10.704  69.180  1.00  0.00    -0.170 C  
BRANCH  10  11
HETATM   11  N   UNL     1      -8.979  10.530  67.821  1.00  0.00    -0.132 NA 
HETATM   12  H   UNL     1      -8.003  10.236  67.860  1.00  0.00     0.000 HD 
BRANCH  11  13
HETATM   13  C   UNL     1      -9.771   9.603  66.960  1.00  0.00    -0.181 C  
BRANCH  13  14
HETATM   14  C   UNL     1     -10.069  10.180  65.559  1.00  0.00    -0.268 C  
HETATM   15  H   UNL     1      -9.018  10.389  63.071  1.00  0.00     0.000 H  
HETATM   16  S   UNL     1      -8.749   9.869  64.332  1.00  0.00    -0.221 SA 
ENDBRANCH  13  14
BRANCH  13  17
HETATM   17  C   UNL     1      -9.029   8.254  66.832  1.00  0.00    -0.146 C  
HETATM   18  O   UNL     1      -7.847   8.065  67.100  1.00  0.00    -0.102 OA 
BRANCH  17  19
HETATM   19  O   UNL     1      -9.884   7.289  66.383  1.00  0.00    -0.156 OA 
BRANCH  19  20
HETATM   20  C   UNL     1     -11.065   7.082  67.169  1.00  0.00    -0.228 C  
HETATM   21  C   UNL     1     -10.844   5.985  68.189  1.00  0.00    -0.365 C  
ENDBRANCH  19  20
ENDBRANCH  17  19
ENDBRANCH  13  17
ENDBRANCH  11  13
ENDBRANCH  10  11
ENDBRANCH   9  10
ENDBRANCH   7   9
ENDBRANCH   6   7
BRANCH   6  22
HETATM   22  C   UNL     1     -12.175  14.765  69.761  1.00  0.00    -0.294 C  
HETATM   23  H   UNL     1     -10.956  16.307  71.636  1.00  0.00     0.000 H  
HETATM   24  S   UNL     1     -10.697  15.356  70.657  1.00  0.00    -0.101 SA 
ENDBRANCH   6  22
ENDBRANCH   4   6
ENDBRANCH   3   4
ENDBRANCH   2   3
TORSDOF 13
ENDMDL
MODEL      432
REMARK 921   NORMALIZED FREE ENERGY PREDICTED BY IDOCK:   -2.43 KCAL/MOL
REMARK 922        TOTAL FREE ENERGY PREDICTED BY IDOCK:   -4.86 KCAL/MOL
REMARK 923 INTER-LIGAND FREE ENERGY PREDICTED BY IDOCK:   -3.92 KCAL/MOL
REMARK 924 INTRA-LIGAND FREE ENERGY PREDICTED BY IDOCK:   -0.94 KCAL/MOL
REMARK 927      BINDING AFFINITY PREDICTED BY RF-SCORE:    0.00 PKD
ROOT
HETATM    1  C   UNL     1     -11.649   9.889  70.942  1.00  0.00    -0.456 C  
HETATM    2  C   UNL     1     -11.109   8.831  71.880  1.00  0.00    -0.364 C  
ENDROOT
BRANCH   2   3
HETATM    3  O   UNL     1     -10.417   7.815  71.139  1.00  0.00    -0.208 OA 
BRANCH   3   4
HETATM    4  C   UNL     1     -11.136   6.690  70.861  1.00  0.00    -0.286 C  
HETATM    5  O   UNL     1     -12.092   6.632  70.098  1.00  0.00    -0.323 OA 
BRANCH   4   6
HETATM    6  C   UNL     1     -10.551   5.501  71.648  1.00  0.00    -0.231 C  
BRANCH   6   7
HETATM    7  N   UNL     1      -9.065   5.584  71.656  1.00  0.00    -0.142 NA 
HETATM    8  H   UNL     1      -8.684   5.055  72.441  1.00  0.00     0.000 HD 
BRANCH   7   9
HETATM    9  C   UNL     1      -8.429   5.168  70.402  1.00  0.00    -0.109 C  
BRANCH   9  10
HETATM   10  C   UNL     1      -7.541   6.266  69.773  1.00  0.00    -0.086 C  
BRANCH  10  11
HETATM   11  N   UNL     1      -7.477   6.244  68.302  1.00  0.00    -0.089 NA 
HETATM   12  H   UNL     1      -8.349   5.883  67.913  1.00  0.00     0.000 HD 
BRANCH  11  13
HETATM   13  C   UNL     1      -7.134   7.558  67.684  1.00  0.00    -0.085 C  
BRANCH  13  14
HETATM   14  C   UNL     1      -7.240   7.551  66.143  1.00  0.00    -0.074 C  
HETATM   15  H   UNL     1      -6.395   8.885  63.941  1.00  0.00     0.000 H  
HETATM   16  S   UNL     1      -6.300   8.892  65.328  1.00  0.00    -0.064 SA 
ENDBRANCH  13  14
BRANCH  13  17
HETATM   17  C   UNL     1      -8.041   8.662  68.272  1.00  0.00    -0.118 C  
HETATM   18  O   UNL     1      -7.656   9.614  68.942  1.00  0.00    -0.073 OA 
BRANCH  17  19
HETATM   19  O   UNL     1      -9.342   8.432  67.929  1.00  0.00    -0.135 OA 
BRANCH  19  20
HETATM   20  C   UNL     1     -10.143   9.596  67.689  1.00  0.00    -0.194 C  
HETATM   21  C   UNL     1      -9.847  10.179  66.323  1.00  0.00    -0.288 C  
ENDBRANCH  19  20
ENDBRANCH  17  19
ENDBRANCH  13  17
ENDBRANCH  11  13
ENDBRANCH  10  11
ENDBRANCH   9  10
ENDBRANCH   7   9
ENDBRANCH   6   7
BRANCH   6  22
HETATM   22  C   UNL     1     -11.228   5.428  73.033  1.00  0.00    -0.311 C  
HETATM   23  H   UNL     1     -10.720   5.690  75.688  1.00  0.00     0.000 H  
HETATM   24  S   UNL     1     -10.111   5.755  74.441  1.00  0.00    -0.289 SA 
ENDBRANCH   6  22
ENDBRANCH   4   6
ENDBRANCH   3   4
ENDBRANCH   2   3
TORSDOF 13
ENDMDL
MODEL      433
REMARK 921   NORMALIZED FREE ENERGY PREDICTED BY IDOCK:   -2.43 KCAL/MOL
REMARK 922        TOTAL FREE ENERGY PREDICTED BY IDOCK:   -4.86 KCAL/MOL
REMARK 923 INTER-LIGAND FREE ENERGY PREDICTED BY IDOCK:   -3.38 KCAL/MOL
REMARK 924 INTRA-LIGAND FREE ENERGY PREDICTED BY IDOCK:   -1.48 KCAL/MOL
REMARK 927      BINDING AFFINITY PREDICTED BY RF-SCORE:    0.00 PKD
ROOT
HETATM    1  C   UNL     1      -6.181   7.767  69.437  1.00  0.00    -0.034 C  
HETATM    2  C   UNL     1      -7.000   7.748  70.710  1.00  0.00    -0.046 C  
ENDROOT
BRANCH   2   3
HETATM    3  O   UNL     1      -8.040   6.763  70.617  1.00  0.00    -0.115 OA 
BRANCH   3   4
HETATM    4  C   UNL     1      -9.232   7.103  71.188  1.00  0.00    -0.157 C  
HETATM    5  O   UNL     1      -9.668   6.647  72.237  1.00  0.00    -0.151 OA 
BRANCH   4   6
HETATM    6  C   UNL     1      -9.937   8.157  70.313  1.00  0.00    -0.189 C  
BRANCH   6   7
HETATM    7  N   UNL     1     -10.111   7.630  68.932  1.00  0.00    -0.192 NA 
HETATM    8  H   UNL     1      -9.202   7.478  68.492  1.00  0.00     0.000 HD 
BRANCH   7   9
HETATM    9  C   UNL     1     -10.930   6.417  68.844  1.00  0.00    -0.346 C  
BRANCH   9  10
HETATM   10  C   UNL     1     -10.257   5.279  68.044  1.00  0.00    -0.143 C  
BRANCH  10  11
HETATM   11  N   UNL     1      -8.795   5.393  67.916  1.00  0.00    -0.106 NA 
HETATM   12  H   UNL     1      -8.331   4.674  68.472  1.00  0.00     0.000 HD 
BRANCH  11  13
HETATM   13  C   UNL     1      -8.298   5.366  66.508  1.00  0.00    -0.109 C  
BRANCH  13  14
HETATM   14  C   UNL     1      -9.334   4.805  65.509  1.00  0.00    -0.159 C  
HETATM   15  H   UNL     1     -10.018   2.536  64.196  1.00  0.00     0.000 H  
HETATM   16  S   UNL     1      -9.086   3.041  65.095  1.00  0.00    -0.149 SA 
ENDBRANCH  13  14
BRANCH  13  17
HETATM   17  C   UNL     1      -7.866   6.786  66.083  1.00  0.00    -0.102 C  
HETATM   18  O   UNL     1      -6.717   7.133  65.831  1.00  0.00    -0.050 OA 
BRANCH  17  19
HETATM   19  O   UNL     1      -8.955   7.607  66.015  1.00  0.00    -0.171 OA 
BRANCH  19  20
HETATM   20  C   UNL     1      -8.685   8.984  65.722  1.00  0.00    -0.169 C  
HETATM   21  C   UNL     1      -9.967   9.790  65.706  1.00  0.00    -0.349 C  
ENDBRANCH  19  20
ENDBRANCH  17  19
ENDBRANCH  13  17
ENDBRANCH  11  13
ENDBRANCH  10  11
ENDBRANCH   9  10
ENDBRANCH   7   9
ENDBRANCH   6   7
BRANCH   6  22
HETATM   22  C   UNL     1     -11.226   8.623  71.021  1.00  0.00    -0.271 C  
HETATM   23  H   UNL     1     -12.893  10.754  71.266  1.00  0.00     0.000 H  
HETATM   24  S   UNL     1     -11.732  10.333  70.628  1.00  0.00    -0.371 SA 
ENDBRANCH   6  22
ENDBRANCH   4   6
ENDBRANCH   3   4
ENDBRANCH   2   3
TORSDOF 13
ENDMDL
MODEL      434
REMARK 921   NORMALIZED FREE ENERGY PREDICTED BY IDOCK:   -2.42 KCAL/MOL
REMARK 922        TOTAL FREE ENERGY PREDICTED BY IDOCK:   -4.85 KCAL/MOL
REMARK 923 INTER-LIGAND FREE ENERGY PREDICTED BY IDOCK:   -5.11 KCAL/MOL
REMARK 924 INTRA-LIGAND FREE ENERGY PREDICTED BY IDOCK:    0.26 KCAL/MOL
REMARK 927      BINDING AFFINITY PREDICTED BY RF-SCORE:    0.00 PKD
ROOT
HETATM    1  C   UNL     1     -11.945  11.726  69.960  1.00  0.00    -0.421 C  
HETATM    2  C   UNL     1     -12.082  12.009  68.479  1.00  0.00    -0.056 C  
ENDROOT
BRANCH   2   3
HETATM    3  O   UNL     1     -11.419  10.990  67.715  1.00  0.00    -0.425 OA 
BRANCH   3   4
HETATM    4  C   UNL     1     -10.066  10.918  67.868  1.00  0.00    -0.177 C  
HETATM    5  O   UNL     1      -9.481  10.164  68.636  1.00  0.00    -0.152 OA 
BRANCH   4   6
HETATM    6  C   UNL     1      -9.388  11.924  66.919  1.00  0.00    -0.196 C  
BRANCH   6   7
HETATM    7  N   UNL     1      -9.328  13.264  67.565  1.00  0.00    -0.209 NA 
HETATM    8  H   UNL     1      -8.585  13.289  68.263  1.00  0.00     0.000 HD 
BRANCH   7   9
HETATM    9  C   UNL     1      -9.188  14.383  66.628  1.00  0.00    -0.261 C  
BRANCH   9  10
HETATM   10  C   UNL     1     -10.455  15.260  66.527  1.00  0.00    -0.298 C  
BRANCH  10  11
HETATM   11  N   UNL     1     -10.603  16.262  67.595  1.00  0.00    -0.306 NA 
HETATM   12  H   UNL     1     -10.294  15.878  68.489  1.00  0.00     0.000 HD 
BRANCH  11  13
HETATM   13  C   UNL     1      -9.918  17.559  67.320  1.00  0.00    -0.312 C  
BRANCH  13  14
HETATM   14  C   UNL     1     -10.886  18.762  67.287  1.00  0.00    -0.340 C  
HETATM   15  H   UNL     1     -11.475  20.986  65.857  1.00  0.00     0.000 H  
HETATM   16  S   UNL     1     -10.604  19.903  65.886  1.00  0.00    -0.297 SA 
ENDBRANCH  13  14
BRANCH  13  17
HETATM   17  C   UNL     1      -8.811  17.796  68.371  1.00  0.00    -0.285 C  
HETATM   18  O   UNL     1      -8.141  16.920  68.906  1.00  0.00    -0.248 OA 
BRANCH  17  19
HETATM   19  O   UNL     1      -8.676  19.132  68.616  1.00  0.00    -0.349 OA 
BRANCH  19  20
HETATM   20  C   UNL     1      -7.363  19.675  68.426  1.00  0.00    -0.319 C  
HETATM   21  C   UNL     1      -6.521  18.755  67.568  1.00  0.00    -0.199 C  
ENDBRANCH  19  20
ENDBRANCH  17  19
ENDBRANCH  13  17
ENDBRANCH  11  13
ENDBRANCH  10  11
ENDBRANCH   9  10
ENDBRANCH   7   9
ENDBRANCH   6   7
BRANCH   6  22
HETATM   22  C   UNL     1      -8.039  11.345  66.446  1.00  0.00    -0.106 C  
HETATM   23  H   UNL     1      -6.943   9.687  64.595  1.00  0.00     0.000 H  
HETATM   24  S   UNL     1      -8.158  10.209  65.021  1.00  0.00    -0.150 SA 
ENDBRANCH   6  22
ENDBRANCH   4   6
ENDBRANCH   3   4
ENDBRANCH   2   3
TORSDOF 13
ENDMDL
MODEL      435
REMARK 921   NORMALIZED FREE ENERGY PREDICTED BY IDOCK:   -2.39 KCAL/MOL
REMARK 922        TOTAL FREE ENERGY PREDICTED BY IDOCK:   -4.80 KCAL/MOL
REMARK 923 INTER-LIGAND FREE ENERGY PREDICTED BY IDOCK:   -4.15 KCAL/MOL
REMARK 924 INTRA-LIGAND FREE ENERGY PREDICTED BY IDOCK:   -0.65 KCAL/MOL
REMARK 927      BINDING AFFINITY PREDICTED BY RF-SCORE:    0.00 PKD
ROOT
HETATM    1  C   UNL     1      -8.108   5.162  67.575  1.00  0.00    -0.099 C  
HETATM    2  C   UNL     1      -8.396   5.398  69.042  1.00  0.00    -0.100 C  
ENDROOT
BRANCH   2   3
HETATM    3  O   UNL     1      -9.782   5.723  69.231  1.00  0.00    -0.133 OA 
BRANCH   3   4
HETATM    4  C   UNL     1     -10.034   6.859  69.942  1.00  0.00    -0.176 C  
HETATM    5  O   UNL     1     -11.140   7.227  70.316  1.00  0.00    -0.259 OA 
BRANCH   4   6
HETATM    6  C   UNL     1      -8.710   7.601  70.210  1.00  0.00    -0.144 C  
BRANCH   6   7
HETATM    7  N   UNL     1      -8.485   8.627  69.156  1.00  0.00    -0.123 NA 
HETATM    8  H   UNL     1      -8.839   8.297  68.258  1.00  0.00     0.000 HD 
BRANCH   7   9
HETATM    9  C   UNL     1      -9.037   9.949  69.469  1.00  0.00    -0.223 C  
BRANCH   9  10
HETATM   10  C   UNL     1      -8.466  11.077  68.582  1.00  0.00    -0.157 C  
BRANCH  10  11
HETATM   11  N   UNL     1      -9.278  12.304  68.540  1.00  0.00    -0.360 NA 
HETATM   12  H   UNL     1      -8.678  13.127  68.481  1.00  0.00     0.000 HD 
BRANCH  11  13
HETATM   13  C   UNL     1     -10.301  12.325  67.453  1.00  0.00    -0.206 C  
BRANCH  13  14
HETATM   14  C   UNL     1     -11.751  12.299  67.984  1.00  0.00    -0.356 C  
HETATM   15  H   UNL     1     -13.185  12.435  70.278  1.00  0.00     0.000 H  
HETATM   16  S   UNL     1     -11.879  12.459  69.801  1.00  0.00    -0.266 SA 
ENDBRANCH  13  14
BRANCH  13  17
HETATM   17  C   UNL     1     -10.085  13.568  66.561  1.00  0.00    -0.282 C  
HETATM   18  O   UNL     1     -10.449  13.676  65.395  1.00  0.00    -0.299 OA 
BRANCH  17  19
HETATM   19  O   UNL     1      -9.435  14.542  67.263  1.00  0.00    -0.206 OA 
BRANCH  19  20
HETATM   20  C   UNL     1     -10.211  15.701  67.594  1.00  0.00    -0.261 C  
HETATM   21  C   UNL     1     -10.454  15.776  69.087  1.00  0.00    -0.240 C  
ENDBRANCH  19  20
ENDBRANCH  17  19
ENDBRANCH  13  17
ENDBRANCH  11  13
ENDBRANCH  10  11
ENDBRANCH   9  10
ENDBRANCH   7   9
ENDBRANCH   6   7
BRANCH   6  22
HETATM   22  C   UNL     1      -8.704   8.118  71.664  1.00  0.00    -0.145 C  
HETATM   23  H   UNL     1      -8.622   7.273  74.244  1.00  0.00     0.000 H  
HETATM   24  S   UNL     1      -8.627   6.808  72.935  1.00  0.00    -0.116 SA 
ENDBRANCH   6  22
ENDBRANCH   4   6
ENDBRANCH   3   4
ENDBRANCH   2   3
TORSDOF 13
ENDMDL
MODEL      436
REMARK 921   NORMALIZED FREE ENERGY PREDICTED BY IDOCK:   -2.38 KCAL/MOL
REMARK 922        TOTAL FREE ENERGY PREDICTED BY IDOCK:   -4.78 KCAL/MOL
REMARK 923 INTER-LIGAND FREE ENERGY PREDICTED BY IDOCK:   -4.89 KCAL/MOL
REMARK 924 INTRA-LIGAND FREE ENERGY PREDICTED BY IDOCK:    0.12 KCAL/MOL
REMARK 927      BINDING AFFINITY PREDICTED BY RF-SCORE:    0.00 PKD
ROOT
HETATM    1  C   UNL     1     -12.652  10.637  71.173  1.00  0.00    -0.526 C  
HETATM    2  C   UNL     1     -12.427   9.246  71.727  1.00  0.00    -0.381 C  
ENDROOT
BRANCH   2   3
HETATM    3  O   UNL     1     -11.932   8.375  70.699  1.00  0.00    -0.183 OA 
BRANCH   3   4
HETATM    4  C   UNL     1     -11.838   7.057  71.033  1.00  0.00    -0.351 C  
HETATM    5  O   UNL     1     -12.135   6.581  72.122  1.00  0.00    -0.315 OA 
BRANCH   4   6
HETATM    6  C   UNL     1     -11.313   6.258  69.825  1.00  0.00    -0.436 C  
BRANCH   6   7
HETATM    7  N   UNL     1     -10.646   7.179  68.864  1.00  0.00    -0.226 NA 
HETATM    8  H   UNL     1      -9.637   7.182  69.017  1.00  0.00     0.000 HD 
BRANCH   7   9
HETATM    9  C   UNL     1     -10.948   6.908  67.455  1.00  0.00    -0.270 C  
BRANCH   9  10
HETATM   10  C   UNL     1     -10.051   5.813  66.835  1.00  0.00    -0.192 C  
BRANCH  10  11
HETATM   11  N   UNL     1     -10.709   4.973  65.821  1.00  0.00    -0.631 NA 
HETATM   12  H   UNL     1     -11.050   5.547  65.050  1.00  0.00     0.000 HD 
BRANCH  11  13
HETATM   13  C   UNL     1      -9.863   3.856  65.307  1.00  0.00    -0.178 C  
BRANCH  13  14
HETATM   14  C   UNL     1      -9.042   4.242  64.057  1.00  0.00    -0.146 C  
HETATM   15  H   UNL     1      -7.526   6.242  63.036  1.00  0.00     0.000 H  
HETATM   16  S   UNL     1      -8.265   5.895  64.161  1.00  0.00    -0.022 SA 
ENDBRANCH  13  14
BRANCH  13  17
HETATM   17  C   UNL     1      -8.922   3.359  66.427  1.00  0.00    -0.148 C  
HETATM   18  O   UNL     1      -7.703   3.262  66.339  1.00  0.00    -0.076 OA 
BRANCH  17  19
HETATM   19  O   UNL     1      -9.645   3.051  67.543  1.00  0.00    -0.180 OA 
BRANCH  19  20
HETATM   20  C   UNL     1      -9.411   1.752  68.104  1.00  0.00    -0.189 C  
HETATM   21  C   UNL     1      -8.889   1.866  69.521  1.00  0.00    -0.132 C  
ENDBRANCH  19  20
ENDBRANCH  17  19
ENDBRANCH  13  17
ENDBRANCH  11  13
ENDBRANCH  10  11
ENDBRANCH   9  10
ENDBRANCH   7   9
ENDBRANCH   6   7
BRANCH   6  22
HETATM   22  C   UNL     1     -10.456   5.079  70.331  1.00  0.00    -0.167 C  
HETATM   23  H   UNL     1      -8.074   4.500  71.501  1.00  0.00     0.000 H  
HETATM   24  S   UNL     1      -8.846   5.562  71.045  1.00  0.00    -0.141 SA 
ENDBRANCH   6  22
ENDBRANCH   4   6
ENDBRANCH   3   4
ENDBRANCH   2   3
TORSDOF 13
ENDMDL
MODEL      437
REMARK 921   NORMALIZED FREE ENERGY PREDICTED BY IDOCK:   -2.37 KCAL/MOL
REMARK 922        TOTAL FREE ENERGY PREDICTED BY IDOCK:   -4.76 KCAL/MOL
REMARK 923 INTER-LIGAND FREE ENERGY PREDICTED BY IDOCK:   -4.21 KCAL/MOL
REMARK 924 INTRA-LIGAND FREE ENERGY PREDICTED BY IDOCK:   -0.55 KCAL/MOL
REMARK 927      BINDING AFFINITY PREDICTED BY RF-SCORE:    0.00 PKD
ROOT
HETATM    1  C   UNL     1     -13.065  10.305  70.947  1.00  0.00    -0.423 C  
HETATM    2  C   UNL     1     -12.352   9.252  71.768  1.00  0.00    -0.379 C  
ENDROOT
BRANCH   2   3
HETATM    3  O   UNL     1     -11.570   8.402  70.915  1.00  0.00    -0.277 OA 
BRANCH   3   4
HETATM    4  C   UNL     1     -11.844   7.068  70.994  1.00  0.00    -0.351 C  
HETATM    5  O   UNL     1     -12.689   6.562  71.722  1.00  0.00    -0.320 OA 
BRANCH   4   6
HETATM    6  C   UNL     1     -10.934   6.299  70.017  1.00  0.00    -0.358 C  
BRANCH   6   7
HETATM    7  N   UNL     1     -10.150   7.261  69.196  1.00  0.00    -0.178 NA 
HETATM    8  H   UNL     1      -9.164   7.231  69.459  1.00  0.00     0.000 HD 
BRANCH   7   9
HETATM    9  C   UNL     1     -10.298   7.084  67.748  1.00  0.00    -0.202 C  
BRANCH   9  10
HETATM   10  C   UNL     1      -9.227   6.158  67.131  1.00  0.00    -0.118 C  
BRANCH  10  11
HETATM   11  N   UNL     1      -9.753   5.100  66.253  1.00  0.00    -0.162 NA 
HETATM   12  H   UNL     1     -10.252   5.508  65.463  1.00  0.00     0.000 HD 
BRANCH  11  13
HETATM   13  C   UNL     1      -8.723   4.131  65.775  1.00  0.00    -0.119 C  
BRANCH  13  14
HETATM   14  C   UNL     1      -8.055   3.339  66.921  1.00  0.00    -0.084 C  
HETATM   15  H   UNL     1      -8.633   1.683  68.985  1.00  0.00     0.000 H  
HETATM   16  S   UNL     1      -9.233   2.396  67.954  1.00  0.00    -0.192 SA 
ENDBRANCH  13  14
BRANCH  13  17
HETATM   17  C   UNL     1      -9.358   3.158  64.757  1.00  0.00    -0.148 C  
HETATM   18  O   UNL     1      -8.832   2.138  64.327  1.00  0.00    -0.095 OA 
BRANCH  17  19
HETATM   19  O   UNL     1     -10.604   3.593  64.408  1.00  0.00    -0.219 OA 
BRANCH  19  20
HETATM   20  C   UNL     1     -10.833   3.782  63.005  1.00  0.00    -0.110 C  
HETATM   21  C   UNL     1      -9.649   4.466  62.356  1.00  0.00    -0.121 C  
ENDBRANCH  19  20
ENDBRANCH  17  19
ENDBRANCH  13  17
ENDBRANCH  11  13
ENDBRANCH  10  11
ENDBRANCH   9  10
ENDBRANCH   7   9
ENDBRANCH   6   7
BRANCH   6  22
HETATM   22  C   UNL     1     -10.110   5.259  70.805  1.00  0.00    -0.224 C  
HETATM   23  H   UNL     1      -8.168   5.039  72.691  1.00  0.00     0.000 H  
HETATM   24  S   UNL     1      -8.910   5.975  71.981  1.00  0.00    -0.136 SA 
ENDBRANCH   6  22
ENDBRANCH   4   6
ENDBRANCH   3   4
ENDBRANCH   2   3
TORSDOF 13
ENDMDL
MODEL      438
REMARK 921   NORMALIZED FREE ENERGY PREDICTED BY IDOCK:   -2.36 KCAL/MOL
REMARK 922        TOTAL FREE ENERGY PREDICTED BY IDOCK:   -4.75 KCAL/MOL
REMARK 923 INTER-LIGAND FREE ENERGY PREDICTED BY IDOCK:   -4.22 KCAL/MOL
REMARK 924 INTRA-LIGAND FREE ENERGY PREDICTED BY IDOCK:   -0.52 KCAL/MOL
REMARK 927      BINDING AFFINITY PREDICTED BY RF-SCORE:    0.00 PKD
ROOT
HETATM    1  C   UNL     1      -7.575   6.180  68.276  1.00  0.00    -0.098 C  
HETATM    2  C   UNL     1      -8.145   7.569  68.085  1.00  0.00    -0.124 C  
ENDROOT
BRANCH   2   3
HETATM    3  O   UNL     1      -7.495   8.227  66.987  1.00  0.00    -0.086 OA 
BRANCH   3   4
HETATM    4  C   UNL     1      -8.303   8.967  66.175  1.00  0.00    -0.122 C  
HETATM    5  O   UNL     1      -9.408   8.622  65.775  1.00  0.00    -0.214 OA 
BRANCH   4   6
HETATM    6  C   UNL     1      -7.615  10.306  65.849  1.00  0.00    -0.134 C  
BRANCH   6   7
HETATM    7  N   UNL     1      -8.431  11.433  66.378  1.00  0.00    -0.199 NA 
HETATM    8  H   UNL     1      -9.365  11.419  65.968  1.00  0.00     0.000 HD 
BRANCH   7   9
HETATM    9  C   UNL     1      -8.515  11.486  67.841  1.00  0.00    -0.142 C  
BRANCH   9  10
HETATM   10  C   UNL     1      -9.836  10.913  68.399  1.00  0.00    -0.177 C  
BRANCH  10  11
HETATM   11  N   UNL     1     -11.054  11.395  67.727  1.00  0.00    -0.244 NA 
HETATM   12  H   UNL     1     -11.523  10.627  67.246  1.00  0.00     0.000 HD 
BRANCH  11  13
HETATM   13  C   UNL     1     -12.009  12.110  68.624  1.00  0.00    -0.237 C  
BRANCH  13  14
HETATM   14  C   UNL     1     -11.684  11.930  70.124  1.00  0.00    -0.253 C  
HETATM   15  H   UNL     1     -12.310  10.404  72.272  1.00  0.00     0.000 H  
HETATM   16  S   UNL     1     -12.602  10.565  70.923  1.00  0.00    -0.427 SA 
ENDBRANCH  13  14
BRANCH  13  17
HETATM   17  C   UNL     1     -12.036  13.611  68.263  1.00  0.00    -0.350 C  
HETATM   18  O   UNL     1     -11.794  14.079  67.156  1.00  0.00    -0.369 OA 
BRANCH  17  19
HETATM   19  O   UNL     1     -12.380  14.350  69.358  1.00  0.00    -0.294 OA 
BRANCH  19  20
HETATM   20  C   UNL     1     -11.798  15.658  69.441  1.00  0.00    -0.375 C  
HETATM   21  C   UNL     1     -11.325  15.946  70.850  1.00  0.00    -0.428 C  
ENDBRANCH  19  20
ENDBRANCH  17  19
ENDBRANCH  13  17
ENDBRANCH  11  13
ENDBRANCH  10  11
ENDBRANCH   9  10
ENDBRANCH   7   9
ENDBRANCH   6   7
BRANCH   6  22
HETATM   22  C   UNL     1      -6.150  10.254  66.329  1.00  0.00    -0.082 C  
HETATM   23  H   UNL     1      -4.060  11.841  67.029  1.00  0.00     0.000 H  
HETATM   24  S   UNL     1      -5.380  11.888  66.597  1.00  0.00     0.132 SA 
ENDBRANCH   6  22
ENDBRANCH   4   6
ENDBRANCH   3   4
ENDBRANCH   2   3
TORSDOF 13
ENDMDL
MODEL      439
REMARK 921   NORMALIZED FREE ENERGY PREDICTED BY IDOCK:   -2.36 KCAL/MOL
REMARK 922        TOTAL FREE ENERGY PREDICTED BY IDOCK:   -4.74 KCAL/MOL
REMARK 923 INTER-LIGAND FREE ENERGY PREDICTED BY IDOCK:   -3.64 KCAL/MOL
REMARK 924 INTRA-LIGAND FREE ENERGY PREDICTED BY IDOCK:   -1.11 KCAL/MOL
REMARK 927      BINDING AFFINITY PREDICTED BY RF-SCORE:    0.00 PKD
ROOT
HETATM    1  C   UNL     1      -9.858   4.616  65.849  1.00  0.00    -0.231 C  
HETATM    2  C   UNL     1     -10.679   5.518  66.746  1.00  0.00    -0.253 C  
ENDROOT
BRANCH   2   3
HETATM    3  O   UNL     1      -9.881   5.987  67.843  1.00  0.00    -0.112 OA 
BRANCH   3   4
HETATM    4  C   UNL     1     -10.568   6.561  68.873  1.00  0.00    -0.241 C  
HETATM    5  O   UNL     1     -11.434   6.008  69.539  1.00  0.00    -0.384 OA 
BRANCH   4   6
HETATM    6  C   UNL     1     -10.077   8.007  69.074  1.00  0.00    -0.201 C  
BRANCH   6   7
HETATM    7  N   UNL     1     -11.060   8.959  68.488  1.00  0.00    -0.442 NA 
HETATM    8  H   UNL     1     -11.157   9.781  69.084  1.00  0.00     0.000 HD 
BRANCH   7   9
HETATM    9  C   UNL     1     -10.767   9.359  67.108  1.00  0.00    -0.163 C  
BRANCH   9  10
HETATM   10  C   UNL     1     -10.268  10.816  66.985  1.00  0.00    -0.217 C  
BRANCH  10  11
HETATM   11  N   UNL     1      -8.823  10.996  67.198  1.00  0.00    -0.139 NA 
HETATM   12  H   UNL     1      -8.630  11.209  68.177  1.00  0.00     0.000 HD 
BRANCH  11  13
HETATM   13  C   UNL     1      -7.987   9.847  66.739  1.00  0.00    -0.116 C  
BRANCH  13  14
HETATM   14  C   UNL     1      -7.282  10.109  65.390  1.00  0.00    -0.144 C  
HETATM   15  H   UNL     1      -7.619   9.823  62.718  1.00  0.00     0.000 H  
HETATM   16  S   UNL     1      -8.254   9.588  63.932  1.00  0.00    -0.175 SA 
ENDBRANCH  13  14
BRANCH  13  17
HETATM   17  C   UNL     1      -6.945   9.497  67.824  1.00  0.00    -0.080 C  
HETATM   18  O   UNL     1      -6.694  10.177  68.813  1.00  0.00    -0.052 OA 
BRANCH  17  19
HETATM   19  O   UNL     1      -6.343   8.307  67.530  1.00  0.00    -0.054 OA 
BRANCH  19  20
HETATM   20  C   UNL     1      -6.468   7.279  68.521  1.00  0.00    -0.040 C  
HETATM   21  C   UNL     1      -6.363   5.908  67.888  1.00  0.00    -0.041 C  
ENDBRANCH  19  20
ENDBRANCH  17  19
ENDBRANCH  13  17
ENDBRANCH  11  13
ENDBRANCH  10  11
ENDBRANCH   9  10
ENDBRANCH   7   9
ENDBRANCH   6   7
BRANCH   6  22
HETATM   22  C   UNL     1      -9.736   8.225  70.563  1.00  0.00    -0.171 C  
HETATM   23  H   UNL     1     -10.712   9.311  72.853  1.00  0.00     0.000 H  
HETATM   24  S   UNL     1     -11.018   9.115  71.512  1.00  0.00    -0.378 SA 
ENDBRANCH   6  22
ENDBRANCH   4   6
ENDBRANCH   3   4
ENDBRANCH   2   3
TORSDOF 13
ENDMDL
MODEL      440
REMARK 921   NORMALIZED FREE ENERGY PREDICTED BY IDOCK:   -2.35 KCAL/MOL
REMARK 922        TOTAL FREE ENERGY PREDICTED BY IDOCK:   -4.72 KCAL/MOL
REMARK 923 INTER-LIGAND FREE ENERGY PREDICTED BY IDOCK:   -4.16 KCAL/MOL
REMARK 924 INTRA-LIGAND FREE ENERGY PREDICTED BY IDOCK:   -0.56 KCAL/MOL
REMARK 927      BINDING AFFINITY PREDICTED BY RF-SCORE:    0.00 PKD
ROOT
HETATM    1  C   UNL     1      -7.625   5.876  68.493  1.00  0.00    -0.090 C  
HETATM    2  C   UNL     1      -8.506   7.106  68.447  1.00  0.00    -0.124 C  
ENDROOT
BRANCH   2   3
HETATM    3  O   UNL     1      -8.110   7.961  67.364  1.00  0.00    -0.119 OA 
BRANCH   3   4
HETATM    4  C   UNL     1      -9.115   8.662  66.764  1.00  0.00    -0.149 C  
HETATM    5  O   UNL     1     -10.230   8.223  66.513  1.00  0.00    -0.288 OA 
BRANCH   4   6
HETATM    6  C   UNL     1      -8.631  10.093  66.461  1.00  0.00    -0.126 C  
BRANCH   6   7
HETATM    7  N   UNL     1      -9.483  11.076  67.185  1.00  0.00    -0.164 NA 
HETATM    8  H   UNL     1      -8.935  11.897  67.445  1.00  0.00     0.000 HD 
BRANCH   7   9
HETATM    9  C   UNL     1     -10.694  11.477  66.462  1.00  0.00    -0.273 C  
BRANCH   9  10
HETATM   10  C   UNL     1     -10.558  12.840  65.749  1.00  0.00    -0.273 C  
BRANCH  10  11
HETATM   11  N   UNL     1      -9.381  13.631  66.143  1.00  0.00    -0.484 NA 
HETATM   12  H   UNL     1      -8.651  13.561  65.433  1.00  0.00     0.000 HD 
BRANCH  11  13
HETATM   13  C   UNL     1      -9.677  15.062  66.448  1.00  0.00    -0.283 C  
BRANCH  13  14
HETATM   14  C   UNL     1     -11.138  15.459  66.144  1.00  0.00    -0.230 C  
HETATM   15  H   UNL     1     -12.707  16.478  64.185  1.00  0.00     0.000 H  
HETATM   16  S   UNL     1     -11.392  16.121  64.458  1.00  0.00    -0.055 SA 
ENDBRANCH  13  14
BRANCH  13  17
HETATM   17  C   UNL     1      -9.343  15.358  67.927  1.00  0.00    -0.192 C  
HETATM   18  O   UNL     1      -8.457  16.110  68.318  1.00  0.00    -0.171 OA 
BRANCH  17  19
HETATM   19  O   UNL     1     -10.189  14.665  68.745  1.00  0.00    -0.231 OA 
BRANCH  19  20
HETATM   20  C   UNL     1     -10.686  15.381  69.883  1.00  0.00    -0.303 C  
HETATM   21  C   UNL     1     -11.955  14.742  70.406  1.00  0.00    -0.368 C  
ENDBRANCH  19  20
ENDBRANCH  17  19
ENDBRANCH  13  17
ENDBRANCH  11  13
ENDBRANCH  10  11
ENDBRANCH   9  10
ENDBRANCH   7   9
ENDBRANCH   6   7
BRANCH   6  22
HETATM   22  C   UNL     1      -7.116  10.185  66.736  1.00  0.00    -0.092 C  
HETATM   23  H   UNL     1      -5.186  11.901  67.577  1.00  0.00     0.000 H  
HETATM   24  S   UNL     1      -6.550  11.818  67.329  1.00  0.00    -0.144 SA 
ENDBRANCH   6  22
ENDBRANCH   4   6
ENDBRANCH   3   4
ENDBRANCH   2   3
TORSDOF 13
ENDMDL
MODEL      441
REMARK 921   NORMALIZED FREE ENERGY PREDICTED BY IDOCK:   -2.34 KCAL/MOL
REMARK 922        TOTAL FREE ENERGY PREDICTED BY IDOCK:   -4.71 KCAL/MOL
REMARK 923 INTER-LIGAND FREE ENERGY PREDICTED BY IDOCK:   -3.74 KCAL/MOL
REMARK 924 INTRA-LIGAND FREE ENERGY PREDICTED BY IDOCK:   -0.97 KCAL/MOL
REMARK 927      BINDING AFFINITY PREDICTED BY RF-SCORE:    0.00 PKD
ROOT
HETATM    1  C   UNL     1      -5.890   7.654  69.223  1.00  0.00    -0.030 C  
HETATM    2  C   UNL     1      -6.914   7.037  70.152  1.00  0.00    -0.065 C  
ENDROOT
BRANCH   2   3
HETATM    3  O   UNL     1      -7.964   6.418  69.393  1.00  0.00    -0.106 OA 
BRANCH   3   4
HETATM    4  C   UNL     1      -9.117   6.163  70.075  1.00  0.00    -0.147 C  
HETATM    5  O   UNL     1      -9.590   5.050  70.272  1.00  0.00    -0.157 OA 
BRANCH   4   6
HETATM    6  C   UNL     1      -9.727   7.489  70.567  1.00  0.00    -0.179 C  
BRANCH   6   7
HETATM    7  N   UNL     1     -10.645   8.036  69.530  1.00  0.00    -0.240 NA 
HETATM    8  H   UNL     1     -10.357   8.978  69.262  1.00  0.00     0.000 HD 
BRANCH   7   9
HETATM    9  C   UNL     1     -10.792   7.189  68.343  1.00  0.00    -0.097 C  
BRANCH   9  10
HETATM   10  C   UNL     1     -10.211   7.825  67.061  1.00  0.00    -0.305 C  
BRANCH  10  11
HETATM   11  N   UNL     1      -8.992   8.625  67.263  1.00  0.00    -0.132 NA 
HETATM   12  H   UNL     1      -8.192   8.175  66.819  1.00  0.00     0.000 HD 
BRANCH  11  13
HETATM   13  C   UNL     1      -9.109  10.044  66.814  1.00  0.00    -0.139 C  
BRANCH  13  14
HETATM   14  C   UNL     1     -10.102  10.232  65.646  1.00  0.00    -0.271 C  
HETATM   15  H   UNL     1     -10.202  10.462  62.948  1.00  0.00     0.000 H  
HETATM   16  S   UNL     1      -9.308  10.293  64.000  1.00  0.00    -0.305 SA 
ENDBRANCH  13  14
BRANCH  13  17
HETATM   17  C   UNL     1      -9.518  10.935  68.007  1.00  0.00    -0.163 C  
HETATM   18  O   UNL     1      -9.396  10.637  69.190  1.00  0.00    -0.196 OA 
BRANCH  17  19
HETATM   19  O   UNL     1     -10.030  12.117  67.555  1.00  0.00    -0.194 OA 
BRANCH  19  20
HETATM   20  C   UNL     1     -10.682  12.934  68.536  1.00  0.00    -0.254 C  
HETATM   21  C   UNL     1     -11.216  14.205  67.908  1.00  0.00    -0.299 C  
ENDBRANCH  19  20
ENDBRANCH  17  19
ENDBRANCH  13  17
ENDBRANCH  11  13
ENDBRANCH  10  11
ENDBRANCH   9  10
ENDBRANCH   7   9
ENDBRANCH   6   7
BRANCH   6  22
HETATM   22  C   UNL     1     -10.343   7.277  71.965  1.00  0.00    -0.192 C  
HETATM   23  H   UNL     1     -12.716   7.251  73.287  1.00  0.00     0.000 H  
HETATM   24  S   UNL     1     -12.161   7.443  72.027  1.00  0.00    -0.270 SA 
ENDBRANCH   6  22
ENDBRANCH   4   6
ENDBRANCH   3   4
ENDBRANCH   2   3
TORSDOF 13
ENDMDL
MODEL      442
REMARK 921   NORMALIZED FREE ENERGY PREDICTED BY IDOCK:   -2.32 KCAL/MOL
REMARK 922        TOTAL FREE ENERGY PREDICTED BY IDOCK:   -4.67 KCAL/MOL
REMARK 923 INTER-LIGAND FREE ENERGY PREDICTED BY IDOCK:   -4.12 KCAL/MOL
REMARK 924 INTRA-LIGAND FREE ENERGY PREDICTED BY IDOCK:   -0.55 KCAL/MOL
REMARK 927      BINDING AFFINITY PREDICTED BY RF-SCORE:    0.00 PKD
ROOT
HETATM    1  C   UNL     1     -12.706  10.677  71.302  1.00  0.00    -0.537 C  
HETATM    2  C   UNL     1     -12.425   9.265  71.769  1.00  0.00    -0.381 C  
ENDROOT
BRANCH   2   3
HETATM    3  O   UNL     1     -12.031   8.443  70.660  1.00  0.00    -0.183 OA 
BRANCH   3   4
HETATM    4  C   UNL     1     -11.959   7.104  70.910  1.00  0.00    -0.334 C  
HETATM    5  O   UNL     1     -12.324   6.558  71.943  1.00  0.00    -0.347 OA 
BRANCH   4   6
HETATM    6  C   UNL     1     -11.357   6.386  69.687  1.00  0.00    -0.412 C  
BRANCH   6   7
HETATM    7  N   UNL     1     -10.911   7.390  68.683  1.00  0.00    -0.412 NA 
HETATM    8  H   UNL     1      -9.960   7.698  68.887  1.00  0.00     0.000 HD 
BRANCH   7   9
HETATM    9  C   UNL     1     -11.016   6.943  67.290  1.00  0.00    -0.336 C  
BRANCH   9  10
HETATM   10  C   UNL     1      -9.647   6.793  66.590  1.00  0.00    -0.163 C  
BRANCH  10  11
HETATM   11  N   UNL     1      -9.510   5.596  65.744  1.00  0.00    -0.334 NA 
HETATM   12  H   UNL     1     -10.337   5.477  65.159  1.00  0.00     0.000 HD 
BRANCH  11  13
HETATM   13  C   UNL     1      -8.272   5.572  64.911  1.00  0.00    -0.136 C  
BRANCH  13  14
HETATM   14  C   UNL     1      -8.327   6.545  63.713  1.00  0.00     0.164 C  
HETATM   15  H   UNL     1      -7.219   7.000  61.283  1.00  0.00     0.000 H  
HETATM   16  S   UNL     1      -7.170   6.124  62.361  1.00  0.00    -0.051 SA 
ENDBRANCH  13  14
BRANCH  13  17
HETATM   17  C   UNL     1      -7.045   5.886  65.794  1.00  0.00    -0.070 C  
HETATM   18  O   UNL     1      -6.635   7.009  66.066  1.00  0.00    -0.049 OA 
BRANCH  17  19
HETATM   19  O   UNL     1      -6.482   4.726  66.244  1.00  0.00    -0.039 OA 
BRANCH  19  20
HETATM   20  C   UNL     1      -6.514   4.522  67.662  1.00  0.00    -0.045 C  
HETATM   21  C   UNL     1      -7.242   3.239  68.003  1.00  0.00    -0.050 C  
ENDBRANCH  19  20
ENDBRANCH  17  19
ENDBRANCH  13  17
ENDBRANCH  11  13
ENDBRANCH  10  11
ENDBRANCH   9  10
ENDBRANCH   7   9
ENDBRANCH   6   7
BRANCH   6  22
HETATM   22  C   UNL     1     -10.282   5.388  70.164  1.00  0.00    -0.272 C  
HETATM   23  H   UNL     1      -7.759   5.264  71.164  1.00  0.00     0.000 H  
HETATM   24  S   UNL     1      -8.728   6.162  70.734  1.00  0.00    -0.136 SA 
ENDBRANCH   6  22
ENDBRANCH   4   6
ENDBRANCH   3   4
ENDBRANCH   2   3
TORSDOF 13
ENDMDL
MODEL      443
REMARK 921   NORMALIZED FREE ENERGY PREDICTED BY IDOCK:   -2.32 KCAL/MOL
REMARK 922        TOTAL FREE ENERGY PREDICTED BY IDOCK:   -4.67 KCAL/MOL
REMARK 923 INTER-LIGAND FREE ENERGY PREDICTED BY IDOCK:   -4.26 KCAL/MOL
REMARK 924 INTRA-LIGAND FREE ENERGY PREDICTED BY IDOCK:   -0.41 KCAL/MOL
REMARK 927      BINDING AFFINITY PREDICTED BY RF-SCORE:    0.00 PKD
ROOT
HETATM    1  C   UNL     1     -11.625   7.804  72.593  1.00  0.00    -0.398 C  
HETATM    2  C   UNL     1     -11.373   8.307  71.188  1.00  0.00    -0.263 C  
ENDROOT
BRANCH   2   3
HETATM    3  O   UNL     1     -10.627   7.336  70.438  1.00  0.00    -0.217 OA 
BRANCH   3   4
HETATM    4  C   UNL     1      -9.291   7.579  70.315  1.00  0.00    -0.161 C  
HETATM    5  O   UNL     1      -8.619   8.242  71.096  1.00  0.00    -0.123 OA 
BRANCH   4   6
HETATM    6  C   UNL     1      -8.757   6.883  69.049  1.00  0.00    -0.131 C  
BRANCH   6   7
HETATM    7  N   UNL     1      -9.028   7.730  67.856  1.00  0.00    -0.126 NA 
HETATM    8  H   UNL     1      -9.824   8.344  68.030  1.00  0.00     0.000 HD 
BRANCH   7   9
HETATM    9  C   UNL     1      -7.875   8.505  67.388  1.00  0.00    -0.098 C  
BRANCH   9  10
HETATM   10  C   UNL     1      -7.848   9.951  67.933  1.00  0.00    -0.090 C  
BRANCH  10  11
HETATM   11  N   UNL     1      -8.255  10.985  66.967  1.00  0.00    -0.133 NA 
HETATM   12  H   UNL     1      -7.533  11.114  66.257  1.00  0.00     0.000 HD 
BRANCH  11  13
HETATM   13  C   UNL     1      -9.580  10.738  66.326  1.00  0.00    -0.195 C  
BRANCH  13  14
HETATM   14  C   UNL     1     -10.652  11.774  66.730  1.00  0.00    -0.238 C  
HETATM   15  H   UNL     1     -11.740  12.982  68.897  1.00  0.00     0.000 H  
HETATM   16  S   UNL     1     -10.775  12.050  68.534  1.00  0.00    -0.241 SA 
ENDBRANCH  13  14
BRANCH  13  17
HETATM   17  C   UNL     1      -9.417  10.714  64.790  1.00  0.00    -0.256 C  
HETATM   18  O   UNL     1      -8.348  10.684  64.190  1.00  0.00    -0.132 OA 
BRANCH  17  19
HETATM   19  O   UNL     1     -10.643  10.720  64.189  1.00  0.00    -0.347 OA 
BRANCH  19  20
HETATM   20  C   UNL     1     -10.893  11.804  63.285  1.00  0.00    -0.326 C  
HETATM   21  C   UNL     1     -12.132  12.571  63.697  1.00  0.00    -0.642 C  
ENDBRANCH  19  20
ENDBRANCH  17  19
ENDBRANCH  13  17
ENDBRANCH  11  13
ENDBRANCH  10  11
ENDBRANCH   9  10
ENDBRANCH   7   9
ENDBRANCH   6   7
BRANCH   6  22
HETATM   22  C   UNL     1      -7.282   6.488  69.272  1.00  0.00    -0.090 C  
HETATM   23  H   UNL     1      -5.689   4.362  69.839  1.00  0.00     0.000 H  
HETATM   24  S   UNL     1      -7.017   4.718  69.638  1.00  0.00    -0.054 SA 
ENDBRANCH   6  22
ENDBRANCH   4   6
ENDBRANCH   3   4
ENDBRANCH   2   3
TORSDOF 13
ENDMDL
MODEL      444
REMARK 921   NORMALIZED FREE ENERGY PREDICTED BY IDOCK:   -2.26 KCAL/MOL
REMARK 922        TOTAL FREE ENERGY PREDICTED BY IDOCK:   -4.57 KCAL/MOL
REMARK 923 INTER-LIGAND FREE ENERGY PREDICTED BY IDOCK:   -3.83 KCAL/MOL
REMARK 924 INTRA-LIGAND FREE ENERGY PREDICTED BY IDOCK:   -0.73 KCAL/MOL
REMARK 927      BINDING AFFINITY PREDICTED BY RF-SCORE:    0.00 PKD
ROOT
HETATM    1  C   UNL     1     -11.848  12.193  68.122  1.00  0.00    -0.362 C  
HETATM    2  C   UNL     1     -10.847  11.563  69.066  1.00  0.00    -0.212 C  
ENDROOT
BRANCH   2   3
HETATM    3  O   UNL     1     -11.174  10.182  69.287  1.00  0.00    -0.227 OA 
BRANCH   3   4
HETATM    4  C   UNL     1     -11.514   9.850  70.566  1.00  0.00    -0.318 C  
HETATM    5  O   UNL     1     -12.172  10.550  71.326  1.00  0.00    -0.357 OA 
BRANCH   4   6
HETATM    6  C   UNL     1     -10.952   8.456  70.901  1.00  0.00    -0.243 C  
BRANCH   6   7
HETATM    7  N   UNL     1     -10.188   8.514  72.177  1.00  0.00    -0.315 NA 
HETATM    8  H   UNL     1     -10.457   7.742  72.788  1.00  0.00     0.000 HD 
BRANCH   7   9
HETATM    9  C   UNL     1      -8.732   8.552  72.010  1.00  0.00    -0.196 C  
BRANCH   9  10
HETATM   10  C   UNL     1      -7.996   7.447  72.800  1.00  0.00    -0.100 C  
BRANCH  10  11
HETATM   11  N   UNL     1      -8.656   6.131  72.787  1.00  0.00    -0.124 NA 
HETATM   12  H   UNL     1      -9.640   6.224  73.040  1.00  0.00     0.000 HD 
BRANCH  11  13
HETATM   13  C   UNL     1      -8.516   5.388  71.500  1.00  0.00    -0.127 C  
BRANCH  13  14
HETATM   14  C   UNL     1      -7.047   5.206  71.060  1.00  0.00    -0.059 C  
HETATM   15  H   UNL     1      -5.516   4.785  68.865  1.00  0.00     0.000 H  
HETATM   16  S   UNL     1      -6.838   4.949  69.261  1.00  0.00    -0.051 SA 
ENDBRANCH  13  14
BRANCH  13  17
HETATM   17  C   UNL     1      -9.209   4.012  71.617  1.00  0.00    -0.126 C  
HETATM   18  O   UNL     1      -9.438   3.251  70.684  1.00  0.00    -0.151 OA 
BRANCH  17  19
HETATM   19  O   UNL     1      -9.525   3.756  72.921  1.00  0.00    -0.112 OA 
BRANCH  19  20
HETATM   20  C   UNL     1      -9.781   2.384  73.247  1.00  0.00    -0.097 C  
HETATM   21  C   UNL     1     -11.265   2.143  73.423  1.00  0.00    -0.296 C  
ENDBRANCH  19  20
ENDBRANCH  17  19
ENDBRANCH  13  17
ENDBRANCH  11  13
ENDBRANCH  10  11
ENDBRANCH   9  10
ENDBRANCH   7   9
ENDBRANCH   6   7
BRANCH   6  22
HETATM   22  C   UNL     1     -12.096   7.422  70.849  1.00  0.00    -0.257 C  
HETATM   23  H   UNL     1     -13.178   5.344  72.224  1.00  0.00     0.000 H  
HETATM   24  S   UNL     1     -12.148   6.275  72.270  1.00  0.00    -0.102 SA 
ENDBRANCH   6  22
ENDBRANCH   4   6
ENDBRANCH   3   4
ENDBRANCH   2   3
TORSDOF 13
ENDMDL
MODEL      445
REMARK 921   NORMALIZED FREE ENERGY PREDICTED BY IDOCK:   -2.25 KCAL/MOL
REMARK 922        TOTAL FREE ENERGY PREDICTED BY IDOCK:   -4.56 KCAL/MOL
REMARK 923 INTER-LIGAND FREE ENERGY PREDICTED BY IDOCK:   -3.91 KCAL/MOL
REMARK 924 INTRA-LIGAND FREE ENERGY PREDICTED BY IDOCK:   -0.66 KCAL/MOL
REMARK 927      BINDING AFFINITY PREDICTED BY RF-SCORE:    0.00 PKD
ROOT
HETATM    1  C   UNL     1      -6.784  13.058  67.475  1.00  0.00    -0.156 C  
HETATM    2  C   UNL     1      -7.436  12.167  68.511  1.00  0.00    -0.117 C  
ENDROOT
BRANCH   2   3
HETATM    3  O   UNL     1      -8.863  12.183  68.353  1.00  0.00    -0.181 OA 
BRANCH   3   4
HETATM    4  C   UNL     1      -9.423  11.025  67.902  1.00  0.00    -0.165 C  
HETATM    5  O   UNL     1      -8.885  10.229  67.142  1.00  0.00    -0.135 OA 
BRANCH   4   6
HETATM    6  C   UNL     1     -10.833  10.868  68.503  1.00  0.00    -0.220 C  
BRANCH   6   7
HETATM    7  N   UNL     1     -10.734  10.671  69.975  1.00  0.00    -0.448 NA 
HETATM    8  H   UNL     1     -11.653  10.470  70.369  1.00  0.00     0.000 HD 
BRANCH   7   9
HETATM    9  C   UNL     1      -9.766   9.649  70.386  1.00  0.00    -0.245 C  
BRANCH   9  10
HETATM   10  C   UNL     1     -10.208   8.211  70.034  1.00  0.00    -0.202 C  
BRANCH  10  11
HETATM   11  N   UNL     1      -9.363   7.529  69.040  1.00  0.00    -0.146 NA 
HETATM   12  H   UNL     1      -8.474   8.018  68.932  1.00  0.00     0.000 HD 
BRANCH  11  13
HETATM   13  C   UNL     1      -9.130   6.082  69.323  1.00  0.00    -0.124 C  
BRANCH  13  14
HETATM   14  C   UNL     1      -7.800   5.555  68.742  1.00  0.00    -0.095 C  
HETATM   15  H   UNL     1      -6.631   4.833  66.407  1.00  0.00     0.000 H  
HETATM   16  S   UNL     1      -7.829   5.307  66.930  1.00  0.00    -0.101 SA 
ENDBRANCH  13  14
BRANCH  13  17
HETATM   17  C   UNL     1      -9.178   5.836  70.848  1.00  0.00    -0.156 C  
HETATM   18  O   UNL     1      -8.354   6.246  71.658  1.00  0.00    -0.126 OA 
BRANCH  17  19
HETATM   19  O   UNL     1     -10.282   5.101  71.170  1.00  0.00    -0.210 OA 
BRANCH  19  20
HETATM   20  C   UNL     1     -10.455   4.805  72.562  1.00  0.00    -0.203 C  
HETATM   21  C   UNL     1     -10.345   3.316  72.811  1.00  0.00    -0.237 C  
ENDBRANCH  19  20
ENDBRANCH  17  19
ENDBRANCH  13  17
ENDBRANCH  11  13
ENDBRANCH  10  11
ENDBRANCH   9  10
ENDBRANCH   7   9
ENDBRANCH   6   7
BRANCH   6  22
HETATM   22  C   UNL     1     -11.715  12.046  68.040  1.00  0.00    -0.331 C  
HETATM   23  H   UNL     1     -12.560  13.352  65.813  1.00  0.00     0.000 H  
HETATM   24  S   UNL     1     -11.766  12.291  66.230  1.00  0.00    -0.306 SA 
ENDBRANCH   6  22
ENDBRANCH   4   6
ENDBRANCH   3   4
ENDBRANCH   2   3
TORSDOF 13
ENDMDL
MODEL      446
REMARK 921   NORMALIZED FREE ENERGY PREDICTED BY IDOCK:   -2.25 KCAL/MOL
REMARK 922        TOTAL FREE ENERGY PREDICTED BY IDOCK:   -4.56 KCAL/MOL
REMARK 923 INTER-LIGAND FREE ENERGY PREDICTED BY IDOCK:   -4.02 KCAL/MOL
REMARK 924 INTRA-LIGAND FREE ENERGY PREDICTED BY IDOCK:   -0.53 KCAL/MOL
REMARK 927      BINDING AFFINITY PREDICTED BY RF-SCORE:    0.00 PKD
ROOT
HETATM    1  C   UNL     1     -10.921   6.537  67.252  1.00  0.00    -0.475 C  
HETATM    2  C   UNL     1     -10.641   5.690  68.476  1.00  0.00    -0.189 C  
ENDROOT
BRANCH   2   3
HETATM    3  O   UNL     1     -11.359   6.202  69.609  1.00  0.00    -0.414 OA 
BRANCH   3   4
HETATM    4  C   UNL     1     -10.828   7.312  70.196  1.00  0.00    -0.256 C  
HETATM    5  O   UNL     1     -11.321   8.433  70.163  1.00  0.00    -0.195 OA 
BRANCH   4   6
HETATM    6  C   UNL     1      -9.519   6.936  70.915  1.00  0.00    -0.157 C  
BRANCH   6   7
HETATM    7  N   UNL     1      -8.383   6.991  69.955  1.00  0.00    -0.137 NA 
HETATM    8  H   UNL     1      -8.590   6.432  69.127  1.00  0.00     0.000 HD 
BRANCH   7   9
HETATM    9  C   UNL     1      -7.981   8.348  69.569  1.00  0.00    -0.111 C  
BRANCH   9  10
HETATM   10  C   UNL     1      -7.343   8.421  68.165  1.00  0.00    -0.096 C  
BRANCH  10  11
HETATM   11  N   UNL     1      -7.767   9.572  67.350  1.00  0.00    -0.095 NA 
HETATM   12  H   UNL     1      -8.346   9.262  66.570  1.00  0.00     0.000 HD 
BRANCH  11  13
HETATM   13  C   UNL     1      -8.460  10.646  68.120  1.00  0.00    -0.122 C  
BRANCH  13  14
HETATM   14  C   UNL     1      -7.570  11.884  68.371  1.00  0.00    -0.120 C  
HETATM   15  H   UNL     1      -5.325  13.111  67.481  1.00  0.00     0.000 H  
HETATM   16  S   UNL     1      -6.126  11.998  67.255  1.00  0.00    -0.152 SA 
ENDBRANCH  13  14
BRANCH  13  17
HETATM   17  C   UNL     1      -9.752  11.062  67.383  1.00  0.00    -0.168 C  
HETATM   18  O   UNL     1     -10.339  12.129  67.527  1.00  0.00    -0.202 OA 
BRANCH  17  19
HETATM   19  O   UNL     1     -10.147  10.070  66.533  1.00  0.00    -0.214 OA 
BRANCH  19  20
HETATM   20  C   UNL     1     -10.403  10.468  65.180  1.00  0.00    -0.240 C  
HETATM   21  C   UNL     1      -9.125  10.912  64.500  1.00  0.00    -0.181 C  
ENDBRANCH  19  20
ENDBRANCH  17  19
ENDBRANCH  13  17
ENDBRANCH  11  13
ENDBRANCH  10  11
ENDBRANCH   9  10
ENDBRANCH   7   9
ENDBRANCH   6   7
BRANCH   6  22
HETATM   22  C   UNL     1      -9.370   7.802  72.183  1.00  0.00    -0.153 C  
HETATM   23  H   UNL     1     -10.201   7.996  74.762  1.00  0.00     0.000 H  
HETATM   24  S   UNL     1     -10.335   7.217  73.620  1.00  0.00    -0.345 SA 
ENDBRANCH   6  22
ENDBRANCH   4   6
ENDBRANCH   3   4
ENDBRANCH   2   3
TORSDOF 13
ENDMDL
MODEL      447
REMARK 921   NORMALIZED FREE ENERGY PREDICTED BY IDOCK:   -2.23 KCAL/MOL
REMARK 922        TOTAL FREE ENERGY PREDICTED BY IDOCK:   -4.52 KCAL/MOL
REMARK 923 INTER-LIGAND FREE ENERGY PREDICTED BY IDOCK:   -3.67 KCAL/MOL
REMARK 924 INTRA-LIGAND FREE ENERGY PREDICTED BY IDOCK:   -0.85 KCAL/MOL
REMARK 927      BINDING AFFINITY PREDICTED BY RF-SCORE:    0.00 PKD
ROOT
HETATM    1  C   UNL     1      -7.881  12.473  68.356  1.00  0.00    -0.141 C  
HETATM    2  C   UNL     1      -8.240  11.907  66.999  1.00  0.00    -0.170 C  
ENDROOT
BRANCH   2   3
HETATM    3  O   UNL     1      -8.699  10.553  67.130  1.00  0.00    -0.130 OA 
BRANCH   3   4
HETATM    4  C   UNL     1      -7.844   9.590  66.682  1.00  0.00    -0.101 C  
HETATM    5  O   UNL     1      -6.696   9.786  66.301  1.00  0.00    -0.082 OA 
BRANCH   4   6
HETATM    6  C   UNL     1      -8.541   8.218  66.739  1.00  0.00    -0.127 C  
BRANCH   6   7
HETATM    7  N   UNL     1      -7.961   7.403  67.841  1.00  0.00    -0.117 NA 
HETATM    8  H   UNL     1      -7.076   6.987  67.548  1.00  0.00     0.000 HD 
BRANCH   7   9
HETATM    9  C   UNL     1      -7.791   8.127  69.105  1.00  0.00    -0.107 C  
BRANCH   9  10
HETATM   10  C   UNL     1      -8.799   7.701  70.195  1.00  0.00    -0.146 C  
BRANCH  10  11
HETATM   11  N   UNL     1      -8.633   6.325  70.690  1.00  0.00    -0.137 NA 
HETATM   12  H   UNL     1      -8.276   6.331  71.646  1.00  0.00     0.000 HD 
BRANCH  11  13
HETATM   13  C   UNL     1      -9.864   5.486  70.598  1.00  0.00    -0.192 C  
BRANCH  13  14
HETATM   14  C   UNL     1      -9.586   3.978  70.778  1.00  0.00    -0.193 C  
HETATM   15  H   UNL     1      -7.629   2.239  71.477  1.00  0.00     0.000 H  
HETATM   16  S   UNL     1      -7.880   3.597  71.315  1.00  0.00    -0.060 SA 
ENDBRANCH  13  14
BRANCH  13  17
HETATM   17  C   UNL     1     -10.897   5.964  71.642  1.00  0.00    -0.263 C  
HETATM   18  O   UNL     1     -11.946   6.546  71.388  1.00  0.00    -0.328 OA 
BRANCH  17  19
HETATM   19  O   UNL     1     -10.480   5.634  72.900  1.00  0.00    -0.192 OA 
BRANCH  19  20
HETATM   20  C   UNL     1     -10.391   6.717  73.835  1.00  0.00    -0.360 C  
HETATM   21  C   UNL     1      -8.967   6.892  74.320  1.00  0.00    -0.227 C  
ENDBRANCH  19  20
ENDBRANCH  17  19
ENDBRANCH  13  17
ENDBRANCH  11  13
ENDBRANCH  10  11
ENDBRANCH   9  10
ENDBRANCH   7   9
ENDBRANCH   6   7
BRANCH   6  22
HETATM   22  C   UNL     1     -10.069   8.427  66.790  1.00  0.00    -0.303 C  
HETATM   23  H   UNL     1     -12.400   7.125  67.286  1.00  0.00     0.000 H  
HETATM   24  S   UNL     1     -11.024   6.936  67.240  1.00  0.00    -0.291 SA 
ENDBRANCH   6  22
ENDBRANCH   4   6
ENDBRANCH   3   4
ENDBRANCH   2   3
TORSDOF 13
ENDMDL
MODEL      448
REMARK 921   NORMALIZED FREE ENERGY PREDICTED BY IDOCK:   -2.19 KCAL/MOL
REMARK 922        TOTAL FREE ENERGY PREDICTED BY IDOCK:   -4.45 KCAL/MOL
REMARK 923 INTER-LIGAND FREE ENERGY PREDICTED BY IDOCK:   -3.89 KCAL/MOL
REMARK 924 INTRA-LIGAND FREE ENERGY PREDICTED BY IDOCK:   -0.56 KCAL/MOL
REMARK 927      BINDING AFFINITY PREDICTED BY RF-SCORE:    0.00 PKD
ROOT
HETATM    1  C   UNL     1     -11.709  11.182  69.645  1.00  0.00    -0.410 C  
HETATM    2  C   UNL     1     -12.231  10.594  70.939  1.00  0.00    -0.395 C  
ENDROOT
BRANCH   2   3
HETATM    3  O   UNL     1     -12.143   9.162  70.906  1.00  0.00    -0.283 OA 
BRANCH   3   4
HETATM    4  C   UNL     1     -11.544   8.580  71.985  1.00  0.00    -0.362 C  
HETATM    5  O   UNL     1     -11.918   8.691  73.146  1.00  0.00     0.030 OA 
BRANCH   4   6
HETATM    6  C   UNL     1     -10.333   7.752  71.515  1.00  0.00    -0.193 C  
BRANCH   6   7
HETATM    7  N   UNL     1      -9.077   8.359  72.032  1.00  0.00    -0.205 NA 
HETATM    8  H   UNL     1      -8.967   8.157  73.026  1.00  0.00     0.000 HD 
BRANCH   7   9
HETATM    9  C   UNL     1      -7.869   7.974  71.295  1.00  0.00    -0.091 C  
BRANCH   9  10
HETATM   10  C   UNL     1      -7.082   9.179  70.735  1.00  0.00    -0.102 C  
BRANCH  10  11
HETATM   11  N   UNL     1      -7.915  10.288  70.241  1.00  0.00    -0.416 NA 
HETATM   12  H   UNL     1      -7.463  11.184  70.427  1.00  0.00     0.000 HD 
BRANCH  11  13
HETATM   13  C   UNL     1      -8.288  10.181  68.800  1.00  0.00    -0.122 C  
BRANCH  13  14
HETATM   14  C   UNL     1      -8.532  11.552  68.132  1.00  0.00    -0.154 C  
HETATM   15  H   UNL     1      -9.555  12.680  65.891  1.00  0.00     0.000 H  
HETATM   16  S   UNL     1      -9.336  11.446  66.493  1.00  0.00    -0.194 SA 
ENDBRANCH  13  14
BRANCH  13  17
HETATM   17  C   UNL     1      -7.191   9.407  68.036  1.00  0.00    -0.078 C  
HETATM   18  O   UNL     1      -6.095   9.855  67.719  1.00  0.00    -0.053 OA 
BRANCH  17  19
HETATM   19  O   UNL     1      -7.613   8.136  67.771  1.00  0.00    -0.095 OA 
BRANCH  19  20
HETATM   20  C   UNL     1      -8.303   7.951  66.527  1.00  0.00    -0.127 C  
HETATM   21  C   UNL     1      -9.585   7.173  66.735  1.00  0.00    -0.230 C  
ENDBRANCH  19  20
ENDBRANCH  17  19
ENDBRANCH  13  17
ENDBRANCH  11  13
ENDBRANCH  10  11
ENDBRANCH   9  10
ENDBRANCH   7   9
ENDBRANCH   6   7
BRANCH   6  22
HETATM   22  C   UNL     1     -10.561   6.269  71.876  1.00  0.00    -0.219 C  
HETATM   23  H   UNL     1     -10.144   4.451  73.851  1.00  0.00     0.000 H  
HETATM   24  S   UNL     1      -9.939   5.786  73.524  1.00  0.00    -0.193 SA 
ENDBRANCH   6  22
ENDBRANCH   4   6
ENDBRANCH   3   4
ENDBRANCH   2   3
TORSDOF 13
ENDMDL
MODEL      449
REMARK 921   NORMALIZED FREE ENERGY PREDICTED BY IDOCK:   -2.17 KCAL/MOL
REMARK 922        TOTAL FREE ENERGY PREDICTED BY IDOCK:   -4.41 KCAL/MOL
REMARK 923 INTER-LIGAND FREE ENERGY PREDICTED BY IDOCK:   -4.52 KCAL/MOL
REMARK 924 INTRA-LIGAND FREE ENERGY PREDICTED BY IDOCK:    0.10 KCAL/MOL
REMARK 927      BINDING AFFINITY PREDICTED BY RF-SCORE:    0.00 PKD
ROOT
HETATM    1  C   UNL     1      -9.167   6.557  71.768  1.00  0.00    -0.149 C  
HETATM    2  C   UNL     1      -8.598   6.427  70.371  1.00  0.00    -0.142 C  
ENDROOT
BRANCH   2   3
HETATM    3  O   UNL     1      -8.919   7.591  69.594  1.00  0.00    -0.141 OA 
BRANCH   3   4
HETATM    4  C   UNL     1      -8.211   8.718  69.893  1.00  0.00    -0.118 C  
HETATM    5  O   UNL     1      -6.997   8.770  70.048  1.00  0.00    -0.041 OA 
BRANCH   4   6
HETATM    6  C   UNL     1      -9.174   9.916  69.996  1.00  0.00    -0.183 C  
BRANCH   6   7
HETATM    7  N   UNL     1      -8.714  11.010  69.097  1.00  0.00    -0.368 NA 
HETATM    8  H   UNL     1      -7.707  11.145  69.188  1.00  0.00     0.000 HD 
BRANCH   7   9
HETATM    9  C   UNL     1      -9.082  10.833  67.689  1.00  0.00    -0.147 C  
BRANCH   9  10
HETATM   10  C   UNL     1     -10.092  11.886  67.182  1.00  0.00    -0.204 C  
BRANCH  10  11
HETATM   11  N   UNL     1      -9.885  12.325  65.792  1.00  0.00    -0.251 NA 
HETATM   12  H   UNL     1     -10.510  11.821  65.163  1.00  0.00     0.000 HD 
BRANCH  11  13
HETATM   13  C   UNL     1     -10.015  13.798  65.588  1.00  0.00    -0.255 C  
BRANCH  13  14
HETATM   14  C   UNL     1     -11.461  14.244  65.281  1.00  0.00    -0.344 C  
HETATM   15  H   UNL     1     -13.709  13.449  63.994  1.00  0.00     0.000 H  
HETATM   16  S   UNL     1     -12.407  13.048  64.271  1.00  0.00    -0.349 SA 
ENDBRANCH  13  14
BRANCH  13  17
HETATM   17  C   UNL     1      -9.483  14.543  66.832  1.00  0.00    -0.252 C  
HETATM   18  O   UNL     1      -8.499  14.218  67.488  1.00  0.00    -0.162 OA 
BRANCH  17  19
HETATM   19  O   UNL     1     -10.264  15.632  67.096  1.00  0.00    -0.259 OA 
BRANCH  19  20
HETATM   20  C   UNL     1      -9.843  16.865  66.500  1.00  0.00    -0.296 C  
HETATM   21  C   UNL     1      -8.542  17.340  67.111  1.00  0.00    -0.222 C  
ENDBRANCH  19  20
ENDBRANCH  17  19
ENDBRANCH  13  17
ENDBRANCH  11  13
ENDBRANCH  10  11
ENDBRANCH   9  10
ENDBRANCH   7   9
ENDBRANCH   6   7
BRANCH   6  22
HETATM   22  C   UNL     1     -10.619   9.425  69.772  1.00  0.00    -0.231 C  
HETATM   23  H   UNL     1     -13.111   9.516  70.851  1.00  0.00     0.000 H  
HETATM   24  S   UNL     1     -11.809   9.958  71.052  1.00  0.00    -0.404 SA 
ENDBRANCH   6  22
ENDBRANCH   4   6
ENDBRANCH   3   4
ENDBRANCH   2   3
TORSDOF 13
ENDMDL
MODEL      450
REMARK 921   NORMALIZED FREE ENERGY PREDICTED BY IDOCK:   -2.16 KCAL/MOL
REMARK 922        TOTAL FREE ENERGY PREDICTED BY IDOCK:   -4.40 KCAL/MOL
REMARK 923 INTER-LIGAND FREE ENERGY PREDICTED BY IDOCK:   -3.74 KCAL/MOL
REMARK 924 INTRA-LIGAND FREE ENERGY PREDICTED BY IDOCK:   -0.67 KCAL/MOL
REMARK 927      BINDING AFFINITY PREDICTED BY RF-SCORE:    0.00 PKD
ROOT
HETATM    1  C   UNL     1      -9.351  12.744  67.874  1.00  0.00    -0.208 C  
HETATM    2  C   UNL     1      -9.528  12.002  66.567  1.00  0.00    -0.228 C  
ENDROOT
BRANCH   2   3
HETATM    3  O   UNL     1      -9.688  10.596  66.811  1.00  0.00    -0.176 OA 
BRANCH   3   4
HETATM    4  C   UNL     1      -8.643   9.806  66.433  1.00  0.00    -0.124 C  
HETATM    5  O   UNL     1      -7.669  10.181  65.794  1.00  0.00    -0.124 OA 
BRANCH   4   6
HETATM    6  C   UNL     1      -8.874   8.371  66.944  1.00  0.00    -0.142 C  
BRANCH   6   7
HETATM    7  N   UNL     1      -8.072   8.139  68.176  1.00  0.00    -0.127 NA 
HETATM    8  H   UNL     1      -7.153   7.766  67.937  1.00  0.00     0.000 HD 
BRANCH   7   9
HETATM    9  C   UNL     1      -7.936   9.316  69.041  1.00  0.00    -0.097 C  
BRANCH   9  10
HETATM   10  C   UNL     1      -8.931   9.324  70.223  1.00  0.00    -0.229 C  
BRANCH  10  11
HETATM   11  N   UNL     1      -8.309   9.300  71.557  1.00  0.00    -0.282 NA 
HETATM   12  H   UNL     1      -8.929   9.726  72.247  1.00  0.00     0.000 HD 
BRANCH  11  13
HETATM   13  C   UNL     1      -7.879   7.944  72.009  1.00  0.00    -0.104 C  
BRANCH  13  14
HETATM   14  C   UNL     1      -6.353   7.830  72.219  1.00  0.00    -0.045 C  
HETATM   15  H   UNL     1      -4.078   9.300  72.169  1.00  0.00     0.000 H  
HETATM   16  S   UNL     1      -5.452   9.403  71.980  1.00  0.00    -0.048 SA 
ENDBRANCH  13  14
BRANCH  13  17
HETATM   17  C   UNL     1      -8.623   7.569  73.309  1.00  0.00    -0.157 C  
HETATM   18  O   UNL     1      -8.090   7.278  74.374  1.00  0.00    -0.144 OA 
BRANCH  17  19
HETATM   19  O   UNL     1      -9.973   7.619  73.107  1.00  0.00    -0.251 OA 
BRANCH  19  20
HETATM   20  C   UNL     1     -10.738   6.573  73.721  1.00  0.00    -0.173 C  
HETATM   21  C   UNL     1     -11.223   5.583  72.684  1.00  0.00    -0.348 C  
ENDBRANCH  19  20
ENDBRANCH  17  19
ENDBRANCH  13  17
ENDBRANCH  11  13
ENDBRANCH  10  11
ENDBRANCH   9  10
ENDBRANCH   7   9
ENDBRANCH   6   7
BRANCH   6  22
HETATM   22  C   UNL     1     -10.390   8.116  67.072  1.00  0.00    -0.333 C  
HETATM   23  H   UNL     1     -12.217   6.131  67.393  1.00  0.00     0.000 H  
HETATM   24  S   UNL     1     -10.851   6.361  67.277  1.00  0.00    -0.398 SA 
ENDBRANCH   6  22
ENDBRANCH   4   6
ENDBRANCH   3   4
ENDBRANCH   2   3
TORSDOF 13
ENDMDL
MODEL      451
REMARK 921   NORMALIZED FREE ENERGY PREDICTED BY IDOCK:   -2.15 KCAL/MOL
REMARK 922        TOTAL FREE ENERGY PREDICTED BY IDOCK:   -4.37 KCAL/MOL
REMARK 923 INTER-LIGAND FREE ENERGY PREDICTED BY IDOCK:   -4.97 KCAL/MOL
REMARK 924 INTRA-LIGAND FREE ENERGY PREDICTED BY IDOCK:    0.59 KCAL/MOL
REMARK 927      BINDING AFFINITY PREDICTED BY RF-SCORE:    0.00 PKD
ROOT
HETATM    1  C   UNL     1      -6.602   8.210  66.062  1.00  0.00    -0.046 C  
HETATM    2  C   UNL     1      -7.261   7.749  67.345  1.00  0.00    -0.091 C  
ENDROOT
BRANCH   2   3
HETATM    3  O   UNL     1      -7.820   8.870  68.047  1.00  0.00    -0.100 OA 
BRANCH   3   4
HETATM    4  C   UNL     1      -9.182   8.916  68.100  1.00  0.00    -0.139 C  
HETATM    5  O   UNL     1      -9.935   8.660  67.169  1.00  0.00    -0.188 OA 
BRANCH   4   6
HETATM    6  C   UNL     1      -9.626   9.330  69.516  1.00  0.00    -0.173 C  
BRANCH   6   7
HETATM    7  N   UNL     1     -10.080  10.748  69.507  1.00  0.00    -0.419 NA 
HETATM    8  H   UNL     1      -9.396  11.337  69.031  1.00  0.00     0.000 HD 
BRANCH   7   9
HETATM    9  C   UNL     1     -11.416  10.953  68.938  1.00  0.00    -0.300 C  
BRANCH   9  10
HETATM   10  C   UNL     1     -11.614  12.361  68.334  1.00  0.00    -0.324 C  
BRANCH  10  11
HETATM   11  N   UNL     1     -10.370  13.095  68.051  1.00  0.00    -0.231 NA 
HETATM   12  H   UNL     1      -9.614  12.446  67.834  1.00  0.00     0.000 HD 
BRANCH  11  13
HETATM   13  C   UNL     1     -10.497  14.126  66.979  1.00  0.00    -0.271 C  
BRANCH  13  14
HETATM   14  C   UNL     1      -9.552  15.331  67.180  1.00  0.00    -0.217 C  
HETATM   15  H   UNL     1      -9.511  18.039  67.133  1.00  0.00     0.000 H  
HETATM   16  S   UNL     1     -10.362  16.954  66.953  1.00  0.00    -0.280 SA 
ENDBRANCH  13  14
BRANCH  13  17
HETATM   17  C   UNL     1     -10.242  13.475  65.601  1.00  0.00    -0.296 C  
HETATM   18  O   UNL     1     -10.336  14.044  64.519  1.00  0.00    -0.419 OA 
BRANCH  17  19
HETATM   19  O   UNL     1      -9.882  12.168  65.760  1.00  0.00    -0.243 OA 
BRANCH  19  20
HETATM   20  C   UNL     1     -10.256  11.281  64.697  1.00  0.00    -0.301 C  
HETATM   21  C   UNL     1     -11.334  11.902  63.834  1.00  0.00    -0.509 C  
ENDBRANCH  19  20
ENDBRANCH  17  19
ENDBRANCH  13  17
ENDBRANCH  11  13
ENDBRANCH  10  11
ENDBRANCH   9  10
ENDBRANCH   7   9
ENDBRANCH   6   7
BRANCH   6  22
HETATM   22  C   UNL     1     -10.645   8.302  70.049  1.00  0.00    -0.235 C  
HETATM   23  H   UNL     1     -10.962   6.367  71.929  1.00  0.00     0.000 H  
HETATM   24  S   UNL     1     -10.045   7.294  71.449  1.00  0.00    -0.186 SA 
ENDBRANCH   6  22
ENDBRANCH   4   6
ENDBRANCH   3   4
ENDBRANCH   2   3
TORSDOF 13
ENDMDL
MODEL      452
REMARK 921   NORMALIZED FREE ENERGY PREDICTED BY IDOCK:   -2.10 KCAL/MOL
REMARK 922        TOTAL FREE ENERGY PREDICTED BY IDOCK:   -4.30 KCAL/MOL
REMARK 923 INTER-LIGAND FREE ENERGY PREDICTED BY IDOCK:   -3.66 KCAL/MOL
REMARK 924 INTRA-LIGAND FREE ENERGY PREDICTED BY IDOCK:   -0.64 KCAL/MOL
REMARK 927      BINDING AFFINITY PREDICTED BY RF-SCORE:    0.00 PKD
ROOT
HETATM    1  C   UNL     1      -8.842   1.853  68.532  1.00  0.00    -0.140 C  
HETATM    2  C   UNL     1      -8.840   3.176  67.796  1.00  0.00    -0.134 C  
ENDROOT
BRANCH   2   3
HETATM    3  O   UNL     1      -9.113   4.252  68.707  1.00  0.00    -0.110 OA 
BRANCH   3   4
HETATM    4  C   UNL     1      -8.164   5.229  68.774  1.00  0.00    -0.089 C  
HETATM    5  O   UNL     1      -7.141   5.174  69.446  1.00  0.00    -0.053 OA 
BRANCH   4   6
HETATM    6  C   UNL     1      -8.573   6.405  67.867  1.00  0.00    -0.116 C  
BRANCH   6   7
HETATM    7  N   UNL     1      -9.264   7.447  68.675  1.00  0.00    -0.144 NA 
HETATM    8  H   UNL     1      -8.697   8.294  68.724  1.00  0.00     0.000 HD 
BRANCH   7   9
HETATM    9  C   UNL     1     -10.621   7.766  68.220  1.00  0.00    -0.117 C  
BRANCH   9  10
HETATM   10  C   UNL     1     -10.693   9.045  67.357  1.00  0.00    -0.161 C  
BRANCH  10  11
HETATM   11  N   UNL     1     -11.646  10.061  67.832  1.00  0.00    -0.569 NA 
HETATM   12  H   UNL     1     -12.483   9.616  68.210  1.00  0.00     0.000 HD 
BRANCH  11  13
HETATM   13  C   UNL     1     -11.075  11.023  68.820  1.00  0.00    -0.239 C  
BRANCH  13  14
HETATM   14  C   UNL     1     -11.264  10.573  70.285  1.00  0.00    -0.313 C  
HETATM   15  H   UNL     1     -12.878  10.926  72.432  1.00  0.00     0.000 H  
HETATM   16  S   UNL     1     -12.708  11.331  71.113  1.00  0.00    -0.346 SA 
ENDBRANCH  13  14
BRANCH  13  17
HETATM   17  C   UNL     1      -9.576  11.245  68.522  1.00  0.00    -0.198 C  
HETATM   18  O   UNL     1      -8.647  10.702  69.110  1.00  0.00    -0.160 OA 
BRANCH  17  19
HETATM   19  O   UNL     1      -9.429  12.132  67.495  1.00  0.00    -0.174 OA 
BRANCH  19  20
HETATM   20  C   UNL     1      -9.377  13.517  67.864  1.00  0.00    -0.215 C  
HETATM   21  C   UNL     1      -8.004  14.093  67.591  1.00  0.00    -0.187 C  
ENDBRANCH  19  20
ENDBRANCH  17  19
ENDBRANCH  13  17
ENDBRANCH  11  13
ENDBRANCH  10  11
ENDBRANCH   9  10
ENDBRANCH   7   9
ENDBRANCH   6   7
BRANCH   6  22
HETATM   22  C   UNL     1      -7.342   6.881  67.069  1.00  0.00    -0.086 C  
HETATM   23  H   UNL     1      -6.548   7.607  64.575  1.00  0.00     0.000 H  
HETATM   24  S   UNL     1      -7.656   7.178  65.294  1.00  0.00    -0.110 SA 
ENDBRANCH   6  22
ENDBRANCH   4   6
ENDBRANCH   3   4
ENDBRANCH   2   3
TORSDOF 13
ENDMDL
MODEL      453
REMARK 921   NORMALIZED FREE ENERGY PREDICTED BY IDOCK:   -2.07 KCAL/MOL
REMARK 922        TOTAL FREE ENERGY PREDICTED BY IDOCK:   -4.23 KCAL/MOL
REMARK 923 INTER-LIGAND FREE ENERGY PREDICTED BY IDOCK:   -3.35 KCAL/MOL
REMARK 924 INTRA-LIGAND FREE ENERGY PREDICTED BY IDOCK:   -0.88 KCAL/MOL
REMARK 927      BINDING AFFINITY PREDICTED BY RF-SCORE:    0.00 PKD
ROOT
HETATM    1  C   UNL     1      -6.611  12.353  67.729  1.00  0.00    -0.113 C  
HETATM    2  C   UNL     1      -6.806  11.234  68.730  1.00  0.00    -0.082 C  
ENDROOT
BRANCH   2   3
HETATM    3  O   UNL     1      -8.206  11.020  68.969  1.00  0.00    -0.150 OA 
BRANCH   3   4
HETATM    4  C   UNL     1      -8.665   9.761  68.718  1.00  0.00    -0.128 C  
HETATM    5  O   UNL     1      -8.485   9.137  67.679  1.00  0.00    -0.116 OA 
BRANCH   4   6
HETATM    6  C   UNL     1      -9.435   9.241  69.946  1.00  0.00    -0.197 C  
BRANCH   6   7
HETATM    7  N   UNL     1      -8.519   9.160  71.117  1.00  0.00    -0.302 NA 
HETATM    8  H   UNL     1      -9.037   8.893  71.955  1.00  0.00     0.000 HD 
BRANCH   7   9
HETATM    9  C   UNL     1      -7.366   8.275  70.925  1.00  0.00    -0.059 C  
BRANCH   9  10
HETATM   10  C   UNL     1      -7.760   6.821  70.585  1.00  0.00    -0.097 C  
BRANCH  10  11
HETATM   11  N   UNL     1      -7.936   5.937  71.750  1.00  0.00    -0.110 NA 
HETATM   12  H   UNL     1      -8.081   6.488  72.596  1.00  0.00     0.000 HD 
BRANCH  11  13
HETATM   13  C   UNL     1      -9.022   4.925  71.593  1.00  0.00    -0.138 C  
BRANCH  13  14
HETATM   14  C   UNL     1     -10.390   5.550  71.244  1.00  0.00    -0.233 C  
HETATM   15  H   UNL     1     -12.747   6.281  72.362  1.00  0.00     0.000 H  
HETATM   16  S   UNL     1     -11.515   5.718  72.676  1.00  0.00    -0.238 SA 
ENDBRANCH  13  14
BRANCH  13  17
HETATM   17  C   UNL     1      -8.619   3.894  70.515  1.00  0.00    -0.070 C  
HETATM   18  O   UNL     1      -7.589   3.229  70.519  1.00  0.00    -0.040 OA 
BRANCH  17  19
HETATM   19  O   UNL     1      -9.585   3.820  69.554  1.00  0.00    -0.184 OA 
BRANCH  19  20
HETATM   20  C   UNL     1      -9.408   2.799  68.563  1.00  0.00    -0.186 C  
HETATM   21  C   UNL     1      -9.372   3.399  67.174  1.00  0.00    -0.224 C  
ENDBRANCH  19  20
ENDBRANCH  17  19
ENDBRANCH  13  17
ENDBRANCH  11  13
ENDBRANCH  10  11
ENDBRANCH   9  10
ENDBRANCH   7   9
ENDBRANCH   6   7
BRANCH   6  22
HETATM   22  C   UNL     1     -10.706  10.091  70.145  1.00  0.00    -0.307 C  
HETATM   23  H   UNL     1     -13.074  10.138  71.476  1.00  0.00     0.000 H  
HETATM   24  S   UNL     1     -11.929   9.372  71.297  1.00  0.00    -0.377 SA 
ENDBRANCH   6  22
ENDBRANCH   4   6
ENDBRANCH   3   4
ENDBRANCH   2   3
TORSDOF 13
ENDMDL
MODEL      454
REMARK 921   NORMALIZED FREE ENERGY PREDICTED BY IDOCK:   -2.07 KCAL/MOL
REMARK 922        TOTAL FREE ENERGY PREDICTED BY IDOCK:   -4.23 KCAL/MOL
REMARK 923 INTER-LIGAND FREE ENERGY PREDICTED BY IDOCK:   -3.57 KCAL/MOL
REMARK 924 INTRA-LIGAND FREE ENERGY PREDICTED BY IDOCK:   -0.66 KCAL/MOL
REMARK 927      BINDING AFFINITY PREDICTED BY RF-SCORE:    0.00 PKD
ROOT
HETATM    1  C   UNL     1     -12.707  11.088  70.136  1.00  0.00    -0.200 C  
HETATM    2  C   UNL     1     -12.539  10.462  71.504  1.00  0.00    -0.439 C  
ENDROOT
BRANCH   2   3
HETATM    3  O   UNL     1     -12.927   9.080  71.470  1.00  0.00    -0.325 OA 
BRANCH   3   4
HETATM    4  C   UNL     1     -11.967   8.184  71.838  1.00  0.00    -0.320 C  
HETATM    5  O   UNL     1     -11.857   7.684  72.950  1.00  0.00    -0.225 OA 
BRANCH   4   6
HETATM    6  C   UNL     1     -11.051   7.892  70.634  1.00  0.00    -0.259 C  
BRANCH   6   7
HETATM    7  N   UNL     1      -9.639   8.199  70.991  1.00  0.00    -0.156 NA 
HETATM    8  H   UNL     1      -9.176   7.368  71.359  1.00  0.00     0.000 HD 
BRANCH   7   9
HETATM    9  C   UNL     1      -8.851   8.781  69.899  1.00  0.00    -0.143 C  
BRANCH   9  10
HETATM   10  C   UNL     1      -8.579  10.291  70.078  1.00  0.00     0.140 C  
BRANCH  10  11
HETATM   11  N   UNL     1      -9.622  11.178  69.535  1.00  0.00    -0.364 NA 
HETATM   12  H   UNL     1      -9.648  12.056  70.053  1.00  0.00     0.000 HD 
BRANCH  11  13
HETATM   13  C   UNL     1      -9.503  11.439  68.070  1.00  0.00    -0.181 C  
BRANCH  13  14
HETATM   14  C   UNL     1     -10.435  12.568  67.576  1.00  0.00    -0.219 C  
HETATM   15  H   UNL     1     -12.178  13.179  65.595  1.00  0.00     0.000 H  
HETATM   16  S   UNL     1     -11.339  12.163  66.040  1.00  0.00    -0.359 SA 
ENDBRANCH  13  14
BRANCH  13  17
HETATM   17  C   UNL     1      -8.035  11.770  67.719  1.00  0.00    -0.141 C  
HETATM   18  O   UNL     1      -7.463  12.822  67.983  1.00  0.00    -0.098 OA 
BRANCH  17  19
HETATM   19  O   UNL     1      -7.457  10.713  67.077  1.00  0.00    -0.099 OA 
BRANCH  19  20
HETATM   20  C   UNL     1      -8.143  10.236  65.912  1.00  0.00    -0.143 C  
HETATM   21  C   UNL     1      -7.837  11.109  64.713  1.00  0.00     0.615 C  
ENDBRANCH  19  20
ENDBRANCH  17  19
ENDBRANCH  13  17
ENDBRANCH  11  13
ENDBRANCH  10  11
ENDBRANCH   9  10
ENDBRANCH   7   9
ENDBRANCH   6   7
BRANCH   6  22
HETATM   22  C   UNL     1     -11.320   6.459  70.129  1.00  0.00    -0.420 C  
HETATM   23  H   UNL     1     -10.401   3.909  70.310  1.00  0.00     0.000 H  
HETATM   24  S   UNL     1     -10.159   5.200  70.764  1.00  0.00    -0.235 SA 
ENDBRANCH   6  22
ENDBRANCH   4   6
ENDBRANCH   3   4
ENDBRANCH   2   3
TORSDOF 13
ENDMDL
MODEL      455
REMARK 921   NORMALIZED FREE ENERGY PREDICTED BY IDOCK:   -2.06 KCAL/MOL
REMARK 922        TOTAL FREE ENERGY PREDICTED BY IDOCK:   -4.22 KCAL/MOL
REMARK 923 INTER-LIGAND FREE ENERGY PREDICTED BY IDOCK:   -3.57 KCAL/MOL
REMARK 924 INTRA-LIGAND FREE ENERGY PREDICTED BY IDOCK:   -0.66 KCAL/MOL
REMARK 927      BINDING AFFINITY PREDICTED BY RF-SCORE:    0.00 PKD
ROOT
HETATM    1  C   UNL     1     -10.883   6.385  67.072  1.00  0.00    -0.464 C  
HETATM    2  C   UNL     1     -10.468   5.600  68.299  1.00  0.00    -0.192 C  
ENDROOT
BRANCH   2   3
HETATM    3  O   UNL     1      -9.095   5.193  68.188  1.00  0.00    -0.109 OA 
BRANCH   3   4
HETATM    4  C   UNL     1      -8.880   3.850  68.100  1.00  0.00    -0.110 C  
HETATM    5  O   UNL     1      -9.527   3.074  67.407  1.00  0.00    -0.198 OA 
BRANCH   4   6
HETATM    6  C   UNL     1      -7.691   3.461  68.999  1.00  0.00    -0.051 C  
BRANCH   6   7
HETATM    7  N   UNL     1      -8.156   2.552  70.083  1.00  0.00    -0.042 NA 
HETATM    8  H   UNL     1      -7.364   2.060  70.498  1.00  0.00     0.000 HD 
BRANCH   7   9
HETATM    9  C   UNL     1      -8.952   3.209  71.124  1.00  0.00    -0.099 C  
BRANCH   9  10
HETATM   10  C   UNL     1      -8.196   4.343  71.850  1.00  0.00    -0.102 C  
BRANCH  10  11
HETATM   11  N   UNL     1      -8.920   4.947  72.981  1.00  0.00    -0.112 NA 
HETATM   12  H   UNL     1      -8.362   4.891  73.833  1.00  0.00     0.000 HD 
BRANCH  11  13
HETATM   13  C   UNL     1      -9.368   6.351  72.742  1.00  0.00    -0.140 C  
BRANCH  13  14
HETATM   14  C   UNL     1      -8.922   6.907  71.372  1.00  0.00    -0.141 C  
HETATM   15  H   UNL     1      -7.427   8.868  70.251  1.00  0.00     0.000 H  
HETATM   16  S   UNL     1      -7.828   8.368  71.484  1.00  0.00    -0.129 SA 
ENDBRANCH  13  14
BRANCH  13  17
HETATM   17  C   UNL     1     -10.904   6.436  72.875  1.00  0.00    -0.256 C  
HETATM   18  O   UNL     1     -11.688   5.520  72.648  1.00  0.00    -0.293 OA 
BRANCH  17  19
HETATM   19  O   UNL     1     -11.271   7.682  73.296  1.00  0.00    -0.358 OA 
BRANCH  19  20
HETATM   20  C   UNL     1     -11.613   8.617  72.264  1.00  0.00    -0.354 C  
HETATM   21  C   UNL     1     -12.990   8.322  71.708  1.00  0.00    -0.367 C  
ENDBRANCH  19  20
ENDBRANCH  17  19
ENDBRANCH  13  17
ENDBRANCH  11  13
ENDBRANCH  10  11
ENDBRANCH   9  10
ENDBRANCH   7   9
ENDBRANCH   6   7
BRANCH   6  22
HETATM   22  C   UNL     1      -6.544   2.924  68.118  1.00  0.00    -0.036 C  
HETATM   23  H   UNL     1      -4.498   3.736  66.526  1.00  0.00     0.000 H  
HETATM   24  S   UNL     1      -5.532   4.218  67.319  1.00  0.00    -0.014 SA 
ENDBRANCH   6  22
ENDBRANCH   4   6
ENDBRANCH   3   4
ENDBRANCH   2   3
TORSDOF 13
ENDMDL
MODEL      456
REMARK 921   NORMALIZED FREE ENERGY PREDICTED BY IDOCK:   -1.99 KCAL/MOL
REMARK 922        TOTAL FREE ENERGY PREDICTED BY IDOCK:   -4.10 KCAL/MOL
REMARK 923 INTER-LIGAND FREE ENERGY PREDICTED BY IDOCK:   -3.53 KCAL/MOL
REMARK 924 INTRA-LIGAND FREE ENERGY PREDICTED BY IDOCK:   -0.57 KCAL/MOL
REMARK 927      BINDING AFFINITY PREDICTED BY RF-SCORE:    0.00 PKD
ROOT
HETATM    1  C   UNL     1     -13.007  10.278  71.025  1.00  0.00    -0.488 C  
HETATM    2  C   UNL     1     -12.088   9.462  71.909  1.00  0.00    -0.357 C  
ENDROOT
BRANCH   2   3
HETATM    3  O   UNL     1     -11.310   8.554  71.115  1.00  0.00    -0.254 OA 
BRANCH   3   4
HETATM    4  C   UNL     1     -11.707   7.250  71.145  1.00  0.00    -0.303 C  
HETATM    5  O   UNL     1     -12.583   6.794  71.870  1.00  0.00    -0.345 OA 
BRANCH   4   6
HETATM    6  C   UNL     1     -10.890   6.440  70.120  1.00  0.00    -0.296 C  
BRANCH   6   7
HETATM    7  N   UNL     1     -10.064   7.363  69.294  1.00  0.00    -0.181 NA 
HETATM    8  H   UNL     1      -9.072   7.226  69.493  1.00  0.00     0.000 HD 
BRANCH   7   9
HETATM    9  C   UNL     1     -10.314   7.274  67.852  1.00  0.00    -0.201 C  
BRANCH   9  10
HETATM   10  C   UNL     1      -9.226   7.964  66.998  1.00  0.00    -0.148 C  
BRANCH  10  11
HETATM   11  N   UNL     1      -8.621   7.114  65.960  1.00  0.00    -0.148 NA 
HETATM   12  H   UNL     1      -9.300   6.911  65.225  1.00  0.00     0.000 HD 
BRANCH  11  13
HETATM   13  C   UNL     1      -7.364   7.665  65.372  1.00  0.00    -0.071 C  
BRANCH  13  14
HETATM   14  C   UNL     1      -6.318   8.060  66.437  1.00  0.00    -0.047 C  
HETATM   15  H   UNL     1      -4.956   7.069  68.558  1.00  0.00     0.000 H  
HETATM   16  S   UNL     1      -5.897   6.713  67.599  1.00  0.00    -0.021 SA 
ENDBRANCH  13  14
BRANCH  13  17
HETATM   17  C   UNL     1      -6.759   6.639  64.388  1.00  0.00    -0.042 C  
HETATM   18  O   UNL     1      -5.725   6.794  63.747  1.00  0.00    -0.030 OA 
BRANCH  17  19
HETATM   19  O   UNL     1      -7.539   5.520  64.339  1.00  0.00    -0.065 OA 
BRANCH  19  20
HETATM   20  C   UNL     1      -7.658   4.893  63.055  1.00  0.00    -0.062 C  
HETATM   21  C   UNL     1      -8.864   3.978  63.013  1.00  0.00    -0.109 C  
ENDBRANCH  19  20
ENDBRANCH  17  19
ENDBRANCH  13  17
ENDBRANCH  11  13
ENDBRANCH  10  11
ENDBRANCH   9  10
ENDBRANCH   7   9
ENDBRANCH   6   7
BRANCH   6  22
HETATM   22  C   UNL     1     -10.120   5.323  70.853  1.00  0.00    -0.226 C  
HETATM   23  H   UNL     1      -8.096   4.910  72.618  1.00  0.00     0.000 H  
HETATM   24  S   UNL     1      -8.790   5.916  71.956  1.00  0.00    -0.137 SA 
ENDBRANCH   6  22
ENDBRANCH   4   6
ENDBRANCH   3   4
ENDBRANCH   2   3
TORSDOF 13
ENDMDL
MODEL      457
REMARK 921   NORMALIZED FREE ENERGY PREDICTED BY IDOCK:   -1.99 KCAL/MOL
REMARK 922        TOTAL FREE ENERGY PREDICTED BY IDOCK:   -4.09 KCAL/MOL
REMARK 923 INTER-LIGAND FREE ENERGY PREDICTED BY IDOCK:   -3.92 KCAL/MOL
REMARK 924 INTRA-LIGAND FREE ENERGY PREDICTED BY IDOCK:   -0.17 KCAL/MOL
REMARK 927      BINDING AFFINITY PREDICTED BY RF-SCORE:    0.00 PKD
ROOT
HETATM    1  C   UNL     1     -13.253  11.308  71.776  1.00  0.00    -0.480 C  
HETATM    2  C   UNL     1     -13.111   9.826  72.053  1.00  0.00    -0.452 C  
ENDROOT
BRANCH   2   3
HETATM    3  O   UNL     1     -11.745   9.418  71.887  1.00  0.00    -0.374 OA 
BRANCH   3   4
HETATM    4  C   UNL     1     -11.432   8.183  72.372  1.00  0.00    -0.397 C  
HETATM    5  O   UNL     1     -11.143   7.932  73.535  1.00  0.00    -0.214 OA 
BRANCH   4   6
HETATM    6  C   UNL     1     -11.508   7.150  71.231  1.00  0.00    -0.282 C  
BRANCH   6   7
HETATM    7  N   UNL     1     -10.433   7.418  70.236  1.00  0.00    -0.216 NA 
HETATM    8  H   UNL     1     -10.834   7.773  69.367  1.00  0.00     0.000 HD 
BRANCH   7   9
HETATM    9  C   UNL     1      -9.375   8.314  70.714  1.00  0.00    -0.161 C  
BRANCH   9  10
HETATM   10  C   UNL     1      -8.961   9.381  69.677  1.00  0.00    -0.173 C  
BRANCH  10  11
HETATM   11  N   UNL     1      -8.047   8.902  68.626  1.00  0.00    -0.110 NA 
HETATM   12  H   UNL     1      -7.722   7.959  68.839  1.00  0.00     0.000 HD 
BRANCH  11  13
HETATM   13  C   UNL     1      -8.614   8.961  67.246  1.00  0.00    -0.118 C  
BRANCH  13  14
HETATM   14  C   UNL     1      -9.329  10.295  66.939  1.00  0.00    -0.158 C  
HETATM   15  H   UNL     1     -10.971  11.467  65.131  1.00  0.00     0.000 H  
HETATM   16  S   UNL     1     -10.328  10.266  65.408  1.00  0.00    -0.057 SA 
ENDBRANCH  13  14
BRANCH  13  17
HETATM   17  C   UNL     1      -7.493   8.709  66.214  1.00  0.00    -0.090 C  
HETATM   18  O   UNL     1      -7.274   7.643  65.650  1.00  0.00    -0.063 OA 
BRANCH  17  19
HETATM   19  O   UNL     1      -6.780   9.855  66.007  1.00  0.00    -0.085 OA 
BRANCH  19  20
HETATM   20  C   UNL     1      -5.443   9.683  65.520  1.00  0.00    -0.045 C  
HETATM   21  C   UNL     1      -5.299  10.269  64.131  1.00  0.00    -0.133 C  
ENDBRANCH  19  20
ENDBRANCH  17  19
ENDBRANCH  13  17
ENDBRANCH  11  13
ENDBRANCH  10  11
ENDBRANCH   9  10
ENDBRANCH   7   9
ENDBRANCH   6   7
BRANCH   6  22
HETATM   22  C   UNL     1     -11.527   5.730  71.833  1.00  0.00    -0.166 C  
HETATM   23  H   UNL     1     -10.079   3.436  71.974  1.00  0.00     0.000 H  
HETATM   24  S   UNL     1     -10.062   4.715  71.431  1.00  0.00    -0.146 SA 
ENDBRANCH   6  22
ENDBRANCH   4   6
ENDBRANCH   3   4
ENDBRANCH   2   3
TORSDOF 13
ENDMDL
MODEL      458
REMARK 921   NORMALIZED FREE ENERGY PREDICTED BY IDOCK:   -1.99 KCAL/MOL
REMARK 922        TOTAL FREE ENERGY PREDICTED BY IDOCK:   -4.09 KCAL/MOL
REMARK 923 INTER-LIGAND FREE ENERGY PREDICTED BY IDOCK:   -4.18 KCAL/MOL
REMARK 924 INTRA-LIGAND FREE ENERGY PREDICTED BY IDOCK:    0.09 KCAL/MOL
REMARK 927      BINDING AFFINITY PREDICTED BY RF-SCORE:    0.00 PKD
ROOT
HETATM    1  C   UNL     1     -12.272  11.648  70.515  1.00  0.00    -0.451 C  
HETATM    2  C   UNL     1     -11.899  10.676  69.416  1.00  0.00    -0.253 C  
ENDROOT
BRANCH   2   3
HETATM    3  O   UNL     1     -10.591  10.136  69.653  1.00  0.00    -0.222 OA 
BRANCH   3   4
HETATM    4  C   UNL     1     -10.505   9.200  70.641  1.00  0.00    -0.245 C  
HETATM    5  O   UNL     1      -9.490   8.928  71.271  1.00  0.00    -0.225 OA 
BRANCH   4   6
HETATM    6  C   UNL     1     -11.885   8.546  70.850  1.00  0.00    -0.217 C  
BRANCH   6   7
HETATM    7  N   UNL     1     -12.005   7.338  69.989  1.00  0.00    -0.508 NA 
HETATM    8  H   UNL     1     -12.791   7.436  69.347  1.00  0.00     0.000 HD 
BRANCH   7   9
HETATM    9  C   UNL     1     -10.783   6.994  69.254  1.00  0.00    -0.225 C  
BRANCH   9  10
HETATM   10  C   UNL     1     -10.164   5.648  69.691  1.00  0.00    -0.251 C  
BRANCH  10  11
HETATM   11  N   UNL     1      -8.890   5.759  70.420  1.00  0.00    -0.140 NA 
HETATM   12  H   UNL     1      -9.050   6.100  71.368  1.00  0.00     0.000 HD 
BRANCH  11  13
HETATM   13  C   UNL     1      -8.086   4.502  70.446  1.00  0.00    -0.067 C  
BRANCH  13  14
HETATM   14  C   UNL     1      -6.636   4.717  70.933  1.00  0.00    -0.031 C  
HETATM   15  H   UNL     1      -5.050   6.533  72.167  1.00  0.00     0.000 H  
HETATM   16  S   UNL     1      -6.355   6.339  71.729  1.00  0.00    -0.047 SA 
ENDBRANCH  13  14
BRANCH  13  17
HETATM   17  C   UNL     1      -8.793   3.452  71.331  1.00  0.00    -0.085 C  
HETATM   18  O   UNL     1      -9.169   2.346  70.959  1.00  0.00    -0.104 OA 
BRANCH  17  19
HETATM   19  O   UNL     1      -8.932   3.929  72.603  1.00  0.00    -0.103 OA 
BRANCH  19  20
HETATM   20  C   UNL     1      -9.326   2.971  73.593  1.00  0.00    -0.087 C  
HETATM   21  C   UNL     1     -10.784   3.149  73.961  1.00  0.00    -0.279 C  
ENDBRANCH  19  20
ENDBRANCH  17  19
ENDBRANCH  13  17
ENDBRANCH  11  13
ENDBRANCH  10  11
ENDBRANCH   9  10
ENDBRANCH   7   9
ENDBRANCH   6   7
BRANCH   6  22
HETATM   22  C   UNL     1     -12.116   8.322  72.358  1.00  0.00    -0.369 C  
HETATM   23  H   UNL     1     -11.195   6.909  74.487  1.00  0.00     0.000 H  
HETATM   24  S   UNL     1     -10.987   7.111  73.128  1.00  0.00    -0.268 SA 
ENDBRANCH   6  22
ENDBRANCH   4   6
ENDBRANCH   3   4
ENDBRANCH   2   3
TORSDOF 13
ENDMDL
MODEL      459
REMARK 921   NORMALIZED FREE ENERGY PREDICTED BY IDOCK:   -1.92 KCAL/MOL
REMARK 922        TOTAL FREE ENERGY PREDICTED BY IDOCK:   -3.97 KCAL/MOL
REMARK 923 INTER-LIGAND FREE ENERGY PREDICTED BY IDOCK:   -3.60 KCAL/MOL
REMARK 924 INTRA-LIGAND FREE ENERGY PREDICTED BY IDOCK:   -0.36 KCAL/MOL
REMARK 927      BINDING AFFINITY PREDICTED BY RF-SCORE:    0.00 PKD
ROOT
HETATM    1  C   UNL     1      -6.599  12.963  67.375  1.00  0.00    -0.132 C  
HETATM    2  C   UNL     1      -6.789  12.040  68.559  1.00  0.00    -0.078 C  
ENDROOT
BRANCH   2   3
HETATM    3  O   UNL     1      -8.187  11.791  68.776  1.00  0.00    -0.121 OA 
BRANCH   3   4
HETATM    4  C   UNL     1      -8.647  10.580  68.351  1.00  0.00    -0.132 C  
HETATM    5  O   UNL     1      -8.261   9.990  67.349  1.00  0.00    -0.117 OA 
BRANCH   4   6
HETATM    6  C   UNL     1      -9.720  10.066  69.330  1.00  0.00    -0.215 C  
BRANCH   6   7
HETATM    7  N   UNL     1      -9.136   9.933  70.692  1.00  0.00    -0.341 NA 
HETATM    8  H   UNL     1      -9.852   9.645  71.359  1.00  0.00     0.000 HD 
BRANCH   7   9
HETATM    9  C   UNL     1      -7.976   9.039  70.769  1.00  0.00    -0.148 C  
BRANCH   9  10
HETATM   10  C   UNL     1      -8.297   7.583  70.365  1.00  0.00    -0.128 C  
BRANCH  10  11
HETATM   11  N   UNL     1      -8.882   6.757  71.433  1.00  0.00    -0.131 NA 
HETATM   12  H   UNL     1      -9.205   7.345  72.202  1.00  0.00     0.000 HD 
BRANCH  11  13
HETATM   13  C   UNL     1      -9.974   5.847  70.977  1.00  0.00    -0.190 C  
BRANCH  13  14
HETATM   14  C   UNL     1     -11.189   5.831  71.931  1.00  0.00    -0.227 C  
HETATM   15  H   UNL     1     -12.006   4.866  74.326  1.00  0.00     0.000 H  
HETATM   16  S   UNL     1     -10.912   4.881  73.468  1.00  0.00    -0.329 SA 
ENDBRANCH  13  14
BRANCH  13  17
HETATM   17  C   UNL     1     -10.421   6.245  69.554  1.00  0.00    -0.237 C  
HETATM   18  O   UNL     1     -11.323   7.032  69.287  1.00  0.00    -0.120 OA 
BRANCH  17  19
HETATM   19  O   UNL     1      -9.656   5.600  68.625  1.00  0.00    -0.121 OA 
BRANCH  19  20
HETATM   20  C   UNL     1     -10.025   5.808  67.255  1.00  0.00    -0.154 C  
HETATM   21  C   UNL     1     -10.025   4.499  66.494  1.00  0.00    -0.263 C  
ENDBRANCH  19  20
ENDBRANCH  17  19
ENDBRANCH  13  17
ENDBRANCH  11  13
ENDBRANCH  10  11
ENDBRANCH   9  10
ENDBRANCH   7   9
ENDBRANCH   6   7
BRANCH   6  22
HETATM   22  C   UNL     1     -10.974  10.958  69.221  1.00  0.00    -0.244 C  
HETATM   23  H   UNL     1     -12.645  12.105  67.411  1.00  0.00     0.000 H  
HETATM   24  S   UNL     1     -11.515  11.302  67.510  1.00  0.00    -0.176 SA 
ENDBRANCH   6  22
ENDBRANCH   4   6
ENDBRANCH   3   4
ENDBRANCH   2   3
TORSDOF 13
ENDMDL
MODEL      460
REMARK 921   NORMALIZED FREE ENERGY PREDICTED BY IDOCK:   -1.91 KCAL/MOL
REMARK 922        TOTAL FREE ENERGY PREDICTED BY IDOCK:   -3.95 KCAL/MOL
REMARK 923 INTER-LIGAND FREE ENERGY PREDICTED BY IDOCK:   -3.18 KCAL/MOL
REMARK 924 INTRA-LIGAND FREE ENERGY PREDICTED BY IDOCK:   -0.77 KCAL/MOL
REMARK 927      BINDING AFFINITY PREDICTED BY RF-SCORE:    0.00 PKD
ROOT
HETATM    1  C   UNL     1      -5.526   7.714  69.895  1.00  0.00    -0.023 C  
HETATM    2  C   UNL     1      -6.175   6.975  71.046  1.00  0.00    -0.036 C  
ENDROOT
BRANCH   2   3
HETATM    3  O   UNL     1      -7.337   6.265  70.589  1.00  0.00    -0.078 OA 
BRANCH   3   4
HETATM    4  C   UNL     1      -7.095   5.123  69.885  1.00  0.00    -0.058 C  
HETATM    5  O   UNL     1      -7.474   4.905  68.741  1.00  0.00    -0.064 OA 
BRANCH   4   6
HETATM    6  C   UNL     1      -6.264   4.154  70.748  1.00  0.00    -0.018 C  
BRANCH   6   7
HETATM    7  N   UNL     1      -7.153   3.449  71.711  1.00  0.00    -0.034 NA 
HETATM    8  H   UNL     1      -6.909   3.700  72.670  1.00  0.00     0.000 HD 
BRANCH   7   9
HETATM    9  C   UNL     1      -8.585   3.655  71.477  1.00  0.00    -0.084 C  
BRANCH   9  10
HETATM   10  C   UNL     1      -9.354   4.106  72.739  1.00  0.00    -0.120 C  
BRANCH  10  11
HETATM   11  N   UNL     1     -10.625   4.800  72.475  1.00  0.00    -0.209 NA 
HETATM   12  H   UNL     1     -11.163   4.897  73.337  1.00  0.00     0.000 HD 
BRANCH  11  13
HETATM   13  C   UNL     1     -10.473   6.124  71.803  1.00  0.00    -0.216 C  
BRANCH  13  14
HETATM   14  C   UNL     1     -11.537   6.378  70.713  1.00  0.00    -0.338 C  
HETATM   15  H   UNL     1     -11.880   6.369  68.025  1.00  0.00     0.000 H  
HETATM   16  S   UNL     1     -10.922   6.140  69.007  1.00  0.00    -0.349 SA 
ENDBRANCH  13  14
BRANCH  13  17
HETATM   17  C   UNL     1     -10.515   7.251  72.859  1.00  0.00    -0.282 C  
HETATM   18  O   UNL     1     -10.499   7.086  74.073  1.00  0.00    -0.366 OA 
BRANCH  17  19
HETATM   19  O   UNL     1     -10.563   8.469  72.243  1.00  0.00    -0.319 OA 
BRANCH  19  20
HETATM   20  C   UNL     1      -9.321   8.956  71.719  1.00  0.00    -0.234 C  
HETATM   21  C   UNL     1      -9.520   9.569  70.349  1.00  0.00    -0.317 C  
ENDBRANCH  19  20
ENDBRANCH  17  19
ENDBRANCH  13  17
ENDBRANCH  11  13
ENDBRANCH  10  11
ENDBRANCH   9  10
ENDBRANCH   7   9
ENDBRANCH   6   7
BRANCH   6  22
HETATM   22  C   UNL     1      -5.420   3.251  69.826  1.00  0.00    -0.016 C  
HETATM   23  H   UNL     1      -5.131   0.671  69.025  1.00  0.00     0.000 H  
HETATM   24  S   UNL     1      -5.890   1.486  69.856  1.00  0.00    -0.019 SA 
ENDBRANCH   6  22
ENDBRANCH   4   6
ENDBRANCH   3   4
ENDBRANCH   2   3
TORSDOF 13
ENDMDL
MODEL      461
REMARK 921   NORMALIZED FREE ENERGY PREDICTED BY IDOCK:   -1.88 KCAL/MOL
REMARK 922        TOTAL FREE ENERGY PREDICTED BY IDOCK:   -3.90 KCAL/MOL
REMARK 923 INTER-LIGAND FREE ENERGY PREDICTED BY IDOCK:   -3.26 KCAL/MOL
REMARK 924 INTRA-LIGAND FREE ENERGY PREDICTED BY IDOCK:   -0.64 KCAL/MOL
REMARK 927      BINDING AFFINITY PREDICTED BY RF-SCORE:    0.00 PKD
ROOT
HETATM    1  C   UNL     1      -5.605   7.876  69.436  1.00  0.00    -0.026 C  
HETATM    2  C   UNL     1      -6.096   6.915  70.498  1.00  0.00    -0.027 C  
ENDROOT
BRANCH   2   3
HETATM    3  O   UNL     1      -7.380   6.386  70.135  1.00  0.00    -0.081 OA 
BRANCH   3   4
HETATM    4  C   UNL     1      -8.192   6.033  71.172  1.00  0.00    -0.123 C  
HETATM    5  O   UNL     1      -8.758   4.954  71.290  1.00  0.00    -0.123 OA 
BRANCH   4   6
HETATM    6  C   UNL     1      -8.278   7.199  72.176  1.00  0.00    -0.098 C  
BRANCH   6   7
HETATM    7  N   UNL     1      -9.548   7.947  71.972  1.00  0.00    -0.173 NA 
HETATM    8  H   UNL     1      -9.358   8.870  71.581  1.00  0.00     0.000 HD 
BRANCH   7   9
HETATM    9  C   UNL     1     -10.543   7.242  71.158  1.00  0.00    -0.222 C  
BRANCH   9  10
HETATM   10  C   UNL     1     -10.828   7.932  69.805  1.00  0.00    -0.202 C  
BRANCH  10  11
HETATM   11  N   UNL     1     -11.246   7.026  68.723  1.00  0.00    -0.494 NA 
HETATM   12  H   UNL     1     -12.202   7.234  68.433  1.00  0.00     0.000 HD 
BRANCH  11  13
HETATM   13  C   UNL     1     -10.332   7.019  67.542  1.00  0.00    -0.225 C  
BRANCH  13  14
HETATM   14  C   UNL     1      -9.415   8.259  67.476  1.00  0.00    -0.149 C  
HETATM   15  H   UNL     1      -8.858  10.420  65.940  1.00  0.00     0.000 H  
HETATM   16  S   UNL     1      -9.684   9.303  65.999  1.00  0.00    -0.282 SA 
ENDBRANCH  13  14
BRANCH  13  17
HETATM   17  C   UNL     1      -9.482   5.729  67.551  1.00  0.00    -0.112 C  
HETATM   18  O   UNL     1      -9.720   4.727  68.217  1.00  0.00    -0.143 OA 
BRANCH  17  19
HETATM   19  O   UNL     1      -8.424   5.860  66.698  1.00  0.00    -0.109 OA 
BRANCH  19  20
HETATM   20  C   UNL     1      -8.612   5.328  65.380  1.00  0.00    -0.149 C  
HETATM   21  C   UNL     1      -7.928   6.199  64.348  1.00  0.00    -0.121 C  
ENDBRANCH  19  20
ENDBRANCH  17  19
ENDBRANCH  13  17
ENDBRANCH  11  13
ENDBRANCH  10  11
ENDBRANCH   9  10
ENDBRANCH   7   9
ENDBRANCH   6   7
BRANCH   6  22
HETATM   22  C   UNL     1      -8.037   6.659  73.601  1.00  0.00    -0.102 C  
HETATM   23  H   UNL     1      -9.343   5.855  75.843  1.00  0.00     0.000 H  
HETATM   24  S   UNL     1      -9.560   6.342  74.560  1.00  0.00    -0.295 SA 
ENDBRANCH   6  22
ENDBRANCH   4   6
ENDBRANCH   3   4
ENDBRANCH   2   3
TORSDOF 13
ENDMDL
MODEL      462
REMARK 921   NORMALIZED FREE ENERGY PREDICTED BY IDOCK:   -1.86 KCAL/MOL
REMARK 922        TOTAL FREE ENERGY PREDICTED BY IDOCK:   -3.87 KCAL/MOL
REMARK 923 INTER-LIGAND FREE ENERGY PREDICTED BY IDOCK:   -5.43 KCAL/MOL
REMARK 924 INTRA-LIGAND FREE ENERGY PREDICTED BY IDOCK:    1.56 KCAL/MOL
REMARK 927      BINDING AFFINITY PREDICTED BY RF-SCORE:    0.00 PKD
ROOT
HETATM    1  C   UNL     1     -12.560  15.281  71.346  1.00  0.00    -0.444 C  
HETATM    2  C   UNL     1     -12.803  13.899  71.912  1.00  0.00    -0.322 C  
ENDROOT
BRANCH   2   3
HETATM    3  O   UNL     1     -13.186  12.993  70.865  1.00  0.00    -0.021 OA 
BRANCH   3   4
HETATM    4  C   UNL     1     -12.168  12.298  70.281  1.00  0.00    -0.262 C  
HETATM    5  O   UNL     1     -11.680  11.262  70.716  1.00  0.00    -0.276 OA 
BRANCH   4   6
HETATM    6  C   UNL     1     -11.736  13.011  68.986  1.00  0.00    -0.329 C  
BRANCH   6   7
HETATM    7  N   UNL     1     -10.393  13.625  69.173  1.00  0.00    -0.432 NA 
HETATM    8  H   UNL     1     -10.196  13.752  70.166  1.00  0.00     0.000 HD 
BRANCH   7   9
HETATM    9  C   UNL     1      -9.298  12.898  68.523  1.00  0.00    -0.074 C  
BRANCH   9  10
HETATM   10  C   UNL     1      -8.689  13.656  67.322  1.00  0.00    -0.218 C  
BRANCH  10  11
HETATM   11  N   UNL     1      -7.578  14.561  67.658  1.00  0.00    -0.166 NA 
HETATM   12  H   UNL     1      -6.781  14.391  67.044  1.00  0.00     0.000 HD 
BRANCH  11  13
HETATM   13  C   UNL     1      -7.943  16.009  67.652  1.00  0.00    -0.143 C  
BRANCH  13  14
HETATM   14  C   UNL     1      -6.775  16.931  68.066  1.00  0.00    -0.148 C  
HETATM   15  H   UNL     1      -6.258  19.342  69.188  1.00  0.00     0.000 H  
HETATM   16  S   UNL     1      -7.309  18.511  68.816  1.00  0.00    -0.270 SA 
ENDBRANCH  13  14
BRANCH  13  17
HETATM   17  C   UNL     1      -8.464  16.407  66.253  1.00  0.00    -0.337 C  
HETATM   18  O   UNL     1      -8.077  17.369  65.599  1.00  0.00    -0.485 OA 
BRANCH  17  19
HETATM   19  O   UNL     1      -9.416  15.521  65.838  1.00  0.00    -0.331 OA 
BRANCH  19  20
HETATM   20  C   UNL     1     -10.666  16.090  65.428  1.00  0.00    -0.383 C  
HETATM   21  C   UNL     1     -11.659  15.005  65.070  1.00  0.00    -0.332 C  
ENDBRANCH  19  20
ENDBRANCH  17  19
ENDBRANCH  13  17
ENDBRANCH  11  13
ENDBRANCH  10  11
ENDBRANCH   9  10
ENDBRANCH   7   9
ENDBRANCH   6   7
BRANCH   6  22
HETATM   22  C   UNL     1     -11.868  12.032  67.801  1.00  0.00    -0.238 C  
HETATM   23  H   UNL     1     -11.356   9.468  67.064  1.00  0.00     0.000 H  
HETATM   24  S   UNL     1     -11.237  10.350  68.131  1.00  0.00    -0.213 SA 
ENDBRANCH   6  22
ENDBRANCH   4   6
ENDBRANCH   3   4
ENDBRANCH   2   3
TORSDOF 13
ENDMDL
MODEL      463
REMARK 921   NORMALIZED FREE ENERGY PREDICTED BY IDOCK:   -1.86 KCAL/MOL
REMARK 922        TOTAL FREE ENERGY PREDICTED BY IDOCK:   -3.86 KCAL/MOL
REMARK 923 INTER-LIGAND FREE ENERGY PREDICTED BY IDOCK:   -3.19 KCAL/MOL
REMARK 924 INTRA-LIGAND FREE ENERGY PREDICTED BY IDOCK:   -0.67 KCAL/MOL
REMARK 927      BINDING AFFINITY PREDICTED BY RF-SCORE:    0.00 PKD
ROOT
HETATM    1  C   UNL     1     -10.830  10.946  69.332  1.00  0.00    -0.286 C  
HETATM    2  C   UNL     1     -11.573  10.528  70.583  1.00  0.00    -0.352 C  
ENDROOT
BRANCH   2   3
HETATM    3  O   UNL     1     -11.909   9.134  70.519  1.00  0.00    -0.218 OA 
BRANCH   3   4
HETATM    4  C   UNL     1     -11.361   8.347  71.489  1.00  0.00    -0.276 C  
HETATM    5  O   UNL     1     -11.492   8.516  72.694  1.00  0.00    -0.351 OA 
BRANCH   4   6
HETATM    6  C   UNL     1     -10.561   7.206  70.831  1.00  0.00    -0.220 C  
BRANCH   6   7
HETATM    7  N   UNL     1     -10.755   7.240  69.356  1.00  0.00    -0.269 NA 
HETATM    8  H   UNL     1     -10.787   8.205  69.024  1.00  0.00     0.000 HD 
BRANCH   7   9
HETATM    9  C   UNL     1      -9.764   6.471  68.597  1.00  0.00    -0.127 C  
BRANCH   9  10
HETATM   10  C   UNL     1     -10.178   5.001  68.362  1.00  0.00    -0.072 C  
BRANCH  10  11
HETATM   11  N   UNL     1      -9.450   4.015  69.177  1.00  0.00    -0.172 NA 
HETATM   12  H   UNL     1     -10.083   3.283  69.500  1.00  0.00     0.000 HD 
BRANCH  11  13
HETATM   13  C   UNL     1      -8.262   3.416  68.499  1.00  0.00    -0.072 C  
BRANCH  13  14
HETATM   14  C   UNL     1      -7.914   2.004  69.019  1.00  0.00    -0.045 C  
HETATM   15  H   UNL     1      -5.979   0.632  70.328  1.00  0.00     0.000 H  
HETATM   16  S   UNL     1      -6.293   1.903  69.861  1.00  0.00    -0.025 SA 
ENDBRANCH  13  14
BRANCH  13  17
HETATM   17  C   UNL     1      -8.500   3.377  66.973  1.00  0.00    -0.106 C  
HETATM   18  O   UNL     1      -9.226   2.580  66.389  1.00  0.00    -0.123 OA 
BRANCH  17  19
HETATM   19  O   UNL     1      -7.791   4.370  66.362  1.00  0.00    -0.097 OA 
BRANCH  19  20
HETATM   20  C   UNL     1      -6.628   4.832  67.062  1.00  0.00    -0.050 C  
HETATM   21  C   UNL     1      -5.390   4.684  66.203  1.00  0.00    -0.009 C  
ENDBRANCH  19  20
ENDBRANCH  17  19
ENDBRANCH  13  17
ENDBRANCH  11  13
ENDBRANCH  10  11
ENDBRANCH   9  10
ENDBRANCH   7   9
ENDBRANCH   6   7
BRANCH   6  22
HETATM   22  C   UNL     1      -9.099   7.265  71.319  1.00  0.00    -0.146 C  
HETATM   23  H   UNL     1      -6.921   8.887  71.386  1.00  0.00     0.000 H  
HETATM   24  S   UNL     1      -8.238   8.833  70.946  1.00  0.00    -0.176 SA 
ENDBRANCH   6  22
ENDBRANCH   4   6
ENDBRANCH   3   4
ENDBRANCH   2   3
TORSDOF 13
ENDMDL
MODEL      464
REMARK 921   NORMALIZED FREE ENERGY PREDICTED BY IDOCK:   -1.76 KCAL/MOL
REMARK 922        TOTAL FREE ENERGY PREDICTED BY IDOCK:   -3.69 KCAL/MOL
REMARK 923 INTER-LIGAND FREE ENERGY PREDICTED BY IDOCK:   -3.63 KCAL/MOL
REMARK 924 INTRA-LIGAND FREE ENERGY PREDICTED BY IDOCK:   -0.06 KCAL/MOL
REMARK 927      BINDING AFFINITY PREDICTED BY RF-SCORE:    0.00 PKD
ROOT
HETATM    1  C   UNL     1     -13.159  10.197  71.801  1.00  0.00    -0.568 C  
HETATM    2  C   UNL     1     -12.461   8.862  71.653  1.00  0.00    -0.344 C  
ENDROOT
BRANCH   2   3
HETATM    3  O   UNL     1     -11.044   9.053  71.524  1.00  0.00    -0.295 OA 
BRANCH   3   4
HETATM    4  C   UNL     1     -10.267   7.990  71.879  1.00  0.00    -0.214 C  
HETATM    5  O   UNL     1      -9.495   7.966  72.829  1.00  0.00    -0.190 OA 
BRANCH   4   6
HETATM    6  C   UNL     1     -10.519   6.823  70.905  1.00  0.00    -0.213 C  
BRANCH   6   7
HETATM    7  N   UNL     1      -9.598   6.932  69.740  1.00  0.00    -0.155 NA 
HETATM    8  H   UNL     1     -10.129   6.958  68.869  1.00  0.00     0.000 HD 
BRANCH   7   9
HETATM    9  C   UNL     1      -8.667   8.062  69.807  1.00  0.00    -0.136 C  
BRANCH   9  10
HETATM   10  C   UNL     1      -8.899   9.113  68.699  1.00  0.00    -0.133 C  
BRANCH  10  11
HETATM   11  N   UNL     1      -7.707   9.890  68.321  1.00  0.00    -0.084 NA 
HETATM   12  H   UNL     1      -6.922   9.267  68.129  1.00  0.00     0.000 HD 
BRANCH  11  13
HETATM   13  C   UNL     1      -7.922  10.827  67.179  1.00  0.00    -0.124 C  
BRANCH  13  14
HETATM   14  C   UNL     1      -6.754  11.818  66.978  1.00  0.00    -0.139 C  
HETATM   15  H   UNL     1      -4.709  13.000  68.305  1.00  0.00     0.000 H  
HETATM   16  S   UNL     1      -5.760  12.108  68.486  1.00  0.00    -0.054 SA 
ENDBRANCH  13  14
BRANCH  13  17
HETATM   17  C   UNL     1      -8.163  10.021  65.884  1.00  0.00    -0.128 C  
HETATM   18  O   UNL     1      -9.095  10.190  65.106  1.00  0.00    -0.171 OA 
BRANCH  17  19
HETATM   19  O   UNL     1      -7.176   9.091  65.720  1.00  0.00    -0.086 OA 
BRANCH  19  20
HETATM   20  C   UNL     1      -6.193   9.389  64.720  1.00  0.00    -0.077 C  
HETATM   21  C   UNL     1      -6.606   8.824  63.378  1.00  0.00    -0.089 C  
ENDBRANCH  19  20
ENDBRANCH  17  19
ENDBRANCH  13  17
ENDBRANCH  11  13
ENDBRANCH  10  11
ENDBRANCH   9  10
ENDBRANCH   7   9
ENDBRANCH   6   7
BRANCH   6  22
HETATM   22  C   UNL     1     -10.464   5.493  71.684  1.00  0.00    -0.231 C  
HETATM   23  H   UNL     1      -9.604   2.923  71.489  1.00  0.00     0.000 H  
HETATM   24  S   UNL     1      -9.654   4.122  70.788  1.00  0.00    -0.199 SA 
ENDBRANCH   6  22
ENDBRANCH   4   6
ENDBRANCH   3   4
ENDBRANCH   2   3
TORSDOF 13
ENDMDL
MODEL      465
REMARK 921   NORMALIZED FREE ENERGY PREDICTED BY IDOCK:   -1.75 KCAL/MOL
REMARK 922        TOTAL FREE ENERGY PREDICTED BY IDOCK:   -3.68 KCAL/MOL
REMARK 923 INTER-LIGAND FREE ENERGY PREDICTED BY IDOCK:   -2.90 KCAL/MOL
REMARK 924 INTRA-LIGAND FREE ENERGY PREDICTED BY IDOCK:   -0.77 KCAL/MOL
REMARK 927      BINDING AFFINITY PREDICTED BY RF-SCORE:    0.00 PKD
ROOT
HETATM    1  C   UNL     1     -11.373  10.743  69.388  1.00  0.00    -0.351 C  
HETATM    2  C   UNL     1     -11.325  10.078  70.747  1.00  0.00    -0.360 C  
ENDROOT
BRANCH   2   3
HETATM    3  O   UNL     1     -10.815   8.741  70.629  1.00  0.00    -0.217 OA 
BRANCH   3   4
HETATM    4  C   UNL     1      -9.571   8.533  71.147  1.00  0.00    -0.193 C  
HETATM    5  O   UNL     1      -9.194   8.905  72.251  1.00  0.00    -0.376 OA 
BRANCH   4   6
HETATM    6  C   UNL     1      -8.718   7.749  70.132  1.00  0.00    -0.140 C  
BRANCH   6   7
HETATM    7  N   UNL     1      -9.554   7.362  68.963  1.00  0.00    -0.148 NA 
HETATM    8  H   UNL     1     -10.109   8.158  68.644  1.00  0.00     0.000 HD 
BRANCH   7   9
HETATM    9  C   UNL     1      -8.803   6.782  67.845  1.00  0.00    -0.118 C  
BRANCH   9  10
HETATM   10  C   UNL     1      -8.753   5.238  67.877  1.00  0.00    -0.102 C  
BRANCH  10  11
HETATM   11  N   UNL     1      -9.586   4.612  68.917  1.00  0.00    -0.154 NA 
HETATM   12  H   UNL     1     -10.281   3.997  68.494  1.00  0.00     0.000 HD 
BRANCH  11  13
HETATM   13  C   UNL     1      -8.813   3.884  69.966  1.00  0.00    -0.085 C  
BRANCH  13  14
HETATM   14  C   UNL     1      -9.706   3.300  71.083  1.00  0.00    -0.142 C  
HETATM   15  H   UNL     1     -10.401   3.680  73.673  1.00  0.00     0.000 H  
HETATM   16  S   UNL     1      -9.598   4.205  72.668  1.00  0.00    -0.137 SA 
ENDBRANCH  13  14
BRANCH  13  17
HETATM   17  C   UNL     1      -7.980   2.760  69.311  1.00  0.00    -0.044 C  
HETATM   18  O   UNL     1      -8.429   1.859  68.611  1.00  0.00    -0.055 OA 
BRANCH  17  19
HETATM   19  O   UNL     1      -6.658   2.919  69.614  1.00  0.00    -0.032 OA 
BRANCH  19  20
HETATM   20  C   UNL     1      -6.294   2.676  70.978  1.00  0.00    -0.019 C  
HETATM   21  C   UNL     1      -5.281   3.696  71.454  1.00  0.00     0.000 C  
ENDBRANCH  19  20
ENDBRANCH  17  19
ENDBRANCH  13  17
ENDBRANCH  11  13
ENDBRANCH  10  11
ENDBRANCH   9  10
ENDBRANCH   7   9
ENDBRANCH   6   7
BRANCH   6  22
HETATM   22  C   UNL     1      -7.444   8.557  69.809  1.00  0.00    -0.071 C  
HETATM   23  H   UNL     1      -6.598  11.032  69.076  1.00  0.00     0.000 H  
HETATM   24  S   UNL     1      -7.745  10.304  69.367  1.00  0.00    -0.157 SA 
ENDBRANCH   6  22
ENDBRANCH   4   6
ENDBRANCH   3   4
ENDBRANCH   2   3
TORSDOF 13
ENDMDL
MODEL      466
REMARK 921   NORMALIZED FREE ENERGY PREDICTED BY IDOCK:   -1.74 KCAL/MOL
REMARK 922        TOTAL FREE ENERGY PREDICTED BY IDOCK:   -3.66 KCAL/MOL
REMARK 923 INTER-LIGAND FREE ENERGY PREDICTED BY IDOCK:   -3.77 KCAL/MOL
REMARK 924 INTRA-LIGAND FREE ENERGY PREDICTED BY IDOCK:    0.11 KCAL/MOL
REMARK 927      BINDING AFFINITY PREDICTED BY RF-SCORE:    0.00 PKD
ROOT
HETATM    1  C   UNL     1     -10.892   7.404  73.214  1.00  0.00    -0.417 C  
HETATM    2  C   UNL     1      -9.508   6.798  73.315  1.00  0.00    -0.150 C  
ENDROOT
BRANCH   2   3
HETATM    3  O   UNL     1      -9.249   5.958  72.180  1.00  0.00    -0.146 OA 
BRANCH   3   4
HETATM    4  C   UNL     1     -10.166   4.976  71.947  1.00  0.00    -0.204 C  
HETATM    5  O   UNL     1     -11.129   4.724  72.661  1.00  0.00    -0.188 OA 
BRANCH   4   6
HETATM    6  C   UNL     1      -9.809   4.240  70.641  1.00  0.00    -0.195 C  
BRANCH   6   7
HETATM    7  N   UNL     1      -9.644   5.224  69.537  1.00  0.00    -0.140 NA 
HETATM    8  H   UNL     1     -10.149   6.085  69.750  1.00  0.00     0.000 HD 
BRANCH   7   9
HETATM    9  C   UNL     1      -8.250   5.521  69.193  1.00  0.00    -0.095 C  
BRANCH   9  10
HETATM   10  C   UNL     1      -7.952   7.033  69.094  1.00  0.00    -0.119 C  
BRANCH  10  11
HETATM   11  N   UNL     1      -9.042   7.845  68.528  1.00  0.00    -0.133 NA 
HETATM   12  H   UNL     1      -9.941   7.554  68.915  1.00  0.00     0.000 HD 
BRANCH  11  13
HETATM   13  C   UNL     1      -8.858   9.317  68.687  1.00  0.00    -0.132 C  
BRANCH  13  14
HETATM   14  C   UNL     1      -9.659  10.145  67.658  1.00  0.00    -0.148 C  
HETATM   15  H   UNL     1     -10.281  10.243  65.023  1.00  0.00     0.000 H  
HETATM   16  S   UNL     1      -9.561   9.498  65.950  1.00  0.00    -0.276 SA 
ENDBRANCH  13  14
BRANCH  13  17
HETATM   17  C   UNL     1      -9.245   9.737  70.123  1.00  0.00    -0.208 C  
HETATM   18  O   UNL     1      -8.583   9.515  71.130  1.00  0.00    -0.269 OA 
BRANCH  17  19
HETATM   19  O   UNL     1     -10.436  10.406  70.110  1.00  0.00    -0.252 OA 
BRANCH  19  20
HETATM   20  C   UNL     1     -11.308  10.155  71.219  1.00  0.00    -0.166 C  
HETATM   21  C   UNL     1     -12.392  11.210  71.299  1.00  0.00    -0.402 C  
ENDBRANCH  19  20
ENDBRANCH  17  19
ENDBRANCH  13  17
ENDBRANCH  11  13
ENDBRANCH  10  11
ENDBRANCH   9  10
ENDBRANCH   7   9
ENDBRANCH   6   7
BRANCH   6  22
HETATM   22  C   UNL     1      -8.606   3.309  70.897  1.00  0.00    -0.071 C  
HETATM   23  H   UNL     1      -7.500   0.959  70.102  1.00  0.00     0.000 H  
HETATM   24  S   UNL     1      -8.583   1.797  69.872  1.00  0.00    -0.055 SA 
ENDBRANCH   6  22
ENDBRANCH   4   6
ENDBRANCH   3   4
ENDBRANCH   2   3
TORSDOF 13
ENDMDL
MODEL      467
REMARK 921   NORMALIZED FREE ENERGY PREDICTED BY IDOCK:   -1.73 KCAL/MOL
REMARK 922        TOTAL FREE ENERGY PREDICTED BY IDOCK:   -3.64 KCAL/MOL
REMARK 923 INTER-LIGAND FREE ENERGY PREDICTED BY IDOCK:   -2.91 KCAL/MOL
REMARK 924 INTRA-LIGAND FREE ENERGY PREDICTED BY IDOCK:   -0.73 KCAL/MOL
REMARK 927      BINDING AFFINITY PREDICTED BY RF-SCORE:    0.00 PKD
ROOT
HETATM    1  C   UNL     1      -6.168   8.097  68.577  1.00  0.00    -0.049 C  
HETATM    2  C   UNL     1      -6.798   7.382  69.753  1.00  0.00    -0.052 C  
ENDROOT
BRANCH   2   3
HETATM    3  O   UNL     1      -7.858   6.524  69.303  1.00  0.00    -0.106 OA 
BRANCH   3   4
HETATM    4  C   UNL     1      -8.902   6.367  70.166  1.00  0.00    -0.150 C  
HETATM    5  O   UNL     1      -9.138   5.354  70.812  1.00  0.00    -0.137 OA 
BRANCH   4   6
HETATM    6  C   UNL     1      -9.730   7.666  70.210  1.00  0.00    -0.179 C  
BRANCH   6   7
HETATM    7  N   UNL     1     -10.397   7.882  68.897  1.00  0.00    -0.213 NA 
HETATM    8  H   UNL     1      -9.747   8.304  68.234  1.00  0.00     0.000 HD 
BRANCH   7   9
HETATM    9  C   UNL     1     -11.007   6.679  68.322  1.00  0.00    -0.244 C  
BRANCH   9  10
HETATM   10  C   UNL     1     -10.972   6.654  66.777  1.00  0.00    -0.216 C  
BRANCH  10  11
HETATM   11  N   UNL     1      -9.634   6.471  66.191  1.00  0.00    -0.376 NA 
HETATM   12  H   UNL     1      -8.927   6.934  66.764  1.00  0.00     0.000 HD 
BRANCH  11  13
HETATM   13  C   UNL     1      -9.259   5.047  65.948  1.00  0.00    -0.157 C  
BRANCH  13  14
HETATM   14  C   UNL     1      -9.406   4.623  64.470  1.00  0.00    -0.066 C  
HETATM   15  H   UNL     1     -10.058   2.503  62.915  1.00  0.00     0.000 H  
HETATM   16  S   UNL     1      -9.926   2.885  64.246  1.00  0.00    -0.058 SA 
ENDBRANCH  13  14
BRANCH  13  17
HETATM   17  C   UNL     1      -7.812   4.802  66.430  1.00  0.00    -0.099 C  
HETATM   18  O   UNL     1      -6.799   5.197  65.863  1.00  0.00    -0.058 OA 
BRANCH  17  19
HETATM   19  O   UNL     1      -7.820   4.085  67.592  1.00  0.00    -0.088 OA 
BRANCH  19  20
HETATM   20  C   UNL     1      -6.555   3.558  68.012  1.00  0.00    -0.038 C  
HETATM   21  C   UNL     1      -6.747   2.409  68.980  1.00  0.00    -0.033 C  
ENDBRANCH  19  20
ENDBRANCH  17  19
ENDBRANCH  13  17
ENDBRANCH  11  13
ENDBRANCH  10  11
ENDBRANCH   9  10
ENDBRANCH   7   9
ENDBRANCH   6   7
BRANCH   6  22
HETATM   22  C   UNL     1     -10.661   7.631  71.440  1.00  0.00    -0.222 C  
HETATM   23  H   UNL     1     -12.632   9.028  72.683  1.00  0.00     0.000 H  
HETATM   24  S   UNL     1     -11.793   9.059  71.576  1.00  0.00    -0.371 SA 
ENDBRANCH   6  22
ENDBRANCH   4   6
ENDBRANCH   3   4
ENDBRANCH   2   3
TORSDOF 13
ENDMDL
MODEL      468
REMARK 921   NORMALIZED FREE ENERGY PREDICTED BY IDOCK:   -1.72 KCAL/MOL
REMARK 922        TOTAL FREE ENERGY PREDICTED BY IDOCK:   -3.62 KCAL/MOL
REMARK 923 INTER-LIGAND FREE ENERGY PREDICTED BY IDOCK:   -3.47 KCAL/MOL
REMARK 924 INTRA-LIGAND FREE ENERGY PREDICTED BY IDOCK:   -0.15 KCAL/MOL
REMARK 927      BINDING AFFINITY PREDICTED BY RF-SCORE:    0.00 PKD
ROOT
HETATM    1  C   UNL     1     -10.630  11.010  69.143  1.00  0.00    -0.253 C  
HETATM    2  C   UNL     1     -11.718  11.054  70.195  1.00  0.00    -0.356 C  
ENDROOT
BRANCH   2   3
HETATM    3  O   UNL     1     -12.396   9.790  70.262  1.00  0.00    -0.093 OA 
BRANCH   3   4
HETATM    4  C   UNL     1     -12.193   9.068  71.401  1.00  0.00    -0.323 C  
HETATM    5  O   UNL     1     -12.424   9.462  72.538  1.00  0.00    -0.250 OA 
BRANCH   4   6
HETATM    6  C   UNL     1     -11.640   7.677  71.036  1.00  0.00    -0.282 C  
BRANCH   6   7
HETATM    7  N   UNL     1     -11.506   7.562  69.558  1.00  0.00    -0.427 NA 
HETATM    8  H   UNL     1     -11.216   8.454  69.156  1.00  0.00     0.000 HD 
BRANCH   7   9
HETATM    9  C   UNL     1     -10.615   6.486  69.112  1.00  0.00    -0.243 C  
BRANCH   9  10
HETATM   10  C   UNL     1      -9.291   7.000  68.503  1.00  0.00    -0.135 C  
BRANCH  10  11
HETATM   11  N   UNL     1      -8.982   6.478  67.162  1.00  0.00    -0.112 NA 
HETATM   12  H   UNL     1      -8.813   7.245  66.511  1.00  0.00     0.000 HD 
BRANCH  11  13
HETATM   13  C   UNL     1      -7.849   5.506  67.129  1.00  0.00    -0.101 C  
BRANCH  13  14
HETATM   14  C   UNL     1      -6.798   5.834  66.045  1.00  0.00    -0.058 C  
HETATM   15  H   UNL     1      -6.567   6.440  63.415  1.00  0.00     0.000 H  
HETATM   16  S   UNL     1      -7.512   6.144  64.391  1.00  0.00    -0.087 SA 
ENDBRANCH  13  14
BRANCH  13  17
HETATM   17  C   UNL     1      -7.177   5.444  68.519  1.00  0.00    -0.074 C  
HETATM   18  O   UNL     1      -6.419   6.291  68.979  1.00  0.00    -0.039 OA 
BRANCH  17  19
HETATM   19  O   UNL     1      -7.558   4.308  69.173  1.00  0.00    -0.055 OA 
BRANCH  19  20
HETATM   20  C   UNL     1      -8.426   3.427  68.447  1.00  0.00    -0.084 C  
HETATM   21  C   UNL     1      -7.717   2.131  68.114  1.00  0.00    -0.054 C  
ENDBRANCH  19  20
ENDBRANCH  17  19
ENDBRANCH  13  17
ENDBRANCH  11  13
ENDBRANCH  10  11
ENDBRANCH   9  10
ENDBRANCH   7   9
ENDBRANCH   6   7
BRANCH   6  22
HETATM   22  C   UNL     1     -10.357   7.413  71.850  1.00  0.00    -0.192 C  
HETATM   23  H   UNL     1      -7.898   8.439  72.378  1.00  0.00     0.000 H  
HETATM   24  S   UNL     1      -9.054   8.677  71.645  1.00  0.00    -0.254 SA 
ENDBRANCH   6  22
ENDBRANCH   4   6
ENDBRANCH   3   4
ENDBRANCH   2   3
TORSDOF 13
ENDMDL
MODEL      469
REMARK 921   NORMALIZED FREE ENERGY PREDICTED BY IDOCK:   -1.63 KCAL/MOL
REMARK 922        TOTAL FREE ENERGY PREDICTED BY IDOCK:   -3.47 KCAL/MOL
REMARK 923 INTER-LIGAND FREE ENERGY PREDICTED BY IDOCK:   -2.97 KCAL/MOL
REMARK 924 INTRA-LIGAND FREE ENERGY PREDICTED BY IDOCK:   -0.50 KCAL/MOL
REMARK 927      BINDING AFFINITY PREDICTED BY RF-SCORE:    0.00 PKD
ROOT
HETATM    1  C   UNL     1      -8.385   7.131  69.439  1.00  0.00    -0.133 C  
HETATM    2  C   UNL     1      -7.016   6.720  68.943  1.00  0.00    -0.086 C  
ENDROOT
BRANCH   2   3
HETATM    3  O   UNL     1      -6.810   7.192  67.602  1.00  0.00    -0.068 OA 
BRANCH   3   4
HETATM    4  C   UNL     1      -7.707   6.751  66.674  1.00  0.00    -0.105 C  
HETATM    5  O   UNL     1      -8.037   5.583  66.510  1.00  0.00    -0.104 OA 
BRANCH   4   6
HETATM    6  C   UNL     1      -8.248   7.951  65.874  1.00  0.00    -0.126 C  
BRANCH   6   7
HETATM    7  N   UNL     1      -7.788   9.222  66.498  1.00  0.00    -0.100 NA 
HETATM    8  H   UNL     1      -6.858   9.102  66.902  1.00  0.00     0.000 HD 
BRANCH   7   9
HETATM    9  C   UNL     1      -7.811  10.381  65.600  1.00  0.00    -0.154 C  
BRANCH   9  10
HETATM   10  C   UNL     1      -9.113  11.207  65.700  1.00  0.00    -0.205 C  
BRANCH  10  11
HETATM   11  N   UNL     1      -8.929  12.606  66.120  1.00  0.00    -0.431 NA 
HETATM   12  H   UNL     1      -9.824  13.020  66.380  1.00  0.00     0.000 HD 
BRANCH  11  13
HETATM   13  C   UNL     1      -7.930  12.792  67.213  1.00  0.00    -0.156 C  
BRANCH  13  14
HETATM   14  C   UNL     1      -7.839  14.252  67.711  1.00  0.00    -0.165 C  
HETATM   15  H   UNL     1      -6.694  15.782  69.630  1.00  0.00     0.000 H  
HETATM   16  S   UNL     1      -6.776  14.469  69.182  1.00  0.00    -0.123 SA 
ENDBRANCH  13  14
BRANCH  13  17
HETATM   17  C   UNL     1      -8.267  11.850  68.390  1.00  0.00    -0.160 C  
HETATM   18  O   UNL     1      -7.540  10.960  68.817  1.00  0.00    -0.103 OA 
BRANCH  17  19
HETATM   19  O   UNL     1      -9.495  12.159  68.901  1.00  0.00    -0.008 OA 
BRANCH  19  20
HETATM   20  C   UNL     1     -10.332  11.045  69.238  1.00  0.00    -0.154 C  
HETATM   21  C   UNL     1     -11.778  11.338  68.899  1.00  0.00    -0.409 C  
ENDBRANCH  19  20
ENDBRANCH  17  19
ENDBRANCH  13  17
ENDBRANCH  11  13
ENDBRANCH  10  11
ENDBRANCH   9  10
ENDBRANCH   7   9
ENDBRANCH   6   7
BRANCH   6  22
HETATM   22  C   UNL     1      -7.894   7.767  64.384  1.00  0.00    -0.138 C  
HETATM   23  H   UNL     1      -5.869   7.024  62.732  1.00  0.00     0.000 H  
HETATM   24  S   UNL     1      -6.189   7.190  64.074  1.00  0.00    -0.044 SA 
ENDBRANCH   6  22
ENDBRANCH   4   6
ENDBRANCH   3   4
ENDBRANCH   2   3
TORSDOF 13
ENDMDL
MODEL      470
REMARK 921   NORMALIZED FREE ENERGY PREDICTED BY IDOCK:   -1.61 KCAL/MOL
REMARK 922        TOTAL FREE ENERGY PREDICTED BY IDOCK:   -3.43 KCAL/MOL
REMARK 923 INTER-LIGAND FREE ENERGY PREDICTED BY IDOCK:   -3.09 KCAL/MOL
REMARK 924 INTRA-LIGAND FREE ENERGY PREDICTED BY IDOCK:   -0.34 KCAL/MOL
REMARK 927      BINDING AFFINITY PREDICTED BY RF-SCORE:    0.00 PKD
ROOT
HETATM    1  C   UNL     1     -11.410  10.778  69.443  1.00  0.00    -0.351 C  
HETATM    2  C   UNL     1     -11.713   9.847  70.598  1.00  0.00    -0.323 C  
ENDROOT
BRANCH   2   3
HETATM    3  O   UNL     1     -11.808   8.492  70.133  1.00  0.00     0.069 OA 
BRANCH   3   4
HETATM    4  C   UNL     1     -10.880   7.627  70.632  1.00  0.00    -0.237 C  
HETATM    5  O   UNL     1     -10.603   7.496  71.818  1.00  0.00    -0.205 OA 
BRANCH   4   6
HETATM    6  C   UNL     1     -10.243   6.834  69.476  1.00  0.00    -0.184 C  
BRANCH   6   7
HETATM    7  N   UNL     1      -9.088   7.592  68.921  1.00  0.00    -0.140 NA 
HETATM    8  H   UNL     1      -8.441   7.849  69.668  1.00  0.00     0.000 HD 
BRANCH   7   9
HETATM    9  C   UNL     1      -8.375   6.905  67.840  1.00  0.00    -0.121 C  
BRANCH   9  10
HETATM   10  C   UNL     1      -7.436   7.834  67.039  1.00  0.00    -0.095 C  
BRANCH  10  11
HETATM   11  N   UNL     1      -7.438   9.241  67.472  1.00  0.00    -0.087 NA 
HETATM   12  H   UNL     1      -6.510   9.517  67.793  1.00  0.00     0.000 HD 
BRANCH  11  13
HETATM   13  C   UNL     1      -7.941  10.199  66.443  1.00  0.00    -0.120 C  
BRANCH  13  14
HETATM   14  C   UNL     1      -8.124  11.633  66.986  1.00  0.00    -0.164 C  
HETATM   15  H   UNL     1      -9.950  13.625  67.174  1.00  0.00     0.000 H  
HETATM   16  S   UNL     1      -9.786  12.334  66.686  1.00  0.00    -0.226 SA 
ENDBRANCH  13  14
BRANCH  13  17
HETATM   17  C   UNL     1      -6.984  10.208  65.231  1.00  0.00    -0.137 C  
HETATM   18  O   UNL     1      -5.788  10.472  65.273  1.00  0.00    -0.123 OA 
BRANCH  17  19
HETATM   19  O   UNL     1      -7.663   9.866  64.096  1.00  0.00    -0.129 OA 
BRANCH  19  20
HETATM   20  C   UNL     1      -8.451  10.905  63.500  1.00  0.00     0.060 C  
HETATM   21  C   UNL     1      -9.884  10.451  63.315  1.00  0.00    -0.231 C  
ENDBRANCH  19  20
ENDBRANCH  17  19
ENDBRANCH  13  17
ENDBRANCH  11  13
ENDBRANCH  10  11
ENDBRANCH   9  10
ENDBRANCH   7   9
ENDBRANCH   6   7
BRANCH   6  22
HETATM   22  C   UNL     1      -9.938   5.399  69.952  1.00  0.00    -0.224 C  
HETATM   23  H   UNL     1      -8.240   3.970  71.519  1.00  0.00     0.000 H  
HETATM   24  S   UNL     1      -8.515   5.262  71.089  1.00  0.00    -0.125 SA 
ENDBRANCH   6  22
ENDBRANCH   4   6
ENDBRANCH   3   4
ENDBRANCH   2   3
TORSDOF 13
ENDMDL
MODEL      471
REMARK 921   NORMALIZED FREE ENERGY PREDICTED BY IDOCK:   -1.59 KCAL/MOL
REMARK 922        TOTAL FREE ENERGY PREDICTED BY IDOCK:   -3.39 KCAL/MOL
REMARK 923 INTER-LIGAND FREE ENERGY PREDICTED BY IDOCK:   -3.75 KCAL/MOL
REMARK 924 INTRA-LIGAND FREE ENERGY PREDICTED BY IDOCK:    0.36 KCAL/MOL
REMARK 927      BINDING AFFINITY PREDICTED BY RF-SCORE:    0.00 PKD
ROOT
HETATM    1  C   UNL     1     -10.916  12.708  69.826  1.00  0.00     0.274 C  
HETATM    2  C   UNL     1     -12.227  12.909  69.097  1.00  0.00    -0.037 C  
ENDROOT
BRANCH   2   3
HETATM    3  O   UNL     1     -12.454  14.307  68.859  1.00  0.00    -0.176 OA 
BRANCH   3   4
HETATM    4  C   UNL     1     -11.365  15.117  68.996  1.00  0.00    -0.294 C  
HETATM    5  O   UNL     1     -11.208  15.944  69.886  1.00  0.00    -0.294 OA 
BRANCH   4   6
HETATM    6  C   UNL     1     -10.361  14.823  67.865  1.00  0.00    -0.240 C  
BRANCH   6   7
HETATM    7  N   UNL     1     -11.011  15.046  66.545  1.00  0.00    -0.325 NA 
HETATM    8  H   UNL     1     -10.369  15.522  65.909  1.00  0.00     0.000 HD 
BRANCH   7   9
HETATM    9  C   UNL     1     -11.546  13.833  65.919  1.00  0.00    -0.333 C  
BRANCH   9  10
HETATM   10  C   UNL     1     -10.568  13.179  64.917  1.00  0.00    -0.349 C  
BRANCH  10  11
HETATM   11  N   UNL     1      -9.231  12.885  65.458  1.00  0.00    -0.304 NA 
HETATM   12  H   UNL     1      -8.818  13.725  65.864  1.00  0.00     0.000 HD 
BRANCH  11  13
HETATM   13  C   UNL     1      -9.199  11.760  66.440  1.00  0.00    -0.217 C  
BRANCH  13  14
HETATM   14  C   UNL     1     -10.253  10.669  66.147  1.00  0.00    -0.248 C  
HETATM   15  H   UNL     1     -11.289   8.381  67.161  1.00  0.00     0.000 H  
HETATM   16  S   UNL     1     -10.341   9.363  67.424  1.00  0.00    -0.272 SA 
ENDBRANCH  13  14
BRANCH  13  17
HETATM   17  C   UNL     1      -7.786  11.139  66.472  1.00  0.00    -0.146 C  
HETATM   18  O   UNL     1      -7.082  10.924  65.491  1.00  0.00    -0.032 OA 
BRANCH  17  19
HETATM   19  O   UNL     1      -7.421  10.870  67.760  1.00  0.00    -0.091 OA 
BRANCH  19  20
HETATM   20  C   UNL     1      -7.155  12.009  68.588  1.00  0.00    -0.103 C  
HETATM   21  C   UNL     1      -5.794  12.594  68.275  1.00  0.00    -0.069 C  
ENDBRANCH  19  20
ENDBRANCH  17  19
ENDBRANCH  13  17
ENDBRANCH  11  13
ENDBRANCH  10  11
ENDBRANCH   9  10
ENDBRANCH   7   9
ENDBRANCH   6   7
BRANCH   6  22
HETATM   22  C   UNL     1      -9.064  15.618  68.120  1.00  0.00    -0.181 C  
HETATM   23  H   UNL     1      -7.140  17.054  66.849  1.00  0.00     0.000 H  
HETATM   24  S   UNL     1      -8.309  16.338  66.620  1.00  0.00    -0.309 SA 
ENDBRANCH   6  22
ENDBRANCH   4   6
ENDBRANCH   3   4
ENDBRANCH   2   3
TORSDOF 13
ENDMDL
MODEL      472
REMARK 921   NORMALIZED FREE ENERGY PREDICTED BY IDOCK:   -1.00 KCAL/MOL
REMARK 922        TOTAL FREE ENERGY PREDICTED BY IDOCK:   -2.35 KCAL/MOL
REMARK 923 INTER-LIGAND FREE ENERGY PREDICTED BY IDOCK:   -2.66 KCAL/MOL
REMARK 924 INTRA-LIGAND FREE ENERGY PREDICTED BY IDOCK:    0.31 KCAL/MOL
REMARK 927      BINDING AFFINITY PREDICTED BY RF-SCORE:    0.00 PKD
ROOT
HETATM    1  C   UNL     1     -10.912   7.449  73.220  1.00  0.00    -0.367 C  
HETATM    2  C   UNL     1      -9.465   7.006  73.191  1.00  0.00    -0.157 C  
ENDROOT
BRANCH   2   3
HETATM    3  O   UNL     1      -9.212   6.207  72.026  1.00  0.00    -0.147 OA 
BRANCH   3   4
HETATM    4  C   UNL     1      -9.961   5.073  71.910  1.00  0.00    -0.187 C  
HETATM    5  O   UNL     1     -10.890   4.762  72.644  1.00  0.00    -0.210 OA 
BRANCH   4   6
HETATM    6  C   UNL     1      -9.463   4.250  70.706  1.00  0.00    -0.171 C  
BRANCH   6   7
HETATM    7  N   UNL     1      -9.621   5.041  69.455  1.00  0.00    -0.150 NA 
HETATM    8  H   UNL     1     -10.405   5.689  69.541  1.00  0.00     0.000 HD 
BRANCH   7   9
HETATM    9  C   UNL     1      -8.412   5.754  69.032  1.00  0.00    -0.104 C  
BRANCH   9  10
HETATM   10  C   UNL     1      -8.665   7.239  68.688  1.00  0.00    -0.127 C  
BRANCH  10  11
HETATM   11  N   UNL     1      -7.461   8.007  68.333  1.00  0.00    -0.101 NA 
HETATM   12  H   UNL     1      -6.904   7.500  67.645  1.00  0.00     0.000 HD 
BRANCH  11  13
HETATM   13  C   UNL     1      -7.736   9.396  67.859  1.00  0.00    -0.088 C  
BRANCH  13  14
HETATM   14  C   UNL     1      -6.486  10.302  67.874  1.00  0.00    -0.061 C  
HETATM   15  H   UNL     1      -4.296  10.889  69.356  1.00  0.00     0.000 H  
HETATM   16  S   UNL     1      -5.421  10.074  69.343  1.00  0.00    -0.038 SA 
ENDBRANCH  13  14
BRANCH  13  17
HETATM   17  C   UNL     1      -8.342   9.350  66.439  1.00  0.00    -0.115 C  
HETATM   18  O   UNL     1      -9.500   9.050  66.171  1.00  0.00    -0.213 OA 
BRANCH  17  19
HETATM   19  O   UNL     1      -7.400   9.703  65.516  1.00  0.00    -0.098 OA 
BRANCH  19  20
HETATM   20  C   UNL     1      -7.445   8.994  64.271  1.00  0.00    -0.106 C  
HETATM   21  C   UNL     1      -6.616   9.703  63.220  1.00  0.00    -0.111 C  
ENDBRANCH  19  20
ENDBRANCH  17  19
ENDBRANCH  13  17
ENDBRANCH  11  13
ENDBRANCH  10  11
ENDBRANCH   9  10
ENDBRANCH   7   9
ENDBRANCH   6   7
BRANCH   6  22
HETATM   22  C   UNL     1      -8.039   3.734  70.999  1.00  0.00    -0.066 C  
HETATM   23  H   UNL     1      -6.351   1.672  70.474  1.00  0.00     0.000 H  
HETATM   24  S   UNL     1      -7.633   2.137  70.211  1.00  0.00    -0.042 SA 
ENDBRANCH   6  22
ENDBRANCH   4   6
ENDBRANCH   3   4
ENDBRANCH   2   3
TORSDOF 13
ENDMDL
MODEL      473
REMARK 921   NORMALIZED FREE ENERGY PREDICTED BY IDOCK:   -0.38 KCAL/MOL
REMARK 922        TOTAL FREE ENERGY PREDICTED BY IDOCK:   -1.27 KCAL/MOL
REMARK 923 INTER-LIGAND FREE ENERGY PREDICTED BY IDOCK:   -2.26 KCAL/MOL
REMARK 924 INTRA-LIGAND FREE ENERGY PREDICTED BY IDOCK:    0.99 KCAL/MOL
REMARK 927      BINDING AFFINITY PREDICTED BY RF-SCORE:    0.00 PKD
ROOT
HETATM    1  C   UNL     1     -10.993  10.369  69.711  1.00  0.00    -0.345 C  
HETATM    2  C   UNL     1      -9.977   9.764  70.655  1.00  0.00    -0.146 C  
ENDROOT
BRANCH   2   3
HETATM    3  O   UNL     1      -9.330   8.641  70.036  1.00  0.00    -0.156 OA 
BRANCH   3   4
HETATM    4  C   UNL     1      -9.725   8.357  68.762  1.00  0.00    -0.164 C  
HETATM    5  O   UNL     1      -9.623   9.114  67.805  1.00  0.00    -0.142 OA 
BRANCH   4   6
HETATM    6  C   UNL     1     -10.311   6.933  68.712  1.00  0.00    -0.189 C  
BRANCH   6   7
HETATM    7  N   UNL     1      -9.262   5.944  69.082  1.00  0.00    -0.121 NA 
HETATM    8  H   UNL     1      -9.684   5.038  69.288  1.00  0.00     0.000 HD 
BRANCH   7   9
HETATM    9  C   UNL     1      -8.191   5.796  68.091  1.00  0.00    -0.104 C  
BRANCH   9  10
HETATM   10  C   UNL     1      -6.816   5.475  68.718  1.00  0.00    -0.059 C  
BRANCH  10  11
HETATM   11  N   UNL     1      -6.432   6.340  69.845  1.00  0.00    -0.041 NA 
HETATM   12  H   UNL     1      -7.053   7.147  69.904  1.00  0.00     0.000 HD 
BRANCH  11  13
HETATM   13  C   UNL     1      -6.361   5.639  71.161  1.00  0.00    -0.035 C  
BRANCH  13  14
HETATM   14  C   UNL     1      -7.067   6.410  72.299  1.00  0.00    -0.082 C  
HETATM   15  H   UNL     1      -6.761   7.137  74.890  1.00  0.00     0.000 H  
HETATM   16  S   UNL     1      -6.126   6.444  73.866  1.00  0.00    -0.065 SA 
ENDBRANCH  13  14
BRANCH  13  17
HETATM   17  C   UNL     1      -6.962   4.222  71.027  1.00  0.00    -0.036 C  
HETATM   18  O   UNL     1      -6.324   3.176  71.039  1.00  0.00    -0.018 OA 
BRANCH  17  19
HETATM   19  O   UNL     1      -8.320   4.299  70.903  1.00  0.00    -0.077 OA 
BRANCH  19  20
HETATM   20  C   UNL     1      -9.014   3.048  70.816  1.00  0.00    -0.098 C  
HETATM   21  C   UNL     1      -8.962   2.312  72.138  1.00  0.00    -0.115 C  
ENDBRANCH  19  20
ENDBRANCH  17  19
ENDBRANCH  13  17
ENDBRANCH  11  13
ENDBRANCH  10  11
ENDBRANCH   9  10
ENDBRANCH   7   9
ENDBRANCH   6   7
BRANCH   6  22
HETATM   22  C   UNL     1     -11.604   6.887  69.551  1.00  0.00    -0.039 C  
HETATM   23  H   UNL     1     -12.573   6.096  71.963  1.00  0.00     0.000 H  
HETATM   24  S   UNL     1     -11.409   6.138  71.206  1.00  0.00    -0.234 SA 
ENDBRANCH   6  22
ENDBRANCH   4   6
ENDBRANCH   3   4
ENDBRANCH   2   3
TORSDOF 13
ENDMDL
MODEL      474
REMARK 921   NORMALIZED FREE ENERGY PREDICTED BY IDOCK:    4.55 KCAL/MOL
REMARK 922        TOTAL FREE ENERGY PREDICTED BY IDOCK:    7.41 KCAL/MOL
REMARK 923 INTER-LIGAND FREE ENERGY PREDICTED BY IDOCK:   -1.32 KCAL/MOL
REMARK 924 INTRA-LIGAND FREE ENERGY PREDICTED BY IDOCK:    8.72 KCAL/MOL
REMARK 927      BINDING AFFINITY PREDICTED BY RF-SCORE:    0.00 PKD
ROOT
HETATM    1  C   UNL     1     -11.443   7.556  73.547  1.00  0.00     0.644 C  
HETATM    2  C   UNL     1     -10.539   6.482  72.981  1.00  0.00    -0.250 C  
ENDROOT
BRANCH   2   3
HETATM    3  O   UNL     1     -10.342   6.688  71.574  1.00  0.00    -0.207 OA 
BRANCH   3   4
HETATM    4  C   UNL     1     -11.232   7.523  70.966  1.00  0.00    -0.263 C  
HETATM    5  O   UNL     1     -11.967   8.314  71.544  1.00  0.00    -0.278 OA 
BRANCH   4   6
HETATM    6  C   UNL     1     -11.163   7.324  69.440  1.00  0.00     0.011 C  
BRANCH   6   7
HETATM    7  N   UNL     1     -11.024   8.644  68.766  1.00  0.00    -0.432 NA 
HETATM    8  H   UNL     1     -11.748   9.286  69.090  1.00  0.00     0.000 HD 
BRANCH   7   9
HETATM    9  C   UNL     1      -9.698   9.256  68.900  1.00  0.00    -0.161 C  
BRANCH   9  10
HETATM   10  C   UNL     1      -9.193   9.309  70.359  1.00  0.00    -0.247 C  
BRANCH  10  11
HETATM   11  N   UNL     1      -7.888   9.966  70.539  1.00  0.00    -0.380 NA 
HETATM   12  H   UNL     1      -7.131   9.290  70.429  1.00  0.00     0.000 HD 
BRANCH  11  13
HETATM   13  C   UNL     1      -7.667  11.146  69.653  1.00  0.00     0.245 C  
BRANCH  13  14
HETATM   14  C   UNL     1      -6.202  11.637  69.647  1.00  0.00    -0.127 C  
HETATM   15  H   UNL     1      -4.341  12.773  68.040  1.00  0.00     0.000 H  
HETATM   16  S   UNL     1      -5.659  12.332  68.046  1.00  0.00    -0.074 SA 
ENDBRANCH  13  14
BRANCH  13  17
HETATM   17  C   UNL     1      -8.119  10.808  68.215  1.00  0.00    -0.121 C  
HETATM   18  O   UNL     1      -9.255  10.950  67.776  1.00  0.00    -0.150 OA 
BRANCH  17  19
HETATM   19  O   UNL     1      -7.063  10.333  67.491  1.00  0.00    -0.084 OA 
BRANCH  19  20
HETATM   20  C   UNL     1      -6.601   9.022  67.842  1.00  0.00    -0.060 C  
HETATM   21  C   UNL     1      -5.201   8.787  67.314  1.00  0.00    -0.033 C  
ENDBRANCH  19  20
ENDBRANCH  17  19
ENDBRANCH  13  17
ENDBRANCH  11  13
ENDBRANCH  10  11
ENDBRANCH   9  10
ENDBRANCH   7   9
ENDBRANCH   6   7
BRANCH   6  22
HETATM   22  C   UNL     1     -10.071   6.284  69.114  1.00  0.00    -0.168 C  
HETATM   23  H   UNL     1      -9.542   3.622  69.211  1.00  0.00     0.000 H  
HETATM   24  S   UNL     1     -10.525   4.559  69.505  1.00  0.00     0.819 SA 
ENDBRANCH   6  22
ENDBRANCH   4   6
ENDBRANCH   3   4
ENDBRANCH   2   3
TORSDOF 13
ENDMDL
MODEL      475
REMARK 921   NORMALIZED FREE ENERGY PREDICTED BY IDOCK:    7.57 KCAL/MOL
REMARK 922        TOTAL FREE ENERGY PREDICTED BY IDOCK:   12.74 KCAL/MOL
REMARK 923 INTER-LIGAND FREE ENERGY PREDICTED BY IDOCK:    4.09 KCAL/MOL
REMARK 924 INTRA-LIGAND FREE ENERGY PREDICTED BY IDOCK:    8.64 KCAL/MOL
REMARK 927      BINDING AFFINITY PREDICTED BY RF-SCORE:    0.00 PKD
ROOT
HETATM    1  C   UNL     1      -7.826  11.075  68.529  1.00  0.00    -0.129 C  
HETATM    2  C   UNL     1      -8.922  12.113  68.417  1.00  0.00    -0.146 C  
ENDROOT
BRANCH   2   3
HETATM    3  O   UNL     1      -9.492  12.095  67.099  1.00  0.00    -0.183 OA 
BRANCH   3   4
HETATM    4  C   UNL     1     -10.382  11.092  66.851  1.00  0.00    -0.235 C  
HETATM    5  O   UNL     1     -11.551  11.250  66.522  1.00  0.00    -0.344 OA 
BRANCH   4   6
HETATM    6  C   UNL     1      -9.686   9.730  67.039  1.00  0.00    -0.183 C  
BRANCH   6   7
HETATM    7  N   UNL     1      -8.295   9.938  67.527  1.00  0.00    -0.115 NA 
HETATM    8  H   UNL     1      -8.284  10.617  68.289  1.00  0.00     0.000 HD 
BRANCH   7   9
HETATM    9  C   UNL     1      -7.603   8.709  67.927  1.00  0.00    -0.098 C  
BRANCH   9  10
HETATM   10  C   UNL     1      -7.614   8.469  69.453  1.00  0.00    -0.090 C  
BRANCH  10  11
HETATM   11  N   UNL     1      -7.381   7.074  69.862  1.00  0.00    -0.083 NA 
HETATM   12  H   UNL     1      -6.522   7.001  70.407  1.00  0.00     0.000 HD 
BRANCH  11  13
HETATM   13  C   UNL     1      -8.521   6.452  70.599  1.00  0.00    -0.135 C  
BRANCH  13  14
HETATM   14  C   UNL     1      -9.854   7.208  70.405  1.00  0.00    -0.176 C  
HETATM   15  H   UNL     1     -12.249   7.645  71.594  1.00  0.00     0.000 H  
HETATM   16  S   UNL     1     -11.049   6.965  71.768  1.00  0.00    -0.253 SA 
ENDBRANCH  13  14
BRANCH  13  17
HETATM   17  C   UNL     1      -8.678   4.978  70.164  1.00  0.00    -0.109 C  
HETATM   18  O   UNL     1      -9.469   4.568  69.322  1.00  0.00    -0.141 OA 
BRANCH  17  19
HETATM   19  O   UNL     1      -7.796   4.191  70.847  1.00  0.00    -0.057 OA 
BRANCH  19  20
HETATM   20  C   UNL     1      -7.859   4.275  72.277  1.00  0.00    -0.086 C  
HETATM   21  C   UNL     1      -7.134   3.109  72.915  1.00  0.00    -0.043 C  
ENDBRANCH  19  20
ENDBRANCH  17  19
ENDBRANCH  13  17
ENDBRANCH  11  13
ENDBRANCH  10  11
ENDBRANCH   9  10
ENDBRANCH   7   9
ENDBRANCH   6   7
BRANCH   6  22
HETATM   22  C   UNL     1     -10.576   8.823  67.913  1.00  0.00    -0.174 C  
HETATM   23  H   UNL     1     -12.920   7.449  67.893  1.00  0.00     0.000 H  
HETATM   24  S   UNL     1     -12.118   8.267  67.106  1.00  0.00     6.873 SA 
ENDBRANCH   6  22
ENDBRANCH   4   6
ENDBRANCH   3   4
ENDBRANCH   2   3
TORSDOF 13
ENDMDL
MODEL      476
REMARK 921   NORMALIZED FREE ENERGY PREDICTED BY IDOCK:   15.81 KCAL/MOL
REMARK 922        TOTAL FREE ENERGY PREDICTED BY IDOCK:   27.22 KCAL/MOL
REMARK 923 INTER-LIGAND FREE ENERGY PREDICTED BY IDOCK:    6.91 KCAL/MOL
REMARK 924 INTRA-LIGAND FREE ENERGY PREDICTED BY IDOCK:   20.32 KCAL/MOL
REMARK 927      BINDING AFFINITY PREDICTED BY RF-SCORE:    0.00 PKD
ROOT
HETATM    1  C   UNL     1      -9.721  17.378  70.975  1.00  0.00     4.517 C  
HETATM    2  C   UNL     1     -10.964  16.623  71.393  1.00  0.00     0.746 C  
ENDROOT
BRANCH   2   3
HETATM    3  O   UNL     1     -11.935  16.639  70.336  1.00  0.00     0.362 OA 
BRANCH   3   4
HETATM    4  C   UNL     1     -11.463  16.340  69.092  1.00  0.00    -0.257 C  
HETATM    5  O   UNL     1     -11.974  15.544  68.315  1.00  0.00    -0.262 OA 
BRANCH   4   6
HETATM    6  C   UNL     1     -10.193  17.167  68.812  1.00  0.00    -0.332 C  
BRANCH   6   7
HETATM    7  N   UNL     1      -8.985  16.358  69.132  1.00  0.00    -0.234 NA 
HETATM    8  H   UNL     1      -8.866  16.281  70.142  1.00  0.00     0.000 HD 
BRANCH   7   9
HETATM    9  C   UNL     1      -8.963  15.030  68.510  1.00  0.00    -0.186 C  
BRANCH   9  10
HETATM   10  C   UNL     1      -8.246  15.006  67.142  1.00  0.00    -0.222 C  
BRANCH  10  11
HETATM   11  N   UNL     1      -6.903  15.607  67.135  1.00  0.00    -0.258 NA 
HETATM   12  H   UNL     1      -6.430  15.413  66.252  1.00  0.00     0.000 HD 
BRANCH  11  13
HETATM   13  C   UNL     1      -6.884  17.071  67.428  1.00  0.00    -0.147 C  
BRANCH  13  14
HETATM   14  C   UNL     1      -5.545  17.747  67.059  1.00  0.00    -0.142 C  
HETATM   15  H   UNL     1      -4.519  20.066  66.106  1.00  0.00     0.000 H  
HETATM   16  S   UNL     1      -5.724  19.457  66.438  1.00  0.00    -0.155 SA 
ENDBRANCH  13  14
BRANCH  13  17
HETATM   17  C   UNL     1      -8.050  17.763  66.687  1.00  0.00    -0.258 C  
HETATM   18  O   UNL     1      -8.156  18.970  66.504  1.00  0.00    -0.268 OA 
BRANCH  17  19
HETATM   19  O   UNL     1      -8.948  16.831  66.252  1.00  0.00    -0.273 OA 
BRANCH  19  20
HETATM   20  C   UNL     1      -9.849  17.260  65.223  1.00  0.00     0.800 C  
HETATM   21  C   UNL     1     -10.593  16.080  64.635  1.00  0.00     0.101 C  
ENDBRANCH  19  20
ENDBRANCH  17  19
ENDBRANCH  13  17
ENDBRANCH  11  13
ENDBRANCH  10  11
ENDBRANCH   9  10
ENDBRANCH   7   9
ENDBRANCH   6   7
BRANCH   6  22
HETATM   22  C   UNL     1     -10.263  17.734  67.379  1.00  0.00    -0.353 C  
HETATM   23  H   UNL     1     -11.979  18.152  65.315  1.00  0.00     0.000 H  
HETATM   24  S   UNL     1     -11.915  17.641  66.606  1.00  0.00     3.728 SA 
ENDBRANCH   6  22
ENDBRANCH   4   6
ENDBRANCH   3   4
ENDBRANCH   2   3
TORSDOF 13
ENDMDL
