MODEL        1
REMARK 921   NORMALIZED FREE ENERGY PREDICTED BY IDOCK:  -10.04 KCAL/MOL
REMARK 922        TOTAL FREE ENERGY PREDICTED BY IDOCK:  -12.54 KCAL/MOL
REMARK 923 INTER-LIGAND FREE ENERGY PREDICTED BY IDOCK:  -11.80 KCAL/MOL
REMARK 924 INTRA-LIGAND FREE ENERGY PREDICTED BY IDOCK:   -0.74 KCAL/MOL
REMARK 927      BINDING AFFINITY PREDICTED BY RF-SCORE:    0.00 PKD
ROOT
HETATM    1  O   UNL     1     -12.511  14.870  63.941  1.00  0.00    -1.009 OA 
HETATM    2  H   UNL     1     -13.232  14.370  63.574  1.00  0.00     0.000 HD 
HETATM    3  C   UNL     1     -11.512  14.412  64.780  1.00  0.00    -0.402 C  
HETATM    4  C   UNL     1     -10.486  15.123  65.302  1.00  0.00    -0.409 C  
HETATM    5  N   UNL     1      -9.551  14.530  66.174  1.00  0.00    -0.307 NA 
HETATM    6  C   UNL     1      -8.800  15.305  67.162  1.00  0.00    -0.212 C  
HETATM    7  C   UNL     1      -9.582  13.143  66.346  1.00  0.00    -0.255 C  
HETATM    8  C   UNL     1      -8.597  16.771  66.793  1.00  0.00    -0.264 C  
HETATM    9  C   UNL     1     -10.573  12.324  65.946  1.00  0.00    -0.290 C  
HETATM   10  C   UNL     1     -11.738  13.090  65.426  1.00  0.00    -0.364 C  
HETATM   11  O   UNL     1      -8.371  17.546  68.241  1.00  0.00    -0.247 OA 
HETATM   12  C   UNL     1     -10.087  19.869  67.873  1.00  0.00    -0.571 C  
HETATM   13  C   UNL     1      -8.683  19.055  68.375  1.00  0.00    -0.346 C  
HETATM   14  N   UNL     1      -9.789  17.441  65.831  1.00  0.00    -0.166 N  
HETATM   15  O   UNL     1     -12.906  12.770  65.627  1.00  0.00    -0.458 OA 
HETATM   16  C   UNL     1     -10.542  16.612  65.019  1.00  0.00    -0.091 C  
HETATM   17  C   UNL     1     -10.598  18.836  66.355  1.00  0.00    -0.429 C  
HETATM   18  C   UNL     1      -8.806  19.085  66.997  1.00  0.00    -0.309 C  
HETATM   19  C   UNL     1     -10.434  18.135  67.544  1.00  0.00    -0.425 C  
HETATM   20  O   UNL     1     -11.379  17.076  64.240  1.00  0.00    -1.191 OA 
ENDROOT
BRANCH   9  21
HETATM   21  C   UNL     1     -10.408  10.855  66.230  1.00  0.00    -0.250 C  
HETATM   22  H   UNL     1     -10.545   9.341  67.625  1.00  0.00     0.000 HD 
HETATM   23  O   UNL     1     -10.327  10.051  65.300  1.00  0.00    -0.236 OA 
HETATM   24  N   UNL     1     -10.395  10.342  67.502  1.00  0.00    -0.209 N  
BRANCH  24  25
HETATM   25  C   UNL     1     -10.181  11.149  68.664  1.00  0.00    -0.205 C  
BRANCH  25  26
HETATM   26  C   UNL     1     -11.327  11.512  69.538  1.00  0.00    -0.342 A  
HETATM   27  C   UNL     1     -12.750  10.900  71.411  1.00  0.00    -0.539 A  
HETATM   28  C   UNL     1     -13.108  12.233  71.550  1.00  0.00    -0.257 A  
HETATM   29  C   UNL     1     -11.863  10.551  70.403  1.00  0.00    -0.340 A  
HETATM   30  F   UNL     1     -11.459   9.275  70.322  1.00  0.00    -0.263 F  
HETATM   31  F   UNL     1     -13.937  12.586  72.539  1.00  0.00    -0.550 F  
HETATM   32  C   UNL     1     -12.598  13.212  70.705  1.00  0.00    -0.338 A  
HETATM   33  C   UNL     1     -11.707  12.843  69.705  1.00  0.00    -0.281 A  
HETATM   34  F   UNL     1     -11.144  13.797  68.953  1.00  0.00    -0.244 F  
ENDBRANCH  25  26
ENDBRANCH  24  25
ENDBRANCH   9  21
TORSDOF 3
ENDMDL
MODEL        2
REMARK 921   NORMALIZED FREE ENERGY PREDICTED BY IDOCK:   -9.92 KCAL/MOL
REMARK 922        TOTAL FREE ENERGY PREDICTED BY IDOCK:  -12.41 KCAL/MOL
REMARK 923 INTER-LIGAND FREE ENERGY PREDICTED BY IDOCK:  -11.90 KCAL/MOL
REMARK 924 INTRA-LIGAND FREE ENERGY PREDICTED BY IDOCK:   -0.51 KCAL/MOL
REMARK 927      BINDING AFFINITY PREDICTED BY RF-SCORE:    0.00 PKD
ROOT
HETATM    1  O   UNL     1     -12.471  14.836  63.811  1.00  0.00    -1.045 OA 
HETATM    2  H   UNL     1     -13.175  14.355  63.391  1.00  0.00     0.000 HD 
HETATM    3  C   UNL     1     -11.542  14.348  64.713  1.00  0.00    -0.408 C  
HETATM    4  C   UNL     1     -10.539  15.032  65.311  1.00  0.00    -0.397 C  
HETATM    5  N   UNL     1      -9.680  14.411  66.239  1.00  0.00    -0.299 NA 
HETATM    6  C   UNL     1      -8.982  15.160  67.284  1.00  0.00    -0.199 C  
HETATM    7  C   UNL     1      -9.752  13.022  66.394  1.00  0.00    -0.268 C  
HETATM    8  C   UNL     1      -8.722  16.624  66.945  1.00  0.00    -0.241 C  
HETATM    9  C   UNL     1     -10.730  12.229  65.918  1.00  0.00    -0.294 C  
HETATM   10  C   UNL     1     -11.840  13.026  65.328  1.00  0.00    -0.376 C  
HETATM   11  O   UNL     1      -8.579  17.381  68.413  1.00  0.00    -0.255 OA 
HETATM   12  C   UNL     1     -10.216  19.744  67.953  1.00  0.00    -0.576 C  
HETATM   13  C   UNL     1      -8.867  18.895  68.542  1.00  0.00    -0.352 C  
HETATM   14  N   UNL     1      -9.830  17.329  65.910  1.00  0.00    -0.184 N  
HETATM   15  O   UNL     1     -13.026  12.730  65.444  1.00  0.00    -0.587 OA 
HETATM   16  C   UNL     1     -10.544  16.524  65.040  1.00  0.00    -0.144 C  
HETATM   17  C   UNL     1     -10.643  18.737  66.392  1.00  0.00    -0.429 C  
HETATM   18  C   UNL     1      -8.894  18.940  67.159  1.00  0.00    -0.298 C  
HETATM   19  C   UNL     1     -10.576  18.021  67.583  1.00  0.00    -0.413 C  
HETATM   20  O   UNL     1     -11.315  17.013  64.211  1.00  0.00    -1.191 OA 
ENDROOT
BRANCH   9  21
HETATM   21  C   UNL     1     -10.617  10.755  66.197  1.00  0.00    -0.175 C  
HETATM   22  H   UNL     1     -11.178   9.179  67.405  1.00  0.00     0.000 HD 
HETATM   23  O   UNL     1     -10.178   9.994  65.333  1.00  0.00    -0.289 OA 
HETATM   24  N   UNL     1     -11.036  10.189  67.374  1.00  0.00    -0.276 N  
BRANCH  24  25
HETATM   25  C   UNL     1     -11.281  10.950  68.560  1.00  0.00    -0.274 C  
BRANCH  25  26
HETATM   26  C   UNL     1     -11.046  10.341  69.896  1.00  0.00    -0.362 A  
HETATM   27  C   UNL     1     -12.000   9.241  71.842  1.00  0.00    -0.433 A  
HETATM   28  C   UNL     1     -10.740   8.752  72.158  1.00  0.00    -0.313 A  
HETATM   29  C   UNL     1     -12.140  10.034  70.713  1.00  0.00    -0.327 A  
HETATM   30  F   UNL     1     -13.371  10.438  70.366  1.00  0.00    -0.386 F  
HETATM   31  F   UNL     1     -10.598   7.960  73.227  1.00  0.00    -0.383 F  
HETATM   32  C   UNL     1      -9.632   9.042  71.372  1.00  0.00    -0.356 A  
HETATM   33  C   UNL     1      -9.795   9.834  70.241  1.00  0.00    -0.240 A  
HETATM   34  F   UNL     1      -8.746  10.035  69.433  1.00  0.00    -0.134 F  
ENDBRANCH  25  26
ENDBRANCH  24  25
ENDBRANCH   9  21
TORSDOF 3
ENDMDL
MODEL        3
REMARK 921   NORMALIZED FREE ENERGY PREDICTED BY IDOCK:   -9.58 KCAL/MOL
REMARK 922        TOTAL FREE ENERGY PREDICTED BY IDOCK:  -12.01 KCAL/MOL
REMARK 923 INTER-LIGAND FREE ENERGY PREDICTED BY IDOCK:  -11.69 KCAL/MOL
REMARK 924 INTRA-LIGAND FREE ENERGY PREDICTED BY IDOCK:   -0.31 KCAL/MOL
REMARK 927      BINDING AFFINITY PREDICTED BY RF-SCORE:    0.00 PKD
ROOT
HETATM    1  O   UNL     1     -12.476  14.993  63.775  1.00  0.00    -1.037 OA 
HETATM    2  H   UNL     1     -13.173  14.499  63.359  1.00  0.00     0.000 HD 
HETATM    3  C   UNL     1     -11.491  14.512  64.619  1.00  0.00    -0.387 C  
HETATM    4  C   UNL     1     -10.500  15.216  65.212  1.00  0.00    -0.409 C  
HETATM    5  N   UNL     1      -9.577  14.597  66.079  1.00  0.00    -0.307 NA 
HETATM    6  C   UNL     1      -8.876  15.331  67.132  1.00  0.00    -0.212 C  
HETATM    7  C   UNL     1      -9.578  13.201  66.171  1.00  0.00    -0.200 C  
HETATM    8  C   UNL     1      -8.699  16.820  66.852  1.00  0.00    -0.242 C  
HETATM    9  C   UNL     1     -10.535  12.383  65.694  1.00  0.00    -0.290 C  
HETATM   10  C   UNL     1     -11.703  13.150  65.182  1.00  0.00    -0.336 C  
HETATM   11  O   UNL     1      -8.536  17.516  68.349  1.00  0.00    -0.260 OA 
HETATM   12  C   UNL     1     -10.299  19.815  68.058  1.00  0.00    -0.567 C  
HETATM   13  C   UNL     1      -8.890  19.007  68.558  1.00  0.00    -0.362 C  
HETATM   14  N   UNL     1      -9.878  17.516  65.892  1.00  0.00    -0.160 N  
HETATM   15  O   UNL     1     -12.868  12.792  65.327  1.00  0.00    -0.674 OA 
HETATM   16  C   UNL     1     -10.585  16.717  65.011  1.00  0.00    -0.039 C  
HETATM   17  C   UNL     1     -10.738  18.859  66.469  1.00  0.00    -0.375 C  
HETATM   18  C   UNL     1      -8.972  19.113  67.180  1.00  0.00    -0.320 C  
HETATM   19  C   UNL     1     -10.592  18.095  67.621  1.00  0.00    -0.424 C  
HETATM   20  O   UNL     1     -11.410  17.205  64.235  1.00  0.00    -1.126 OA 
ENDROOT
BRANCH   9  21
HETATM   21  C   UNL     1     -10.342  10.905  65.900  1.00  0.00    -0.250 C  
HETATM   22  H   UNL     1     -10.676   9.274  67.119  1.00  0.00     0.000 HD 
HETATM   23  O   UNL     1     -10.014  10.187  64.953  1.00  0.00    -0.329 OA 
HETATM   24  N   UNL     1     -10.567  10.288  67.104  1.00  0.00    -0.261 N  
BRANCH  24  25
HETATM   25  C   UNL     1     -10.656  11.003  68.340  1.00  0.00    -0.193 C  
BRANCH  25  26
HETATM   26  C   UNL     1     -11.500  10.475  69.444  1.00  0.00    -0.329 A  
HETATM   27  C   UNL     1     -11.892   8.696  71.053  1.00  0.00    -0.303 A  
HETATM   28  C   UNL     1     -12.656   9.574  71.808  1.00  0.00    -0.405 A  
HETATM   29  C   UNL     1     -11.322   9.156  69.874  1.00  0.00    -0.030 A  
HETATM   30  F   UNL     1     -10.520   8.328  69.189  1.00  0.00    -0.210 F  
HETATM   31  F   UNL     1     -13.184   9.152  72.963  1.00  0.00    -0.448 F  
HETATM   32  C   UNL     1     -12.858  10.889  71.407  1.00  0.00    -0.554 A  
HETATM   33  C   UNL     1     -12.273  11.331  70.226  1.00  0.00    -0.345 A  
HETATM   34  F   UNL     1     -12.389  12.622  69.889  1.00  0.00    -0.313 F  
ENDBRANCH  25  26
ENDBRANCH  24  25
ENDBRANCH   9  21
TORSDOF 3
ENDMDL
MODEL        4
REMARK 921   NORMALIZED FREE ENERGY PREDICTED BY IDOCK:   -8.25 KCAL/MOL
REMARK 922        TOTAL FREE ENERGY PREDICTED BY IDOCK:  -10.44 KCAL/MOL
REMARK 923 INTER-LIGAND FREE ENERGY PREDICTED BY IDOCK:   -9.34 KCAL/MOL
REMARK 924 INTRA-LIGAND FREE ENERGY PREDICTED BY IDOCK:   -1.11 KCAL/MOL
REMARK 927      BINDING AFFINITY PREDICTED BY RF-SCORE:    0.00 PKD
ROOT
HETATM    1  O   UNL     1     -10.030  16.313  66.530  1.00  0.00    -0.250 OA 
HETATM    2  H   UNL     1      -9.845  16.778  65.722  1.00  0.00     0.000 HD 
HETATM    3  C   UNL     1     -10.674  15.097  66.673  1.00  0.00    -0.310 C  
HETATM    4  C   UNL     1     -10.937  14.436  67.824  1.00  0.00    -0.274 C  
HETATM    5  N   UNL     1     -11.633  13.210  67.822  1.00  0.00    -0.316 NA 
HETATM    6  C   UNL     1     -12.404  12.746  68.975  1.00  0.00     0.187 C  
HETATM    7  C   UNL     1     -11.883  12.584  66.597  1.00  0.00    -0.352 C  
HETATM    8  C   UNL     1     -11.922  13.287  70.317  1.00  0.00    -0.372 C  
HETATM    9  C   UNL     1     -11.737  13.146  65.383  1.00  0.00    -0.383 C  
HETATM   10  C   UNL     1     -11.423  14.597  65.488  1.00  0.00    -0.341 C  
HETATM   11  O   UNL     1     -13.250  13.212  71.307  1.00  0.00    -0.246 OA 
HETATM   12  C   UNL     1     -13.110  15.827  72.581  1.00  0.00    -0.579 C  
HETATM   13  C   UNL     1     -13.361  14.147  72.535  1.00  0.00    -0.518 C  
HETATM   14  N   UNL     1     -11.186  14.788  70.263  1.00  0.00    -0.229 N  
HETATM   15  O   UNL     1     -11.874  15.447  64.725  1.00  0.00    -0.280 OA 
HETATM   16  C   UNL     1     -10.590  15.202  69.085  1.00  0.00    -0.256 C  
HETATM   17  C   UNL     1     -11.786  16.047  71.228  1.00  0.00    -0.516 C  
HETATM   18  C   UNL     1     -12.037  14.484  72.316  1.00  0.00    -0.222 C  
HETATM   19  C   UNL     1     -12.954  15.399  70.841  1.00  0.00    -0.539 C  
HETATM   20  O   UNL     1      -9.973  16.269  69.027  1.00  0.00    -0.231 OA 
ENDROOT
BRANCH   9  21
HETATM   21  C   UNL     1     -12.062  12.293  64.187  1.00  0.00    -0.436 C  
HETATM   22  H   UNL     1     -11.447  10.779  62.928  1.00  0.00     0.000 HD 
HETATM   23  O   UNL     1     -13.220  12.230  63.768  1.00  0.00    -0.771 OA 
HETATM   24  N   UNL     1     -11.125  11.521  63.550  1.00  0.00    -0.396 N  
BRANCH  24  25
HETATM   25  C   UNL     1      -9.717  11.709  63.718  1.00  0.00    -0.254 C  
BRANCH  25  26
HETATM   26  C   UNL     1      -8.912  10.690  64.441  1.00  0.00    -0.212 A  
HETATM   27  C   UNL     1      -8.004   9.924  66.561  1.00  0.00    -0.110 A  
HETATM   28  C   UNL     1      -7.863   8.654  66.020  1.00  0.00    -0.102 A  
HETATM   29  C   UNL     1      -8.526  10.932  65.764  1.00  0.00    -0.155 A  
HETATM   30  F   UNL     1      -8.735  12.137  66.315  1.00  0.00    -0.185 F  
HETATM   31  F   UNL     1      -7.391   7.666  66.789  1.00  0.00    -0.080 F  
HETATM   32  C   UNL     1      -8.232   8.381  64.708  1.00  0.00    -0.162 A  
HETATM   33  C   UNL     1      -8.758   9.403  63.928  1.00  0.00    -0.202 A  
HETATM   34  F   UNL     1      -9.200   9.117  62.697  1.00  0.00    -0.244 F  
ENDBRANCH  25  26
ENDBRANCH  24  25
ENDBRANCH   9  21
TORSDOF 3
ENDMDL
MODEL        5
REMARK 921   NORMALIZED FREE ENERGY PREDICTED BY IDOCK:   -8.21 KCAL/MOL
REMARK 922        TOTAL FREE ENERGY PREDICTED BY IDOCK:  -10.39 KCAL/MOL
REMARK 923 INTER-LIGAND FREE ENERGY PREDICTED BY IDOCK:   -9.52 KCAL/MOL
REMARK 924 INTRA-LIGAND FREE ENERGY PREDICTED BY IDOCK:   -0.87 KCAL/MOL
REMARK 927      BINDING AFFINITY PREDICTED BY RF-SCORE:    0.00 PKD
ROOT
HETATM    1  O   UNL     1      -6.788  14.044  68.987  1.00  0.00    -0.103 OA 
HETATM    2  H   UNL     1      -6.193  13.302  68.983  1.00  0.00     0.000 HD 
HETATM    3  C   UNL     1      -8.074  14.094  68.481  1.00  0.00    -0.143 C  
HETATM    4  C   UNL     1      -8.920  15.150  68.487  1.00  0.00    -0.186 C  
HETATM    5  N   UNL     1     -10.201  15.067  67.904  1.00  0.00    -0.227 NA 
HETATM    6  C   UNL     1     -10.908  16.242  67.396  1.00  0.00    -0.242 C  
HETATM    7  C   UNL     1     -10.666  13.816  67.485  1.00  0.00    -0.256 C  
HETATM    8  C   UNL     1     -10.518  17.553  68.071  1.00  0.00    -0.387 C  
HETATM    9  C   UNL     1      -9.921  12.702  67.360  1.00  0.00    -0.204 C  
HETATM   10  C   UNL     1      -8.475  12.986  67.570  1.00  0.00    -0.190 C  
HETATM   11  O   UNL     1     -10.880  18.728  66.958  1.00  0.00    -0.405 OA 
HETATM   12  C   UNL     1      -8.479  20.367  67.116  1.00  0.00    -0.393 C  
HETATM   13  C   UNL     1     -10.151  20.091  66.997  1.00  0.00    -0.457 C  
HETATM   14  N   UNL     1      -8.955  17.620  68.661  1.00  0.00    -0.283 N  
HETATM   15  O   UNL     1      -7.577  12.458  66.920  1.00  0.00    -0.086 OA 
HETATM   16  C   UNL     1      -8.312  16.442  68.996  1.00  0.00    -0.225 C  
HETATM   17  C   UNL     1      -7.922  18.863  68.148  1.00  0.00    -0.330 C  
HETATM   18  C   UNL     1      -9.644  19.710  68.227  1.00  0.00    -0.478 C  
HETATM   19  C   UNL     1      -8.629  18.579  66.985  1.00  0.00    -0.273 C  
HETATM   20  O   UNL     1      -7.188  16.455  69.504  1.00  0.00    -0.219 OA 
ENDROOT
BRANCH   9  21
HETATM   21  C   UNL     1     -10.620  11.455  66.891  1.00  0.00    -0.252 C  
HETATM   22  H   UNL     1     -11.634   9.740  67.427  1.00  0.00     0.000 HD 
HETATM   23  O   UNL     1     -10.973  11.349  65.715  1.00  0.00    -0.266 OA 
HETATM   24  N   UNL     1     -10.943  10.423  67.736  1.00  0.00    -0.294 N  
BRANCH  24  25
HETATM   25  C   UNL     1     -10.353  10.263  69.029  1.00  0.00    -0.211 C  
BRANCH  25  26
HETATM   26  C   UNL     1     -11.213   9.976  70.207  1.00  0.00    -0.379 A  
HETATM   27  C   UNL     1     -13.068  10.681  71.610  1.00  0.00    -0.555 A  
HETATM   28  C   UNL     1     -13.203   9.374  72.055  1.00  0.00    -0.449 A  
HETATM   29  C   UNL     1     -12.071  10.970  70.690  1.00  0.00    -0.373 A  
HETATM   30  F   UNL     1     -11.995  12.218  70.203  1.00  0.00    -0.364 F  
HETATM   31  F   UNL     1     -14.181   9.076  72.918  1.00  0.00    -0.470 F  
HETATM   32  C   UNL     1     -12.364   8.363  71.600  1.00  0.00    -0.359 A  
HETATM   33  C   UNL     1     -11.376   8.673  70.674  1.00  0.00    -0.247 A  
HETATM   34  F   UNL     1     -10.631   7.683  70.165  1.00  0.00    -0.214 F  
ENDBRANCH  25  26
ENDBRANCH  24  25
ENDBRANCH   9  21
TORSDOF 3
ENDMDL
MODEL        6
REMARK 921   NORMALIZED FREE ENERGY PREDICTED BY IDOCK:   -8.13 KCAL/MOL
REMARK 922        TOTAL FREE ENERGY PREDICTED BY IDOCK:  -10.30 KCAL/MOL
REMARK 923 INTER-LIGAND FREE ENERGY PREDICTED BY IDOCK:   -9.78 KCAL/MOL
REMARK 924 INTRA-LIGAND FREE ENERGY PREDICTED BY IDOCK:   -0.52 KCAL/MOL
REMARK 927      BINDING AFFINITY PREDICTED BY RF-SCORE:    0.00 PKD
ROOT
HETATM    1  O   UNL     1     -12.251  14.525  63.857  1.00  0.00    -0.872 OA 
HETATM    2  H   UNL     1     -12.666  15.355  63.651  1.00  0.00     0.000 HD 
HETATM    3  C   UNL     1     -11.389  14.253  64.904  1.00  0.00    -0.372 C  
HETATM    4  C   UNL     1     -10.798  13.072  65.197  1.00  0.00    -0.300 C  
HETATM    5  N   UNL     1      -9.912  12.945  66.286  1.00  0.00    -0.266 NA 
HETATM    6  C   UNL     1      -8.865  11.925  66.329  1.00  0.00    -0.111 C  
HETATM    7  C   UNL     1      -9.796  14.012  67.182  1.00  0.00    -0.240 C  
HETATM    8  C   UNL     1      -9.168  10.674  65.510  1.00  0.00    -0.228 C  
HETATM    9  C   UNL     1     -10.268  15.257  66.987  1.00  0.00    -0.260 C  
HETATM   10  C   UNL     1     -10.805  15.427  65.609  1.00  0.00    -0.355 C  
HETATM   11  O   UNL     1      -7.682  10.027  65.158  1.00  0.00    -0.126 OA 
HETATM   12  C   UNL     1      -8.030   9.407  62.334  1.00  0.00    -0.127 C  
HETATM   13  C   UNL     1      -7.502   9.114  63.923  1.00  0.00    -0.110 C  
HETATM   14  N   UNL     1     -10.151  10.908  64.179  1.00  0.00    -0.329 N  
HETATM   15  O   UNL     1     -10.666  16.451  64.947  1.00  0.00    -0.675 OA 
HETATM   16  C   UNL     1     -11.026  11.981  64.169  1.00  0.00    -0.360 C  
HETATM   17  C   UNL     1      -9.607  10.432  62.645  1.00  0.00    -0.274 C  
HETATM   18  C   UNL     1      -8.882   9.095  63.818  1.00  0.00    -0.095 C  
HETATM   19  C   UNL     1      -8.440  10.914  63.227  1.00  0.00    -0.004 C  
HETATM   20  O   UNL     1     -11.819  12.144  63.239  1.00  0.00    -0.436 OA 
ENDROOT
BRANCH   9  21
HETATM   21  C   UNL     1     -10.035  16.261  68.083  1.00  0.00    -0.239 C  
HETATM   22  H   UNL     1     -10.449  16.825  70.024  1.00  0.00     0.000 HD 
HETATM   23  O   UNL     1      -9.090  17.050  68.009  1.00  0.00    -0.227 OA 
HETATM   24  N   UNL     1     -10.806  16.315  69.216  1.00  0.00    -0.296 N  
BRANCH  24  25
HETATM   25  C   UNL     1     -12.088  15.689  69.316  1.00  0.00    -0.241 C  
BRANCH  25  26
HETATM   26  C   UNL     1     -12.311  14.607  70.309  1.00  0.00    -0.406 A  
HETATM   27  C   UNL     1     -13.360  13.923  72.392  1.00  0.00    -0.629 A  
HETATM   28  C   UNL     1     -13.227  12.598  72.002  1.00  0.00    -0.427 A  
HETATM   29  C   UNL     1     -12.897  14.916  71.542  1.00  0.00    -0.335 A  
HETATM   30  F   UNL     1     -13.099  16.196  71.887  1.00  0.00    -0.499 F  
HETATM   31  F   UNL     1     -13.698  11.632  72.799  1.00  0.00    -0.114 F  
HETATM   32  C   UNL     1     -12.645  12.256  70.787  1.00  0.00    -0.302 A  
HETATM   33  C   UNL     1     -12.194  13.266  69.946  1.00  0.00    -0.246 A  
HETATM   34  F   UNL     1     -11.720  12.941  68.737  1.00  0.00    -0.283 F  
ENDBRANCH  25  26
ENDBRANCH  24  25
ENDBRANCH   9  21
TORSDOF 3
ENDMDL
MODEL        7
REMARK 921   NORMALIZED FREE ENERGY PREDICTED BY IDOCK:   -8.07 KCAL/MOL
REMARK 922        TOTAL FREE ENERGY PREDICTED BY IDOCK:  -10.23 KCAL/MOL
REMARK 923 INTER-LIGAND FREE ENERGY PREDICTED BY IDOCK:   -9.57 KCAL/MOL
REMARK 924 INTRA-LIGAND FREE ENERGY PREDICTED BY IDOCK:   -0.66 KCAL/MOL
REMARK 927      BINDING AFFINITY PREDICTED BY RF-SCORE:    0.00 PKD
ROOT
HETATM    1  O   UNL     1      -9.916  16.427  66.838  1.00  0.00    -0.255 OA 
HETATM    2  H   UNL     1      -9.698  16.899  66.042  1.00  0.00     0.000 HD 
HETATM    3  C   UNL     1     -10.570  15.213  66.943  1.00  0.00    -0.297 C  
HETATM    4  C   UNL     1     -10.881  14.541  68.076  1.00  0.00    -0.244 C  
HETATM    5  N   UNL     1     -11.582  13.319  68.036  1.00  0.00    -0.314 NA 
HETATM    6  C   UNL     1     -12.399  12.847  69.154  1.00  0.00     0.134 C  
HETATM    7  C   UNL     1     -11.787  12.706  66.796  1.00  0.00    -0.370 C  
HETATM    8  C   UNL     1     -11.965  13.373  70.518  1.00  0.00    -0.332 C  
HETATM    9  C   UNL     1     -11.593  13.280  65.594  1.00  0.00    -0.363 C  
HETATM   10  C   UNL     1     -11.276  14.728  65.725  1.00  0.00    -0.337 C  
HETATM   11  O   UNL     1     -13.330  13.294  71.456  1.00  0.00    -0.333 OA 
HETATM   12  C   UNL     1     -13.228  15.895  72.761  1.00  0.00    -0.590 C  
HETATM   13  C   UNL     1     -13.485  14.217  72.688  1.00  0.00    -0.525 C  
HETATM   14  N   UNL     1     -11.221  14.870  70.508  1.00  0.00    -0.234 N  
HETATM   15  O   UNL     1     -11.693  15.588  64.955  1.00  0.00    -0.239 OA 
HETATM   16  C   UNL     1     -10.578  15.293  69.358  1.00  0.00    -0.256 C  
HETATM   17  C   UNL     1     -11.852  16.122  71.462  1.00  0.00    -0.528 C  
HETATM   18  C   UNL     1     -12.152  14.550  72.523  1.00  0.00    -0.153 C  
HETATM   19  C   UNL     1     -13.007  15.485  71.024  1.00  0.00    -0.550 C  
HETATM   20  O   UNL     1      -9.955  16.357  69.334  1.00  0.00    -0.253 OA 
ENDROOT
BRANCH   9  21
HETATM   21  C   UNL     1     -11.875  12.441  64.377  1.00  0.00    -0.389 C  
HETATM   22  H   UNL     1     -11.508  10.676  63.374  1.00  0.00     0.000 HD 
HETATM   23  O   UNL     1     -12.846  12.697  63.662  1.00  0.00    -0.718 OA 
HETATM   24  N   UNL     1     -11.122  11.345  64.040  1.00  0.00    -0.365 N  
BRANCH  24  25
HETATM   25  C   UNL     1      -9.820  11.100  64.579  1.00  0.00    -0.280 C  
BRANCH  25  26
HETATM   26  C   UNL     1      -9.405   9.714  64.916  1.00  0.00    -0.306 A  
HETATM   27  C   UNL     1      -7.770   7.939  64.630  1.00  0.00    -0.120 A  
HETATM   28  C   UNL     1      -8.230   7.352  65.800  1.00  0.00    -0.135 A  
HETATM   29  C   UNL     1      -8.364   9.115  64.198  1.00  0.00    -0.178 A  
HETATM   30  F   UNL     1      -7.863   9.720  63.111  1.00  0.00    -0.122 F  
HETATM   31  F   UNL     1      -7.644   6.235  66.245  1.00  0.00    -0.083 F  
HETATM   32  C   UNL     1      -9.266   7.917  66.535  1.00  0.00    -0.238 A  
HETATM   33  C   UNL     1      -9.844   9.099  66.087  1.00  0.00    -0.293 A  
HETATM   34  F   UNL     1     -10.776   9.692  66.844  1.00  0.00    -0.304 F  
ENDBRANCH  25  26
ENDBRANCH  24  25
ENDBRANCH   9  21
TORSDOF 3
ENDMDL
MODEL        8
REMARK 921   NORMALIZED FREE ENERGY PREDICTED BY IDOCK:   -8.03 KCAL/MOL
REMARK 922        TOTAL FREE ENERGY PREDICTED BY IDOCK:  -10.18 KCAL/MOL
REMARK 923 INTER-LIGAND FREE ENERGY PREDICTED BY IDOCK:   -9.30 KCAL/MOL
REMARK 924 INTRA-LIGAND FREE ENERGY PREDICTED BY IDOCK:   -0.88 KCAL/MOL
REMARK 927      BINDING AFFINITY PREDICTED BY RF-SCORE:    0.00 PKD
ROOT
HETATM    1  O   UNL     1     -13.209  14.469  70.073  1.00  0.00    -0.465 OA 
HETATM    2  H   UNL     1     -13.501  15.300  69.714  1.00  0.00     0.000 HD 
HETATM    3  C   UNL     1     -12.272  13.604  69.536  1.00  0.00    -0.264 C  
HETATM    4  C   UNL     1     -11.857  12.421  70.047  1.00  0.00    -0.288 C  
HETATM    5  N   UNL     1     -10.911  11.624  69.373  1.00  0.00    -0.196 NA 
HETATM    6  C   UNL     1     -10.838  10.174  69.554  1.00  0.00    -0.255 C  
HETATM    7  C   UNL     1     -10.257  12.158  68.259  1.00  0.00    -0.208 C  
HETATM    8  C   UNL     1     -11.354   9.679  70.901  1.00  0.00    -0.431 C  
HETATM    9  C   UNL     1     -10.607  13.282  67.607  1.00  0.00    -0.242 C  
HETATM   10  C   UNL     1     -11.895  13.829  68.114  1.00  0.00    -0.376 C  
HETATM   11  O   UNL     1     -11.800   8.105  70.633  1.00  0.00    -0.221 OA 
HETATM   12  C   UNL     1     -14.374   8.043  71.993  1.00  0.00    -0.511 C  
HETATM   13  C   UNL     1     -12.857   7.428  71.537  1.00  0.00    -0.375 C  
HETATM   14  N   UNL     1     -12.542  10.622  71.605  1.00  0.00    -0.400 N  
HETATM   15  O   UNL     1     -12.750  14.335  67.393  1.00  0.00     0.149 OA 
HETATM   16  C   UNL     1     -12.618  11.964  71.276  1.00  0.00    -0.277 C  
HETATM   17  C   UNL     1     -14.024   9.917  72.030  1.00  0.00    -0.063 C  
HETATM   18  C   UNL     1     -12.747   8.525  72.374  1.00  0.00    -0.394 C  
HETATM   19  C   UNL     1     -13.725   9.263  70.841  1.00  0.00     0.054 C  
HETATM   20  O   UNL     1     -13.432  12.707  71.829  1.00  0.00    -0.379 OA 
ENDROOT
BRANCH   9  21
HETATM   21  C   UNL     1      -9.765  13.683  66.426  1.00  0.00    -0.292 C  
HETATM   22  H   UNL     1      -8.103  14.708  65.759  1.00  0.00     0.000 HD 
HETATM   23  O   UNL     1      -9.885  13.091  65.351  1.00  0.00    -0.221 OA 
HETATM   24  N   UNL     1      -8.807  14.663  66.495  1.00  0.00    -0.209 N  
BRANCH  24  25
HETATM   25  C   UNL     1      -8.753  15.624  67.554  1.00  0.00    -0.177 C  
BRANCH  25  26
HETATM   26  C   UNL     1      -9.151  17.033  67.299  1.00  0.00    -0.229 A  
HETATM   27  C   UNL     1     -10.379  18.985  68.065  1.00  0.00    -0.472 A  
HETATM   28  C   UNL     1      -9.595  19.778  67.240  1.00  0.00    -0.359 A  
HETATM   29  C   UNL     1     -10.150  17.617  68.085  1.00  0.00    -0.347 A  
HETATM   30  F   UNL     1     -10.856  16.865  68.943  1.00  0.00    -0.298 F  
HETATM   31  F   UNL     1      -9.784  21.103  67.236  1.00  0.00    -0.610 F  
HETATM   32  C   UNL     1      -8.597  19.230  66.442  1.00  0.00    -0.355 A  
HETATM   33  C   UNL     1      -8.381  17.858  66.481  1.00  0.00    -0.262 A  
HETATM   34  F   UNL     1      -7.359  17.343  65.785  1.00  0.00    -0.329 F  
ENDBRANCH  25  26
ENDBRANCH  24  25
ENDBRANCH   9  21
TORSDOF 3
ENDMDL
MODEL        9
REMARK 921   NORMALIZED FREE ENERGY PREDICTED BY IDOCK:   -8.01 KCAL/MOL
REMARK 922        TOTAL FREE ENERGY PREDICTED BY IDOCK:  -10.16 KCAL/MOL
REMARK 923 INTER-LIGAND FREE ENERGY PREDICTED BY IDOCK:   -9.69 KCAL/MOL
REMARK 924 INTRA-LIGAND FREE ENERGY PREDICTED BY IDOCK:   -0.47 KCAL/MOL
REMARK 927      BINDING AFFINITY PREDICTED BY RF-SCORE:    0.00 PKD
ROOT
HETATM    1  O   UNL     1     -12.378  14.088  63.400  1.00  0.00    -1.099 OA 
HETATM    2  H   UNL     1     -12.790  14.883  63.081  1.00  0.00     0.000 HD 
HETATM    3  C   UNL     1     -11.732  13.903  64.608  1.00  0.00    -0.397 C  
HETATM    4  C   UNL     1     -11.144  12.772  65.063  1.00  0.00    -0.285 C  
HETATM    5  N   UNL     1     -10.491  12.735  66.311  1.00  0.00    -0.253 NA 
HETATM    6  C   UNL     1      -9.416  11.787  66.605  1.00  0.00    -0.205 C  
HETATM    7  C   UNL     1     -10.621  13.833  67.167  1.00  0.00    -0.277 C  
HETATM    8  C   UNL     1      -9.474  10.496  65.795  1.00  0.00    -0.249 C  
HETATM    9  C   UNL     1     -11.115  15.038  66.830  1.00  0.00    -0.326 C  
HETATM   10  C   UNL     1     -11.371  15.133  65.366  1.00  0.00    -0.298 C  
HETATM   11  O   UNL     1      -7.913   9.937  65.774  1.00  0.00    -0.113 OA 
HETATM   12  C   UNL     1      -7.646   9.214  62.966  1.00  0.00    -0.105 C  
HETATM   13  C   UNL     1      -7.434   9.002  64.639  1.00  0.00    -0.103 C  
HETATM   14  N   UNL     1     -10.180  10.627  64.285  1.00  0.00    -0.353 N  
HETATM   15  O   UNL     1     -11.160  16.144  64.703  1.00  0.00    -0.598 OA 
HETATM   16  C   UNL     1     -11.095  11.639  64.056  1.00  0.00    -0.384 C  
HETATM   17  C   UNL     1      -9.310  10.142  62.912  1.00  0.00    -0.320 C  
HETATM   18  C   UNL     1      -8.761   8.890  64.261  1.00  0.00    -0.095 C  
HETATM   19  C   UNL     1      -8.315  10.716  63.695  1.00  0.00    -0.043 C  
HETATM   20  O   UNL     1     -11.692  11.723  62.980  1.00  0.00    -0.192 OA 
ENDROOT
BRANCH   9  21
HETATM   21  C   UNL     1     -11.167  16.087  67.907  1.00  0.00    -0.276 C  
HETATM   22  H   UNL     1     -10.673  18.010  68.470  1.00  0.00     0.000 HD 
HETATM   23  O   UNL     1     -11.948  15.964  68.853  1.00  0.00    -0.370 OA 
HETATM   24  N   UNL     1     -10.409  17.230  67.868  1.00  0.00    -0.344 N  
BRANCH  24  25
HETATM   25  C   UNL     1      -9.266  17.377  67.020  1.00  0.00    -0.246 C  
BRANCH  25  26
HETATM   26  C   UNL     1      -8.172  18.306  67.404  1.00  0.00    -0.237 A  
HETATM   27  C   UNL     1      -7.262  20.557  67.292  1.00  0.00    -0.367 A  
HETATM   28  C   UNL     1      -6.492  20.280  68.413  1.00  0.00    -0.309 A  
HETATM   29  C   UNL     1      -8.094  19.564  66.796  1.00  0.00    -0.292 A  
HETATM   30  F   UNL     1      -8.895  19.861  65.762  1.00  0.00    -0.367 F  
HETATM   31  F   UNL     1      -5.709  21.240  68.919  1.00  0.00    -0.372 F  
HETATM   32  C   UNL     1      -6.541  19.040  69.038  1.00  0.00    -0.317 A  
HETATM   33  C   UNL     1      -7.386  18.061  68.528  1.00  0.00    -0.273 A  
HETATM   34  F   UNL     1      -7.503  16.900  69.185  1.00  0.00    -0.225 F  
ENDBRANCH  25  26
ENDBRANCH  24  25
ENDBRANCH   9  21
TORSDOF 3
ENDMDL
MODEL       10
REMARK 921   NORMALIZED FREE ENERGY PREDICTED BY IDOCK:   -7.94 KCAL/MOL
REMARK 922        TOTAL FREE ENERGY PREDICTED BY IDOCK:  -10.08 KCAL/MOL
REMARK 923 INTER-LIGAND FREE ENERGY PREDICTED BY IDOCK:   -9.30 KCAL/MOL
REMARK 924 INTRA-LIGAND FREE ENERGY PREDICTED BY IDOCK:   -0.77 KCAL/MOL
REMARK 927      BINDING AFFINITY PREDICTED BY RF-SCORE:    0.00 PKD
ROOT
HETATM    1  O   UNL     1     -12.194  13.060  65.033  1.00  0.00    -0.398 OA 
HETATM    2  H   UNL     1     -12.847  12.390  64.863  1.00  0.00     0.000 HD 
HETATM    3  C   UNL     1     -11.004  12.919  65.723  1.00  0.00    -0.278 C  
HETATM    4  C   UNL     1     -10.075  13.873  65.965  1.00  0.00    -0.313 C  
HETATM    5  N   UNL     1      -8.914  13.593  66.713  1.00  0.00    -0.218 NA 
HETATM    6  C   UNL     1      -8.191  14.627  67.454  1.00  0.00    -0.201 C  
HETATM    7  C   UNL     1      -8.635  12.263  67.044  1.00  0.00    -0.191 C  
HETATM    8  C   UNL     1      -8.351  16.035  66.890  1.00  0.00    -0.278 C  
HETATM    9  C   UNL     1      -9.488  11.229  66.927  1.00  0.00    -0.193 C  
HETATM   10  C   UNL     1     -10.852  11.687  66.545  1.00  0.00    -0.284 C  
HETATM   11  O   UNL     1      -8.062  17.042  68.175  1.00  0.00    -0.198 OA 
HETATM   12  C   UNL     1     -10.252  18.937  67.865  1.00  0.00    -0.459 C  
HETATM   13  C   UNL     1      -8.650  18.473  68.192  1.00  0.00    -0.303 C  
HETATM   14  N   UNL     1      -9.790  16.330  66.091  1.00  0.00    -0.312 N  
HETATM   15  O   UNL     1     -11.884  11.194  66.990  1.00  0.00    -0.411 OA 
HETATM   16  C   UNL     1     -10.477  15.269  65.529  1.00  0.00    -0.374 C  
HETATM   17  C   UNL     1     -10.773  17.617  66.593  1.00  0.00    -0.117 C  
HETATM   18  C   UNL     1      -8.991  18.278  66.865  1.00  0.00    -0.281 C  
HETATM   19  C   UNL     1     -10.286  17.140  67.804  1.00  0.00    -0.324 C  
HETATM   20  O   UNL     1     -11.502  15.454  64.869  1.00  0.00    -0.365 OA 
ENDROOT
BRANCH   9  21
HETATM   21  C   UNL     1      -8.986   9.872  67.341  1.00  0.00    -0.135 C  
HETATM   22  H   UNL     1      -9.114   8.325  68.700  1.00  0.00     0.000 HD 
HETATM   23  O   UNL     1      -8.350   9.179  66.544  1.00  0.00    -0.116 OA 
HETATM   24  N   UNL     1      -9.248   9.328  68.572  1.00  0.00    -0.135 N  
BRANCH  24  25
HETATM   25  C   UNL     1      -9.700  10.104  69.686  1.00  0.00    -0.221 C  
BRANCH  25  26
HETATM   26  C   UNL     1     -10.929   9.704  70.419  1.00  0.00    -0.356 A  
HETATM   27  C   UNL     1     -11.918   8.337  72.169  1.00  0.00    -0.429 A  
HETATM   28  C   UNL     1     -13.005   9.198  72.201  1.00  0.00    -0.425 A  
HETATM   29  C   UNL     1     -10.890   8.598  71.274  1.00  0.00    -0.260 A  
HETATM   30  F   UNL     1      -9.805   7.808  71.302  1.00  0.00    -0.171 F  
HETATM   31  F   UNL     1     -13.988   8.976  73.081  1.00  0.00    -0.377 F  
HETATM   32  C   UNL     1     -13.079  10.304  71.361  1.00  0.00    -0.512 A  
HETATM   33  C   UNL     1     -12.036  10.550  70.477  1.00  0.00    -0.342 A  
HETATM   34  F   UNL     1     -12.063  11.665  69.737  1.00  0.00    -0.328 F  
ENDBRANCH  25  26
ENDBRANCH  24  25
ENDBRANCH   9  21
TORSDOF 3
ENDMDL
MODEL       11
REMARK 921   NORMALIZED FREE ENERGY PREDICTED BY IDOCK:   -7.90 KCAL/MOL
REMARK 922        TOTAL FREE ENERGY PREDICTED BY IDOCK:  -10.02 KCAL/MOL
REMARK 923 INTER-LIGAND FREE ENERGY PREDICTED BY IDOCK:   -9.37 KCAL/MOL
REMARK 924 INTRA-LIGAND FREE ENERGY PREDICTED BY IDOCK:   -0.66 KCAL/MOL
REMARK 927      BINDING AFFINITY PREDICTED BY RF-SCORE:    0.00 PKD
ROOT
HETATM    1  O   UNL     1     -12.115  13.466  68.861  1.00  0.00    -0.331 OA 
HETATM    2  H   UNL     1     -12.310  12.585  69.159  1.00  0.00     0.000 HD 
HETATM    3  C   UNL     1     -11.880  13.883  67.563  1.00  0.00    -0.396 C  
HETATM    4  C   UNL     1     -11.601  15.137  67.139  1.00  0.00    -0.199 C  
HETATM    5  N   UNL     1     -11.352  15.414  65.780  1.00  0.00    -0.191 NA 
HETATM    6  C   UNL     1     -10.542  16.553  65.348  1.00  0.00    -0.276 C  
HETATM    7  C   UNL     1     -11.585  14.407  64.838  1.00  0.00    -0.395 C  
HETATM    8  C   UNL     1     -10.526  17.723  66.326  1.00  0.00    -0.307 C  
HETATM    9  C   UNL     1     -11.800  13.107  65.115  1.00  0.00    -0.392 C  
HETATM   10  C   UNL     1     -11.602  12.817  66.561  1.00  0.00    -0.376 C  
HETATM   11  O   UNL     1      -9.113  18.528  66.002  1.00  0.00    -0.495 OA 
HETATM   12  C   UNL     1      -8.131  18.983  68.705  1.00  0.00    -0.372 C  
HETATM   13  C   UNL     1      -8.447  19.403  67.089  1.00  0.00    -0.289 C  
HETATM   14  N   UNL     1     -10.736  17.318  67.935  1.00  0.00    -0.375 N  
HETATM   15  O   UNL     1     -11.078  11.790  66.983  1.00  0.00    -0.271 OA 
HETATM   16  C   UNL     1     -11.406  16.150  68.252  1.00  0.00    -0.316 C  
HETATM   17  C   UNL     1      -9.572  17.792  69.073  1.00  0.00    -0.137 C  
HETATM   18  C   UNL     1      -9.607  19.253  67.828  1.00  0.00    -0.395 C  
HETATM   19  C   UNL     1      -8.785  17.477  67.972  1.00  0.00    -0.254 C  
HETATM   20  O   UNL     1     -11.646  15.854  69.425  1.00  0.00    -0.337 OA 
ENDROOT
BRANCH   9  21
HETATM   21  C   UNL     1     -12.029  12.184  63.948  1.00  0.00    -0.486 C  
HETATM   22  H   UNL     1     -11.375  10.533  62.899  1.00  0.00     0.000 HD 
HETATM   23  O   UNL     1     -13.123  12.168  63.379  1.00  0.00    -0.752 OA 
HETATM   24  N   UNL     1     -11.081  11.299  63.504  1.00  0.00    -0.303 N  
BRANCH  24  25
HETATM   25  C   UNL     1      -9.697  11.402  63.852  1.00  0.00    -0.270 C  
BRANCH  25  26
HETATM   26  C   UNL     1      -8.862  10.177  63.948  1.00  0.00    -0.248 A  
HETATM   27  C   UNL     1      -6.731   9.108  63.475  1.00  0.00    -0.090 A  
HETATM   28  C   UNL     1      -7.006   8.168  64.459  1.00  0.00    -0.075 A  
HETATM   29  C   UNL     1      -7.665  10.103  63.227  1.00  0.00    -0.151 A  
HETATM   30  F   UNL     1      -7.360  11.054  62.332  1.00  0.00    -0.158 F  
HETATM   31  F   UNL     1      -6.099   7.222  64.729  1.00  0.00    -0.035 F  
HETATM   32  C   UNL     1      -8.187   8.209  65.190  1.00  0.00    -0.156 A  
HETATM   33  C   UNL     1      -9.107   9.218  64.930  1.00  0.00    -0.170 A  
HETATM   34  F   UNL     1     -10.200   9.313  65.698  1.00  0.00    -0.369 F  
ENDBRANCH  25  26
ENDBRANCH  24  25
ENDBRANCH   9  21
TORSDOF 3
ENDMDL
MODEL       12
REMARK 921   NORMALIZED FREE ENERGY PREDICTED BY IDOCK:   -7.84 KCAL/MOL
REMARK 922        TOTAL FREE ENERGY PREDICTED BY IDOCK:   -9.96 KCAL/MOL
REMARK 923 INTER-LIGAND FREE ENERGY PREDICTED BY IDOCK:   -9.57 KCAL/MOL
REMARK 924 INTRA-LIGAND FREE ENERGY PREDICTED BY IDOCK:   -0.39 KCAL/MOL
REMARK 927      BINDING AFFINITY PREDICTED BY RF-SCORE:    0.00 PKD
ROOT
HETATM    1  O   UNL     1     -12.448  14.868  63.829  1.00  0.00    -1.048 OA 
HETATM    2  H   UNL     1     -13.129  14.378  63.381  1.00  0.00     0.000 HD 
HETATM    3  C   UNL     1     -11.632  14.428  64.855  1.00  0.00    -0.395 C  
HETATM    4  C   UNL     1     -10.663  15.126  65.492  1.00  0.00    -0.365 C  
HETATM    5  N   UNL     1      -9.924  14.556  66.548  1.00  0.00    -0.270 NA 
HETATM    6  C   UNL     1      -9.298  15.368  67.593  1.00  0.00    -0.203 C  
HETATM    7  C   UNL     1     -10.070  13.190  66.808  1.00  0.00    -0.253 C  
HETATM    8  C   UNL     1      -8.945  16.788  67.162  1.00  0.00    -0.218 C  
HETATM    9  C   UNL     1     -11.030  12.393  66.304  1.00  0.00    -0.323 C  
HETATM   10  C   UNL     1     -12.044  13.174  65.543  1.00  0.00    -0.442 C  
HETATM   11  O   UNL     1      -8.912  17.662  68.571  1.00  0.00    -0.283 OA 
HETATM   12  C   UNL     1     -10.395  20.033  67.759  1.00  0.00    -0.506 C  
HETATM   13  C   UNL     1      -9.146  19.190  68.546  1.00  0.00    -0.371 C  
HETATM   14  N   UNL     1      -9.918  17.439  65.969  1.00  0.00    -0.254 N  
HETATM   15  O   UNL     1     -13.247  12.930  65.566  1.00  0.00    -0.340 OA 
HETATM   16  C   UNL     1     -10.578  16.588  65.101  1.00  0.00    -0.215 C  
HETATM   17  C   UNL     1     -10.713  18.910  66.251  1.00  0.00    -0.363 C  
HETATM   18  C   UNL     1      -9.039  19.119  67.168  1.00  0.00    -0.324 C  
HETATM   19  C   UNL     1     -10.791  18.298  67.497  1.00  0.00    -0.282 C  
HETATM   20  O   UNL     1     -11.245  17.031  64.162  1.00  0.00    -1.130 OA 
ENDROOT
BRANCH   9  21
HETATM   21  C   UNL     1     -11.007  10.945  66.713  1.00  0.00    -0.185 C  
HETATM   22  H   UNL     1      -9.980   9.156  66.673  1.00  0.00     0.000 HD 
HETATM   23  O   UNL     1     -11.768  10.539  67.594  1.00  0.00    -0.401 OA 
HETATM   24  N   UNL     1     -10.127  10.038  66.181  1.00  0.00    -0.254 N  
BRANCH  24  25
HETATM   25  C   UNL     1      -9.405  10.272  64.969  1.00  0.00    -0.237 C  
BRANCH  25  26
HETATM   26  C   UNL     1      -8.202   9.460  64.651  1.00  0.00    -0.148 A  
HETATM   27  C   UNL     1      -6.294   8.210  65.490  1.00  0.00    -0.048 A  
HETATM   28  C   UNL     1      -6.220   7.544  64.275  1.00  0.00    -0.048 A  
HETATM   29  C   UNL     1      -7.285   9.165  65.665  1.00  0.00    -0.082 A  
HETATM   30  F   UNL     1      -7.402   9.749  66.868  1.00  0.00    -0.088 F  
HETATM   31  F   UNL     1      -5.289   6.598  64.105  1.00  0.00    -0.023 F  
HETATM   32  C   UNL     1      -7.112   7.816  63.244  1.00  0.00    -0.075 A  
HETATM   33  C   UNL     1      -8.101   8.772  63.443  1.00  0.00    -0.170 A  
HETATM   34  F   UNL     1      -9.016   8.966  62.485  1.00  0.00    -0.224 F  
ENDBRANCH  25  26
ENDBRANCH  24  25
ENDBRANCH   9  21
TORSDOF 3
ENDMDL
MODEL       13
REMARK 921   NORMALIZED FREE ENERGY PREDICTED BY IDOCK:   -7.77 KCAL/MOL
REMARK 922        TOTAL FREE ENERGY PREDICTED BY IDOCK:   -9.87 KCAL/MOL
REMARK 923 INTER-LIGAND FREE ENERGY PREDICTED BY IDOCK:   -8.88 KCAL/MOL
REMARK 924 INTRA-LIGAND FREE ENERGY PREDICTED BY IDOCK:   -0.99 KCAL/MOL
REMARK 927      BINDING AFFINITY PREDICTED BY RF-SCORE:    0.00 PKD
ROOT
HETATM    1  O   UNL     1     -11.234  16.846  64.439  1.00  0.00    -1.192 OA 
HETATM    2  H   UNL     1     -11.099  17.618  63.900  1.00  0.00     0.000 HD 
HETATM    3  C   UNL     1     -10.910  16.686  65.774  1.00  0.00    -0.104 C  
HETATM    4  C   UNL     1     -11.101  15.587  66.541  1.00  0.00    -0.182 C  
HETATM    5  N   UNL     1     -10.691  15.554  67.889  1.00  0.00    -0.285 NA 
HETATM    6  C   UNL     1     -10.364  14.305  68.577  1.00  0.00    -0.244 C  
HETATM    7  C   UNL     1     -10.256  16.741  68.486  1.00  0.00    -0.298 C  
HETATM    8  C   UNL     1     -11.067  13.073  68.017  1.00  0.00    -0.288 C  
HETATM    9  C   UNL     1      -9.958  17.883  67.839  1.00  0.00    -0.329 C  
HETATM   10  C   UNL     1      -9.989  17.697  66.363  1.00  0.00    -0.334 C  
HETATM   11  O   UNL     1     -10.093  11.800  68.443  1.00  0.00    -0.192 OA 
HETATM   12  C   UNL     1     -10.035  10.316  65.938  1.00  0.00    -0.321 C  
HETATM   13  C   UNL     1     -10.125  10.486  67.626  1.00  0.00    -0.179 C  
HETATM   14  N   UNL     1     -11.443  13.139  66.389  1.00  0.00    -0.320 N  
HETATM   15  O   UNL     1      -9.190  18.225  65.594  1.00  0.00    -0.295 OA 
HETATM   16  C   UNL     1     -11.609  14.373  65.787  1.00  0.00    -0.353 C  
HETATM   17  C   UNL     1     -10.880  11.921  65.352  1.00  0.00    -0.343 C  
HETATM   18  C   UNL     1     -11.247  10.986  66.989  1.00  0.00    -0.255 C  
HETATM   19  C   UNL     1      -9.807  12.077  66.222  1.00  0.00    -0.250 C  
HETATM   20  O   UNL     1     -11.959  14.463  64.608  1.00  0.00    -0.417 OA 
ENDROOT
BRANCH   9  21
HETATM   21  C   UNL     1      -9.506  19.049  68.675  1.00  0.00    -0.405 C  
HETATM   22  H   UNL     1      -8.098  20.533  68.950  1.00  0.00     0.000 HD 
HETATM   23  O   UNL     1     -10.285  19.581  69.469  1.00  0.00    -0.234 OA 
HETATM   24  N   UNL     1      -8.256  19.603  68.562  1.00  0.00    -0.326 N  
BRANCH  24  25
HETATM   25  C   UNL     1      -7.164  18.935  67.924  1.00  0.00    -0.239 C  
BRANCH  25  26
HETATM   26  C   UNL     1      -6.485  17.802  68.605  1.00  0.00    -0.210 A  
HETATM   27  C   UNL     1      -5.535  16.922  70.662  1.00  0.00    -0.143 A  
HETATM   28  C   UNL     1      -5.665  15.639  70.150  1.00  0.00    -0.151 A  
HETATM   29  C   UNL     1      -5.944  17.993  69.882  1.00  0.00    -0.204 A  
HETATM   30  F   UNL     1      -5.890  19.224  70.411  1.00  0.00    -0.240 F  
HETATM   31  F   UNL     1      -5.303  14.595  70.905  1.00  0.00    -0.113 F  
HETATM   32  C   UNL     1      -6.194  15.414  68.884  1.00  0.00    -0.098 A  
HETATM   33  C   UNL     1      -6.604  16.500  68.122  1.00  0.00    -0.139 A  
HETATM   34  F   UNL     1      -7.198  16.278  66.942  1.00  0.00    -0.199 F  
ENDBRANCH  25  26
ENDBRANCH  24  25
ENDBRANCH   9  21
TORSDOF 3
ENDMDL
MODEL       14
REMARK 921   NORMALIZED FREE ENERGY PREDICTED BY IDOCK:   -7.76 KCAL/MOL
REMARK 922        TOTAL FREE ENERGY PREDICTED BY IDOCK:   -9.87 KCAL/MOL
REMARK 923 INTER-LIGAND FREE ENERGY PREDICTED BY IDOCK:   -9.21 KCAL/MOL
REMARK 924 INTRA-LIGAND FREE ENERGY PREDICTED BY IDOCK:   -0.66 KCAL/MOL
REMARK 927      BINDING AFFINITY PREDICTED BY RF-SCORE:    0.00 PKD
ROOT
HETATM    1  O   UNL     1      -9.677   9.242  65.110  1.00  0.00    -0.456 OA 
HETATM    2  H   UNL     1      -9.390   9.441  64.225  1.00  0.00     0.000 HD 
HETATM    3  C   UNL     1     -10.377  10.067  65.972  1.00  0.00    -0.152 C  
HETATM    4  C   UNL     1     -10.785   9.784  67.231  1.00  0.00    -0.227 C  
HETATM    5  N   UNL     1     -11.468  10.738  68.011  1.00  0.00    -0.464 NA 
HETATM    6  C   UNL     1     -11.444  10.716  69.474  1.00  0.00    -0.291 C  
HETATM    7  C   UNL     1     -11.892  11.923  67.401  1.00  0.00    -0.168 C  
HETATM    8  C   UNL     1     -11.212   9.336  70.080  1.00  0.00    -0.237 C  
HETATM    9  C   UNL     1     -11.508  12.364  66.189  1.00  0.00    -0.430 C  
HETATM   10  C   UNL     1     -10.432  11.511  65.614  1.00  0.00    -0.266 C  
HETATM   11  O   UNL     1     -10.569   9.634  71.579  1.00  0.00    -0.266 OA 
HETATM   12  C   UNL     1      -8.390   7.703  71.614  1.00  0.00    -0.118 C  
HETATM   13  C   UNL     1      -9.693   8.568  72.278  1.00  0.00    -0.310 C  
HETATM   14  N   UNL     1     -10.316   8.281  69.142  1.00  0.00    -0.216 N  
HETATM   15  O   UNL     1      -9.484  11.954  64.972  1.00  0.00    -0.149 OA 
HETATM   16  C   UNL     1     -10.292   8.456  67.770  1.00  0.00    -0.235 C  
HETATM   17  C   UNL     1      -8.914   7.577  69.786  1.00  0.00    -0.141 C  
HETATM   18  C   UNL     1     -10.098   7.684  71.293  1.00  0.00    -0.203 C  
HETATM   19  C   UNL     1      -8.864   8.860  70.321  1.00  0.00    -0.191 C  
HETATM   20  O   UNL     1      -9.704   7.655  67.038  1.00  0.00    -0.165 OA 
ENDROOT
BRANCH   9  21
HETATM   21  C   UNL     1     -12.085  13.671  65.717  1.00  0.00    -0.428 C  
HETATM   22  H   UNL     1     -11.719  15.638  65.212  1.00  0.00     0.000 HD 
HETATM   23  O   UNL     1     -13.208  13.703  65.209  1.00  0.00    -0.724 OA 
HETATM   24  N   UNL     1     -11.391  14.853  65.775  1.00  0.00    -0.337 N  
BRANCH  24  25
HETATM   25  C   UNL     1     -10.229  15.033  66.589  1.00  0.00    -0.268 C  
BRANCH  25  26
HETATM   26  C   UNL     1      -9.891  16.383  67.112  1.00  0.00    -0.249 A  
HETATM   27  C   UNL     1     -10.197  18.035  68.868  1.00  0.00    -0.320 A  
HETATM   28  C   UNL     1      -9.014  18.644  68.474  1.00  0.00    -0.334 A  
HETATM   29  C   UNL     1     -10.626  16.910  68.180  1.00  0.00    -0.360 A  
HETATM   30  F   UNL     1     -11.727  16.278  68.614  1.00  0.00    -0.364 F  
HETATM   31  F   UNL     1      -8.574  19.712  69.150  1.00  0.00    -0.382 F  
HETATM   32  C   UNL     1      -8.263  18.150  67.414  1.00  0.00    -0.236 A  
HETATM   33  C   UNL     1      -8.707  17.018  66.743  1.00  0.00    -0.245 A  
HETATM   34  F   UNL     1      -7.936  16.488  65.785  1.00  0.00    -0.276 F  
ENDBRANCH  25  26
ENDBRANCH  24  25
ENDBRANCH   9  21
TORSDOF 3
ENDMDL
MODEL       15
REMARK 921   NORMALIZED FREE ENERGY PREDICTED BY IDOCK:   -7.75 KCAL/MOL
REMARK 922        TOTAL FREE ENERGY PREDICTED BY IDOCK:   -9.86 KCAL/MOL
REMARK 923 INTER-LIGAND FREE ENERGY PREDICTED BY IDOCK:   -9.56 KCAL/MOL
REMARK 924 INTRA-LIGAND FREE ENERGY PREDICTED BY IDOCK:   -0.30 KCAL/MOL
REMARK 927      BINDING AFFINITY PREDICTED BY RF-SCORE:    0.00 PKD
ROOT
HETATM    1  O   UNL     1      -9.779   9.321  65.137  1.00  0.00    -0.456 OA 
HETATM    2  H   UNL     1      -9.571   9.750  64.314  1.00  0.00     0.000 HD 
HETATM    3  C   UNL     1     -10.371   9.885  66.253  1.00  0.00    -0.163 C  
HETATM    4  C   UNL     1     -10.667   9.275  67.424  1.00  0.00    -0.193 C  
HETATM    5  N   UNL     1     -11.248   9.985  68.494  1.00  0.00    -0.175 NA 
HETATM    6  C   UNL     1     -11.087   9.570  69.888  1.00  0.00    -0.216 C  
HETATM    7  C   UNL     1     -11.694  11.291  68.267  1.00  0.00    -0.274 C  
HETATM    8  C   UNL     1     -10.837   8.078  70.077  1.00  0.00    -0.235 C  
HETATM    9  C   UNL     1     -11.414  12.040  67.186  1.00  0.00    -0.401 C  
HETATM   10  C   UNL     1     -10.420  11.372  66.301  1.00  0.00    -0.255 C  
HETATM   11  O   UNL     1     -10.047   7.961  71.531  1.00  0.00    -0.176 OA 
HETATM   12  C   UNL     1      -7.928   6.089  70.835  1.00  0.00    -0.115 C  
HETATM   13  C   UNL     1      -9.139   6.745  71.830  1.00  0.00    -0.140 C  
HETATM   14  N   UNL     1     -10.062   7.313  68.808  1.00  0.00    -0.171 N  
HETATM   15  O   UNL     1      -9.525  11.970  65.711  1.00  0.00    -0.236 OA 
HETATM   16  C   UNL     1     -10.162   7.850  67.537  1.00  0.00    -0.242 C  
HETATM   17  C   UNL     1      -8.625   6.460  69.100  1.00  0.00    -0.125 C  
HETATM   18  C   UNL     1      -9.659   6.159  70.690  1.00  0.00    -0.195 C  
HETATM   19  C   UNL     1      -8.490   7.552  69.951  1.00  0.00    -0.138 C  
HETATM   20  O   UNL     1      -9.668   7.275  66.565  1.00  0.00    -0.186 OA 
ENDROOT
BRANCH   9  21
HETATM   21  C   UNL     1     -11.997  13.427  67.139  1.00  0.00    -0.366 C  
HETATM   22  H   UNL     1     -11.977  15.335  67.924  1.00  0.00     0.000 HD 
HETATM   23  O   UNL     1     -12.656  13.788  66.162  1.00  0.00    -0.438 OA 
HETATM   24  N   UNL     1     -11.786  14.354  68.128  1.00  0.00    -0.336 N  
BRANCH  24  25
HETATM   25  C   UNL     1     -11.311  14.007  69.431  1.00  0.00    -0.268 C  
BRANCH  25  26
HETATM   26  C   UNL     1     -11.964  14.580  70.637  1.00  0.00    -0.387 A  
HETATM   27  C   UNL     1     -13.144  14.163  72.721  1.00  0.00    -0.573 A  
HETATM   28  C   UNL     1     -12.787  15.432  73.154  1.00  0.00    -0.493 A  
HETATM   29  C   UNL     1     -12.730  13.749  71.463  1.00  0.00    -0.346 A  
HETATM   30  F   UNL     1     -13.009  12.494  71.081  1.00  0.00    -0.403 F  
HETATM   31  F   UNL     1     -13.153  15.830  74.378  1.00  0.00    -0.490 F  
HETATM   32  C   UNL     1     -12.032  16.284  72.357  1.00  0.00    -0.630 A  
HETATM   33  C   UNL     1     -11.623  15.848  71.103  1.00  0.00    -0.432 A  
HETATM   34  F   UNL     1     -10.817  16.632  70.375  1.00  0.00    -0.306 F  
ENDBRANCH  25  26
ENDBRANCH  24  25
ENDBRANCH   9  21
TORSDOF 3
ENDMDL
MODEL       16
REMARK 921   NORMALIZED FREE ENERGY PREDICTED BY IDOCK:   -7.74 KCAL/MOL
REMARK 922        TOTAL FREE ENERGY PREDICTED BY IDOCK:   -9.84 KCAL/MOL
REMARK 923 INTER-LIGAND FREE ENERGY PREDICTED BY IDOCK:   -8.83 KCAL/MOL
REMARK 924 INTRA-LIGAND FREE ENERGY PREDICTED BY IDOCK:   -1.02 KCAL/MOL
REMARK 927      BINDING AFFINITY PREDICTED BY RF-SCORE:    0.00 PKD
ROOT
HETATM    1  O   UNL     1     -11.292   6.479  67.308  1.00  0.00    -0.704 OA 
HETATM    2  H   UNL     1     -11.408   6.093  66.447  1.00  0.00     0.000 HD 
HETATM    3  C   UNL     1     -10.517   7.576  67.639  1.00  0.00    -0.250 C  
HETATM    4  C   UNL     1     -10.351   8.126  68.865  1.00  0.00    -0.211 C  
HETATM    5  N   UNL     1      -9.502   9.233  69.063  1.00  0.00    -0.153 NA 
HETATM    6  C   UNL     1      -8.867   9.512  70.351  1.00  0.00    -0.234 C  
HETATM    7  C   UNL     1      -8.975   9.882  67.942  1.00  0.00    -0.128 C  
HETATM    8  C   UNL     1      -9.628   8.975  71.559  1.00  0.00    -0.340 C  
HETATM    9  C   UNL     1      -9.002   9.416  66.679  1.00  0.00    -0.170 C  
HETATM   10  C   UNL     1      -9.526   8.024  66.622  1.00  0.00    -0.212 C  
HETATM   11  O   UNL     1      -8.477   8.797  72.740  1.00  0.00    -0.414 OA 
HETATM   12  C   UNL     1      -9.177   6.165  73.770  1.00  0.00    -0.133 C  
HETATM   13  C   UNL     1      -8.692   7.789  73.893  1.00  0.00    -0.267 C  
HETATM   14  N   UNL     1     -10.546   7.606  71.279  1.00  0.00    -0.218 N  
HETATM   15  O   UNL     1      -9.082   7.161  65.872  1.00  0.00    -0.122 OA 
HETATM   16  C   UNL     1     -10.998   7.351  69.996  1.00  0.00    -0.248 C  
HETATM   17  C   UNL     1     -10.287   6.220  72.221  1.00  0.00    -0.216 C  
HETATM   18  C   UNL     1      -9.999   7.665  73.453  1.00  0.00    -0.373 C  
HETATM   19  C   UNL     1      -8.994   6.707  72.065  1.00  0.00    -0.139 C  
HETATM   20  O   UNL     1     -11.739   6.393  69.763  1.00  0.00    -0.414 OA 
ENDROOT
BRANCH   9  21
HETATM   21  C   UNL     1      -8.376  10.276  65.615  1.00  0.00    -0.158 C  
HETATM   22  H   UNL     1      -8.499  12.010  64.503  1.00  0.00     0.000 HD 
HETATM   23  O   UNL     1      -7.202  10.096  65.286  1.00  0.00    -0.132 OA 
HETATM   24  N   UNL     1      -9.042  11.312  65.011  1.00  0.00    -0.130 N  
BRANCH  24  25
HETATM   25  C   UNL     1     -10.464  11.457  65.061  1.00  0.00    -0.303 C  
BRANCH  25  26
HETATM   26  C   UNL     1     -11.071  12.570  65.837  1.00  0.00    -0.334 A  
HETATM   27  C   UNL     1     -11.993  13.325  67.955  1.00  0.00    -0.351 A  
HETATM   28  C   UNL     1     -11.760  14.637  67.567  1.00  0.00    -0.379 A  
HETATM   29  C   UNL     1     -11.648  12.303  67.084  1.00  0.00    -0.353 A  
HETATM   30  F   UNL     1     -11.801  11.035  67.496  1.00  0.00    -0.318 F  
HETATM   31  F   UNL     1     -12.058  15.630  68.411  1.00  0.00    -0.344 F  
HETATM   32  C   UNL     1     -11.193  14.937  66.333  1.00  0.00    -0.331 A  
HETATM   33  C   UNL     1     -10.849  13.898  65.478  1.00  0.00    -0.306 A  
HETATM   34  F   UNL     1     -10.218  14.183  64.332  1.00  0.00    -0.442 F  
ENDBRANCH  25  26
ENDBRANCH  24  25
ENDBRANCH   9  21
TORSDOF 3
ENDMDL
MODEL       17
REMARK 921   NORMALIZED FREE ENERGY PREDICTED BY IDOCK:   -7.65 KCAL/MOL
REMARK 922        TOTAL FREE ENERGY PREDICTED BY IDOCK:   -9.74 KCAL/MOL
REMARK 923 INTER-LIGAND FREE ENERGY PREDICTED BY IDOCK:   -8.99 KCAL/MOL
REMARK 924 INTRA-LIGAND FREE ENERGY PREDICTED BY IDOCK:   -0.74 KCAL/MOL
REMARK 927      BINDING AFFINITY PREDICTED BY RF-SCORE:    0.00 PKD
ROOT
HETATM    1  O   UNL     1      -9.420   9.036  64.938  1.00  0.00    -0.435 OA 
HETATM    2  H   UNL     1      -9.079   9.189  64.064  1.00  0.00     0.000 HD 
HETATM    3  C   UNL     1     -10.151   9.913  65.720  1.00  0.00    -0.247 C  
HETATM    4  C   UNL     1     -10.636   9.696  66.964  1.00  0.00    -0.197 C  
HETATM    5  N   UNL     1     -11.343  10.698  67.660  1.00  0.00    -0.448 NA 
HETATM    6  C   UNL     1     -11.403  10.743  69.121  1.00  0.00    -0.282 C  
HETATM    7  C   UNL     1     -11.706  11.861  66.974  1.00  0.00    -0.227 C  
HETATM    8  C   UNL     1     -11.235   9.388  69.802  1.00  0.00    -0.139 C  
HETATM    9  C   UNL     1     -11.244  12.238  65.768  1.00  0.00    -0.378 C  
HETATM   10  C   UNL     1     -10.154  11.340  65.295  1.00  0.00    -0.267 C  
HETATM   11  O   UNL     1     -10.672   9.743  71.321  1.00  0.00    -0.304 OA 
HETATM   12  C   UNL     1      -8.540   7.776  71.569  1.00  0.00    -0.133 C  
HETATM   13  C   UNL     1      -9.861   8.694  72.116  1.00  0.00    -0.317 C  
HETATM   14  N   UNL     1     -10.309   8.274  68.966  1.00  0.00    -0.221 N  
HETATM   15  O   UNL     1      -9.162  11.735  64.690  1.00  0.00     0.021 OA 
HETATM   16  C   UNL     1     -10.203   8.385  67.591  1.00  0.00    -0.236 C  
HETATM   17  C   UNL     1      -8.961   7.575  69.721  1.00  0.00    -0.141 C  
HETATM   18  C   UNL     1     -10.228   7.773  71.151  1.00  0.00    -0.214 C  
HETATM   19  C   UNL     1      -8.915   8.880  70.200  1.00  0.00    -0.183 C  
HETATM   20  O   UNL     1      -9.591   7.541  66.932  1.00  0.00    -0.164 OA 
ENDROOT
BRANCH   9  21
HETATM   21  C   UNL     1     -11.765  13.532  65.204  1.00  0.00    -0.322 C  
HETATM   22  H   UNL     1     -11.313  15.435  64.548  1.00  0.00     0.000 HD 
HETATM   23  O   UNL     1     -12.892  13.581  64.708  1.00  0.00    -0.677 OA 
HETATM   24  N   UNL     1     -11.015  14.680  65.165  1.00  0.00    -0.361 N  
BRANCH  24  25
HETATM   25  C   UNL     1      -9.834  14.865  65.950  1.00  0.00    -0.332 C  
BRANCH  25  26
HETATM   26  C   UNL     1      -9.772  15.959  66.953  1.00  0.00    -0.241 A  
HETATM   27  C   UNL     1      -8.882  18.138  67.556  1.00  0.00    -0.256 A  
HETATM   28  C   UNL     1      -9.916  18.287  68.470  1.00  0.00    -0.393 A  
HETATM   29  C   UNL     1      -8.819  16.973  66.808  1.00  0.00    -0.242 A  
HETATM   30  F   UNL     1      -7.865  16.867  65.870  1.00  0.00    -0.339 F  
HETATM   31  F   UNL     1     -10.005  19.420  69.175  1.00  0.00    -0.456 F  
HETATM   32  C   UNL     1     -10.877  17.298  68.644  1.00  0.00    -0.199 A  
HETATM   33  C   UNL     1     -10.799  16.140  67.879  1.00  0.00    -0.332 A  
HETATM   34  F   UNL     1     -11.776  15.230  67.979  1.00  0.00    -0.332 F  
ENDBRANCH  25  26
ENDBRANCH  24  25
ENDBRANCH   9  21
TORSDOF 3
ENDMDL
MODEL       18
REMARK 921   NORMALIZED FREE ENERGY PREDICTED BY IDOCK:   -7.63 KCAL/MOL
REMARK 922        TOTAL FREE ENERGY PREDICTED BY IDOCK:   -9.71 KCAL/MOL
REMARK 923 INTER-LIGAND FREE ENERGY PREDICTED BY IDOCK:   -9.16 KCAL/MOL
REMARK 924 INTRA-LIGAND FREE ENERGY PREDICTED BY IDOCK:   -0.55 KCAL/MOL
REMARK 927      BINDING AFFINITY PREDICTED BY RF-SCORE:    0.00 PKD
ROOT
HETATM    1  O   UNL     1     -12.085  16.590  69.481  1.00  0.00    -0.104 OA 
HETATM    2  H   UNL     1     -12.770  16.228  70.032  1.00  0.00     0.000 HD 
HETATM    3  C   UNL     1     -11.400  15.953  68.462  1.00  0.00    -0.374 C  
HETATM    4  C   UNL     1     -10.425  16.469  67.678  1.00  0.00    -0.305 C  
HETATM    5  N   UNL     1      -9.788  15.689  66.692  1.00  0.00    -0.234 NA 
HETATM    6  C   UNL     1      -8.432  15.975  66.223  1.00  0.00    -0.302 C  
HETATM    7  C   UNL     1     -10.307  14.424  66.399  1.00  0.00    -0.287 C  
HETATM    8  C   UNL     1      -8.013  17.436  66.354  1.00  0.00    -0.325 C  
HETATM    9  C   UNL     1     -11.222  13.762  67.131  1.00  0.00    -0.327 C  
HETATM   10  C   UNL     1     -11.516  14.469  68.407  1.00  0.00    -0.302 C  
HETATM   11  O   UNL     1      -6.357  17.398  66.425  1.00  0.00    -0.200 OA 
HETATM   12  C   UNL     1      -5.878  19.248  68.621  1.00  0.00    -0.233 C  
HETATM   13  C   UNL     1      -5.579  18.551  67.101  1.00  0.00    -0.133 C  
HETATM   14  N   UNL     1      -8.738  18.281  67.601  1.00  0.00    -0.254 N  
HETATM   15  O   UNL     1     -11.709  13.894  69.475  1.00  0.00    -0.274 OA 
HETATM   16  C   UNL     1      -9.969  17.860  68.073  1.00  0.00    -0.333 C  
HETATM   17  C   UNL     1      -7.769  19.054  68.759  1.00  0.00    -0.382 C  
HETATM   18  C   UNL     1      -6.772  19.252  67.130  1.00  0.00    -0.204 C  
HETATM   19  C   UNL     1      -7.051  17.889  68.515  1.00  0.00    -0.254 C  
HETATM   20  O   UNL     1     -10.569  18.500  68.940  1.00  0.00    -0.073 OA 
ENDROOT
BRANCH   9  21
HETATM   21  C   UNL     1     -11.648  12.406  66.637  1.00  0.00    -0.385 C  
HETATM   22  H   UNL     1     -11.856  10.399  67.067  1.00  0.00     0.000 HD 
HETATM   23  O   UNL     1     -12.353  12.309  65.630  1.00  0.00    -0.619 OA 
HETATM   24  N   UNL     1     -11.331  11.244  67.292  1.00  0.00    -0.295 N  
BRANCH  24  25
HETATM   25  C   UNL     1     -10.297  11.164  68.277  1.00  0.00    -0.180 C  
BRANCH  25  26
HETATM   26  C   UNL     1     -10.437  10.234  69.428  1.00  0.00    -0.259 A  
HETATM   27  C   UNL     1      -9.328   8.865  71.103  1.00  0.00    -0.326 A  
HETATM   28  C   UNL     1     -10.490   8.885  71.860  1.00  0.00    -0.345 A  
HETATM   29  C   UNL     1      -9.314   9.539  69.890  1.00  0.00    -0.223 A  
HETATM   30  F   UNL     1      -8.164   9.584  69.199  1.00  0.00    -0.095 F  
HETATM   31  F   UNL     1     -10.506   8.266  73.046  1.00  0.00    -0.386 F  
HETATM   32  C   UNL     1     -11.625   9.561  71.428  1.00  0.00    -0.466 A  
HETATM   33  C   UNL     1     -11.588  10.234  70.213  1.00  0.00    -0.316 A  
HETATM   34  F   UNL     1     -12.649  10.962  69.843  1.00  0.00    -0.364 F  
ENDBRANCH  25  26
ENDBRANCH  24  25
ENDBRANCH   9  21
TORSDOF 3
ENDMDL
MODEL       19
REMARK 921   NORMALIZED FREE ENERGY PREDICTED BY IDOCK:   -7.59 KCAL/MOL
REMARK 922        TOTAL FREE ENERGY PREDICTED BY IDOCK:   -9.66 KCAL/MOL
REMARK 923 INTER-LIGAND FREE ENERGY PREDICTED BY IDOCK:   -8.81 KCAL/MOL
REMARK 924 INTRA-LIGAND FREE ENERGY PREDICTED BY IDOCK:   -0.85 KCAL/MOL
REMARK 927      BINDING AFFINITY PREDICTED BY RF-SCORE:    0.00 PKD
ROOT
HETATM    1  O   UNL     1      -6.814  14.263  68.989  1.00  0.00    -0.098 OA 
HETATM    2  H   UNL     1      -6.738  13.319  68.917  1.00  0.00     0.000 HD 
HETATM    3  C   UNL     1      -7.940  15.035  68.761  1.00  0.00    -0.162 C  
HETATM    4  C   UNL     1      -8.049  16.380  68.863  1.00  0.00    -0.236 C  
HETATM    5  N   UNL     1      -9.259  17.041  68.570  1.00  0.00    -0.259 NA 
HETATM    6  C   UNL     1      -9.303  18.437  68.133  1.00  0.00    -0.317 C  
HETATM    7  C   UNL     1     -10.408  16.273  68.356  1.00  0.00    -0.271 C  
HETATM    8  C   UNL     1      -8.127  19.284  68.607  1.00  0.00    -0.405 C  
HETATM    9  C   UNL     1     -10.437  14.941  68.165  1.00  0.00    -0.242 C  
HETATM   10  C   UNL     1      -9.066  14.376  68.043  1.00  0.00    -0.188 C  
HETATM   11  O   UNL     1      -8.023  20.520  67.506  1.00  0.00    -0.314 OA 
HETATM   12  C   UNL     1      -5.151  20.567  67.029  1.00  0.00    -0.181 C  
HETATM   13  C   UNL     1      -6.682  21.258  67.286  1.00  0.00    -0.311 C  
HETATM   14  N   UNL     1      -6.695  18.454  68.848  1.00  0.00    -0.252 N  
HETATM   15  O   UNL     1      -8.767  13.477  67.263  1.00  0.00    -0.205 OA 
HETATM   16  C   UNL     1      -6.742  17.100  69.131  1.00  0.00    -0.238 C  
HETATM   17  C   UNL     1      -5.294  18.953  68.035  1.00  0.00    -0.172 C  
HETATM   18  C   UNL     1      -6.210  20.599  68.408  1.00  0.00    -0.365 C  
HETATM   19  C   UNL     1      -6.275  19.162  67.072  1.00  0.00    -0.179 C  
HETATM   20  O   UNL     1      -5.714  16.470  69.389  1.00  0.00    -0.142 OA 
ENDROOT
BRANCH   9  21
HETATM   21  C   UNL     1     -11.785  14.306  67.952  1.00  0.00    -0.359 C  
HETATM   22  H   UNL     1     -13.519  13.603  68.822  1.00  0.00     0.000 HD 
HETATM   23  O   UNL     1     -12.291  14.291  66.828  1.00  0.00    -0.429 OA 
HETATM   24  N   UNL     1     -12.525  13.775  68.977  1.00  0.00    -0.046 N  
BRANCH  24  25
HETATM   25  C   UNL     1     -11.967  13.452  70.254  1.00  0.00    -0.308 C  
BRANCH  25  26
HETATM   26  C   UNL     1     -12.081  12.069  70.786  1.00  0.00    -0.297 A  
HETATM   27  C   UNL     1     -13.379  10.473  72.079  1.00  0.00    -0.420 A  
HETATM   28  C   UNL     1     -12.700   9.440  71.450  1.00  0.00    -0.345 A  
HETATM   29  C   UNL     1     -13.061  11.780  71.742  1.00  0.00    -0.375 A  
HETATM   30  F   UNL     1     -13.775  12.772  72.294  1.00  0.00    -0.572 F  
HETATM   31  F   UNL     1     -13.020   8.174  71.743  1.00  0.00    -0.309 F  
HETATM   32  C   UNL     1     -11.717   9.692  70.499  1.00  0.00    -0.312 A  
HETATM   33  C   UNL     1     -11.418  11.009  70.172  1.00  0.00    -0.296 A  
HETATM   34  F   UNL     1     -10.540  11.249  69.190  1.00  0.00    -0.212 F  
ENDBRANCH  25  26
ENDBRANCH  24  25
ENDBRANCH   9  21
TORSDOF 3
ENDMDL
MODEL       20
REMARK 921   NORMALIZED FREE ENERGY PREDICTED BY IDOCK:   -7.56 KCAL/MOL
REMARK 922        TOTAL FREE ENERGY PREDICTED BY IDOCK:   -9.63 KCAL/MOL
REMARK 923 INTER-LIGAND FREE ENERGY PREDICTED BY IDOCK:   -8.70 KCAL/MOL
REMARK 924 INTRA-LIGAND FREE ENERGY PREDICTED BY IDOCK:   -0.93 KCAL/MOL
REMARK 927      BINDING AFFINITY PREDICTED BY RF-SCORE:    0.00 PKD
ROOT
HETATM    1  O   UNL     1     -11.178  10.859  70.567  1.00  0.00    -0.449 OA 
HETATM    2  H   UNL     1     -10.971  10.419  71.384  1.00  0.00     0.000 HD 
HETATM    3  C   UNL     1     -10.872  10.439  69.285  1.00  0.00    -0.241 C  
HETATM    4  C   UNL     1     -11.165  11.066  68.122  1.00  0.00    -0.302 C  
HETATM    5  N   UNL     1     -10.762  10.534  66.881  1.00  0.00    -0.243 NA 
HETATM    6  C   UNL     1     -10.553  11.372  65.700  1.00  0.00    -0.258 C  
HETATM    7  C   UNL     1     -10.218   9.246  66.849  1.00  0.00    -0.256 C  
HETATM    8  C   UNL     1     -11.367  12.662  65.689  1.00  0.00    -0.357 C  
HETATM    9  C   UNL     1      -9.814   8.537  67.919  1.00  0.00    -0.208 C  
HETATM   10  C   UNL     1      -9.861   9.353  69.163  1.00  0.00    -0.174 C  
HETATM   11  O   UNL     1     -10.517  13.692  64.706  1.00  0.00    -0.387 OA 
HETATM   12  C   UNL     1     -10.596  16.129  66.297  1.00  0.00    -0.276 C  
HETATM   13  C   UNL     1     -10.671  15.223  64.862  1.00  0.00    -0.400 C  
HETATM   14  N   UNL     1     -11.734  13.291  67.194  1.00  0.00    -0.356 N  
HETATM   15  O   UNL     1      -9.016   9.288  70.051  1.00  0.00    -0.163 OA 
HETATM   16  C   UNL     1     -11.783  12.441  68.285  1.00  0.00    -0.345 C  
HETATM   17  C   UNL     1     -11.286  14.884  67.565  1.00  0.00    -0.351 C  
HETATM   18  C   UNL     1     -11.741  14.965  65.701  1.00  0.00    -0.194 C  
HETATM   19  C   UNL     1     -10.204  14.449  66.808  1.00  0.00    -0.270 C  
HETATM   20  O   UNL     1     -12.123  12.853  69.396  1.00  0.00    -0.275 OA 
ENDROOT
BRANCH   9  21
HETATM   21  C   UNL     1      -9.256   7.163  67.664  1.00  0.00    -0.125 C  
HETATM   22  H   UNL     1      -9.630   5.136  67.581  1.00  0.00     0.000 HD 
HETATM   23  O   UNL     1      -8.177   7.033  67.082  1.00  0.00    -0.115 OA 
HETATM   24  N   UNL     1      -9.924   6.015  68.006  1.00  0.00    -0.133 N  
BRANCH  24  25
HETATM   25  C   UNL     1     -11.014   5.996  68.931  1.00  0.00    -0.325 C  
BRANCH  25  26
HETATM   26  C   UNL     1     -10.756   5.783  70.379  1.00  0.00    -0.372 A  
HETATM   27  C   UNL     1     -11.372   6.314  72.670  1.00  0.00    -0.283 A  
HETATM   28  C   UNL     1     -10.744   5.150  73.088  1.00  0.00    -0.265 A  
HETATM   29  C   UNL     1     -11.370   6.621  71.317  1.00  0.00    -0.299 A  
HETATM   30  F   UNL     1     -12.046   7.705  70.908  1.00  0.00    -0.312 F  
HETATM   31  F   UNL     1     -10.766   4.827  74.386  1.00  0.00    -0.292 F  
HETATM   32  C   UNL     1     -10.120   4.298  72.184  1.00  0.00    -0.255 A  
HETATM   33  C   UNL     1     -10.135   4.621  70.833  1.00  0.00    -0.187 A  
HETATM   34  F   UNL     1      -9.617   3.754  69.953  1.00  0.00    -0.223 F  
ENDBRANCH  25  26
ENDBRANCH  24  25
ENDBRANCH   9  21
TORSDOF 3
ENDMDL
MODEL       21
REMARK 921   NORMALIZED FREE ENERGY PREDICTED BY IDOCK:   -7.53 KCAL/MOL
REMARK 922        TOTAL FREE ENERGY PREDICTED BY IDOCK:   -9.59 KCAL/MOL
REMARK 923 INTER-LIGAND FREE ENERGY PREDICTED BY IDOCK:   -9.02 KCAL/MOL
REMARK 924 INTRA-LIGAND FREE ENERGY PREDICTED BY IDOCK:   -0.57 KCAL/MOL
REMARK 927      BINDING AFFINITY PREDICTED BY RF-SCORE:    0.00 PKD
ROOT
HETATM    1  O   UNL     1     -13.153  10.825  69.325  1.00  0.00    -0.365 OA 
HETATM    2  H   UNL     1     -13.669  11.253  68.651  1.00  0.00     0.000 HD 
HETATM    3  C   UNL     1     -11.775  10.730  69.395  1.00  0.00    -0.306 C  
HETATM    4  C   UNL     1     -11.040  10.121  70.354  1.00  0.00    -0.324 C  
HETATM    5  N   UNL     1      -9.633  10.075  70.282  1.00  0.00    -0.124 NA 
HETATM    6  C   UNL     1      -8.850   9.022  70.928  1.00  0.00    -0.240 C  
HETATM    7  C   UNL     1      -8.988  10.835  69.301  1.00  0.00    -0.030 C  
HETATM    8  C   UNL     1      -9.519   8.395  72.147  1.00  0.00    -0.360 C  
HETATM    9  C   UNL     1      -9.583  11.432  68.252  1.00  0.00    -0.192 C  
HETATM   10  C   UNL     1     -11.020  11.058  68.154  1.00  0.00    -0.247 C  
HETATM   11  O   UNL     1      -8.841   6.887  72.274  1.00  0.00    -0.134 OA 
HETATM   12  C   UNL     1     -11.217   5.276  72.758  1.00  0.00    -0.347 C  
HETATM   13  C   UNL     1      -9.602   5.748  72.992  1.00  0.00    -0.150 C  
HETATM   14  N   UNL     1     -11.191   8.400  72.129  1.00  0.00    -0.335 N  
HETATM   15  O   UNL     1     -11.599  10.854  67.091  1.00  0.00    -0.431 OA 
HETATM   16  C   UNL     1     -11.853   9.358  71.382  1.00  0.00    -0.374 C  
HETATM   17  C   UNL     1     -12.031   6.937  72.298  1.00  0.00    -0.244 C  
HETATM   18  C   UNL     1     -10.496   6.709  73.429  1.00  0.00    -0.313 C  
HETATM   19  C   UNL     1     -10.942   6.554  71.524  1.00  0.00    -0.298 C  
HETATM   20  O   UNL     1     -13.083   9.441  71.403  1.00  0.00    -0.341 OA 
ENDROOT
BRANCH   9  21
HETATM   21  C   UNL     1      -8.701  12.206  67.310  1.00  0.00    -0.182 C  
HETATM   22  H   UNL     1      -8.095  14.064  66.647  1.00  0.00     0.000 HD 
HETATM   23  O   UNL     1      -7.757  11.648  66.748  1.00  0.00    -0.156 OA 
HETATM   24  N   UNL     1      -8.863  13.548  67.076  1.00  0.00    -0.224 N  
BRANCH  24  25
HETATM   25  C   UNL     1     -10.061  14.257  67.406  1.00  0.00    -0.247 C  
BRANCH  25  26
HETATM   26  C   UNL     1     -10.066  15.743  67.420  1.00  0.00    -0.246 A  
HETATM   27  C   UNL     1     -10.529  17.802  66.215  1.00  0.00    -0.307 A  
HETATM   28  C   UNL     1     -10.596  18.473  67.427  1.00  0.00    -0.424 A  
HETATM   29  C   UNL     1     -10.261  16.441  66.224  1.00  0.00    -0.330 A  
HETATM   30  F   UNL     1     -10.276  15.781  65.056  1.00  0.00    -0.380 F  
HETATM   31  F   UNL     1     -10.886  19.780  67.434  1.00  0.00    -0.539 F  
HETATM   32  C   UNL     1     -10.402  17.812  68.634  1.00  0.00    -0.351 A  
HETATM   33  C   UNL     1     -10.141  16.447  68.621  1.00  0.00    -0.244 A  
HETATM   34  F   UNL     1     -10.047  15.794  69.786  1.00  0.00    -0.239 F  
ENDBRANCH  25  26
ENDBRANCH  24  25
ENDBRANCH   9  21
TORSDOF 3
ENDMDL
MODEL       22
REMARK 921   NORMALIZED FREE ENERGY PREDICTED BY IDOCK:   -7.51 KCAL/MOL
REMARK 922        TOTAL FREE ENERGY PREDICTED BY IDOCK:   -9.57 KCAL/MOL
REMARK 923 INTER-LIGAND FREE ENERGY PREDICTED BY IDOCK:   -8.54 KCAL/MOL
REMARK 924 INTRA-LIGAND FREE ENERGY PREDICTED BY IDOCK:   -1.03 KCAL/MOL
REMARK 927      BINDING AFFINITY PREDICTED BY RF-SCORE:    0.00 PKD
ROOT
HETATM    1  O   UNL     1      -7.495  10.917  68.182  1.00  0.00    -0.086 OA 
HETATM    2  H   UNL     1      -6.661  11.284  67.909  1.00  0.00     0.000 HD 
HETATM    3  C   UNL     1      -8.674  11.599  68.426  1.00  0.00    -0.158 C  
HETATM    4  C   UNL     1      -9.861  11.077  68.814  1.00  0.00    -0.198 C  
HETATM    5  N   UNL     1     -10.979  11.899  69.057  1.00  0.00    -0.228 NA 
HETATM    6  C   UNL     1     -12.058  11.506  69.963  1.00  0.00    -0.331 C  
HETATM    7  C   UNL     1     -10.905  13.251  68.706  1.00  0.00    -0.243 C  
HETATM    8  C   UNL     1     -12.238   9.999  70.115  1.00  0.00    -0.116 C  
HETATM    9  C   UNL     1      -9.784  13.915  68.373  1.00  0.00    -0.226 C  
HETATM   10  C   UNL     1      -8.571  13.076  68.575  1.00  0.00    -0.049 C  
HETATM   11  O   UNL     1     -12.967   9.805  71.592  1.00  0.00    -0.356 OA 
HETATM   12  C   UNL     1     -11.393   7.609  72.676  1.00  0.00    -0.423 C  
HETATM   13  C   UNL     1     -12.822   8.473  72.364  1.00  0.00    -0.321 C  
HETATM   14  N   UNL     1     -10.853   9.086  69.904  1.00  0.00    -0.228 N  
HETATM   15  O   UNL     1      -7.507  13.511  69.007  1.00  0.00    -0.065 OA 
HETATM   16  C   UNL     1      -9.823   9.594  69.132  1.00  0.00    -0.186 C  
HETATM   17  C   UNL     1     -10.353   8.031  71.135  1.00  0.00    -0.229 C  
HETATM   18  C   UNL     1     -12.270   7.941  71.212  1.00  0.00    -0.314 C  
HETATM   19  C   UNL     1     -10.836   9.113  71.862  1.00  0.00    -0.353 C  
HETATM   20  O   UNL     1      -8.818   8.921  68.892  1.00  0.00    -0.135 OA 
ENDROOT
BRANCH   9  21
HETATM   21  C   UNL     1      -9.925  15.373  68.028  1.00  0.00    -0.221 C  
HETATM   22  H   UNL     1     -10.389  16.767  66.579  1.00  0.00     0.000 HD 
HETATM   23  O   UNL     1      -9.993  16.217  68.924  1.00  0.00    -0.225 OA 
HETATM   24  N   UNL     1     -10.037  15.823  66.737  1.00  0.00    -0.264 N  
BRANCH  24  25
HETATM   25  C   UNL     1      -9.684  15.026  65.602  1.00  0.00    -0.309 C  
BRANCH  25  26
HETATM   26  C   UNL     1     -10.652  14.040  65.056  1.00  0.00    -0.426 A  
HETATM   27  C   UNL     1     -12.596  13.638  63.654  1.00  0.00    -0.065 A  
HETATM   28  C   UNL     1     -12.236  12.301  63.572  1.00  0.00    -0.568 A  
HETATM   29  C   UNL     1     -11.800  14.496  64.399  1.00  0.00    -0.403 A  
HETATM   30  F   UNL     1     -12.107  15.802  64.410  1.00  0.00    -0.361 F  
HETATM   31  F   UNL     1     -12.978  11.470  62.830  1.00  0.00    -0.572 F  
HETATM   32  C   UNL     1     -11.105  11.814  64.216  1.00  0.00    -0.420 A  
HETATM   33  C   UNL     1     -10.318  12.691  64.952  1.00  0.00    -0.308 A  
HETATM   34  F   UNL     1      -9.179  12.241  65.494  1.00  0.00    -0.154 F  
ENDBRANCH  25  26
ENDBRANCH  24  25
ENDBRANCH   9  21
TORSDOF 3
ENDMDL
MODEL       23
REMARK 921   NORMALIZED FREE ENERGY PREDICTED BY IDOCK:   -7.51 KCAL/MOL
REMARK 922        TOTAL FREE ENERGY PREDICTED BY IDOCK:   -9.57 KCAL/MOL
REMARK 923 INTER-LIGAND FREE ENERGY PREDICTED BY IDOCK:   -9.52 KCAL/MOL
REMARK 924 INTRA-LIGAND FREE ENERGY PREDICTED BY IDOCK:   -0.05 KCAL/MOL
REMARK 927      BINDING AFFINITY PREDICTED BY RF-SCORE:    0.00 PKD
ROOT
HETATM    1  O   UNL     1     -10.125   6.902  67.371  1.00  0.00    -0.154 OA 
HETATM    2  H   UNL     1      -9.832   6.966  66.470  1.00  0.00     0.000 HD 
HETATM    3  C   UNL     1     -10.195   7.919  68.307  1.00  0.00    -0.203 C  
HETATM    4  C   UNL     1     -10.613   7.828  69.591  1.00  0.00    -0.242 C  
HETATM    5  N   UNL     1     -10.603   8.948  70.446  1.00  0.00    -0.207 NA 
HETATM    6  C   UNL     1     -10.504   8.822  71.900  1.00  0.00    -0.353 C  
HETATM    7  C   UNL     1     -10.335  10.206  69.898  1.00  0.00    -0.261 C  
HETATM    8  C   UNL     1     -11.040   7.507  72.458  1.00  0.00    -0.371 C  
HETATM    9  C   UNL     1      -9.846  10.439  68.666  1.00  0.00    -0.183 C  
HETATM   10  C   UNL     1      -9.462   9.173  67.983  1.00  0.00    -0.141 C  
HETATM   11  O   UNL     1     -10.248   7.304  73.900  1.00  0.00    -0.344 OA 
HETATM   12  C   UNL     1      -9.509   4.494  73.708  1.00  0.00    -0.129 C  
HETATM   13  C   UNL     1     -10.070   5.889  74.500  1.00  0.00    -0.300 C  
HETATM   14  N   UNL     1     -10.940   6.196  71.425  1.00  0.00    -0.268 N  
HETATM   15  O   UNL     1      -8.470   9.060  67.269  1.00  0.00    -0.114 OA 
HETATM   16  C   UNL     1     -10.908   6.416  70.060  1.00  0.00    -0.307 C  
HETATM   17  C   UNL     1     -10.127   4.796  71.930  1.00  0.00    -0.264 C  
HETATM   18  C   UNL     1     -10.957   5.441  73.537  1.00  0.00    -0.323 C  
HETATM   19  C   UNL     1      -9.341   5.801  72.484  1.00  0.00    -0.149 C  
HETATM   20  O   UNL     1     -10.909   5.473  69.264  1.00  0.00    -0.269 OA 
ENDROOT
BRANCH   9  21
HETATM   21  C   UNL     1      -9.629  11.874  68.271  1.00  0.00    -0.201 C  
HETATM   22  H   UNL     1     -10.109  13.851  68.617  1.00  0.00     0.000 HD 
HETATM   23  O   UNL     1      -8.658  12.185  67.580  1.00  0.00    -0.154 OA 
HETATM   24  N   UNL     1     -10.447  12.892  68.693  1.00  0.00    -0.238 N  
BRANCH  24  25
HETATM   25  C   UNL     1     -11.752  12.668  69.235  1.00  0.00    -0.322 C  
BRANCH  25  26
HETATM   26  C   UNL     1     -12.224  13.473  70.392  1.00  0.00    -0.426 A  
HETATM   27  C   UNL     1     -12.958  15.638  71.217  1.00  0.00    -0.556 A  
HETATM   28  C   UNL     1     -13.563  15.002  72.291  1.00  0.00    -0.443 A  
HETATM   29  C   UNL     1     -12.291  14.866  70.277  1.00  0.00    -0.341 A  
HETATM   30  F   UNL     1     -11.777  15.477  69.199  1.00  0.00    -0.287 F  
HETATM   31  F   UNL     1     -14.236  15.732  73.187  1.00  0.00    -0.541 F  
HETATM   32  C   UNL     1     -13.511  13.620  72.439  1.00  0.00    -0.685 A  
HETATM   33  C   UNL     1     -12.843  12.865  71.483  1.00  0.00    -0.282 A  
HETATM   34  F   UNL     1     -12.873  11.529  71.574  1.00  0.00    -0.462 F  
ENDBRANCH  25  26
ENDBRANCH  24  25
ENDBRANCH   9  21
TORSDOF 3
ENDMDL
MODEL       24
REMARK 921   NORMALIZED FREE ENERGY PREDICTED BY IDOCK:   -7.51 KCAL/MOL
REMARK 922        TOTAL FREE ENERGY PREDICTED BY IDOCK:   -9.57 KCAL/MOL
REMARK 923 INTER-LIGAND FREE ENERGY PREDICTED BY IDOCK:   -8.95 KCAL/MOL
REMARK 924 INTRA-LIGAND FREE ENERGY PREDICTED BY IDOCK:   -0.62 KCAL/MOL
REMARK 927      BINDING AFFINITY PREDICTED BY RF-SCORE:    0.00 PKD
ROOT
HETATM    1  O   UNL     1      -6.523  13.223  67.573  1.00  0.00    -0.164 OA 
HETATM    2  H   UNL     1      -6.395  12.282  67.551  1.00  0.00     0.000 HD 
HETATM    3  C   UNL     1      -7.720  13.912  67.494  1.00  0.00    -0.179 C  
HETATM    4  C   UNL     1      -7.902  15.252  67.525  1.00  0.00    -0.176 C  
HETATM    5  N   UNL     1      -9.185  15.821  67.404  1.00  0.00    -0.200 NA 
HETATM    6  C   UNL     1      -9.397  17.175  66.891  1.00  0.00    -0.249 C  
HETATM    7  C   UNL     1     -10.299  14.976  67.445  1.00  0.00    -0.238 C  
HETATM    8  C   UNL     1      -8.218  18.120  67.098  1.00  0.00    -0.237 C  
HETATM    9  C   UNL     1     -10.270  13.634  67.348  1.00  0.00    -0.241 C  
HETATM   10  C   UNL     1      -8.904  13.139  67.028  1.00  0.00    -0.210 C  
HETATM   11  O   UNL     1      -8.386  19.272  65.917  1.00  0.00    -0.443 OA 
HETATM   12  C   UNL     1      -5.646  19.442  64.947  1.00  0.00    -0.239 C  
HETATM   13  C   UNL     1      -7.155  20.065  65.420  1.00  0.00    -0.278 C  
HETATM   14  N   UNL     1      -6.713  17.391  67.140  1.00  0.00    -0.161 N  
HETATM   15  O   UNL     1      -8.682  12.201  66.267  1.00  0.00    -0.117 OA 
HETATM   16  C   UNL     1      -6.620  16.063  67.515  1.00  0.00    -0.177 C  
HETATM   17  C   UNL     1      -5.507  17.905  66.065  1.00  0.00    -0.238 C  
HETATM   18  C   UNL     1      -6.456  19.521  66.483  1.00  0.00    -0.187 C  
HETATM   19  C   UNL     1      -6.648  17.985  65.276  1.00  0.00     0.124 C  
HETATM   20  O   UNL     1      -5.523  15.511  67.630  1.00  0.00    -0.217 OA 
ENDROOT
BRANCH   9  21
HETATM   21  C   UNL     1     -11.589  12.911  67.415  1.00  0.00    -0.360 C  
HETATM   22  H   UNL     1     -13.219  12.398  68.570  1.00  0.00     0.000 HD 
HETATM   23  O   UNL     1     -12.162  12.575  66.377  1.00  0.00    -0.584 OA 
HETATM   24  N   UNL     1     -12.230  12.645  68.597  1.00  0.00    -0.067 N  
BRANCH  24  25
HETATM   25  C   UNL     1     -11.574  12.699  69.868  1.00  0.00    -0.177 C  
BRANCH  25  26
HETATM   26  C   UNL     1     -12.093  13.595  70.934  1.00  0.00    -0.330 A  
HETATM   27  C   UNL     1     -12.343  15.867  71.759  1.00  0.00    -0.533 A  
HETATM   28  C   UNL     1     -13.394  15.441  72.558  1.00  0.00    -0.471 A  
HETATM   29  C   UNL     1     -11.700  14.937  70.955  1.00  0.00    -0.327 A  
HETATM   30  F   UNL     1     -10.737  15.368  70.126  1.00  0.00    -0.252 F  
HETATM   31  F   UNL     1     -14.042  16.335  73.314  1.00  0.00    -0.685 F  
HETATM   32  C   UNL     1     -13.807  14.114  72.565  1.00  0.00    -0.590 A  
HETATM   33  C   UNL     1     -13.153  13.200  71.748  1.00  0.00    -0.383 A  
HETATM   34  F   UNL     1     -13.612  11.943  71.685  1.00  0.00    -0.366 F  
ENDBRANCH  25  26
ENDBRANCH  24  25
ENDBRANCH   9  21
TORSDOF 3
ENDMDL
MODEL       25
REMARK 921   NORMALIZED FREE ENERGY PREDICTED BY IDOCK:   -7.51 KCAL/MOL
REMARK 922        TOTAL FREE ENERGY PREDICTED BY IDOCK:   -9.57 KCAL/MOL
REMARK 923 INTER-LIGAND FREE ENERGY PREDICTED BY IDOCK:   -9.16 KCAL/MOL
REMARK 924 INTRA-LIGAND FREE ENERGY PREDICTED BY IDOCK:   -0.41 KCAL/MOL
REMARK 927      BINDING AFFINITY PREDICTED BY RF-SCORE:    0.00 PKD
ROOT
HETATM    1  O   UNL     1     -10.890  16.703  65.080  1.00  0.00    -0.641 OA 
HETATM    2  H   UNL     1     -11.754  16.617  64.692  1.00  0.00     0.000 HD 
HETATM    3  C   UNL     1     -10.162  15.726  65.734  1.00  0.00    -0.370 C  
HETATM    4  C   UNL     1      -8.933  15.848  66.287  1.00  0.00    -0.346 C  
HETATM    5  N   UNL     1      -8.318  14.769  66.954  1.00  0.00    -0.194 NA 
HETATM    6  C   UNL     1      -7.313  14.965  67.999  1.00  0.00    -0.130 C  
HETATM    7  C   UNL     1      -8.912  13.506  66.873  1.00  0.00    -0.209 C  
HETATM    8  C   UNL     1      -6.530  16.269  67.885  1.00  0.00    -0.156 C  
HETATM    9  C   UNL     1     -10.152  13.249  66.417  1.00  0.00    -0.290 C  
HETATM   10  C   UNL     1     -10.905  14.504  66.146  1.00  0.00    -0.317 C  
HETATM   11  O   UNL     1      -6.002  16.581  69.426  1.00  0.00    -0.150 OA 
HETATM   12  C   UNL     1      -6.622  19.419  69.634  1.00  0.00    -0.307 C  
HETATM   13  C   UNL     1      -5.670  18.029  69.858  1.00  0.00    -0.245 C  
HETATM   14  N   UNL     1      -7.348  17.537  67.166  1.00  0.00    -0.181 N  
HETATM   15  O   UNL     1     -12.102  14.643  66.384  1.00  0.00    -0.333 OA 
HETATM   16  C   UNL     1      -8.378  17.259  66.284  1.00  0.00    -0.254 C  
HETATM   17  C   UNL     1      -7.516  19.003  68.002  1.00  0.00    -0.289 C  
HETATM   18  C   UNL     1      -5.775  18.382  68.524  1.00  0.00    -0.181 C  
HETATM   19  C   UNL     1      -7.647  18.072  69.026  1.00  0.00    -0.146 C  
HETATM   20  O   UNL     1      -8.955  18.164  65.678  1.00  0.00    -0.288 OA 
ENDROOT
BRANCH   9  21
HETATM   21  C   UNL     1     -10.600  11.812  66.414  1.00  0.00    -0.255 C  
HETATM   22  H   UNL     1     -11.791  10.374  67.292  1.00  0.00     0.000 HD 
HETATM   23  O   UNL     1     -10.391  11.101  65.430  1.00  0.00    -0.255 OA 
HETATM   24  N   UNL     1     -11.294  11.250  67.455  1.00  0.00    -0.299 N  
BRANCH  24  25
HETATM   25  C   UNL     1     -11.351  11.835  68.759  1.00  0.00    -0.267 C  
BRANCH  25  26
HETATM   26  C   UNL     1     -11.440  10.966  69.961  1.00  0.00    -0.411 A  
HETATM   27  C   UNL     1     -12.691  10.338  71.948  1.00  0.00    -0.478 A  
HETATM   28  C   UNL     1     -12.018   9.125  71.965  1.00  0.00    -0.350 A  
HETATM   29  C   UNL     1     -12.392  11.250  70.946  1.00  0.00    -0.388 A  
HETATM   30  F   UNL     1     -13.100  12.388  70.887  1.00  0.00    -0.265 F  
HETATM   31  F   UNL     1     -12.320   8.225  72.907  1.00  0.00    -0.391 F  
HETATM   32  C   UNL     1     -11.063   8.812  71.005  1.00  0.00    -0.328 A  
HETATM   33  C   UNL     1     -10.783   9.737  70.006  1.00  0.00    -0.283 A  
HETATM   34  F   UNL     1      -9.932   9.398  69.029  1.00  0.00    -0.160 F  
ENDBRANCH  25  26
ENDBRANCH  24  25
ENDBRANCH   9  21
TORSDOF 3
ENDMDL
MODEL       26
REMARK 921   NORMALIZED FREE ENERGY PREDICTED BY IDOCK:   -7.50 KCAL/MOL
REMARK 922        TOTAL FREE ENERGY PREDICTED BY IDOCK:   -9.56 KCAL/MOL
REMARK 923 INTER-LIGAND FREE ENERGY PREDICTED BY IDOCK:   -8.77 KCAL/MOL
REMARK 924 INTRA-LIGAND FREE ENERGY PREDICTED BY IDOCK:   -0.79 KCAL/MOL
REMARK 927      BINDING AFFINITY PREDICTED BY RF-SCORE:    0.00 PKD
ROOT
HETATM    1  O   UNL     1     -10.923  12.274  69.788  1.00  0.00    -0.461 OA 
HETATM    2  H   UNL     1     -11.390  13.010  70.169  1.00  0.00     0.000 HD 
HETATM    3  C   UNL     1     -10.583  12.090  68.460  1.00  0.00    -0.231 C  
HETATM    4  C   UNL     1      -9.919  11.042  67.919  1.00  0.00    -0.174 C  
HETATM    5  N   UNL     1      -9.666  10.971  66.534  1.00  0.00    -0.193 NA 
HETATM    6  C   UNL     1      -9.473   9.700  65.838  1.00  0.00    -0.236 C  
HETATM    7  C   UNL     1      -9.941  12.092  65.745  1.00  0.00    -0.249 C  
HETATM    8  C   UNL     1      -8.939   8.573  66.716  1.00  0.00    -0.173 C  
HETATM    9  C   UNL     1     -10.653  13.168  66.129  1.00  0.00    -0.288 C  
HETATM   10  C   UNL     1     -11.267  12.966  67.470  1.00  0.00    -0.290 C  
HETATM   11  O   UNL     1      -9.432   7.179  65.965  1.00  0.00    -0.059 OA 
HETATM   12  C   UNL     1     -10.412   5.663  68.250  1.00  0.00    -0.257 C  
HETATM   13  C   UNL     1      -9.594   5.872  66.775  1.00  0.00    -0.148 C  
HETATM   14  N   UNL     1      -9.352   8.667  68.334  1.00  0.00    -0.138 N  
HETATM   15  O   UNL     1     -12.390  13.360  67.769  1.00  0.00    -0.219 OA 
HETATM   16  C   UNL     1      -9.646   9.903  68.882  1.00  0.00    -0.172 C  
HETATM   17  C   UNL     1     -10.151   7.365  69.069  1.00  0.00    -0.193 C  
HETATM   18  C   UNL     1      -8.960   6.519  67.822  1.00  0.00    -0.114 C  
HETATM   19  C   UNL     1     -10.725   7.377  67.803  1.00  0.00    -0.249 C  
HETATM   20  O   UNL     1      -9.882  10.024  70.086  1.00  0.00    -0.241 OA 
ENDROOT
BRANCH   9  21
HETATM   21  C   UNL     1     -10.833  14.270  65.120  1.00  0.00    -0.378 C  
HETATM   22  H   UNL     1     -10.030  15.959  64.247  1.00  0.00     0.000 HD 
HETATM   23  O   UNL     1     -11.692  14.170  64.242  1.00  0.00    -0.389 OA 
HETATM   24  N   UNL     1     -10.037  15.387  65.091  1.00  0.00    -0.314 N  
BRANCH  24  25
HETATM   25  C   UNL     1      -9.216  15.786  66.192  1.00  0.00    -0.350 C  
BRANCH  25  26
HETATM   26  C   UNL     1      -9.283  17.180  66.703  1.00  0.00    -0.280 A  
HETATM   27  C   UNL     1      -8.493  19.471  66.515  1.00  0.00    -0.365 A  
HETATM   28  C   UNL     1      -9.627  19.897  67.191  1.00  0.00    -0.381 A  
HETATM   29  C   UNL     1      -8.331  18.114  66.279  1.00  0.00    -0.198 A  
HETATM   30  F   UNL     1      -7.273  17.714  65.557  1.00  0.00    -0.271 F  
HETATM   31  F   UNL     1      -9.810  21.206  67.397  1.00  0.00    -0.623 F  
HETATM   32  C   UNL     1     -10.590  18.997  67.630  1.00  0.00    -0.526 A  
HETATM   33  C   UNL     1     -10.412  17.642  67.378  1.00  0.00    -0.356 A  
HETATM   34  F   UNL     1     -11.384  16.785  67.717  1.00  0.00    -0.257 F  
ENDBRANCH  25  26
ENDBRANCH  24  25
ENDBRANCH   9  21
TORSDOF 3
ENDMDL
MODEL       27
REMARK 921   NORMALIZED FREE ENERGY PREDICTED BY IDOCK:   -7.43 KCAL/MOL
REMARK 922        TOTAL FREE ENERGY PREDICTED BY IDOCK:   -9.48 KCAL/MOL
REMARK 923 INTER-LIGAND FREE ENERGY PREDICTED BY IDOCK:   -9.00 KCAL/MOL
REMARK 924 INTRA-LIGAND FREE ENERGY PREDICTED BY IDOCK:   -0.47 KCAL/MOL
REMARK 927      BINDING AFFINITY PREDICTED BY RF-SCORE:    0.00 PKD
ROOT
HETATM    1  O   UNL     1     -13.120  10.716  69.578  1.00  0.00    -0.500 OA 
HETATM    2  H   UNL     1     -13.684  11.153  68.950  1.00  0.00     0.000 HD 
HETATM    3  C   UNL     1     -11.741  10.617  69.543  1.00  0.00    -0.284 C  
HETATM    4  C   UNL     1     -10.938   9.995  70.437  1.00  0.00    -0.320 C  
HETATM    5  N   UNL     1      -9.541   9.946  70.259  1.00  0.00    -0.201 NA 
HETATM    6  C   UNL     1      -8.715   8.884  70.833  1.00  0.00    -0.210 C  
HETATM    7  C   UNL     1      -8.969  10.717  69.242  1.00  0.00    -0.082 C  
HETATM    8  C   UNL     1      -9.293   8.244  72.091  1.00  0.00    -0.303 C  
HETATM    9  C   UNL     1      -9.639  11.327  68.248  1.00  0.00    -0.193 C  
HETATM   10  C   UNL     1     -11.081  10.957  68.253  1.00  0.00    -0.266 C  
HETATM   11  O   UNL     1      -8.612   6.733  72.149  1.00  0.00    -0.118 OA 
HETATM   12  C   UNL     1     -10.951   5.121  72.791  1.00  0.00    -0.327 C  
HETATM   13  C   UNL     1      -9.321   5.587  72.909  1.00  0.00    -0.137 C  
HETATM   14  N   UNL     1     -10.962   8.253  72.198  1.00  0.00    -0.301 N  
HETATM   15  O   UNL     1     -11.738  10.768  67.234  1.00  0.00    -0.396 OA 
HETATM   16  C   UNL     1     -11.675   9.221  71.514  1.00  0.00    -0.380 C  
HETATM   17  C   UNL     1     -11.792   6.790  72.413  1.00  0.00    -0.218 C  
HETATM   18  C   UNL     1     -10.177   6.545  73.423  1.00  0.00    -0.256 C  
HETATM   19  C   UNL     1     -10.765   6.414  71.554  1.00  0.00    -0.282 C  
HETATM   20  O   UNL     1     -12.900   9.307  71.628  1.00  0.00    -0.329 OA 
ENDROOT
BRANCH   9  21
HETATM   21  C   UNL     1      -8.828  12.111  67.251  1.00  0.00    -0.186 C  
HETATM   22  H   UNL     1      -8.448  13.952  66.402  1.00  0.00     0.000 HD 
HETATM   23  O   UNL     1      -7.793  11.632  66.783  1.00  0.00    -0.160 OA 
HETATM   24  N   UNL     1      -9.158  13.384  66.863  1.00  0.00    -0.238 N  
BRANCH  24  25
HETATM   25  C   UNL     1     -10.454  13.951  67.076  1.00  0.00    -0.278 C  
BRANCH  25  26
HETATM   26  C   UNL     1     -10.614  15.426  67.166  1.00  0.00    -0.305 A  
HETATM   27  C   UNL     1     -10.487  17.419  68.550  1.00  0.00    -0.370 A  
HETATM   28  C   UNL     1     -10.392  18.189  67.400  1.00  0.00    -0.389 A  
HETATM   29  C   UNL     1     -10.600  16.043  68.422  1.00  0.00    -0.270 A  
HETATM   30  F   UNL     1     -10.611  15.297  69.537  1.00  0.00    -0.217 F  
HETATM   31  F   UNL     1     -10.250  19.515  67.512  1.00  0.00    -0.412 F  
HETATM   32  C   UNL     1     -10.408  17.609  66.137  1.00  0.00    -0.334 A  
HETATM   33  C   UNL     1     -10.516  16.228  66.030  1.00  0.00    -0.331 A  
HETATM   34  F   UNL     1     -10.437  15.663  64.819  1.00  0.00    -0.411 F  
ENDBRANCH  25  26
ENDBRANCH  24  25
ENDBRANCH   9  21
TORSDOF 3
ENDMDL
MODEL       28
REMARK 921   NORMALIZED FREE ENERGY PREDICTED BY IDOCK:   -7.43 KCAL/MOL
REMARK 922        TOTAL FREE ENERGY PREDICTED BY IDOCK:   -9.48 KCAL/MOL
REMARK 923 INTER-LIGAND FREE ENERGY PREDICTED BY IDOCK:   -8.59 KCAL/MOL
REMARK 924 INTRA-LIGAND FREE ENERGY PREDICTED BY IDOCK:   -0.89 KCAL/MOL
REMARK 927      BINDING AFFINITY PREDICTED BY RF-SCORE:    0.00 PKD
ROOT
HETATM    1  O   UNL     1     -10.274  13.187  65.540  1.00  0.00    -0.287 OA 
HETATM    2  H   UNL     1     -10.577  12.415  65.077  1.00  0.00     0.000 HD 
HETATM    3  C   UNL     1     -10.435  13.480  66.883  1.00  0.00    -0.271 C  
HETATM    4  C   UNL     1     -10.004  14.580  67.542  1.00  0.00    -0.224 C  
HETATM    5  N   UNL     1     -10.267  14.762  68.915  1.00  0.00    -0.233 NA 
HETATM    6  C   UNL     1     -10.330  16.087  69.531  1.00  0.00    -0.278 C  
HETATM    7  C   UNL     1     -10.816  13.698  69.638  1.00  0.00     0.169 C  
HETATM    8  C   UNL     1      -9.507  17.155  68.817  1.00  0.00    -0.263 C  
HETATM    9  C   UNL     1     -11.348  12.581  69.110  1.00  0.00    -0.331 C  
HETATM   10  C   UNL     1     -11.436  12.667  67.626  1.00  0.00    -0.334 C  
HETATM   11  O   UNL     1     -10.228  18.591  69.228  1.00  0.00    -0.248 OA 
HETATM   12  C   UNL     1     -10.308  19.906  66.632  1.00  0.00    -0.608 C  
HETATM   13  C   UNL     1     -10.078  19.829  68.314  1.00  0.00    -0.458 C  
HETATM   14  N   UNL     1      -9.309  16.929  67.173  1.00  0.00    -0.231 N  
HETATM   15  O   UNL     1     -12.378  12.226  66.974  1.00  0.00    -0.393 OA 
HETATM   16  C   UNL     1      -9.394  15.648  66.655  1.00  0.00    -0.265 C  
HETATM   17  C   UNL     1      -9.780  18.153  66.099  1.00  0.00    -0.217 C  
HETATM   18  C   UNL     1      -9.114  19.118  67.620  1.00  0.00    -0.341 C  
HETATM   19  C   UNL     1     -10.773  18.224  67.070  1.00  0.00    -0.305 C  
HETATM   20  O   UNL     1      -9.180  15.431  65.460  1.00  0.00    -0.169 OA 
ENDROOT
BRANCH   9  21
HETATM   21  C   UNL     1     -11.887  11.555  70.070  1.00  0.00    -0.355 C  
HETATM   22  H   UNL     1     -11.467   9.951  71.297  1.00  0.00     0.000 HD 
HETATM   23  O   UNL     1     -13.001  11.707  70.575  1.00  0.00    -0.038 OA 
HETATM   24  N   UNL     1     -11.167  10.457  70.464  1.00  0.00    -0.325 N  
BRANCH  24  25
HETATM   25  C   UNL     1     -10.013   9.989  69.760  1.00  0.00    -0.241 C  
BRANCH  25  26
HETATM   26  C   UNL     1     -10.110   8.791  68.887  1.00  0.00    -0.210 A  
HETATM   27  C   UNL     1     -10.943   6.525  68.603  1.00  0.00    -0.363 A  
HETATM   28  C   UNL     1     -10.805   6.666  67.230  1.00  0.00    -0.385 A  
HETATM   29  C   UNL     1     -10.591   7.590  69.420  1.00  0.00    -0.223 A  
HETATM   30  F   UNL     1     -10.801   7.477  70.740  1.00  0.00    -0.226 F  
HETATM   31  F   UNL     1     -11.171   5.658  66.430  1.00  0.00    -0.288 F  
HETATM   32  C   UNL     1     -10.325   7.843  66.667  1.00  0.00    -0.270 A  
HETATM   33  C   UNL     1      -9.984   8.900  67.503  1.00  0.00    -0.203 A  
HETATM   34  F   UNL     1      -9.612  10.065  66.956  1.00  0.00    -0.175 F  
ENDBRANCH  25  26
ENDBRANCH  24  25
ENDBRANCH   9  21
TORSDOF 3
ENDMDL
MODEL       29
REMARK 921   NORMALIZED FREE ENERGY PREDICTED BY IDOCK:   -7.41 KCAL/MOL
REMARK 922        TOTAL FREE ENERGY PREDICTED BY IDOCK:   -9.46 KCAL/MOL
REMARK 923 INTER-LIGAND FREE ENERGY PREDICTED BY IDOCK:   -8.53 KCAL/MOL
REMARK 924 INTRA-LIGAND FREE ENERGY PREDICTED BY IDOCK:   -0.93 KCAL/MOL
REMARK 927      BINDING AFFINITY PREDICTED BY RF-SCORE:    0.00 PKD
ROOT
HETATM    1  O   UNL     1     -10.472  12.356  69.248  1.00  0.00    -0.428 OA 
HETATM    2  H   UNL     1     -11.012  12.915  69.796  1.00  0.00     0.000 HD 
HETATM    3  C   UNL     1     -10.375  12.373  67.868  1.00  0.00    -0.210 C  
HETATM    4  C   UNL     1      -9.607  11.577  67.088  1.00  0.00    -0.177 C  
HETATM    5  N   UNL     1      -9.631  11.685  65.683  1.00  0.00    -0.231 NA 
HETATM    6  C   UNL     1      -9.290  10.565  64.806  1.00  0.00    -0.238 C  
HETATM    7  C   UNL     1     -10.315  12.758  65.105  1.00  0.00    -0.295 C  
HETATM    8  C   UNL     1      -8.340   9.544  65.425  1.00  0.00    -0.144 C  
HETATM    9  C   UNL     1     -11.166  13.582  65.744  1.00  0.00    -0.308 C  
HETATM   10  C   UNL     1     -11.432  13.122  67.134  1.00  0.00    -0.334 C  
HETATM   11  O   UNL     1      -8.633   8.136  64.599  1.00  0.00    -0.081 OA 
HETATM   12  C   UNL     1      -8.746   6.241  66.807  1.00  0.00    -0.117 C  
HETATM   13  C   UNL     1      -8.315   6.770  65.250  1.00  0.00    -0.105 C  
HETATM   14  N   UNL     1      -8.426   9.399  67.088  1.00  0.00    -0.127 N  
HETATM   15  O   UNL     1     -12.531  13.192  67.676  1.00  0.00    -0.050 OA 
HETATM   16  C   UNL     1      -8.885  10.471  67.833  1.00  0.00    -0.133 C  
HETATM   17  C   UNL     1      -8.731   7.881  67.779  1.00  0.00    -0.127 C  
HETATM   18  C   UNL     1      -7.653   7.471  66.243  1.00  0.00    -0.088 C  
HETATM   19  C   UNL     1      -9.537   7.849  66.646  1.00  0.00    -0.293 C  
HETATM   20  O   UNL     1      -8.894  10.429  69.066  1.00  0.00    -0.154 OA 
ENDROOT
BRANCH   9  21
HETATM   21  C   UNL     1     -11.801  14.680  64.933  1.00  0.00    -0.403 C  
HETATM   22  H   UNL     1     -11.534  16.473  63.949  1.00  0.00     0.000 HD 
HETATM   23  O   UNL     1     -12.897  14.499  64.399  1.00  0.00    -0.603 OA 
HETATM   24  N   UNL     1     -11.186  15.884  64.705  1.00  0.00    -0.427 N  
BRANCH  24  25
HETATM   25  C   UNL     1     -10.078  16.351  65.480  1.00  0.00    -0.208 C  
BRANCH  25  26
HETATM   26  C   UNL     1     -10.304  17.294  66.606  1.00  0.00    -0.305 A  
HETATM   27  C   UNL     1      -9.877  17.844  68.935  1.00  0.00    -0.306 A  
HETATM   28  C   UNL     1     -10.215  19.162  68.665  1.00  0.00    -0.330 A  
HETATM   29  C   UNL     1      -9.928  16.921  67.901  1.00  0.00    -0.274 A  
HETATM   30  F   UNL     1      -9.524  15.665  68.147  1.00  0.00    -0.190 F  
HETATM   31  F   UNL     1     -10.139  20.069  69.646  1.00  0.00    -0.451 F  
HETATM   32  C   UNL     1     -10.599  19.567  67.392  1.00  0.00    -0.607 A  
HETATM   33  C   UNL     1     -10.637  18.627  66.369  1.00  0.00    -0.349 A  
HETATM   34  F   UNL     1     -10.915  19.034  65.124  1.00  0.00    -0.435 F  
ENDBRANCH  25  26
ENDBRANCH  24  25
ENDBRANCH   9  21
TORSDOF 3
ENDMDL
MODEL       30
REMARK 921   NORMALIZED FREE ENERGY PREDICTED BY IDOCK:   -7.41 KCAL/MOL
REMARK 922        TOTAL FREE ENERGY PREDICTED BY IDOCK:   -9.45 KCAL/MOL
REMARK 923 INTER-LIGAND FREE ENERGY PREDICTED BY IDOCK:   -8.55 KCAL/MOL
REMARK 924 INTRA-LIGAND FREE ENERGY PREDICTED BY IDOCK:   -0.90 KCAL/MOL
REMARK 927      BINDING AFFINITY PREDICTED BY RF-SCORE:    0.00 PKD
ROOT
HETATM    1  O   UNL     1      -9.892   9.846  63.594  1.00  0.00    -0.490 OA 
HETATM    2  H   UNL     1     -10.090  10.028  62.683  1.00  0.00     0.000 HD 
HETATM    3  C   UNL     1     -10.194  10.631  64.693  1.00  0.00    -0.334 C  
HETATM    4  C   UNL     1      -9.911  10.372  65.991  1.00  0.00    -0.241 C  
HETATM    5  N   UNL     1     -10.254  11.281  67.012  1.00  0.00    -0.209 NA 
HETATM    6  C   UNL     1      -9.532  11.342  68.282  1.00  0.00    -0.190 C  
HETATM    7  C   UNL     1     -11.066  12.374  66.690  1.00  0.00    -0.289 C  
HETATM    8  C   UNL     1      -8.864  10.033  68.692  1.00  0.00    -0.132 C  
HETATM    9  C   UNL     1     -11.367  12.789  65.446  1.00  0.00    -0.339 C  
HETATM   10  C   UNL     1     -10.597  12.037  64.418  1.00  0.00    -0.318 C  
HETATM   11  O   UNL     1      -7.627  10.485  69.699  1.00  0.00    -0.151 OA 
HETATM   12  C   UNL     1      -5.469   8.824  68.667  1.00  0.00    -0.037 C  
HETATM   13  C   UNL     1      -6.396   9.567  69.882  1.00  0.00    -0.050 C  
HETATM   14  N   UNL     1      -8.398   9.039  67.430  1.00  0.00    -0.111 N  
HETATM   15  O   UNL     1     -10.136  12.550  63.402  1.00  0.00    -0.396 OA 
HETATM   16  C   UNL     1      -9.055   9.140  66.217  1.00  0.00    -0.178 C  
HETATM   17  C   UNL     1      -6.782   8.539  67.315  1.00  0.00    -0.063 C  
HETATM   18  C   UNL     1      -7.105   8.590  69.207  1.00  0.00    -0.059 C  
HETATM   19  C   UNL     1      -6.647   9.846  67.770  1.00  0.00    -0.068 C  
HETATM   20  O   UNL     1      -8.791   8.375  65.286  1.00  0.00    -0.160 OA 
ENDROOT
BRANCH   9  21
HETATM   21  C   UNL     1     -12.261  13.993  65.320  1.00  0.00    -0.440 C  
HETATM   22  H   UNL     1     -12.413  15.983  64.798  1.00  0.00     0.000 HD 
HETATM   23  O   UNL     1     -13.486  13.857  65.331  1.00  0.00    -0.672 OA 
HETATM   24  N   UNL     1     -11.775  15.262  65.135  1.00  0.00    -0.184 N  
BRANCH  24  25
HETATM   25  C   UNL     1     -10.415  15.620  65.394  1.00  0.00    -0.411 C  
BRANCH  25  26
HETATM   26  C   UNL     1     -10.099  16.642  66.425  1.00  0.00    -0.325 A  
HETATM   27  C   UNL     1     -10.464  18.898  67.253  1.00  0.00    -0.510 A  
HETATM   28  C   UNL     1     -10.009  18.494  68.500  1.00  0.00    -0.384 A  
HETATM   29  C   UNL     1     -10.502  17.967  66.225  1.00  0.00    -0.335 A  
HETATM   30  F   UNL     1     -11.016  18.342  65.044  1.00  0.00    -0.364 F  
HETATM   31  F   UNL     1      -9.998  19.374  69.507  1.00  0.00    -0.434 F  
HETATM   32  C   UNL     1      -9.597  17.187  68.732  1.00  0.00    -0.269 A  
HETATM   33  C   UNL     1      -9.648  16.268  67.690  1.00  0.00    -0.227 A  
HETATM   34  F   UNL     1      -9.340  14.989  67.938  1.00  0.00    -0.178 F  
ENDBRANCH  25  26
ENDBRANCH  24  25
ENDBRANCH   9  21
TORSDOF 3
ENDMDL
MODEL       31
REMARK 921   NORMALIZED FREE ENERGY PREDICTED BY IDOCK:   -7.40 KCAL/MOL
REMARK 922        TOTAL FREE ENERGY PREDICTED BY IDOCK:   -9.44 KCAL/MOL
REMARK 923 INTER-LIGAND FREE ENERGY PREDICTED BY IDOCK:   -8.68 KCAL/MOL
REMARK 924 INTRA-LIGAND FREE ENERGY PREDICTED BY IDOCK:   -0.76 KCAL/MOL
REMARK 927      BINDING AFFINITY PREDICTED BY RF-SCORE:    0.00 PKD
ROOT
HETATM    1  O   UNL     1     -10.586  16.353  66.716  1.00  0.00    -0.299 OA 
HETATM    2  H   UNL     1     -10.465  16.840  65.909  1.00  0.00     0.000 HD 
HETATM    3  C   UNL     1     -10.910  15.015  66.851  1.00  0.00    -0.315 C  
HETATM    4  C   UNL     1     -11.081  14.321  68.000  1.00  0.00    -0.269 C  
HETATM    5  N   UNL     1     -11.443  12.960  67.988  1.00  0.00    -0.297 NA 
HETATM    6  C   UNL     1     -12.154  12.328  69.099  1.00  0.00    -0.161 C  
HETATM    7  C   UNL     1     -11.436  12.276  66.768  1.00  0.00    -0.361 C  
HETATM    8  C   UNL     1     -11.923  12.990  70.454  1.00  0.00    -0.337 C  
HETATM    9  C   UNL     1     -11.349  12.843  65.550  1.00  0.00    -0.340 C  
HETATM   10  C   UNL     1     -11.420  14.327  65.633  1.00  0.00    -0.329 C  
HETATM   11  O   UNL     1     -13.258  12.590  71.354  1.00  0.00    -0.282 OA 
HETATM   12  C   UNL     1     -13.877  15.169  72.556  1.00  0.00    -0.602 C  
HETATM   13  C   UNL     1     -13.692  13.480  72.542  1.00  0.00    -0.559 C  
HETATM   14  N   UNL     1     -11.588  14.627  70.405  1.00  0.00    -0.275 N  
HETATM   15  O   UNL     1     -12.013  15.026  64.816  1.00  0.00    -0.377 OA 
HETATM   16  C   UNL     1     -11.032  15.166  69.259  1.00  0.00    -0.258 C  
HETATM   17  C   UNL     1     -12.556  15.703  71.289  1.00  0.00    -0.523 C  
HETATM   18  C   UNL     1     -12.484  14.141  72.404  1.00  0.00    -0.208 C  
HETATM   19  C   UNL     1     -13.491  14.776  70.843  1.00  0.00    -0.325 C  
HETATM   20  O   UNL     1     -10.702  16.353  69.211  1.00  0.00    -0.282 OA 
ENDROOT
BRANCH   9  21
HETATM   21  C   UNL     1     -11.359  11.922  64.360  1.00  0.00    -0.326 C  
HETATM   22  H   UNL     1     -10.502  10.290  63.433  1.00  0.00     0.000 HD 
HETATM   23  O   UNL     1     -12.340  11.886  63.615  1.00  0.00    -0.505 OA 
HETATM   24  N   UNL     1     -10.330  11.059  64.081  1.00  0.00    -0.349 N  
BRANCH  24  25
HETATM   25  C   UNL     1      -9.028  11.188  64.657  1.00  0.00     0.002 C  
BRANCH  25  26
HETATM   26  C   UNL     1      -8.641  10.343  65.817  1.00  0.00    -0.172 A  
HETATM   27  C   UNL     1      -7.831   8.191  66.604  1.00  0.00    -0.094 A  
HETATM   28  C   UNL     1      -7.432   8.795  67.788  1.00  0.00    -0.093 A  
HETATM   29  C   UNL     1      -8.435   8.972  65.630  1.00  0.00    -0.150 A  
HETATM   30  F   UNL     1      -8.745   8.400  64.456  1.00  0.00    -0.160 F  
HETATM   31  F   UNL     1      -6.820   8.059  68.722  1.00  0.00    -0.055 F  
HETATM   32  C   UNL     1      -7.627  10.154  68.009  1.00  0.00    -0.088 A  
HETATM   33  C   UNL     1      -8.228  10.919  67.017  1.00  0.00    -0.134 A  
HETATM   34  F   UNL     1      -8.330  12.243  67.192  1.00  0.00    -0.156 F  
ENDBRANCH  25  26
ENDBRANCH  24  25
ENDBRANCH   9  21
TORSDOF 3
ENDMDL
MODEL       32
REMARK 921   NORMALIZED FREE ENERGY PREDICTED BY IDOCK:   -7.36 KCAL/MOL
REMARK 922        TOTAL FREE ENERGY PREDICTED BY IDOCK:   -9.40 KCAL/MOL
REMARK 923 INTER-LIGAND FREE ENERGY PREDICTED BY IDOCK:   -8.69 KCAL/MOL
REMARK 924 INTRA-LIGAND FREE ENERGY PREDICTED BY IDOCK:   -0.71 KCAL/MOL
REMARK 927      BINDING AFFINITY PREDICTED BY RF-SCORE:    0.00 PKD
ROOT
HETATM    1  O   UNL     1      -8.249   8.442  67.282  1.00  0.00    -0.111 OA 
HETATM    2  H   UNL     1      -7.772   8.830  66.558  1.00  0.00     0.000 HD 
HETATM    3  C   UNL     1      -9.331   8.976  67.958  1.00  0.00    -0.141 C  
HETATM    4  C   UNL     1     -10.011   8.423  68.990  1.00  0.00    -0.190 C  
HETATM    5  N   UNL     1     -11.082   9.098  69.607  1.00  0.00    -0.150 NA 
HETATM    6  C   UNL     1     -11.475   8.842  70.993  1.00  0.00    -0.294 C  
HETATM    7  C   UNL     1     -11.564  10.271  69.018  1.00  0.00    -0.081 C  
HETATM    8  C   UNL     1     -11.128   7.446  71.500  1.00  0.00    -0.266 C  
HETATM    9  C   UNL     1     -10.955  10.966  68.039  1.00  0.00    -0.317 C  
HETATM   10  C   UNL     1      -9.598  10.425  67.749  1.00  0.00    -0.152 C  
HETATM   11  O   UNL     1     -11.025   7.606  73.147  1.00  0.00    -0.392 OA 
HETATM   12  C   UNL     1      -8.577   6.118  73.671  1.00  0.00    -0.124 C  
HETATM   13  C   UNL     1     -10.174   6.615  73.975  1.00  0.00    -0.369 C  
HETATM   14  N   UNL     1      -9.791   6.736  70.790  1.00  0.00    -0.183 N  
HETATM   15  O   UNL     1      -8.628  11.129  67.485  1.00  0.00    -0.127 OA 
HETATM   16  C   UNL     1      -9.413   7.134  69.520  1.00  0.00    -0.151 C  
HETATM   17  C   UNL     1      -8.513   6.200  71.768  1.00  0.00    -0.129 C  
HETATM   18  C   UNL     1     -10.074   5.845  72.829  1.00  0.00    -0.203 C  
HETATM   19  C   UNL     1      -8.903   7.366  72.418  1.00  0.00    -0.151 C  
HETATM   20  O   UNL     1      -8.479   6.583  68.934  1.00  0.00    -0.121 OA 
ENDROOT
BRANCH   9  21
HETATM   21  C   UNL     1     -11.646  12.207  67.543  1.00  0.00    -0.343 C  
HETATM   22  H   UNL     1     -11.834  14.256  67.698  1.00  0.00     0.000 HD 
HETATM   23  O   UNL     1     -12.267  12.186  66.479  1.00  0.00    -0.584 OA 
HETATM   24  N   UNL     1     -11.577  13.408  68.202  1.00  0.00    -0.319 N  
BRANCH  24  25
HETATM   25  C   UNL     1     -11.161  13.524  69.566  1.00  0.00    -0.053 C  
BRANCH  25  26
HETATM   26  C   UNL     1     -12.009  14.257  70.542  1.00  0.00    -0.402 A  
HETATM   27  C   UNL     1     -13.502  14.135  72.455  1.00  0.00    -0.634 A  
HETATM   28  C   UNL     1     -13.241  15.472  72.720  1.00  0.00    -0.508 A  
HETATM   29  C   UNL     1     -12.885  13.541  71.365  1.00  0.00    -0.355 A  
HETATM   30  F   UNL     1     -13.078  12.229  71.160  1.00  0.00    -0.375 F  
HETATM   31  F   UNL     1     -13.805  16.048  73.788  1.00  0.00    -0.346 F  
HETATM   32  C   UNL     1     -12.381  16.214  71.920  1.00  0.00    -0.442 A  
HETATM   33  C   UNL     1     -11.767  15.598  70.836  1.00  0.00    -0.387 A  
HETATM   34  F   UNL     1     -10.868  16.286  70.122  1.00  0.00    -0.296 F  
ENDBRANCH  25  26
ENDBRANCH  24  25
ENDBRANCH   9  21
TORSDOF 3
ENDMDL
MODEL       33
REMARK 921   NORMALIZED FREE ENERGY PREDICTED BY IDOCK:   -7.36 KCAL/MOL
REMARK 922        TOTAL FREE ENERGY PREDICTED BY IDOCK:   -9.40 KCAL/MOL
REMARK 923 INTER-LIGAND FREE ENERGY PREDICTED BY IDOCK:   -8.44 KCAL/MOL
REMARK 924 INTRA-LIGAND FREE ENERGY PREDICTED BY IDOCK:   -0.96 KCAL/MOL
REMARK 927      BINDING AFFINITY PREDICTED BY RF-SCORE:    0.00 PKD
ROOT
HETATM    1  O   UNL     1     -11.088  10.939  70.649  1.00  0.00    -0.400 OA 
HETATM    2  H   UNL     1     -10.867  10.589  71.505  1.00  0.00     0.000 HD 
HETATM    3  C   UNL     1     -10.723  10.435  69.414  1.00  0.00    -0.244 C  
HETATM    4  C   UNL     1     -11.038  10.935  68.196  1.00  0.00    -0.280 C  
HETATM    5  N   UNL     1     -10.569  10.331  67.012  1.00  0.00    -0.251 NA 
HETATM    6  C   UNL     1     -10.400  11.077  65.766  1.00  0.00    -0.257 C  
HETATM    7  C   UNL     1      -9.929   9.090  67.101  1.00  0.00    -0.224 C  
HETATM    8  C   UNL     1     -11.309  12.295  65.631  1.00  0.00    -0.394 C  
HETATM    9  C   UNL     1      -9.495   8.510  68.235  1.00  0.00    -0.143 C  
HETATM   10  C   UNL     1      -9.631   9.424  69.403  1.00  0.00    -0.173 C  
HETATM   11  O   UNL     1     -10.519  13.299  64.574  1.00  0.00    -0.394 OA 
HETATM   12  C   UNL     1     -10.817  15.851  65.944  1.00  0.00    -0.237 C  
HETATM   13  C   UNL     1     -10.792  14.821  64.592  1.00  0.00    -0.292 C  
HETATM   14  N   UNL     1     -11.756  13.021  67.069  1.00  0.00    -0.366 N  
HETATM   15  O   UNL     1      -8.802   9.502  70.305  1.00  0.00    -0.216 OA 
HETATM   16  C   UNL     1     -11.763  12.266  68.229  1.00  0.00    -0.336 C  
HETATM   17  C   UNL     1     -11.438  14.670  67.305  1.00  0.00    -0.386 C  
HETATM   18  C   UNL     1     -11.857  14.554  65.435  1.00  0.00    -0.344 C  
HETATM   19  C   UNL     1     -10.310  14.257  66.606  1.00  0.00    -0.279 C  
HETATM   20  O   UNL     1     -12.157  12.745  69.295  1.00  0.00    -0.262 OA 
ENDROOT
BRANCH   9  21
HETATM   21  C   UNL     1      -8.828   7.167  68.110  1.00  0.00    -0.126 C  
HETATM   22  H   UNL     1      -9.077   5.131  67.892  1.00  0.00     0.000 HD 
HETATM   23  O   UNL     1      -7.630   7.096  67.831  1.00  0.00    -0.105 OA 
HETATM   24  N   UNL     1      -9.511   5.985  68.241  1.00  0.00    -0.115 N  
BRANCH  24  25
HETATM   25  C   UNL     1     -10.804   5.896  68.845  1.00  0.00    -0.303 C  
BRANCH  25  26
HETATM   26  C   UNL     1     -10.927   5.720  70.315  1.00  0.00    -0.347 A  
HETATM   27  C   UNL     1     -10.077   4.657  72.329  1.00  0.00    -0.250 A  
HETATM   28  C   UNL     1     -10.695   5.641  73.086  1.00  0.00    -0.267 A  
HETATM   29  C   UNL     1     -10.201   4.704  70.948  1.00  0.00    -0.143 A  
HETATM   30  F   UNL     1      -9.536   3.797  70.217  1.00  0.00    -0.211 F  
HETATM   31  F   UNL     1     -10.556   5.624  74.417  1.00  0.00    -0.278 F  
HETATM   32  C   UNL     1     -11.428   6.661  72.490  1.00  0.00    -0.269 A  
HETATM   33  C   UNL     1     -11.535   6.694  71.105  1.00  0.00    -0.320 A  
HETATM   34  F   UNL     1     -12.161   7.727  70.528  1.00  0.00    -0.227 F  
ENDBRANCH  25  26
ENDBRANCH  24  25
ENDBRANCH   9  21
TORSDOF 3
ENDMDL
MODEL       34
REMARK 921   NORMALIZED FREE ENERGY PREDICTED BY IDOCK:   -7.35 KCAL/MOL
REMARK 922        TOTAL FREE ENERGY PREDICTED BY IDOCK:   -9.39 KCAL/MOL
REMARK 923 INTER-LIGAND FREE ENERGY PREDICTED BY IDOCK:   -8.66 KCAL/MOL
REMARK 924 INTRA-LIGAND FREE ENERGY PREDICTED BY IDOCK:   -0.72 KCAL/MOL
REMARK 927      BINDING AFFINITY PREDICTED BY RF-SCORE:    0.00 PKD
ROOT
HETATM    1  O   UNL     1     -12.875  10.348  69.560  1.00  0.00    -0.632 OA 
HETATM    2  H   UNL     1     -13.359  10.761  68.854  1.00  0.00     0.000 HD 
HETATM    3  C   UNL     1     -11.502  10.240  69.688  1.00  0.00    -0.235 C  
HETATM    4  C   UNL     1     -10.814   9.651  70.694  1.00  0.00    -0.320 C  
HETATM    5  N   UNL     1      -9.406   9.588  70.680  1.00  0.00    -0.245 NA 
HETATM    6  C   UNL     1      -8.662   8.547  71.388  1.00  0.00    -0.185 C  
HETATM    7  C   UNL     1      -8.713  10.312  69.704  1.00  0.00    -0.105 C  
HETATM    8  C   UNL     1      -9.387   7.963  72.596  1.00  0.00    -0.275 C  
HETATM    9  C   UNL     1      -9.258  10.885  68.615  1.00  0.00    -0.187 C  
HETATM   10  C   UNL     1     -10.695  10.523  68.470  1.00  0.00    -0.224 C  
HETATM   11  O   UNL     1      -8.732   6.452  72.794  1.00  0.00    -0.126 OA 
HETATM   12  C   UNL     1     -11.145   4.881  73.228  1.00  0.00    -0.410 C  
HETATM   13  C   UNL     1      -9.535   5.343  73.513  1.00  0.00    -0.137 C  
HETATM   14  N   UNL     1     -11.057   7.985  72.510  1.00  0.00    -0.348 N  
HETATM   15  O   UNL     1     -11.232  10.294  67.390  1.00  0.00    -0.274 OA 
HETATM   16  C   UNL     1     -11.676   8.928  71.709  1.00  0.00    -0.362 C  
HETATM   17  C   UNL     1     -11.920   6.536  72.687  1.00  0.00     0.003 C  
HETATM   18  C   UNL     1     -10.435   6.326  73.886  1.00  0.00    -0.292 C  
HETATM   19  C   UNL     1     -10.805   6.120  71.969  1.00  0.00    -0.292 C  
HETATM   20  O   UNL     1     -12.905   9.024  71.678  1.00  0.00    -0.325 OA 
ENDROOT
BRANCH   9  21
HETATM   21  C   UNL     1      -8.330  11.621  67.688  1.00  0.00    -0.142 C  
HETATM   22  H   UNL     1      -7.536  13.441  67.127  1.00  0.00     0.000 HD 
HETATM   23  O   UNL     1      -7.482  11.002  67.041  1.00  0.00    -0.113 OA 
HETATM   24  N   UNL     1      -8.342  12.986  67.557  1.00  0.00    -0.172 N  
BRANCH  24  25
HETATM   25  C   UNL     1      -9.433  13.801  67.995  1.00  0.00    -0.207 C  
BRANCH  25  26
HETATM   26  C   UNL     1     -10.372  14.383  67.001  1.00  0.00    -0.263 A  
HETATM   27  C   UNL     1     -10.653  15.574  64.901  1.00  0.00    -0.370 A  
HETATM   28  C   UNL     1     -11.951  15.092  64.823  1.00  0.00    -0.311 A  
HETATM   29  C   UNL     1      -9.875  15.216  65.992  1.00  0.00    -0.320 A  
HETATM   30  F   UNL     1      -8.596  15.620  66.024  1.00  0.00    -0.334 F  
HETATM   31  F   UNL     1     -12.700  15.404  63.759  1.00  0.00    -0.265 F  
HETATM   32  C   UNL     1     -12.478  14.266  65.810  1.00  0.00    -0.421 A  
HETATM   33  C   UNL     1     -11.680  13.915  66.892  1.00  0.00    -0.399 A  
HETATM   34  F   UNL     1     -12.155  13.045  67.792  1.00  0.00    -0.373 F  
ENDBRANCH  25  26
ENDBRANCH  24  25
ENDBRANCH   9  21
TORSDOF 3
ENDMDL
MODEL       35
REMARK 921   NORMALIZED FREE ENERGY PREDICTED BY IDOCK:   -7.33 KCAL/MOL
REMARK 922        TOTAL FREE ENERGY PREDICTED BY IDOCK:   -9.36 KCAL/MOL
REMARK 923 INTER-LIGAND FREE ENERGY PREDICTED BY IDOCK:   -9.04 KCAL/MOL
REMARK 924 INTRA-LIGAND FREE ENERGY PREDICTED BY IDOCK:   -0.32 KCAL/MOL
REMARK 927      BINDING AFFINITY PREDICTED BY RF-SCORE:    0.00 PKD
ROOT
HETATM    1  O   UNL     1     -12.838   9.525  70.654  1.00  0.00    -0.523 OA 
HETATM    2  H   UNL     1     -13.630  10.045  70.576  1.00  0.00     0.000 HD 
HETATM    3  C   UNL     1     -11.579   9.832  70.169  1.00  0.00    -0.182 C  
HETATM    4  C   UNL     1     -10.452   9.092  70.279  1.00  0.00    -0.218 C  
HETATM    5  N   UNL     1      -9.237   9.518  69.707  1.00  0.00    -0.192 NA 
HETATM    6  C   UNL     1      -8.185   8.580  69.315  1.00  0.00    -0.115 C  
HETATM    7  C   UNL     1      -9.160  10.813  69.184  1.00  0.00    -0.095 C  
HETATM    8  C   UNL     1      -8.181   7.272  70.099  1.00  0.00    -0.134 C  
HETATM    9  C   UNL     1     -10.204  11.629  68.952  1.00  0.00    -0.143 C  
HETATM   10  C   UNL     1     -11.501  10.932  69.168  1.00  0.00    -0.303 C  
HETATM   11  O   UNL     1      -7.435   6.180  69.098  1.00  0.00    -0.085 OA 
HETATM   12  C   UNL     1      -9.225   3.900  69.372  1.00  0.00    -0.221 C  
HETATM   13  C   UNL     1      -7.713   4.666  69.250  1.00  0.00    -0.063 C  
HETATM   14  N   UNL     1      -9.671   6.775  70.673  1.00  0.00    -0.172 N  
HETATM   15  O   UNL     1     -12.491  11.104  68.464  1.00  0.00    -0.452 OA 
HETATM   16  C   UNL     1     -10.656   7.721  70.894  1.00  0.00    -0.213 C  
HETATM   17  C   UNL     1     -10.254   5.237  70.260  1.00  0.00    -0.345 C  
HETATM   18  C   UNL     1      -8.360   4.970  70.435  1.00  0.00    -0.100 C  
HETATM   19  C   UNL     1      -9.623   5.630  69.085  1.00  0.00    -0.176 C  
HETATM   20  O   UNL     1     -11.741   7.404  71.387  1.00  0.00    -0.268 OA 
ENDROOT
BRANCH   9  21
HETATM   21  C   UNL     1      -9.901  12.989  68.383  1.00  0.00    -0.203 C  
HETATM   22  H   UNL     1     -10.196  15.026  68.529  1.00  0.00     0.000 HD 
HETATM   23  O   UNL     1      -8.958  13.137  67.603  1.00  0.00    -0.172 OA 
HETATM   24  N   UNL     1     -10.603  14.114  68.735  1.00  0.00    -0.250 N  
BRANCH  24  25
HETATM   25  C   UNL     1     -11.881  14.065  69.376  1.00  0.00    -0.333 C  
BRANCH  25  26
HETATM   26  C   UNL     1     -12.009  14.448  70.806  1.00  0.00    -0.391 A  
HETATM   27  C   UNL     1     -11.934  16.222  72.466  1.00  0.00    -0.648 A  
HETATM   28  C   UNL     1     -12.678  15.424  73.324  1.00  0.00    -0.508 A  
HETATM   29  C   UNL     1     -11.604  15.724  71.214  1.00  0.00    -0.441 A  
HETATM   30  F   UNL     1     -10.954  16.528  70.359  1.00  0.00    -0.342 F  
HETATM   31  F   UNL     1     -13.030  15.906  74.522  1.00  0.00    -0.525 F  
HETATM   32  C   UNL     1     -13.091  14.150  72.953  1.00  0.00    -0.544 A  
HETATM   33  C   UNL     1     -12.755  13.673  71.692  1.00  0.00    -0.305 A  
HETATM   34  F   UNL     1     -13.233  12.485  71.300  1.00  0.00    -0.382 F  
ENDBRANCH  25  26
ENDBRANCH  24  25
ENDBRANCH   9  21
TORSDOF 3
ENDMDL
MODEL       36
REMARK 921   NORMALIZED FREE ENERGY PREDICTED BY IDOCK:   -7.32 KCAL/MOL
REMARK 922        TOTAL FREE ENERGY PREDICTED BY IDOCK:   -9.35 KCAL/MOL
REMARK 923 INTER-LIGAND FREE ENERGY PREDICTED BY IDOCK:   -8.19 KCAL/MOL
REMARK 924 INTRA-LIGAND FREE ENERGY PREDICTED BY IDOCK:   -1.15 KCAL/MOL
REMARK 927      BINDING AFFINITY PREDICTED BY RF-SCORE:    0.00 PKD
ROOT
HETATM    1  O   UNL     1      -7.263  12.284  69.313  1.00  0.00    -0.295 OA 
HETATM    2  H   UNL     1      -6.425  12.046  69.693  1.00  0.00     0.000 HD 
HETATM    3  C   UNL     1      -8.176  11.444  68.701  1.00  0.00    -0.142 C  
HETATM    4  C   UNL     1      -9.370  11.782  68.159  1.00  0.00    -0.190 C  
HETATM    5  N   UNL     1     -10.191  10.821  67.536  1.00  0.00    -0.188 NA 
HETATM    6  C   UNL     1     -11.160  11.173  66.498  1.00  0.00    -0.167 C  
HETATM    7  C   UNL     1      -9.847   9.471  67.652  1.00  0.00    -0.165 C  
HETATM    8  C   UNL     1     -11.677  12.606  66.578  1.00  0.00    -0.463 C  
HETATM    9  C   UNL     1      -8.671   8.995  68.101  1.00  0.00    -0.130 C  
HETATM   10  C   UNL     1      -7.687  10.091  68.321  1.00  0.00    -0.084 C  
HETATM   11  O   UNL     1     -12.165  12.967  65.034  1.00  0.00    -0.408 OA 
HETATM   12  C   UNL     1     -11.020  15.626  64.725  1.00  0.00    -0.418 C  
HETATM   13  C   UNL     1     -12.222  14.437  64.559  1.00  0.00    -0.463 C  
HETATM   14  N   UNL     1     -10.619  13.716  67.244  1.00  0.00    -0.266 N  
HETATM   15  O   UNL     1      -6.491   9.992  68.063  1.00  0.00    -0.058 OA 
HETATM   16  C   UNL     1      -9.646  13.273  68.122  1.00  0.00    -0.227 C  
HETATM   17  C   UNL     1     -10.191  15.097  66.358  1.00  0.00    -0.291 C  
HETATM   18  C   UNL     1     -12.028  14.804  65.879  1.00  0.00    -0.154 C  
HETATM   19  C   UNL     1     -10.258  14.127  65.364  1.00  0.00    -0.380 C  
HETATM   20  O   UNL     1      -8.895  14.069  68.691  1.00  0.00    -0.175 OA 
ENDROOT
BRANCH   9  21
HETATM   21  C   UNL     1      -8.504   7.501  68.146  1.00  0.00    -0.124 C  
HETATM   22  H   UNL     1      -9.018   5.734  69.080  1.00  0.00     0.000 HD 
HETATM   23  O   UNL     1      -8.028   6.902  67.179  1.00  0.00    -0.110 OA 
HETATM   24  N   UNL     1      -8.913   6.740  69.211  1.00  0.00    -0.137 N  
BRANCH  24  25
HETATM   25  C   UNL     1      -9.200   7.294  70.498  1.00  0.00    -0.158 C  
BRANCH  25  26
HETATM   26  C   UNL     1     -10.595   7.662  70.855  1.00  0.00    -0.219 A  
HETATM   27  C   UNL     1     -12.741   6.941  71.738  1.00  0.00    -0.369 A  
HETATM   28  C   UNL     1     -13.050   8.265  72.017  1.00  0.00    -0.327 A  
HETATM   29  C   UNL     1     -11.516   6.652  71.157  1.00  0.00    -0.320 A  
HETATM   30  F   UNL     1     -11.190   5.366  70.963  1.00  0.00    -0.252 F  
HETATM   31  F   UNL     1     -14.215   8.554  72.607  1.00  0.00    -0.424 F  
HETATM   32  C   UNL     1     -12.160   9.293  71.725  1.00  0.00    -0.457 A  
HETATM   33  C   UNL     1     -10.935   8.981  71.148  1.00  0.00    -0.301 A  
HETATM   34  F   UNL     1     -10.042   9.960  70.954  1.00  0.00    -0.332 F  
ENDBRANCH  25  26
ENDBRANCH  24  25
ENDBRANCH   9  21
TORSDOF 3
ENDMDL
MODEL       37
REMARK 921   NORMALIZED FREE ENERGY PREDICTED BY IDOCK:   -7.24 KCAL/MOL
REMARK 922        TOTAL FREE ENERGY PREDICTED BY IDOCK:   -9.25 KCAL/MOL
REMARK 923 INTER-LIGAND FREE ENERGY PREDICTED BY IDOCK:   -9.49 KCAL/MOL
REMARK 924 INTRA-LIGAND FREE ENERGY PREDICTED BY IDOCK:    0.25 KCAL/MOL
REMARK 927      BINDING AFFINITY PREDICTED BY RF-SCORE:    0.00 PKD
ROOT
HETATM    1  O   UNL     1     -12.089   7.795  72.845  1.00  0.00    -0.597 OA 
HETATM    2  H   UNL     1     -12.664   7.848  73.600  1.00  0.00     0.000 HD 
HETATM    3  C   UNL     1     -11.877   8.763  71.880  1.00  0.00    -0.367 C  
HETATM    4  C   UNL     1     -11.058   8.687  70.805  1.00  0.00    -0.255 C  
HETATM    5  N   UNL     1     -10.962   9.746  69.881  1.00  0.00    -0.251 NA 
HETATM    6  C   UNL     1     -10.566   9.537  68.488  1.00  0.00    -0.212 C  
HETATM    7  C   UNL     1     -11.581  10.962  70.189  1.00  0.00    -0.338 C  
HETATM    8  C   UNL     1      -9.685   8.313  68.260  1.00  0.00    -0.173 C  
HETATM    9  C   UNL     1     -12.470  11.163  71.179  1.00  0.00    -0.498 C  
HETATM   10  C   UNL     1     -12.857   9.882  71.832  1.00  0.00    -0.429 C  
HETATM   11  O   UNL     1      -9.929   7.906  66.671  1.00  0.00    -0.245 OA 
HETATM   12  C   UNL     1     -10.254   5.022  66.906  1.00  0.00    -0.270 C  
HETATM   13  C   UNL     1      -9.687   6.455  66.191  1.00  0.00     0.052 C  
HETATM   14  N   UNL     1      -9.913   7.054  69.337  1.00  0.00    -0.160 N  
HETATM   15  O   UNL     1     -13.997   9.630  72.211  1.00  0.00    -0.327 OA 
HETATM   16  C   UNL     1     -10.417   7.329  70.595  1.00  0.00    -0.214 C  
HETATM   17  C   UNL     1     -10.296   5.511  68.748  1.00  0.00    -0.271 C  
HETATM   18  C   UNL     1      -9.100   6.216  67.421  1.00  0.00    -0.110 C  
HETATM   19  C   UNL     1     -11.005   6.334  67.880  1.00  0.00    -0.421 C  
HETATM   20  O   UNL     1     -10.529   6.440  71.442  1.00  0.00    -0.210 OA 
ENDROOT
BRANCH   9  21
HETATM   21  C   UNL     1     -13.018  12.555  71.340  1.00  0.00    -0.251 C  
HETATM   22  H   UNL     1     -13.246  14.428  70.505  1.00  0.00     0.000 HD 
HETATM   23  O   UNL     1     -13.862  12.790  72.207  1.00  0.00    -0.480 OA 
HETATM   24  N   UNL     1     -12.660  13.593  70.519  1.00  0.00    -0.299 N  
BRANCH  24  25
HETATM   25  C   UNL     1     -11.501  13.559  69.681  1.00  0.00    -0.217 C  
BRANCH  25  26
HETATM   26  C   UNL     1     -11.496  14.292  68.389  1.00  0.00    -0.331 A  
HETATM   27  C   UNL     1     -10.718  16.221  67.131  1.00  0.00    -0.247 A  
HETATM   28  C   UNL     1     -10.978  15.534  65.954  1.00  0.00    -0.264 A  
HETATM   29  C   UNL     1     -10.983  15.593  68.339  1.00  0.00    -0.308 A  
HETATM   30  F   UNL     1     -10.655  16.230  69.474  1.00  0.00    -0.231 F  
HETATM   31  F   UNL     1     -10.698  16.116  64.783  1.00  0.00    -0.417 F  
HETATM   32  C   UNL     1     -11.493  14.243  65.967  1.00  0.00    -0.347 A  
HETATM   33  C   UNL     1     -11.745  13.630  67.188  1.00  0.00    -0.383 A  
HETATM   34  F   UNL     1     -12.152  12.354  67.201  1.00  0.00    -0.422 F  
ENDBRANCH  25  26
ENDBRANCH  24  25
ENDBRANCH   9  21
TORSDOF 3
ENDMDL
MODEL       38
REMARK 921   NORMALIZED FREE ENERGY PREDICTED BY IDOCK:   -7.21 KCAL/MOL
REMARK 922        TOTAL FREE ENERGY PREDICTED BY IDOCK:   -9.22 KCAL/MOL
REMARK 923 INTER-LIGAND FREE ENERGY PREDICTED BY IDOCK:   -8.98 KCAL/MOL
REMARK 924 INTRA-LIGAND FREE ENERGY PREDICTED BY IDOCK:   -0.24 KCAL/MOL
REMARK 927      BINDING AFFINITY PREDICTED BY RF-SCORE:    0.00 PKD
ROOT
HETATM    1  O   UNL     1      -9.753  12.839  67.212  1.00  0.00    -0.199 OA 
HETATM    2  H   UNL     1      -9.964  11.954  66.936  1.00  0.00     0.000 HD 
HETATM    3  C   UNL     1     -10.321  13.553  68.251  1.00  0.00    -0.252 C  
HETATM    4  C   UNL     1     -10.020  14.813  68.644  1.00  0.00    -0.232 C  
HETATM    5  N   UNL     1     -10.706  15.432  69.709  1.00  0.00    -0.271 NA 
HETATM    6  C   UNL     1     -10.830  16.885  69.821  1.00  0.00    -0.035 C  
HETATM    7  C   UNL     1     -11.574  14.658  70.485  1.00  0.00    -0.263 C  
HETATM    8  C   UNL     1      -9.708  17.668  69.147  1.00  0.00    -0.098 C  
HETATM    9  C   UNL     1     -12.015  13.424  70.179  1.00  0.00    -0.396 C  
HETATM   10  C   UNL     1     -11.593  13.019  68.810  1.00  0.00    -0.309 C  
HETATM   11  O   UNL     1     -10.368  19.152  68.813  1.00  0.00    -0.334 OA 
HETATM   12  C   UNL     1      -9.436  19.544  66.082  1.00  0.00    -0.401 C  
HETATM   13  C   UNL     1      -9.790  20.024  67.673  1.00  0.00    -0.413 C  
HETATM   14  N   UNL     1      -8.997  16.918  67.833  1.00  0.00    -0.222 N  
HETATM   15  O   UNL     1     -12.304  12.379  68.041  1.00  0.00    -0.237 OA 
HETATM   16  C   UNL     1      -9.040  15.538  67.743  1.00  0.00    -0.178 C  
HETATM   17  C   UNL     1      -8.950  17.719  66.339  1.00  0.00    -0.252 C  
HETATM   18  C   UNL     1      -8.732  19.135  67.618  1.00  0.00    -0.329 C  
HETATM   19  C   UNL     1     -10.196  18.094  66.828  1.00  0.00    -0.379 C  
HETATM   20  O   UNL     1      -8.463  14.943  66.829  1.00  0.00    -0.235 OA 
ENDROOT
BRANCH   9  21
HETATM   21  C   UNL     1     -12.949  12.764  71.156  1.00  0.00    -0.157 C  
HETATM   22  H   UNL     1     -13.333  11.112  72.331  1.00  0.00     0.000 HD 
HETATM   23  O   UNL     1     -13.811  13.430  71.734  1.00  0.00    -0.327 OA 
HETATM   24  N   UNL     1     -12.859  11.437  71.488  1.00  0.00    -0.423 N  
BRANCH  24  25
HETATM   25  C   UNL     1     -12.131  10.486  70.706  1.00  0.00    -0.370 C  
BRANCH  25  26
HETATM   26  C   UNL     1     -11.244   9.498  71.373  1.00  0.00    -0.452 A  
HETATM   27  C   UNL     1     -11.070   7.515  72.767  1.00  0.00    -0.416 A  
HETATM   28  C   UNL     1      -9.788   7.307  72.278  1.00  0.00    -0.154 A  
HETATM   29  C   UNL     1     -11.786   8.612  72.310  1.00  0.00    -0.358 A  
HETATM   30  F   UNL     1     -13.053   8.764  72.724  1.00  0.00    -0.442 F  
HETATM   31  F   UNL     1      -9.100   6.235  72.687  1.00  0.00    -0.137 F  
HETATM   32  C   UNL     1      -9.218   8.171  71.351  1.00  0.00    -0.195 A  
HETATM   33  C   UNL     1      -9.954   9.260  70.902  1.00  0.00    -0.297 A  
HETATM   34  F   UNL     1      -9.441  10.038  69.939  1.00  0.00    -0.218 F  
ENDBRANCH  25  26
ENDBRANCH  24  25
ENDBRANCH   9  21
TORSDOF 3
ENDMDL
MODEL       39
REMARK 921   NORMALIZED FREE ENERGY PREDICTED BY IDOCK:   -7.21 KCAL/MOL
REMARK 922        TOTAL FREE ENERGY PREDICTED BY IDOCK:   -9.22 KCAL/MOL
REMARK 923 INTER-LIGAND FREE ENERGY PREDICTED BY IDOCK:   -8.09 KCAL/MOL
REMARK 924 INTRA-LIGAND FREE ENERGY PREDICTED BY IDOCK:   -1.13 KCAL/MOL
REMARK 927      BINDING AFFINITY PREDICTED BY RF-SCORE:    0.00 PKD
ROOT
HETATM    1  O   UNL     1      -6.942  11.640  69.686  1.00  0.00    -0.304 OA 
HETATM    2  H   UNL     1      -6.506  12.472  69.544  1.00  0.00     0.000 HD 
HETATM    3  C   UNL     1      -7.948  11.076  68.922  1.00  0.00    -0.138 C  
HETATM    4  C   UNL     1      -8.570   9.891  69.124  1.00  0.00    -0.157 C  
HETATM    5  N   UNL     1      -9.607   9.453  68.277  1.00  0.00    -0.141 NA 
HETATM    6  C   UNL     1     -10.643   8.522  68.724  1.00  0.00    -0.133 C  
HETATM    7  C   UNL     1      -9.861  10.170  67.103  1.00  0.00    -0.187 C  
HETATM    8  C   UNL     1     -10.214   7.598  69.858  1.00  0.00    -0.215 C  
HETATM    9  C   UNL     1      -9.373  11.389  66.806  1.00  0.00    -0.192 C  
HETATM   10  C   UNL     1      -8.638  11.978  67.958  1.00  0.00    -0.170 C  
HETATM   11  O   UNL     1     -11.627   7.168  70.612  1.00  0.00    -0.301 OA 
HETATM   12  C   UNL     1     -10.860   7.495  73.402  1.00  0.00    -0.339 C  
HETATM   13  C   UNL     1     -11.616   6.720  72.093  1.00  0.00    -0.288 C  
HETATM   14  N   UNL     1      -9.045   8.213  70.883  1.00  0.00    -0.147 N  
HETATM   15  O   UNL     1      -8.683  13.168  68.257  1.00  0.00    -0.176 OA 
HETATM   16  C   UNL     1      -8.185   9.190  70.413  1.00  0.00    -0.171 C  
HETATM   17  C   UNL     1      -9.353   8.291  72.549  1.00  0.00    -0.350 C  
HETATM   18  C   UNL     1     -10.236   6.676  72.001  1.00  0.00    -0.206 C  
HETATM   19  C   UNL     1     -10.596   8.606  72.012  1.00  0.00    -0.421 C  
HETATM   20  O   UNL     1      -7.264   9.615  71.113  1.00  0.00    -0.328 OA 
ENDROOT
BRANCH   9  21
HETATM   21  C   UNL     1      -9.772  11.986  65.484  1.00  0.00    -0.202 C  
HETATM   22  H   UNL     1     -10.974  13.340  64.495  1.00  0.00     0.000 HD 
HETATM   23  O   UNL     1      -9.053  11.834  64.494  1.00  0.00     0.137 OA 
HETATM   24  N   UNL     1     -10.896  12.756  65.327  1.00  0.00    -0.285 N  
BRANCH  24  25
HETATM   25  C   UNL     1     -11.964  12.777  66.278  1.00  0.00    -0.395 C  
BRANCH  25  26
HETATM   26  C   UNL     1     -11.924  13.726  67.421  1.00  0.00    -0.423 A  
HETATM   27  C   UNL     1     -11.703  14.034  69.822  1.00  0.00    -0.375 A  
HETATM   28  C   UNL     1     -11.344  15.356  69.600  1.00  0.00    -0.307 A  
HETATM   29  C   UNL     1     -11.993  13.231  68.728  1.00  0.00    -0.300 A  
HETATM   30  F   UNL     1     -12.262  11.935  68.942  1.00  0.00    -0.345 F  
HETATM   31  F   UNL     1     -11.032  16.131  70.645  1.00  0.00    -0.311 F  
HETATM   32  C   UNL     1     -11.271  15.881  68.315  1.00  0.00    -0.354 A  
HETATM   33  C   UNL     1     -11.559  15.058  67.233  1.00  0.00    -0.273 A  
HETATM   34  F   UNL     1     -11.397  15.537  65.993  1.00  0.00    -0.297 F  
ENDBRANCH  25  26
ENDBRANCH  24  25
ENDBRANCH   9  21
TORSDOF 3
ENDMDL
MODEL       40
REMARK 921   NORMALIZED FREE ENERGY PREDICTED BY IDOCK:   -7.18 KCAL/MOL
REMARK 922        TOTAL FREE ENERGY PREDICTED BY IDOCK:   -9.19 KCAL/MOL
REMARK 923 INTER-LIGAND FREE ENERGY PREDICTED BY IDOCK:   -8.32 KCAL/MOL
REMARK 924 INTRA-LIGAND FREE ENERGY PREDICTED BY IDOCK:   -0.87 KCAL/MOL
REMARK 927      BINDING AFFINITY PREDICTED BY RF-SCORE:    0.00 PKD
ROOT
HETATM    1  O   UNL     1      -9.379   8.923  64.808  1.00  0.00    -0.422 OA 
HETATM    2  H   UNL     1      -8.972   9.015  63.954  1.00  0.00     0.000 HD 
HETATM    3  C   UNL     1     -10.116   9.871  65.496  1.00  0.00    -0.227 C  
HETATM    4  C   UNL     1     -10.695   9.739  66.712  1.00  0.00    -0.073 C  
HETATM    5  N   UNL     1     -11.395  10.806  67.309  1.00  0.00    -0.410 NA 
HETATM    6  C   UNL     1     -11.552  10.927  68.759  1.00  0.00    -0.309 C  
HETATM    7  C   UNL     1     -11.652  11.950  66.546  1.00  0.00    -0.255 C  
HETATM    8  C   UNL     1     -11.499   9.601  69.512  1.00  0.00     0.002 C  
HETATM    9  C   UNL     1     -11.091  12.244  65.359  1.00  0.00    -0.353 C  
HETATM   10  C   UNL     1     -10.019  11.274  65.006  1.00  0.00    -0.274 C  
HETATM   11  O   UNL     1     -11.023  10.004  71.048  1.00  0.00    -0.322 OA 
HETATM   12  C   UNL     1      -9.014   7.953  71.536  1.00  0.00    -0.167 C  
HETATM   13  C   UNL     1     -10.321   8.959  71.946  1.00  0.00    -0.337 C  
HETATM   14  N   UNL     1     -10.576   8.405  68.795  1.00  0.00    -0.172 N  
HETATM   15  O   UNL     1      -8.969  11.590  64.454  1.00  0.00     0.091 OA 
HETATM   16  C   UNL     1     -10.372   8.442  67.427  1.00  0.00    -0.285 C  
HETATM   17  C   UNL     1      -9.319   7.682  69.674  1.00  0.00    -0.156 C  
HETATM   18  C   UNL     1     -10.668   8.010  71.001  1.00  0.00    -0.245 C  
HETATM   19  C   UNL     1      -9.240   9.005  70.094  1.00  0.00    -0.212 C  
HETATM   20  O   UNL     1      -9.760   7.539  66.852  1.00  0.00    -0.180 OA 
ENDROOT
BRANCH   9  21
HETATM   21  C   UNL     1     -11.507  13.532  64.701  1.00  0.00    -0.358 C  
HETATM   22  H   UNL     1     -10.923  15.391  64.022  1.00  0.00     0.000 HD 
HETATM   23  O   UNL     1     -12.580  13.599  64.097  1.00  0.00    -0.655 OA 
HETATM   24  N   UNL     1     -10.714  14.651  64.692  1.00  0.00    -0.359 N  
BRANCH  24  25
HETATM   25  C   UNL     1      -9.606  14.827  65.580  1.00  0.00    -0.124 C  
BRANCH  25  26
HETATM   26  C   UNL     1      -9.833  15.324  66.962  1.00  0.00    -0.233 A  
HETATM   27  C   UNL     1     -10.790  17.044  68.388  1.00  0.00    -0.333 A  
HETATM   28  C   UNL     1     -10.764  16.150  69.450  1.00  0.00    -0.307 A  
HETATM   29  C   UNL     1     -10.321  16.622  67.153  1.00  0.00    -0.300 A  
HETATM   30  F   UNL     1     -10.421  17.462  66.112  1.00  0.00    -0.334 F  
HETATM   31  F   UNL     1     -11.243  16.535  70.638  1.00  0.00    -0.379 F  
HETATM   32  C   UNL     1     -10.281  14.856  69.296  1.00  0.00    -0.219 A  
HETATM   33  C   UNL     1      -9.822  14.451  68.048  1.00  0.00    -0.221 A  
HETATM   34  F   UNL     1      -9.446  13.178  67.878  1.00  0.00    -0.189 F  
ENDBRANCH  25  26
ENDBRANCH  24  25
ENDBRANCH   9  21
TORSDOF 3
ENDMDL
MODEL       41
REMARK 921   NORMALIZED FREE ENERGY PREDICTED BY IDOCK:   -7.17 KCAL/MOL
REMARK 922        TOTAL FREE ENERGY PREDICTED BY IDOCK:   -9.17 KCAL/MOL
REMARK 923 INTER-LIGAND FREE ENERGY PREDICTED BY IDOCK:   -8.19 KCAL/MOL
REMARK 924 INTRA-LIGAND FREE ENERGY PREDICTED BY IDOCK:   -0.98 KCAL/MOL
REMARK 927      BINDING AFFINITY PREDICTED BY RF-SCORE:    0.00 PKD
ROOT
HETATM    1  O   UNL     1      -6.928  11.246  69.799  1.00  0.00    -0.276 OA 
HETATM    2  H   UNL     1      -6.451  12.057  69.659  1.00  0.00     0.000 HD 
HETATM    3  C   UNL     1      -7.965  10.739  69.037  1.00  0.00    -0.137 C  
HETATM    4  C   UNL     1      -8.644   9.585  69.236  1.00  0.00    -0.149 C  
HETATM    5  N   UNL     1      -9.706   9.204  68.391  1.00  0.00    -0.149 NA 
HETATM    6  C   UNL     1     -10.785   8.324  68.839  1.00  0.00    -0.062 C  
HETATM    7  C   UNL     1      -9.931   9.941  67.224  1.00  0.00    -0.196 C  
HETATM    8  C   UNL     1     -10.397   7.371  69.965  1.00  0.00    -0.224 C  
HETATM    9  C   UNL     1      -9.383  11.135  66.931  1.00  0.00    -0.189 C  
HETATM   10  C   UNL     1      -8.614  11.680  68.083  1.00  0.00    -0.158 C  
HETATM   11  O   UNL     1     -11.825   7.008  70.725  1.00  0.00    -0.337 OA 
HETATM   12  C   UNL     1     -11.028   7.279  73.512  1.00  0.00    -0.180 C  
HETATM   13  C   UNL     1     -11.828   6.550  72.202  1.00  0.00    -0.305 C  
HETATM   14  N   UNL     1      -9.193   7.921  70.987  1.00  0.00    -0.150 N  
HETATM   15  O   UNL     1      -8.598  12.869  68.389  1.00  0.00    -0.174 OA 
HETATM   16  C   UNL     1      -8.288   8.857  70.517  1.00  0.00    -0.159 C  
HETATM   17  C   UNL     1      -9.487   8.004  72.655  1.00  0.00    -0.317 C  
HETATM   18  C   UNL     1     -10.453   6.438  72.102  1.00  0.00    -0.234 C  
HETATM   19  C   UNL     1     -10.716   8.384  72.127  1.00  0.00    -0.407 C  
HETATM   20  O   UNL     1      -7.342   9.231  71.215  1.00  0.00    -0.272 OA 
ENDROOT
BRANCH   9  21
HETATM   21  C   UNL     1      -9.760  11.761  65.616  1.00  0.00    -0.233 C  
HETATM   22  H   UNL     1     -10.881  13.195  64.644  1.00  0.00     0.000 HD 
HETATM   23  O   UNL     1      -9.067  11.561  64.616  1.00  0.00    -0.027 OA 
HETATM   24  N   UNL     1     -10.831  12.606  65.475  1.00  0.00    -0.273 N  
BRANCH  24  25
HETATM   25  C   UNL     1     -11.882  12.697  66.441  1.00  0.00    -0.402 C  
BRANCH  25  26
HETATM   26  C   UNL     1     -11.705  13.539  67.653  1.00  0.00    -0.398 A  
HETATM   27  C   UNL     1     -11.638  15.775  68.603  1.00  0.00    -0.392 A  
HETATM   28  C   UNL     1     -11.883  15.230  69.855  1.00  0.00    -0.335 A  
HETATM   29  C   UNL     1     -11.549  14.922  67.513  1.00  0.00    -0.339 A  
HETATM   30  F   UNL     1     -11.392  15.460  66.294  1.00  0.00    -0.315 F  
HETATM   31  F   UNL     1     -12.003  16.044  70.909  1.00  0.00    -0.366 F  
HETATM   32  C   UNL     1     -12.037  13.859  70.031  1.00  0.00    -0.411 A  
HETATM   33  C   UNL     1     -11.951  13.023  68.925  1.00  0.00    -0.263 A  
HETATM   34  F   UNL     1     -12.193  11.715  69.080  1.00  0.00    -0.359 F  
ENDBRANCH  25  26
ENDBRANCH  24  25
ENDBRANCH   9  21
TORSDOF 3
ENDMDL
MODEL       42
REMARK 921   NORMALIZED FREE ENERGY PREDICTED BY IDOCK:   -7.14 KCAL/MOL
REMARK 922        TOTAL FREE ENERGY PREDICTED BY IDOCK:   -9.14 KCAL/MOL
REMARK 923 INTER-LIGAND FREE ENERGY PREDICTED BY IDOCK:   -8.86 KCAL/MOL
REMARK 924 INTRA-LIGAND FREE ENERGY PREDICTED BY IDOCK:   -0.28 KCAL/MOL
REMARK 927      BINDING AFFINITY PREDICTED BY RF-SCORE:    0.00 PKD
ROOT
HETATM    1  O   UNL     1      -9.716   9.243  64.907  1.00  0.00    -0.421 OA 
HETATM    2  H   UNL     1      -9.525   9.647  64.068  1.00  0.00     0.000 HD 
HETATM    3  C   UNL     1     -10.274   9.843  66.022  1.00  0.00    -0.198 C  
HETATM    4  C   UNL     1     -10.545   9.268  67.216  1.00  0.00    -0.233 C  
HETATM    5  N   UNL     1     -11.090  10.012  68.281  1.00  0.00    -0.228 NA 
HETATM    6  C   UNL     1     -10.896   9.634  69.681  1.00  0.00    -0.244 C  
HETATM    7  C   UNL     1     -11.529  11.316  68.031  1.00  0.00    -0.298 C  
HETATM    8  C   UNL     1     -10.656   8.144  69.905  1.00  0.00    -0.239 C  
HETATM    9  C   UNL     1     -11.269  12.033  66.923  1.00  0.00    -0.375 C  
HETATM   10  C   UNL     1     -10.306  11.331  66.031  1.00  0.00    -0.252 C  
HETATM   11  O   UNL     1      -9.830   8.058  71.340  1.00  0.00    -0.165 OA 
HETATM   12  C   UNL     1      -7.749   6.145  70.640  1.00  0.00    -0.105 C  
HETATM   13  C   UNL     1      -8.927   6.841  71.648  1.00  0.00    -0.136 C  
HETATM   14  N   UNL     1      -9.923   7.337  68.638  1.00  0.00    -0.161 N  
HETATM   15  O   UNL     1      -9.421  11.903  65.402  1.00  0.00    -0.207 OA 
HETATM   16  C   UNL     1     -10.051   7.840  67.355  1.00  0.00    -0.222 C  
HETATM   17  C   UNL     1      -8.488   6.477  68.915  1.00  0.00    -0.122 C  
HETATM   18  C   UNL     1      -9.483   6.230  70.538  1.00  0.00    -0.175 C  
HETATM   19  C   UNL     1      -8.319   7.589  69.732  1.00  0.00    -0.134 C  
HETATM   20  O   UNL     1      -9.589   7.234  66.386  1.00  0.00    -0.172 OA 
ENDROOT
BRANCH   9  21
HETATM   21  C   UNL     1     -11.839  13.424  66.854  1.00  0.00    -0.403 C  
HETATM   22  H   UNL     1     -11.670  15.391  67.454  1.00  0.00     0.000 HD 
HETATM   23  O   UNL     1     -12.651  13.717  65.973  1.00  0.00    -0.441 OA 
HETATM   24  N   UNL     1     -11.456  14.426  67.708  1.00  0.00    -0.318 N  
BRANCH  24  25
HETATM   25  C   UNL     1     -10.771  14.180  68.939  1.00  0.00    -0.256 C  
BRANCH  25  26
HETATM   26  C   UNL     1     -11.410  14.540  70.231  1.00  0.00    -0.225 A  
HETATM   27  C   UNL     1     -12.011  16.297  71.800  1.00  0.00    -0.473 A  
HETATM   28  C   UNL     1     -12.967  15.454  72.348  1.00  0.00    -0.402 A  
HETATM   29  C   UNL     1     -11.239  15.830  70.746  1.00  0.00    -0.375 A  
HETATM   30  F   UNL     1     -10.372  16.675  70.168  1.00  0.00    -0.162 F  
HETATM   31  F   UNL     1     -13.740  15.903  73.343  1.00  0.00    -0.607 F  
HETATM   32  C   UNL     1     -13.160  14.165  71.864  1.00  0.00    -0.456 A  
HETATM   33  C   UNL     1     -12.380  13.719  70.804  1.00  0.00    -0.379 A  
HETATM   34  F   UNL     1     -12.630  12.514  70.277  1.00  0.00    -0.275 F  
ENDBRANCH  25  26
ENDBRANCH  24  25
ENDBRANCH   9  21
TORSDOF 3
ENDMDL
MODEL       43
REMARK 921   NORMALIZED FREE ENERGY PREDICTED BY IDOCK:   -7.12 KCAL/MOL
REMARK 922        TOTAL FREE ENERGY PREDICTED BY IDOCK:   -9.12 KCAL/MOL
REMARK 923 INTER-LIGAND FREE ENERGY PREDICTED BY IDOCK:   -7.92 KCAL/MOL
REMARK 924 INTRA-LIGAND FREE ENERGY PREDICTED BY IDOCK:   -1.20 KCAL/MOL
REMARK 927      BINDING AFFINITY PREDICTED BY RF-SCORE:    0.00 PKD
ROOT
HETATM    1  O   UNL     1      -7.079  11.234  69.697  1.00  0.00    -0.272 OA 
HETATM    2  H   UNL     1      -6.639  12.059  69.528  1.00  0.00     0.000 HD 
HETATM    3  C   UNL     1      -7.823  10.480  68.807  1.00  0.00    -0.116 C  
HETATM    4  C   UNL     1      -8.450   9.305  69.047  1.00  0.00    -0.132 C  
HETATM    5  N   UNL     1      -9.204   8.659  68.047  1.00  0.00    -0.140 NA 
HETATM    6  C   UNL     1     -10.302   7.746  68.361  1.00  0.00    -0.196 C  
HETATM    7  C   UNL     1      -9.140   9.148  66.738  1.00  0.00    -0.144 C  
HETATM    8  C   UNL     1     -10.183   7.058  69.717  1.00  0.00    -0.213 C  
HETATM    9  C   UNL     1      -8.615  10.330  66.367  1.00  0.00    -0.138 C  
HETATM   10  C   UNL     1      -8.239  11.156  67.547  1.00  0.00    -0.119 C  
HETATM   11  O   UNL     1     -11.740   6.663  70.131  1.00  0.00    -0.394 OA 
HETATM   12  C   UNL     1     -11.780   7.509  72.917  1.00  0.00    -0.159 C  
HETATM   13  C   UNL     1     -12.128   6.473  71.616  1.00  0.00    -0.328 C  
HETATM   14  N   UNL     1      -9.356   7.918  70.888  1.00  0.00    -0.152 N  
HETATM   15  O   UNL     1      -8.391  12.373  67.602  1.00  0.00    -0.148 OA 
HETATM   16  C   UNL     1      -8.421   8.860  70.496  1.00  0.00    -0.177 C  
HETATM   17  C   UNL     1     -10.113   8.254  72.368  1.00  0.00    -0.383 C  
HETATM   18  C   UNL     1     -10.776   6.511  71.906  1.00  0.00    -0.251 C  
HETATM   19  C   UNL     1     -11.166   8.385  71.470  1.00  0.00    -0.328 C  
HETATM   20  O   UNL     1      -7.738   9.461  71.328  1.00  0.00    -0.336 OA 
ENDROOT
BRANCH   9  21
HETATM   21  C   UNL     1      -8.647  10.667  64.900  1.00  0.00    -0.141 C  
HETATM   22  H   UNL     1      -9.601  11.693  63.385  1.00  0.00     0.000 HD 
HETATM   23  O   UNL     1      -7.655  10.462  64.197  1.00  0.00    -0.118 OA 
HETATM   24  N   UNL     1      -9.730  11.255  64.297  1.00  0.00    -0.248 N  
BRANCH  24  25
HETATM   25  C   UNL     1     -11.031  11.281  64.890  1.00  0.00    -0.173 C  
BRANCH  25  26
HETATM   26  C   UNL     1     -11.423  12.409  65.774  1.00  0.00    -0.416 A  
HETATM   27  C   UNL     1     -11.877  13.178  68.035  1.00  0.00    -0.398 A  
HETATM   28  C   UNL     1     -11.664  14.483  67.613  1.00  0.00    -0.382 A  
HETATM   29  C   UNL     1     -11.756  12.153  67.109  1.00  0.00    -0.302 A  
HETATM   30  F   UNL     1     -11.884  10.888  67.538  1.00  0.00    -0.305 F  
HETATM   31  F   UNL     1     -11.746  15.478  68.503  1.00  0.00    -0.328 F  
HETATM   32  C   UNL     1     -11.337  14.774  66.293  1.00  0.00    -0.334 A  
HETATM   33  C   UNL     1     -11.215  13.731  65.383  1.00  0.00    -0.302 A  
HETATM   34  F   UNL     1     -10.808  14.002  64.137  1.00  0.00    -0.348 F  
ENDBRANCH  25  26
ENDBRANCH  24  25
ENDBRANCH   9  21
TORSDOF 3
ENDMDL
MODEL       44
REMARK 921   NORMALIZED FREE ENERGY PREDICTED BY IDOCK:   -7.12 KCAL/MOL
REMARK 922        TOTAL FREE ENERGY PREDICTED BY IDOCK:   -9.11 KCAL/MOL
REMARK 923 INTER-LIGAND FREE ENERGY PREDICTED BY IDOCK:   -9.33 KCAL/MOL
REMARK 924 INTRA-LIGAND FREE ENERGY PREDICTED BY IDOCK:    0.22 KCAL/MOL
REMARK 927      BINDING AFFINITY PREDICTED BY RF-SCORE:    0.00 PKD
ROOT
HETATM    1  O   UNL     1     -12.625   7.674  72.607  1.00  0.00    -0.527 OA 
HETATM    2  H   UNL     1     -13.397   7.893  73.116  1.00  0.00     0.000 HD 
HETATM    3  C   UNL     1     -11.959   8.477  71.700  1.00  0.00    -0.316 C  
HETATM    4  C   UNL     1     -10.859   8.164  70.976  1.00  0.00    -0.235 C  
HETATM    5  N   UNL     1     -10.301   9.077  70.059  1.00  0.00    -0.198 NA 
HETATM    6  C   UNL     1      -9.513   8.645  68.905  1.00  0.00    -0.146 C  
HETATM    7  C   UNL     1     -10.783  10.390  70.043  1.00  0.00    -0.265 C  
HETATM    8  C   UNL     1      -8.814   7.302  69.084  1.00  0.00    -0.136 C  
HETATM    9  C   UNL     1     -11.901  10.824  70.654  1.00  0.00    -0.460 C  
HETATM   10  C   UNL     1     -12.678   9.695  71.235  1.00  0.00    -0.352 C  
HETATM   11  O   UNL     1      -8.591   6.730  67.544  1.00  0.00    -0.120 OA 
HETATM   12  C   UNL     1      -9.431   3.962  67.879  1.00  0.00    -0.227 C  
HETATM   13  C   UNL     1      -8.441   5.212  67.290  1.00  0.00    -0.106 C  
HETATM   14  N   UNL     1      -9.576   6.228  70.115  1.00  0.00    -0.162 N  
HETATM   15  O   UNL     1     -13.904   9.637  71.222  1.00  0.00    -0.276 OA 
HETATM   16  C   UNL     1     -10.411   6.721  71.102  1.00  0.00    -0.205 C  
HETATM   17  C   UNL     1      -9.990   4.683  69.553  1.00  0.00    -0.266 C  
HETATM   18  C   UNL     1      -8.331   5.059  68.660  1.00  0.00    -0.087 C  
HETATM   19  C   UNL     1     -10.237   5.471  68.435  1.00  0.00    -0.242 C  
HETATM   20  O   UNL     1     -10.932   5.968  71.928  1.00  0.00    -0.243 OA 
ENDROOT
BRANCH   9  21
HETATM   21  C   UNL     1     -12.242  12.282  70.511  1.00  0.00    -0.300 C  
HETATM   22  H   UNL     1     -12.493  13.878  69.227  1.00  0.00     0.000 HD 
HETATM   23  O   UNL     1     -12.795  12.882  71.435  1.00  0.00    -0.367 OA 
HETATM   24  N   UNL     1     -12.012  12.988  69.357  1.00  0.00    -0.303 N  
BRANCH  24  25
HETATM   25  C   UNL     1     -11.129  12.533  68.329  1.00  0.00    -0.257 C  
BRANCH  25  26
HETATM   26  C   UNL     1     -11.557  12.578  66.907  1.00  0.00    -0.436 A  
HETATM   27  C   UNL     1     -12.362  13.928  65.052  1.00  0.00    -0.452 A  
HETATM   28  C   UNL     1     -11.923  12.947  64.174  1.00  0.00    -0.423 A  
HETATM   29  C   UNL     1     -12.177  13.732  66.413  1.00  0.00    -0.436 A  
HETATM   30  F   UNL     1     -12.530  14.717  67.253  1.00  0.00    -0.331 F  
HETATM   31  F   UNL     1     -12.067  13.139  62.858  1.00  0.00    -0.591 F  
HETATM   32  C   UNL     1     -11.309  11.787  64.631  1.00  0.00    -0.320 A  
HETATM   33  C   UNL     1     -11.128  11.614  65.997  1.00  0.00    -0.270 A  
HETATM   34  F   UNL     1     -10.453  10.541  66.431  1.00  0.00    -0.278 F  
ENDBRANCH  25  26
ENDBRANCH  24  25
ENDBRANCH   9  21
TORSDOF 3
ENDMDL
MODEL       45
REMARK 921   NORMALIZED FREE ENERGY PREDICTED BY IDOCK:   -7.09 KCAL/MOL
REMARK 922        TOTAL FREE ENERGY PREDICTED BY IDOCK:   -9.08 KCAL/MOL
REMARK 923 INTER-LIGAND FREE ENERGY PREDICTED BY IDOCK:   -8.88 KCAL/MOL
REMARK 924 INTRA-LIGAND FREE ENERGY PREDICTED BY IDOCK:   -0.20 KCAL/MOL
REMARK 927      BINDING AFFINITY PREDICTED BY RF-SCORE:    0.00 PKD
ROOT
HETATM    1  O   UNL     1     -10.120  10.595  69.993  1.00  0.00    -0.425 OA 
HETATM    2  H   UNL     1     -10.646  11.091  70.609  1.00  0.00     0.000 HD 
HETATM    3  C   UNL     1     -10.155  10.662  68.612  1.00  0.00    -0.183 C  
HETATM    4  C   UNL     1      -9.406   9.955  67.734  1.00  0.00    -0.140 C  
HETATM    5  N   UNL     1      -9.571  10.104  66.342  1.00  0.00    -0.182 NA 
HETATM    6  C   UNL     1      -9.229   9.044  65.395  1.00  0.00    -0.176 C  
HETATM    7  C   UNL     1     -10.388  11.137  65.872  1.00  0.00    -0.259 C  
HETATM    8  C   UNL     1      -8.148   8.085  65.884  1.00  0.00    -0.117 C  
HETATM    9  C   UNL     1     -11.236  11.869  66.618  1.00  0.00    -0.384 C  
HETATM   10  C   UNL     1     -11.332  11.346  68.008  1.00  0.00    -0.303 C  
HETATM   11  O   UNL     1      -8.408   6.684  65.035  1.00  0.00    -0.133 OA 
HETATM   12  C   UNL     1      -8.164   4.718  67.168  1.00  0.00    -0.106 C  
HETATM   13  C   UNL     1      -7.926   5.328  65.601  1.00  0.00    -0.106 C  
HETATM   14  N   UNL     1      -8.065   7.881  67.541  1.00  0.00    -0.122 N  
HETATM   15  O   UNL     1     -12.377  11.309  68.650  1.00  0.00    -0.534 OA 
HETATM   16  C   UNL     1      -8.533   8.888  68.366  1.00  0.00    -0.129 C  
HETATM   17  C   UNL     1      -8.184   6.322  68.197  1.00  0.00    -0.115 C  
HETATM   18  C   UNL     1      -7.228   6.049  66.555  1.00  0.00    -0.073 C  
HETATM   19  C   UNL     1      -9.089   6.261  67.144  1.00  0.00    -0.119 C  
HETATM   20  O   UNL     1      -8.421   8.808  69.592  1.00  0.00    -0.122 OA 
ENDROOT
BRANCH   9  21
HETATM   21  C   UNL     1     -12.028  12.936  65.911  1.00  0.00    -0.448 C  
HETATM   22  H   UNL     1     -12.191  14.939  65.444  1.00  0.00     0.000 HD 
HETATM   23  O   UNL     1     -12.869  12.625  65.066  1.00  0.00    -0.765 OA 
HETATM   24  N   UNL     1     -11.823  14.276  66.125  1.00  0.00    -0.391 N  
BRANCH  24  25
HETATM   25  C   UNL     1     -11.117  14.784  67.261  1.00  0.00    -0.332 C  
BRANCH  25  26
HETATM   26  C   UNL     1     -10.653  16.195  67.277  1.00  0.00    -0.305 A  
HETATM   27  C   UNL     1     -10.298  18.249  66.027  1.00  0.00    -0.377 A  
HETATM   28  C   UNL     1     -10.292  18.953  67.223  1.00  0.00    -0.418 A  
HETATM   29  C   UNL     1     -10.477  16.875  66.066  1.00  0.00    -0.290 A  
HETATM   30  F   UNL     1     -10.562  16.209  64.904  1.00  0.00    -0.400 F  
HETATM   31  F   UNL     1     -10.153  20.284  67.196  1.00  0.00    -0.509 F  
HETATM   32  C   UNL     1     -10.459  18.310  68.443  1.00  0.00    -0.292 A  
HETATM   33  C   UNL     1     -10.643  16.932  68.460  1.00  0.00    -0.367 A  
HETATM   34  F   UNL     1     -10.897  16.326  69.626  1.00  0.00    -0.256 F  
ENDBRANCH  25  26
ENDBRANCH  24  25
ENDBRANCH   9  21
TORSDOF 3
ENDMDL
MODEL       46
REMARK 921   NORMALIZED FREE ENERGY PREDICTED BY IDOCK:   -7.08 KCAL/MOL
REMARK 922        TOTAL FREE ENERGY PREDICTED BY IDOCK:   -9.07 KCAL/MOL
REMARK 923 INTER-LIGAND FREE ENERGY PREDICTED BY IDOCK:   -8.18 KCAL/MOL
REMARK 924 INTRA-LIGAND FREE ENERGY PREDICTED BY IDOCK:   -0.88 KCAL/MOL
REMARK 927      BINDING AFFINITY PREDICTED BY RF-SCORE:    0.00 PKD
ROOT
HETATM    1  O   UNL     1     -11.079   7.175  67.057  1.00  0.00    -0.533 OA 
HETATM    2  H   UNL     1     -11.053   7.068  66.113  1.00  0.00     0.000 HD 
HETATM    3  C   UNL     1     -10.484   8.174  67.807  1.00  0.00    -0.214 C  
HETATM    4  C   UNL     1     -10.522   8.327  69.151  1.00  0.00    -0.206 C  
HETATM    5  N   UNL     1      -9.839   9.382  69.788  1.00  0.00    -0.188 NA 
HETATM    6  C   UNL     1      -9.388   9.298  71.177  1.00  0.00    -0.189 C  
HETATM    7  C   UNL     1      -9.276  10.389  68.997  1.00  0.00    -0.187 C  
HETATM    8  C   UNL     1     -10.205   8.351  72.050  1.00  0.00    -0.364 C  
HETATM    9  C   UNL     1      -9.108  10.339  67.663  1.00  0.00    -0.144 C  
HETATM   10  C   UNL     1      -9.450   8.996  67.120  1.00  0.00    -0.152 C  
HETATM   11  O   UNL     1      -9.177   7.909  73.274  1.00  0.00    -0.232 OA 
HETATM   12  C   UNL     1      -9.662   5.039  73.363  1.00  0.00    -0.158 C  
HETATM   13  C   UNL     1      -9.394   6.579  74.032  1.00  0.00    -0.181 C  
HETATM   14  N   UNL     1     -10.914   7.067  71.247  1.00  0.00    -0.239 N  
HETATM   15  O   UNL     1      -8.825   8.448  66.217  1.00  0.00    -0.140 OA 
HETATM   16  C   UNL     1     -11.189   7.188  69.897  1.00  0.00    -0.208 C  
HETATM   17  C   UNL     1     -10.594   5.483  71.761  1.00  0.00    -0.296 C  
HETATM   18  C   UNL     1     -10.619   6.491  73.395  1.00  0.00    -0.309 C  
HETATM   19  C   UNL     1      -9.361   6.098  71.941  1.00  0.00    -0.157 C  
HETATM   20  O   UNL     1     -11.779   6.292  69.287  1.00  0.00    -0.262 OA 
ENDROOT
BRANCH   9  21
HETATM   21  C   UNL     1      -8.478  11.535  67.003  1.00  0.00    -0.164 C  
HETATM   22  H   UNL     1      -8.636  13.544  66.558  1.00  0.00     0.000 HD 
HETATM   23  O   UNL     1      -7.282  11.517  66.702  1.00  0.00    -0.132 OA 
HETATM   24  N   UNL     1      -9.166  12.696  66.759  1.00  0.00    -0.223 N  
BRANCH  24  25
HETATM   25  C   UNL     1     -10.595  12.771  66.772  1.00  0.00    -0.252 C  
BRANCH  25  26
HETATM   26  C   UNL     1     -11.283  13.669  67.735  1.00  0.00    -0.310 A  
HETATM   27  C   UNL     1     -12.341  13.915  69.909  1.00  0.00    -0.358 A  
HETATM   28  C   UNL     1     -12.139  15.285  69.831  1.00  0.00    -0.343 A  
HETATM   29  C   UNL     1     -11.912  13.119  68.857  1.00  0.00    -0.277 A  
HETATM   30  F   UNL     1     -12.038  11.788  68.972  1.00  0.00    -0.343 F  
HETATM   31  F   UNL     1     -12.519  16.060  70.854  1.00  0.00    -0.441 F  
HETATM   32  C   UNL     1     -11.522  15.865  68.729  1.00  0.00    -0.393 A  
HETATM   33  C   UNL     1     -11.094  15.049  67.689  1.00  0.00    -0.316 A  
HETATM   34  F   UNL     1     -10.417  15.596  66.671  1.00  0.00    -0.275 F  
ENDBRANCH  25  26
ENDBRANCH  24  25
ENDBRANCH   9  21
TORSDOF 3
ENDMDL
MODEL       47
REMARK 921   NORMALIZED FREE ENERGY PREDICTED BY IDOCK:   -7.08 KCAL/MOL
REMARK 922        TOTAL FREE ENERGY PREDICTED BY IDOCK:   -9.06 KCAL/MOL
REMARK 923 INTER-LIGAND FREE ENERGY PREDICTED BY IDOCK:   -8.12 KCAL/MOL
REMARK 924 INTRA-LIGAND FREE ENERGY PREDICTED BY IDOCK:   -0.94 KCAL/MOL
REMARK 927      BINDING AFFINITY PREDICTED BY RF-SCORE:    0.00 PKD
ROOT
HETATM    1  O   UNL     1     -12.840  10.698  69.097  1.00  0.00    -0.607 OA 
HETATM    2  H   UNL     1     -13.470  10.235  69.637  1.00  0.00     0.000 HD 
HETATM    3  C   UNL     1     -11.460  10.635  69.172  1.00  0.00    -0.280 C  
HETATM    4  C   UNL     1     -10.563  11.295  68.404  1.00  0.00    -0.197 C  
HETATM    5  N   UNL     1      -9.177  11.158  68.613  1.00  0.00    -0.178 NA 
HETATM    6  C   UNL     1      -8.220  12.197  68.232  1.00  0.00    -0.168 C  
HETATM    7  C   UNL     1      -8.728  10.177  69.504  1.00  0.00    -0.174 C  
HETATM    8  C   UNL     1      -8.680  13.088  67.082  1.00  0.00    -0.204 C  
HETATM    9  C   UNL     1      -9.495   9.497  70.375  1.00  0.00    -0.317 C  
HETATM   10  C   UNL     1     -10.887  10.024  70.403  1.00  0.00    -0.318 C  
HETATM   11  O   UNL     1      -7.837  14.502  67.279  1.00  0.00    -0.192 OA 
HETATM   12  C   UNL     1      -9.963  16.448  66.861  1.00  0.00    -0.273 C  
HETATM   13  C   UNL     1      -8.390  15.826  66.700  1.00  0.00    -0.284 C  
HETATM   14  N   UNL     1     -10.335  13.284  66.945  1.00  0.00    -0.253 N  
HETATM   15  O   UNL     1     -11.556  10.123  71.428  1.00  0.00    -0.348 OA 
HETATM   16  C   UNL     1     -11.173  12.306  67.452  1.00  0.00    -0.301 C  
HETATM   17  C   UNL     1     -10.993  14.847  66.952  1.00  0.00    -0.327 C  
HETATM   18  C   UNL     1      -9.326  15.063  66.024  1.00  0.00    -0.304 C  
HETATM   19  C   UNL     1      -9.963  14.964  67.878  1.00  0.00    -0.219 C  
HETATM   20  O   UNL     1     -12.395  12.379  67.304  1.00  0.00    -0.366 OA 
ENDROOT
BRANCH   9  21
HETATM   21  C   UNL     1      -8.811   8.481  71.248  1.00  0.00    -0.190 C  
HETATM   22  H   UNL     1      -8.483   6.481  71.638  1.00  0.00     0.000 HD 
HETATM   23  O   UNL     1      -7.879   8.822  71.980  1.00  0.00    -0.302 OA 
HETATM   24  N   UNL     1      -9.140   7.149  71.235  1.00  0.00    -0.150 N  
BRANCH  24  25
HETATM   25  C   UNL     1     -10.363   6.656  70.682  1.00  0.00    -0.202 C  
BRANCH  25  26
HETATM   26  C   UNL     1     -10.336   5.776  69.485  1.00  0.00    -0.333 A  
HETATM   27  C   UNL     1     -10.315   5.616  67.060  1.00  0.00    -0.306 A  
HETATM   28  C   UNL     1      -9.805   4.331  67.168  1.00  0.00    -0.163 A  
HETATM   29  C   UNL     1     -10.578   6.327  68.222  1.00  0.00    -0.258 A  
HETATM   30  F   UNL     1     -10.996   7.597  68.112  1.00  0.00    -0.196 F  
HETATM   31  F   UNL     1      -9.517   3.647  66.054  1.00  0.00    -0.155 F  
HETATM   32  C   UNL     1      -9.557   3.751  68.407  1.00  0.00    -0.172 A  
HETATM   33  C   UNL     1      -9.822   4.482  69.558  1.00  0.00    -0.207 A  
HETATM   34  F   UNL     1      -9.496   3.960  70.747  1.00  0.00    -0.175 F  
ENDBRANCH  25  26
ENDBRANCH  24  25
ENDBRANCH   9  21
TORSDOF 3
ENDMDL
MODEL       48
REMARK 921   NORMALIZED FREE ENERGY PREDICTED BY IDOCK:   -7.06 KCAL/MOL
REMARK 922        TOTAL FREE ENERGY PREDICTED BY IDOCK:   -9.04 KCAL/MOL
REMARK 923 INTER-LIGAND FREE ENERGY PREDICTED BY IDOCK:   -8.26 KCAL/MOL
REMARK 924 INTRA-LIGAND FREE ENERGY PREDICTED BY IDOCK:   -0.78 KCAL/MOL
REMARK 927      BINDING AFFINITY PREDICTED BY RF-SCORE:    0.00 PKD
ROOT
HETATM    1  O   UNL     1     -10.006   7.916  66.421  1.00  0.00    -0.410 OA 
HETATM    2  H   UNL     1      -9.671   7.977  65.533  1.00  0.00     0.000 HD 
HETATM    3  C   UNL     1      -9.840   8.828  67.447  1.00  0.00    -0.194 C  
HETATM    4  C   UNL     1     -10.316   8.741  68.711  1.00  0.00    -0.213 C  
HETATM    5  N   UNL     1     -10.042   9.738  69.668  1.00  0.00    -0.214 NA 
HETATM    6  C   UNL     1     -10.037   9.464  71.105  1.00  0.00    -0.265 C  
HETATM    7  C   UNL     1      -9.429  10.922  69.245  1.00  0.00    -0.026 C  
HETATM    8  C   UNL     1     -10.923   8.297  71.528  1.00  0.00    -0.312 C  
HETATM    9  C   UNL     1      -8.850  11.122  68.048  1.00  0.00    -0.142 C  
HETATM   10  C   UNL     1      -8.788   9.864  67.254  1.00  0.00    -0.132 C  
HETATM   11  O   UNL     1     -10.269   7.764  72.956  1.00  0.00    -0.278 OA 
HETATM   12  C   UNL     1     -10.295   4.886  72.510  1.00  0.00    -0.256 C  
HETATM   13  C   UNL     1     -10.496   6.306  73.421  1.00  0.00    -0.255 C  
HETATM   14  N   UNL     1     -11.134   7.102  70.378  1.00  0.00    -0.271 N  
HETATM   15  O   UNL     1      -7.835   9.553  66.546  1.00  0.00    -0.100 OA 
HETATM   16  C   UNL     1     -10.992   7.424  69.040  1.00  0.00    -0.005 C  
HETATM   17  C   UNL     1     -10.741   5.497  70.760  1.00  0.00    -0.294 C  
HETATM   18  C   UNL     1     -11.432   6.197  72.409  1.00  0.00    -0.349 C  
HETATM   19  C   UNL     1      -9.739   6.202  71.416  1.00  0.00    -0.187 C  
HETATM   20  O   UNL     1     -11.213   6.589  68.159  1.00  0.00    -0.275 OA 
ENDROOT
BRANCH   9  21
HETATM   21  C   UNL     1      -8.245  12.476  67.793  1.00  0.00    -0.166 C  
HETATM   22  H   UNL     1      -8.452  14.521  67.977  1.00  0.00     0.000 HD 
HETATM   23  O   UNL     1      -7.047  12.577  67.522  1.00  0.00    -0.125 OA 
HETATM   24  N   UNL     1      -8.961  13.641  67.901  1.00  0.00    -0.185 N  
BRANCH  24  25
HETATM   25  C   UNL     1     -10.391  13.677  67.911  1.00  0.00    -0.249 C  
BRANCH  25  26
HETATM   26  C   UNL     1     -11.143  13.695  66.629  1.00  0.00    -0.312 A  
HETATM   27  C   UNL     1     -11.487  14.759  64.471  1.00  0.00    -0.333 A  
HETATM   28  C   UNL     1     -12.089  13.596  64.015  1.00  0.00    -0.425 A  
HETATM   29  C   UNL     1     -11.022  14.799  65.777  1.00  0.00    -0.334 A  
HETATM   30  F   UNL     1     -10.370  15.897  66.189  1.00  0.00    -0.272 F  
HETATM   31  F   UNL     1     -12.513  13.535  62.747  1.00  0.00    -0.445 F  
HETATM   32  C   UNL     1     -12.230  12.483  64.835  1.00  0.00    -0.534 A  
HETATM   33  C   UNL     1     -11.751  12.541  66.139  1.00  0.00    -0.409 A  
HETATM   34  F   UNL     1     -11.803  11.439  66.898  1.00  0.00    -0.293 F  
ENDBRANCH  25  26
ENDBRANCH  24  25
ENDBRANCH   9  21
TORSDOF 3
ENDMDL
MODEL       49
REMARK 921   NORMALIZED FREE ENERGY PREDICTED BY IDOCK:   -7.04 KCAL/MOL
REMARK 922        TOTAL FREE ENERGY PREDICTED BY IDOCK:   -9.02 KCAL/MOL
REMARK 923 INTER-LIGAND FREE ENERGY PREDICTED BY IDOCK:   -8.16 KCAL/MOL
REMARK 924 INTRA-LIGAND FREE ENERGY PREDICTED BY IDOCK:   -0.86 KCAL/MOL
REMARK 927      BINDING AFFINITY PREDICTED BY RF-SCORE:    0.00 PKD
ROOT
HETATM    1  O   UNL     1     -10.960  11.789  69.663  1.00  0.00    -0.451 OA 
HETATM    2  H   UNL     1     -11.441  12.525  70.025  1.00  0.00     0.000 HD 
HETATM    3  C   UNL     1     -10.626  11.573  68.338  1.00  0.00    -0.201 C  
HETATM    4  C   UNL     1      -9.941  10.525  67.823  1.00  0.00    -0.171 C  
HETATM    5  N   UNL     1      -9.697  10.418  66.439  1.00  0.00    -0.192 NA 
HETATM    6  C   UNL     1      -9.480   9.131  65.779  1.00  0.00    -0.254 C  
HETATM    7  C   UNL     1     -10.005  11.508  65.619  1.00  0.00    -0.236 C  
HETATM    8  C   UNL     1      -8.913   8.044  66.687  1.00  0.00    -0.179 C  
HETATM    9  C   UNL     1     -10.739  12.578  65.976  1.00  0.00    -0.292 C  
HETATM   10  C   UNL     1     -11.338  12.403  67.328  1.00  0.00    -0.323 C  
HETATM   11  O   UNL     1      -9.378   6.617  65.982  1.00  0.00    -0.112 OA 
HETATM   12  C   UNL     1     -10.305   5.148  68.319  1.00  0.00    -0.140 C  
HETATM   13  C   UNL     1      -9.502   5.331  66.832  1.00  0.00    -0.136 C  
HETATM   14  N   UNL     1      -9.315   8.178  68.304  1.00  0.00    -0.134 N  
HETATM   15  O   UNL     1     -12.468  12.779  67.625  1.00  0.00    -0.110 OA 
HETATM   16  C   UNL     1      -9.634   9.422  68.817  1.00  0.00    -0.154 C  
HETATM   17  C   UNL     1     -10.077   6.880  69.085  1.00  0.00    -0.180 C  
HETATM   18  C   UNL     1      -8.876   6.025  67.854  1.00  0.00    -0.110 C  
HETATM   19  C   UNL     1     -10.662   6.841  67.824  1.00  0.00    -0.334 C  
HETATM   20  O   UNL     1      -9.863   9.574  70.020  1.00  0.00    -0.202 OA 
ENDROOT
BRANCH   9  21
HETATM   21  C   UNL     1     -10.953  13.645  64.937  1.00  0.00    -0.367 C  
HETATM   22  H   UNL     1     -10.187  15.310  63.989  1.00  0.00     0.000 HD 
HETATM   23  O   UNL     1     -11.831  13.509  64.083  1.00  0.00    -0.409 OA 
HETATM   24  N   UNL     1     -10.168  14.767  64.852  1.00  0.00    -0.356 N  
BRANCH  24  25
HETATM   25  C   UNL     1      -9.325  15.209  65.920  1.00  0.00    -0.244 C  
BRANCH  25  26
HETATM   26  C   UNL     1      -9.579  16.520  66.573  1.00  0.00    -0.292 A  
HETATM   27  C   UNL     1     -10.783  17.758  68.282  1.00  0.00    -0.255 A  
HETATM   28  C   UNL     1      -9.821  18.755  68.211  1.00  0.00    -0.373 A  
HETATM   29  C   UNL     1     -10.654  16.650  67.459  1.00  0.00    -0.311 A  
HETATM   30  F   UNL     1     -11.542  15.653  67.588  1.00  0.00    -0.316 F  
HETATM   31  F   UNL     1      -9.917  19.814  69.023  1.00  0.00    -0.466 F  
HETATM   32  C   UNL     1      -8.743  18.661  67.338  1.00  0.00    -0.281 A  
HETATM   33  C   UNL     1      -8.629  17.539  66.526  1.00  0.00    -0.263 A  
HETATM   34  F   UNL     1      -7.543  17.404  65.755  1.00  0.00    -0.321 F  
ENDBRANCH  25  26
ENDBRANCH  24  25
ENDBRANCH   9  21
TORSDOF 3
ENDMDL
MODEL       50
REMARK 921   NORMALIZED FREE ENERGY PREDICTED BY IDOCK:   -7.04 KCAL/MOL
REMARK 922        TOTAL FREE ENERGY PREDICTED BY IDOCK:   -9.02 KCAL/MOL
REMARK 923 INTER-LIGAND FREE ENERGY PREDICTED BY IDOCK:   -8.25 KCAL/MOL
REMARK 924 INTRA-LIGAND FREE ENERGY PREDICTED BY IDOCK:   -0.76 KCAL/MOL
REMARK 927      BINDING AFFINITY PREDICTED BY RF-SCORE:    0.00 PKD
ROOT
HETATM    1  O   UNL     1     -11.661  10.539  71.309  1.00  0.00    -0.263 OA 
HETATM    2  H   UNL     1     -11.545   9.852  71.956  1.00  0.00     0.000 HD 
HETATM    3  C   UNL     1     -11.251  10.527  69.988  1.00  0.00    -0.315 C  
HETATM    4  C   UNL     1     -11.416  11.505  69.067  1.00  0.00    -0.291 C  
HETATM    5  N   UNL     1     -10.917  11.369  67.756  1.00  0.00    -0.229 NA 
HETATM    6  C   UNL     1     -10.574  12.523  66.925  1.00  0.00    -0.236 C  
HETATM    7  C   UNL     1     -10.415  10.126  67.357  1.00  0.00    -0.256 C  
HETATM    8  C   UNL     1     -11.342  13.796  67.264  1.00  0.00    -0.343 C  
HETATM    9  C   UNL     1     -10.134   9.094  68.172  1.00  0.00    -0.225 C  
HETATM   10  C   UNL     1     -10.269   9.476  69.604  1.00  0.00    -0.218 C  
HETATM   11  O   UNL     1     -10.372  15.031  66.731  1.00  0.00    -0.262 OA 
HETATM   12  C   UNL     1     -10.519  16.842  69.006  1.00  0.00    -0.336 C  
HETATM   13  C   UNL     1     -10.490  16.441  67.355  1.00  0.00    -0.309 C  
HETATM   14  N   UNL     1     -11.826  13.939  68.858  1.00  0.00    -0.340 N  
HETATM   15  O   UNL     1      -9.512   9.084  70.488  1.00  0.00    -0.185 OA 
HETATM   16  C   UNL     1     -12.002  12.793  69.613  1.00  0.00    -0.288 C  
HETATM   17  C   UNL     1     -11.363  15.304  69.752  1.00  0.00    -0.306 C  
HETATM   18  C   UNL     1     -11.641  15.996  67.982  1.00  0.00    -0.119 C  
HETATM   19  C   UNL     1     -10.230  15.067  68.982  1.00  0.00    -0.242 C  
HETATM   20  O   UNL     1     -12.430  12.853  70.768  1.00  0.00    -0.349 OA 
ENDROOT
BRANCH   9  21
HETATM   21  C   UNL     1      -9.599   7.840  67.536  1.00  0.00    -0.148 C  
HETATM   22  H   UNL     1      -9.980   5.891  66.973  1.00  0.00     0.000 HD 
HETATM   23  O   UNL     1      -8.570   7.881  66.857  1.00  0.00    -0.124 OA 
HETATM   24  N   UNL     1     -10.238   6.630  67.628  1.00  0.00    -0.159 N  
BRANCH  24  25
HETATM   25  C   UNL     1     -11.250   6.356  68.600  1.00  0.00    -0.248 C  
BRANCH  25  26
HETATM   26  C   UNL     1     -10.868   5.903  69.963  1.00  0.00    -0.421 A  
HETATM   27  C   UNL     1     -11.421   5.832  72.329  1.00  0.00    -0.320 A  
HETATM   28  C   UNL     1     -10.574   4.743  72.474  1.00  0.00    -0.200 A  
HETATM   29  C   UNL     1     -11.558   6.404  71.073  1.00  0.00    -0.325 A  
HETATM   30  F   UNL     1     -12.438   7.405  70.920  1.00  0.00    -0.335 F  
HETATM   31  F   UNL     1     -10.458   4.162  73.674  1.00  0.00    -0.173 F  
HETATM   32  C   UNL     1      -9.869   4.223  71.395  1.00  0.00    -0.260 A  
HETATM   33  C   UNL     1     -10.026   4.807  70.143  1.00  0.00    -0.251 A  
HETATM   34  F   UNL     1      -9.421   4.249  69.087  1.00  0.00    -0.175 F  
ENDBRANCH  25  26
ENDBRANCH  24  25
ENDBRANCH   9  21
TORSDOF 3
ENDMDL
MODEL       51
REMARK 921   NORMALIZED FREE ENERGY PREDICTED BY IDOCK:   -7.00 KCAL/MOL
REMARK 922        TOTAL FREE ENERGY PREDICTED BY IDOCK:   -8.97 KCAL/MOL
REMARK 923 INTER-LIGAND FREE ENERGY PREDICTED BY IDOCK:   -8.09 KCAL/MOL
REMARK 924 INTRA-LIGAND FREE ENERGY PREDICTED BY IDOCK:   -0.88 KCAL/MOL
REMARK 927      BINDING AFFINITY PREDICTED BY RF-SCORE:    0.00 PKD
ROOT
HETATM    1  O   UNL     1      -6.953  13.466  67.060  1.00  0.00    -0.406 OA 
HETATM    2  H   UNL     1      -6.982  12.533  66.884  1.00  0.00     0.000 HD 
HETATM    3  C   UNL     1      -8.024  14.334  67.175  1.00  0.00    -0.101 C  
HETATM    4  C   UNL     1      -7.982  15.663  67.426  1.00  0.00    -0.178 C  
HETATM    5  N   UNL     1      -9.160  16.435  67.487  1.00  0.00    -0.193 NA 
HETATM    6  C   UNL     1      -9.171  17.870  67.206  1.00  0.00    -0.254 C  
HETATM    7  C   UNL     1     -10.394  15.776  67.475  1.00  0.00    -0.280 C  
HETATM    8  C   UNL     1      -7.845  18.576  67.471  1.00  0.00    -0.241 C  
HETATM    9  C   UNL     1     -10.589  14.480  67.171  1.00  0.00    -0.274 C  
HETATM   10  C   UNL     1      -9.338  13.840  66.680  1.00  0.00    -0.264 C  
HETATM   11  O   UNL     1      -7.877  19.919  66.498  1.00  0.00    -0.282 OA 
HETATM   12  C   UNL     1      -5.193  19.822  65.372  1.00  0.00    -0.183 C  
HETATM   13  C   UNL     1      -6.557  20.583  66.043  1.00  0.00    -0.226 C  
HETATM   14  N   UNL     1      -6.479  17.628  67.293  1.00  0.00    -0.152 N  
HETATM   15  O   UNL     1      -9.307  13.016  65.770  1.00  0.00    -0.048 OA 
HETATM   16  C   UNL     1      -6.587  16.257  67.450  1.00  0.00    -0.179 C  
HETATM   17  C   UNL     1      -5.256  18.119  66.227  1.00  0.00    -0.198 C  
HETATM   18  C   UNL     1      -5.909  19.771  66.956  1.00  0.00    -0.178 C  
HETATM   19  C   UNL     1      -6.404  18.502  65.543  1.00  0.00    -0.320 C  
HETATM   20  O   UNL     1      -5.591  15.532  67.400  1.00  0.00    -0.319 OA 
ENDROOT
BRANCH   9  21
HETATM   21  C   UNL     1     -12.003  13.967  67.218  1.00  0.00    -0.413 C  
HETATM   22  H   UNL     1     -13.590  13.387  68.403  1.00  0.00     0.000 HD 
HETATM   23  O   UNL     1     -12.717  14.028  66.215  1.00  0.00    -0.414 OA 
HETATM   24  N   UNL     1     -12.574  13.470  68.362  1.00  0.00     0.390 N  
BRANCH  24  25
HETATM   25  C   UNL     1     -11.809  13.063  69.500  1.00  0.00    -0.323 C  
BRANCH  25  26
HETATM   26  C   UNL     1     -11.801  11.637  69.918  1.00  0.00    -0.434 A  
HETATM   27  C   UNL     1     -10.627   9.509  69.917  1.00  0.00    -0.269 A  
HETATM   28  C   UNL     1     -11.385   9.112  71.009  1.00  0.00    -0.309 A  
HETATM   29  C   UNL     1     -10.845  10.769  69.380  1.00  0.00    -0.244 A  
HETATM   30  F   UNL     1     -10.055  11.178  68.375  1.00  0.00    -0.160 F  
HETATM   31  F   UNL     1     -11.163   7.911  71.557  1.00  0.00    -0.246 F  
HETATM   32  C   UNL     1     -12.347   9.947  71.566  1.00  0.00    -0.504 A  
HETATM   33  C   UNL     1     -12.545  11.208  71.016  1.00  0.00    -0.403 A  
HETATM   34  F   UNL     1     -13.404  12.047  71.609  1.00  0.00    -0.482 F  
ENDBRANCH  25  26
ENDBRANCH  24  25
ENDBRANCH   9  21
TORSDOF 3
ENDMDL
MODEL       52
REMARK 921   NORMALIZED FREE ENERGY PREDICTED BY IDOCK:   -6.98 KCAL/MOL
REMARK 922        TOTAL FREE ENERGY PREDICTED BY IDOCK:   -8.95 KCAL/MOL
REMARK 923 INTER-LIGAND FREE ENERGY PREDICTED BY IDOCK:   -8.34 KCAL/MOL
REMARK 924 INTRA-LIGAND FREE ENERGY PREDICTED BY IDOCK:   -0.61 KCAL/MOL
REMARK 927      BINDING AFFINITY PREDICTED BY RF-SCORE:    0.00 PKD
ROOT
HETATM    1  O   UNL     1      -6.343  14.088  69.350  1.00  0.00    -0.103 OA 
HETATM    2  H   UNL     1      -5.967  13.240  69.556  1.00  0.00     0.000 HD 
HETATM    3  C   UNL     1      -7.401  14.354  68.500  1.00  0.00    -0.122 C  
HETATM    4  C   UNL     1      -7.936  15.562  68.206  1.00  0.00    -0.132 C  
HETATM    5  N   UNL     1      -9.001  15.689  67.291  1.00  0.00    -0.192 NA 
HETATM    6  C   UNL     1      -9.244  16.920  66.539  1.00  0.00    -0.269 C  
HETATM    7  C   UNL     1      -9.631  14.528  66.831  1.00  0.00    -0.250 C  
HETATM    8  C   UNL     1      -8.737  18.187  67.219  1.00  0.00    -0.244 C  
HETATM    9  C   UNL     1      -9.173  13.273  66.986  1.00  0.00    -0.237 C  
HETATM   10  C   UNL     1      -7.807  13.258  67.578  1.00  0.00    -0.171 C  
HETATM   11  O   UNL     1      -8.500  19.267  65.983  1.00  0.00    -0.427 OA 
HETATM   12  C   UNL     1      -5.899  20.350  66.718  1.00  0.00    -0.209 C  
HETATM   13  C   UNL     1      -7.497  20.433  66.148  1.00  0.00    -0.157 C  
HETATM   14  N   UNL     1      -7.414  17.983  68.221  1.00  0.00    -0.256 N  
HETATM   15  O   UNL     1      -6.927  12.472  67.239  1.00  0.00    -0.149 OA 
HETATM   16  C   UNL     1      -7.187  16.743  68.791  1.00  0.00    -0.217 C  
HETATM   17  C   UNL     1      -6.013  18.899  67.949  1.00  0.00    -0.201 C  
HETATM   18  C   UNL     1      -7.436  20.104  67.491  1.00  0.00    -0.332 C  
HETATM   19  C   UNL     1      -6.440  18.635  66.653  1.00  0.00    -0.209 C  
HETATM   20  O   UNL     1      -6.265  16.573  69.593  1.00  0.00    -0.204 OA 
ENDROOT
BRANCH   9  21
HETATM   21  C   UNL     1     -10.008  12.160  66.411  1.00  0.00    -0.225 C  
HETATM   22  H   UNL     1     -11.485  10.759  66.749  1.00  0.00     0.000 HD 
HETATM   23  O   UNL     1     -10.086  12.013  65.190  1.00  0.00    -0.259 OA 
HETATM   24  N   UNL     1     -10.749  11.310  67.192  1.00  0.00    -0.239 N  
BRANCH  24  25
HETATM   25  C   UNL     1     -10.536  11.160  68.598  1.00  0.00    -0.193 C  
BRANCH  25  26
HETATM   26  C   UNL     1     -11.586  11.590  69.558  1.00  0.00    -0.400 A  
HETATM   27  C   UNL     1     -12.972  11.016  71.471  1.00  0.00    -0.553 A  
HETATM   28  C   UNL     1     -13.166  12.369  71.712  1.00  0.00    -0.334 A  
HETATM   29  C   UNL     1     -12.184  10.639  70.393  1.00  0.00    -0.345 A  
HETATM   30  F   UNL     1     -11.934   9.334  70.212  1.00  0.00    -0.214 F  
HETATM   31  F   UNL     1     -13.897  12.745  72.767  1.00  0.00    -0.552 F  
HETATM   32  C   UNL     1     -12.591  13.339  70.899  1.00  0.00    -0.386 A  
HETATM   33  C   UNL     1     -11.801  12.940  69.828  1.00  0.00    -0.310 A  
HETATM   34  F   UNL     1     -11.172  13.874  69.103  1.00  0.00    -0.250 F  
ENDBRANCH  25  26
ENDBRANCH  24  25
ENDBRANCH   9  21
TORSDOF 3
ENDMDL
MODEL       53
REMARK 921   NORMALIZED FREE ENERGY PREDICTED BY IDOCK:   -6.97 KCAL/MOL
REMARK 922        TOTAL FREE ENERGY PREDICTED BY IDOCK:   -8.94 KCAL/MOL
REMARK 923 INTER-LIGAND FREE ENERGY PREDICTED BY IDOCK:   -8.34 KCAL/MOL
REMARK 924 INTRA-LIGAND FREE ENERGY PREDICTED BY IDOCK:   -0.60 KCAL/MOL
REMARK 927      BINDING AFFINITY PREDICTED BY RF-SCORE:    0.00 PKD
ROOT
HETATM    1  O   UNL     1     -10.262  13.337  64.690  1.00  0.00    -0.497 OA 
HETATM    2  H   UNL     1     -10.572  12.567  64.226  1.00  0.00     0.000 HD 
HETATM    3  C   UNL     1     -10.061  13.475  66.051  1.00  0.00    -0.310 C  
HETATM    4  C   UNL     1      -9.619  14.571  66.711  1.00  0.00    -0.263 C  
HETATM    5  N   UNL     1      -9.489  14.580  68.114  1.00  0.00    -0.202 NA 
HETATM    6  C   UNL     1      -9.560  15.812  68.899  1.00  0.00    -0.229 C  
HETATM    7  C   UNL     1      -9.639  13.375  68.808  1.00  0.00     0.043 C  
HETATM    8  C   UNL     1      -9.149  17.069  68.140  1.00  0.00    -0.237 C  
HETATM    9  C   UNL     1     -10.135  12.232  68.299  1.00  0.00    -0.218 C  
HETATM   10  C   UNL     1     -10.668  12.432  66.923  1.00  0.00    -0.240 C  
HETATM   11  O   UNL     1      -9.918  18.310  68.927  1.00  0.00    -0.375 OA 
HETATM   12  C   UNL     1     -10.951  19.816  66.659  1.00  0.00    -0.284 C  
HETATM   13  C   UNL     1     -10.227  19.632  68.185  1.00  0.00    -0.461 C  
HETATM   14  N   UNL     1      -9.414  17.030  66.490  1.00  0.00    -0.264 N  
HETATM   15  O   UNL     1     -11.686  11.890  66.503  1.00  0.00    -0.537 OA 
HETATM   16  C   UNL     1      -9.461  15.806  65.845  1.00  0.00    -0.342 C  
HETATM   17  C   UNL     1     -10.355  18.241  65.766  1.00  0.00    -0.193 C  
HETATM   18  C   UNL     1      -9.417  19.170  67.162  1.00  0.00    -0.367 C  
HETATM   19  C   UNL     1     -11.016  18.046  66.974  1.00  0.00     0.033 C  
HETATM   20  O   UNL     1      -9.580  15.739  64.619  1.00  0.00     0.356 OA 
ENDROOT
BRANCH   9  21
HETATM   21  C   UNL     1     -10.211  11.044  69.220  1.00  0.00    -0.127 C  
HETATM   22  H   UNL     1     -11.417   9.630  70.116  1.00  0.00     0.000 HD 
HETATM   23  O   UNL     1      -9.188  10.423  69.514  1.00  0.00    -0.194 OA 
HETATM   24  N   UNL     1     -11.396  10.571  69.723  1.00  0.00    -0.278 N  
BRANCH  24  25
HETATM   25  C   UNL     1     -12.604  11.338  69.722  1.00  0.00    -0.025 C  
BRANCH  25  26
HETATM   26  C   UNL     1     -12.734  12.520  70.613  1.00  0.00    -0.132 A  
HETATM   27  C   UNL     1     -13.118  14.912  70.799  1.00  0.00    -0.398 A  
HETATM   28  C   UNL     1     -13.480  14.732  72.126  1.00  0.00    -0.391 A  
HETATM   29  C   UNL     1     -12.745  13.803  70.055  1.00  0.00    -0.022 A  
HETATM   30  F   UNL     1     -12.472  13.971  68.752  1.00  0.00    -0.362 F  
HETATM   31  F   UNL     1     -13.873  15.790  72.845  1.00  0.00    -0.579 F  
HETATM   32  C   UNL     1     -13.475  13.472  72.713  1.00  0.00    -0.414 A  
HETATM   33  C   UNL     1     -13.105  12.373  71.948  1.00  0.00    -0.366 A  
HETATM   34  F   UNL     1     -13.190  11.150  72.487  1.00  0.00    -0.464 F  
ENDBRANCH  25  26
ENDBRANCH  24  25
ENDBRANCH   9  21
TORSDOF 3
ENDMDL
MODEL       54
REMARK 921   NORMALIZED FREE ENERGY PREDICTED BY IDOCK:   -6.94 KCAL/MOL
REMARK 922        TOTAL FREE ENERGY PREDICTED BY IDOCK:   -8.89 KCAL/MOL
REMARK 923 INTER-LIGAND FREE ENERGY PREDICTED BY IDOCK:   -8.06 KCAL/MOL
REMARK 924 INTRA-LIGAND FREE ENERGY PREDICTED BY IDOCK:   -0.84 KCAL/MOL
REMARK 927      BINDING AFFINITY PREDICTED BY RF-SCORE:    0.00 PKD
ROOT
HETATM    1  O   UNL     1      -9.686   7.981  65.738  1.00  0.00    -0.428 OA 
HETATM    2  H   UNL     1      -9.715   7.032  65.701  1.00  0.00     0.000 HD 
HETATM    3  C   UNL     1      -9.220   8.768  66.776  1.00  0.00    -0.169 C  
HETATM    4  C   UNL     1      -9.178  10.120  66.829  1.00  0.00    -0.151 C  
HETATM    5  N   UNL     1      -8.703  10.794  67.971  1.00  0.00    -0.129 NA 
HETATM    6  C   UNL     1      -9.124  12.153  68.310  1.00  0.00    -0.191 C  
HETATM    7  C   UNL     1      -8.091  10.048  68.984  1.00  0.00    -0.118 C  
HETATM    8  C   UNL     1      -9.556  12.997  67.115  1.00  0.00    -0.230 C  
HETATM    9  C   UNL     1      -8.118   8.707  69.096  1.00  0.00    -0.116 C  
HETATM   10  C   UNL     1      -9.024   8.092  68.088  1.00  0.00    -0.135 C  
HETATM   11  O   UNL     1     -10.573  14.143  67.750  1.00  0.00    -0.240 OA 
HETATM   12  C   UNL     1     -12.740  14.064  65.807  1.00  0.00    -0.487 C  
HETATM   13  C   UNL     1     -11.639  14.820  66.858  1.00  0.00    -0.327 C  
HETATM   14  N   UNL     1     -10.197  12.144  65.828  1.00  0.00    -0.247 N  
HETATM   15  O   UNL     1      -9.747   7.128  68.322  1.00  0.00    -0.142 OA 
HETATM   16  C   UNL     1      -9.842  10.817  65.657  1.00  0.00    -0.245 C  
HETATM   17  C   UNL     1     -11.743  12.537  65.253  1.00  0.00    -0.430 C  
HETATM   18  C   UNL     1     -11.010  14.234  65.774  1.00  0.00    -0.305 C  
HETATM   19  C   UNL     1     -11.896  12.703  66.625  1.00  0.00    -0.449 C  
HETATM   20  O   UNL     1     -10.234  10.176  64.680  1.00  0.00    -0.279 OA 
ENDROOT
BRANCH   9  21
HETATM   21  C   UNL     1      -7.393   8.100  70.267  1.00  0.00    -0.059 C  
HETATM   22  H   UNL     1      -7.528   7.376  72.194  1.00  0.00     0.000 HD 
HETATM   23  O   UNL     1      -6.274   7.605  70.112  1.00  0.00    -0.033 OA 
HETATM   24  N   UNL     1      -7.944   8.018  71.520  1.00  0.00    -0.097 N  
BRANCH  24  25
HETATM   25  C   UNL     1      -9.076   8.793  71.924  1.00  0.00    -0.220 C  
BRANCH  25  26
HETATM   26  C   UNL     1     -10.449   8.332  71.591  1.00  0.00    -0.303 A  
HETATM   27  C   UNL     1     -12.149   6.613  71.839  1.00  0.00    -0.385 A  
HETATM   28  C   UNL     1     -13.114   7.542  71.479  1.00  0.00    -0.356 A  
HETATM   29  C   UNL     1     -10.823   7.017  71.889  1.00  0.00    -0.224 A  
HETATM   30  F   UNL     1      -9.904   6.137  72.313  1.00  0.00    -0.162 F  
HETATM   31  F   UNL     1     -14.400   7.173  71.458  1.00  0.00    -0.494 F  
HETATM   32  C   UNL     1     -12.777   8.855  71.172  1.00  0.00    -0.201 A  
HETATM   33  C   UNL     1     -11.444   9.241  71.234  1.00  0.00    -0.347 A  
HETATM   34  F   UNL     1     -11.131  10.527  71.030  1.00  0.00    -0.357 F  
ENDBRANCH  25  26
ENDBRANCH  24  25
ENDBRANCH   9  21
TORSDOF 3
ENDMDL
MODEL       55
REMARK 921   NORMALIZED FREE ENERGY PREDICTED BY IDOCK:   -6.93 KCAL/MOL
REMARK 922        TOTAL FREE ENERGY PREDICTED BY IDOCK:   -8.89 KCAL/MOL
REMARK 923 INTER-LIGAND FREE ENERGY PREDICTED BY IDOCK:   -8.20 KCAL/MOL
REMARK 924 INTRA-LIGAND FREE ENERGY PREDICTED BY IDOCK:   -0.68 KCAL/MOL
REMARK 927      BINDING AFFINITY PREDICTED BY RF-SCORE:    0.00 PKD
ROOT
HETATM    1  O   UNL     1     -12.459  12.552  66.210  1.00  0.00    -0.475 OA 
HETATM    2  H   UNL     1     -13.119  11.869  66.164  1.00  0.00     0.000 HD 
HETATM    3  C   UNL     1     -11.160  12.437  66.669  1.00  0.00    -0.289 C  
HETATM    4  C   UNL     1     -10.221  13.409  66.734  1.00  0.00    -0.259 C  
HETATM    5  N   UNL     1      -8.937  13.155  67.257  1.00  0.00    -0.207 NA 
HETATM    6  C   UNL     1      -8.110  14.206  67.849  1.00  0.00    -0.154 C  
HETATM    7  C   UNL     1      -8.576  11.832  67.532  1.00  0.00    -0.157 C  
HETATM    8  C   UNL     1      -8.397  15.608  67.322  1.00  0.00    -0.209 C  
HETATM    9  C   UNL     1      -9.416  10.781  67.576  1.00  0.00    -0.168 C  
HETATM   10  C   UNL     1     -10.835  11.212  67.451  1.00  0.00    -0.266 C  
HETATM   11  O   UNL     1      -7.897  16.627  68.531  1.00  0.00    -0.195 OA 
HETATM   12  C   UNL     1     -10.141  18.479  68.627  1.00  0.00    -0.406 C  
HETATM   13  C   UNL     1      -8.498  18.046  68.653  1.00  0.00    -0.267 C  
HETATM   14  N   UNL     1      -9.964  15.872  66.802  1.00  0.00    -0.240 N  
HETATM   15  O   UNL     1     -11.758  10.702  68.079  1.00  0.00    -0.495 OA 
HETATM   16  C   UNL     1     -10.723  14.795  66.378  1.00  0.00    -0.313 C  
HETATM   17  C   UNL     1     -10.863  17.143  67.474  1.00  0.00    -0.203 C  
HETATM   18  C   UNL     1      -9.074  17.838  67.412  1.00  0.00    -0.244 C  
HETATM   19  C   UNL     1     -10.152  16.681  68.575  1.00  0.00    -0.266 C  
HETATM   20  O   UNL     1     -11.855  14.958  65.918  1.00  0.00    -0.256 OA 
ENDROOT
BRANCH   9  21
HETATM   21  C   UNL     1      -8.820   9.436  67.892  1.00  0.00    -0.124 C  
HETATM   22  H   UNL     1      -8.757   7.841  69.199  1.00  0.00     0.000 HD 
HETATM   23  O   UNL     1      -8.231   8.800  67.016  1.00  0.00    -0.102 OA 
HETATM   24  N   UNL     1      -8.945   8.840  69.121  1.00  0.00    -0.137 N  
BRANCH  24  25
HETATM   25  C   UNL     1      -9.326   9.557  70.299  1.00  0.00    -0.259 C  
BRANCH  25  26
HETATM   26  C   UNL     1      -9.681   8.816  71.537  1.00  0.00    -0.361 A  
HETATM   27  C   UNL     1     -11.346   7.521  72.743  1.00  0.00    -0.388 A  
HETATM   28  C   UNL     1     -10.338   7.006  73.544  1.00  0.00    -0.356 A  
HETATM   29  C   UNL     1     -11.008   8.425  71.747  1.00  0.00    -0.291 A  
HETATM   30  F   UNL     1     -11.974   8.859  70.924  1.00  0.00    -0.299 F  
HETATM   31  F   UNL     1     -10.648   6.109  74.488  1.00  0.00    -0.278 F  
HETATM   32  C   UNL     1      -9.010   7.377  73.366  1.00  0.00    -0.223 A  
HETATM   33  C   UNL     1      -8.691   8.279  72.359  1.00  0.00    -0.213 A  
HETATM   34  F   UNL     1      -7.403   8.564  72.127  1.00  0.00    -0.104 F  
ENDBRANCH  25  26
ENDBRANCH  24  25
ENDBRANCH   9  21
TORSDOF 3
ENDMDL
MODEL       56
REMARK 921   NORMALIZED FREE ENERGY PREDICTED BY IDOCK:   -6.88 KCAL/MOL
REMARK 922        TOTAL FREE ENERGY PREDICTED BY IDOCK:   -8.84 KCAL/MOL
REMARK 923 INTER-LIGAND FREE ENERGY PREDICTED BY IDOCK:   -7.99 KCAL/MOL
REMARK 924 INTRA-LIGAND FREE ENERGY PREDICTED BY IDOCK:   -0.85 KCAL/MOL
REMARK 927      BINDING AFFINITY PREDICTED BY RF-SCORE:    0.00 PKD
ROOT
HETATM    1  O   UNL     1      -9.312   7.725  65.401  1.00  0.00    -0.364 OA 
HETATM    2  H   UNL     1      -9.194   6.785  65.314  1.00  0.00     0.000 HD 
HETATM    3  C   UNL     1      -9.809   8.412  66.494  1.00  0.00    -0.268 C  
HETATM    4  C   UNL     1      -9.977   9.749  66.619  1.00  0.00    -0.229 C  
HETATM    5  N   UNL     1     -10.526  10.313  67.787  1.00  0.00    -0.208 NA 
HETATM    6  C   UNL     1     -11.221  11.600  67.783  1.00  0.00    -0.268 C  
HETATM    7  C   UNL     1     -10.720   9.490  68.901  1.00  0.00    -0.195 C  
HETATM    8  C   UNL     1     -10.784  12.550  66.673  1.00  0.00    -0.261 C  
HETATM    9  C   UNL     1     -10.659   8.146  68.904  1.00  0.00    -0.161 C  
HETATM   10  C   UNL     1     -10.513   7.602  67.526  1.00  0.00    -0.266 C  
HETATM   11  O   UNL     1     -12.079  13.560  66.445  1.00  0.00    -0.399 OA 
HETATM   12  C   UNL     1     -12.224  13.588  63.537  1.00  0.00    -0.410 C  
HETATM   13  C   UNL     1     -12.280  14.277  65.089  1.00  0.00    -0.421 C  
HETATM   14  N   UNL     1     -10.227  11.816  65.278  1.00  0.00    -0.256 N  
HETATM   15  O   UNL     1     -11.070   6.580  67.136  1.00  0.00    -0.390 OA 
HETATM   16  C   UNL     1      -9.701  10.539  65.354  1.00  0.00    -0.257 C  
HETATM   17  C   UNL     1     -10.954  12.189  63.792  1.00  0.00    -0.494 C  
HETATM   18  C   UNL     1     -11.007  13.852  64.750  1.00  0.00    -0.407 C  
HETATM   19  C   UNL     1     -12.045  12.189  64.654  1.00  0.00    -0.389 C  
HETATM   20  O   UNL     1      -9.213   9.993  64.362  1.00  0.00    -0.229 OA 
ENDROOT
BRANCH   9  21
HETATM   21  C   UNL     1     -10.901   7.449  70.216  1.00  0.00    -0.245 C  
HETATM   22  H   UNL     1     -10.063   6.578  71.889  1.00  0.00     0.000 HD 
HETATM   23  O   UNL     1     -12.016   7.489  70.741  1.00  0.00    -0.277 OA 
HETATM   24  N   UNL     1      -9.910   6.797  70.904  1.00  0.00    -0.186 N  
BRANCH  24  25
HETATM   25  C   UNL     1      -8.670   6.411  70.304  1.00  0.00    -0.143 C  
BRANCH  25  26
HETATM   26  C   UNL     1      -8.605   5.199  69.447  1.00  0.00    -0.102 A  
HETATM   27  C   UNL     1      -9.500   2.996  68.943  1.00  0.00    -0.176 A  
HETATM   28  C   UNL     1      -8.956   3.087  67.671  1.00  0.00    -0.161 A  
HETATM   29  C   UNL     1      -9.317   4.054  69.822  1.00  0.00    -0.172 A  
HETATM   30  F   UNL     1      -9.913   3.996  71.022  1.00  0.00    -0.243 F  
HETATM   31  F   UNL     1      -9.152   2.087  66.804  1.00  0.00    -0.129 F  
HETATM   32  C   UNL     1      -8.238   4.207  67.268  1.00  0.00    -0.099 A  
HETATM   33  C   UNL     1      -8.072   5.259  68.161  1.00  0.00    -0.095 A  
HETATM   34  F   UNL     1      -7.463   6.375  67.742  1.00  0.00    -0.084 F  
ENDBRANCH  25  26
ENDBRANCH  24  25
ENDBRANCH   9  21
TORSDOF 3
ENDMDL
MODEL       57
REMARK 921   NORMALIZED FREE ENERGY PREDICTED BY IDOCK:   -6.88 KCAL/MOL
REMARK 922        TOTAL FREE ENERGY PREDICTED BY IDOCK:   -8.83 KCAL/MOL
REMARK 923 INTER-LIGAND FREE ENERGY PREDICTED BY IDOCK:   -7.75 KCAL/MOL
REMARK 924 INTRA-LIGAND FREE ENERGY PREDICTED BY IDOCK:   -1.08 KCAL/MOL
REMARK 927      BINDING AFFINITY PREDICTED BY RF-SCORE:    0.00 PKD
ROOT
HETATM    1  O   UNL     1     -12.529  12.695  65.690  1.00  0.00    -0.622 OA 
HETATM    2  H   UNL     1     -13.223  12.046  65.674  1.00  0.00     0.000 HD 
HETATM    3  C   UNL     1     -11.327  12.623  66.370  1.00  0.00    -0.331 C  
HETATM    4  C   UNL     1     -10.338  13.547  66.393  1.00  0.00    -0.289 C  
HETATM    5  N   UNL     1      -9.172  13.354  67.159  1.00  0.00    -0.231 NA 
HETATM    6  C   UNL     1      -8.368  14.470  67.658  1.00  0.00    -0.180 C  
HETATM    7  C   UNL     1      -8.957  12.104  67.749  1.00  0.00    -0.179 C  
HETATM    8  C   UNL     1      -8.466  15.742  66.822  1.00  0.00    -0.304 C  
HETATM    9  C   UNL     1      -9.870  11.122  67.862  1.00  0.00    -0.187 C  
HETATM   10  C   UNL     1     -11.218  11.576  67.423  1.00  0.00    -0.304 C  
HETATM   11  O   UNL     1      -8.080  16.968  67.869  1.00  0.00    -0.187 OA 
HETATM   12  C   UNL     1     -10.168  18.893  67.223  1.00  0.00    -0.454 C  
HETATM   13  C   UNL     1      -8.585  18.406  67.605  1.00  0.00    -0.259 C  
HETATM   14  N   UNL     1      -9.911  15.957  66.009  1.00  0.00    -0.310 N  
HETATM   15  O   UNL     1     -12.261  11.248  67.980  1.00  0.00    -0.621 OA 
HETATM   16  C   UNL     1     -10.675  14.848  65.690  1.00  0.00    -0.342 C  
HETATM   17  C   UNL     1     -10.804  17.377  66.257  1.00  0.00     0.057 C  
HETATM   18  C   UNL     1      -8.979  17.968  66.353  1.00  0.00    -0.249 C  
HETATM   19  C   UNL     1     -10.305  17.125  67.530  1.00  0.00    -0.341 C  
HETATM   20  O   UNL     1     -11.709  14.959  65.027  1.00  0.00    -0.363 OA 
ENDROOT
BRANCH   9  21
HETATM   21  C   UNL     1      -9.432   9.849  68.534  1.00  0.00    -0.146 C  
HETATM   22  H   UNL     1      -8.594   7.977  68.307  1.00  0.00     0.000 HD 
HETATM   23  O   UNL     1      -9.287   9.814  69.758  1.00  0.00    -0.199 OA 
HETATM   24  N   UNL     1      -9.127   8.708  67.836  1.00  0.00    -0.139 N  
BRANCH  24  25
HETATM   25  C   UNL     1      -9.522   8.498  66.477  1.00  0.00    -0.218 C  
BRANCH  25  26
HETATM   26  C   UNL     1      -8.653   8.973  65.369  1.00  0.00    -0.200 A  
HETATM   27  C   UNL     1      -8.354  10.522  63.520  1.00  0.00    -0.113 A  
HETATM   28  C   UNL     1      -6.986  10.299  63.581  1.00  0.00    -0.070 A  
HETATM   29  C   UNL     1      -9.176   9.853  64.415  1.00  0.00    -0.264 A  
HETATM   30  F   UNL     1     -10.488  10.131  64.406  1.00  0.00    -0.346 F  
HETATM   31  F   UNL     1      -6.179  10.962  62.744  1.00  0.00    -0.141 F  
HETATM   32  C   UNL     1      -6.434   9.427  64.512  1.00  0.00    -0.084 A  
HETATM   33  C   UNL     1      -7.275   8.772  65.404  1.00  0.00    -0.084 A  
HETATM   34  F   UNL     1      -6.735   8.006  66.360  1.00  0.00    -0.053 F  
ENDBRANCH  25  26
ENDBRANCH  24  25
ENDBRANCH   9  21
TORSDOF 3
ENDMDL
MODEL       58
REMARK 921   NORMALIZED FREE ENERGY PREDICTED BY IDOCK:   -6.88 KCAL/MOL
REMARK 922        TOTAL FREE ENERGY PREDICTED BY IDOCK:   -8.83 KCAL/MOL
REMARK 923 INTER-LIGAND FREE ENERGY PREDICTED BY IDOCK:   -9.36 KCAL/MOL
REMARK 924 INTRA-LIGAND FREE ENERGY PREDICTED BY IDOCK:    0.53 KCAL/MOL
REMARK 927      BINDING AFFINITY PREDICTED BY RF-SCORE:    0.00 PKD
ROOT
HETATM    1  O   UNL     1     -12.593   9.276  72.020  1.00  0.00    -0.362 OA 
HETATM    2  H   UNL     1     -12.393   8.379  72.262  1.00  0.00     0.000 HD 
HETATM    3  C   UNL     1     -12.113   9.980  70.930  1.00  0.00    -0.355 C  
HETATM    4  C   UNL     1     -12.397  11.258  70.586  1.00  0.00    -0.383 C  
HETATM    5  N   UNL     1     -11.808  11.861  69.458  1.00  0.00    -0.324 NA 
HETATM    6  C   UNL     1     -11.631  13.309  69.347  1.00  0.00    -0.305 C  
HETATM    7  C   UNL     1     -11.068  11.062  68.580  1.00  0.00    -0.240 C  
HETATM    8  C   UNL     1     -12.633  14.131  70.150  1.00  0.00    -0.325 C  
HETATM    9  C   UNL     1     -10.653   9.805  68.823  1.00  0.00    -0.244 C  
HETATM   10  C   UNL     1     -10.937   9.398  70.226  1.00  0.00    -0.262 C  
HETATM   11  O   UNL     1     -11.872  15.579  70.423  1.00  0.00    -0.295 OA 
HETATM   12  C   UNL     1     -12.473  15.971  73.245  1.00  0.00    -0.645 C  
HETATM   13  C   UNL     1     -12.278  16.458  71.629  1.00  0.00     0.002 C  
HETATM   14  N   UNL     1     -13.226  13.393  71.529  1.00  0.00    -0.342 N  
HETATM   15  O   UNL     1     -10.174   8.716  70.904  1.00  0.00    -0.191 OA 
HETATM   16  C   UNL     1     -13.236  12.012  71.600  1.00  0.00    -0.260 C  
HETATM   17  C   UNL     1     -13.068  14.173  73.026  1.00  0.00    -0.458 C  
HETATM   18  C   UNL     1     -13.364  15.616  71.794  1.00  0.00    -0.541 C  
HETATM   19  C   UNL     1     -11.869  14.500  72.404  1.00  0.00     0.004 C  
HETATM   20  O   UNL     1     -13.733  11.430  72.567  1.00  0.00     0.105 OA 
ENDROOT
BRANCH   9  21
HETATM   21  C   UNL     1      -9.865   9.119  67.740  1.00  0.00    -0.174 C  
HETATM   22  H   UNL     1      -8.296   9.242  66.406  1.00  0.00     0.000 HD 
HETATM   23  O   UNL     1      -9.962   7.901  67.582  1.00  0.00    -0.159 OA 
HETATM   24  N   UNL     1      -8.981   9.786  66.930  1.00  0.00    -0.137 N  
BRANCH  24  25
HETATM   25  C   UNL     1      -8.977  11.209  66.788  1.00  0.00    -0.165 C  
BRANCH  25  26
HETATM   26  C   UNL     1      -9.733  11.847  65.678  1.00  0.00    -0.248 A  
HETATM   27  C   UNL     1     -11.105  11.544  63.695  1.00  0.00    -0.469 A  
HETATM   28  C   UNL     1     -11.570  12.843  63.842  1.00  0.00    -0.453 A  
HETATM   29  C   UNL     1     -10.188  11.059  64.615  1.00  0.00    -0.330 A  
HETATM   30  F   UNL     1      -9.802   9.778  64.515  1.00  0.00    -0.362 F  
HETATM   31  F   UNL     1     -12.479  13.313  62.981  1.00  0.00    -0.560 F  
HETATM   32  C   UNL     1     -11.135  13.655  64.884  1.00  0.00    -0.356 A  
HETATM   33  C   UNL     1     -10.220  13.147  65.798  1.00  0.00    -0.289 A  
HETATM   34  F   UNL     1      -9.873  13.896  66.852  1.00  0.00    -0.240 F  
ENDBRANCH  25  26
ENDBRANCH  24  25
ENDBRANCH   9  21
TORSDOF 3
ENDMDL
MODEL       59
REMARK 921   NORMALIZED FREE ENERGY PREDICTED BY IDOCK:   -6.87 KCAL/MOL
REMARK 922        TOTAL FREE ENERGY PREDICTED BY IDOCK:   -8.82 KCAL/MOL
REMARK 923 INTER-LIGAND FREE ENERGY PREDICTED BY IDOCK:   -7.94 KCAL/MOL
REMARK 924 INTRA-LIGAND FREE ENERGY PREDICTED BY IDOCK:   -0.87 KCAL/MOL
REMARK 927      BINDING AFFINITY PREDICTED BY RF-SCORE:    0.00 PKD
ROOT
HETATM    1  O   UNL     1      -7.363  13.978  69.344  1.00  0.00    -0.304 OA 
HETATM    2  H   UNL     1      -6.746  13.304  69.605  1.00  0.00     0.000 HD 
HETATM    3  C   UNL     1      -8.238  13.949  68.273  1.00  0.00    -0.158 C  
HETATM    4  C   UNL     1      -9.115  14.910  67.902  1.00  0.00    -0.182 C  
HETATM    5  N   UNL     1      -9.930  14.758  66.762  1.00  0.00    -0.246 NA 
HETATM    6  C   UNL     1     -10.457  15.901  66.017  1.00  0.00    -0.345 C  
HETATM    7  C   UNL     1      -9.961  13.515  66.122  1.00  0.00    -0.304 C  
HETATM    8  C   UNL     1     -10.623  17.172  66.845  1.00  0.00    -0.209 C  
HETATM    9  C   UNL     1      -9.105  12.499  66.338  1.00  0.00    -0.129 C  
HETATM   10  C   UNL     1      -7.994  12.904  67.242  1.00  0.00    -0.149 C  
HETATM   11  O   UNL     1     -10.557  18.408  65.742  1.00  0.00    -0.570 OA 
HETATM   12  C   UNL     1      -8.778  20.255  67.122  1.00  0.00    -0.429 C  
HETATM   13  C   UNL     1     -10.130  19.827  66.186  1.00  0.00    -0.499 C  
HETATM   14  N   UNL     1      -9.565  17.335  68.129  1.00  0.00    -0.274 N  
HETATM   15  O   UNL     1      -6.832  12.535  67.098  1.00  0.00    -0.140 OA 
HETATM   16  C   UNL     1      -9.010  16.200  68.693  1.00  0.00    -0.221 C  
HETATM   17  C   UNL     1      -8.592  18.720  68.237  1.00  0.00    -0.357 C  
HETATM   18  C   UNL     1     -10.234  19.379  67.492  1.00  0.00    -0.536 C  
HETATM   19  C   UNL     1      -8.603  18.483  66.867  1.00  0.00    -0.281 C  
HETATM   20  O   UNL     1      -8.285  16.274  69.687  1.00  0.00    -0.010 OA 
ENDROOT
BRANCH   9  21
HETATM   21  C   UNL     1      -9.315  11.241  65.540  1.00  0.00    -0.221 C  
HETATM   22  H   UNL     1     -10.507   9.591  65.199  1.00  0.00     0.000 HD 
HETATM   23  O   UNL     1      -8.694  11.064  64.489  1.00  0.00    -0.083 OA 
HETATM   24  N   UNL     1     -10.223  10.277  65.898  1.00  0.00    -0.246 N  
BRANCH  24  25
HETATM   25  C   UNL     1     -10.788  10.190  67.210  1.00  0.00    -0.230 C  
BRANCH  25  26
HETATM   26  C   UNL     1     -10.184   9.283  68.220  1.00  0.00    -0.236 A  
HETATM   27  C   UNL     1      -9.477   8.965  70.524  1.00  0.00    -0.243 A  
HETATM   28  C   UNL     1      -9.532   7.592  70.330  1.00  0.00    -0.164 A  
HETATM   29  C   UNL     1      -9.801   9.799  69.464  1.00  0.00    -0.214 A  
HETATM   30  F   UNL     1      -9.824  11.123  69.678  1.00  0.00    -0.083 F  
HETATM   31  F   UNL     1      -9.252   6.777  71.354  1.00  0.00    -0.151 F  
HETATM   32  C   UNL     1      -9.902   7.047  69.107  1.00  0.00    -0.158 A  
HETATM   33  C   UNL     1     -10.230   7.900  68.060  1.00  0.00    -0.208 A  
HETATM   34  F   UNL     1     -10.677   7.375  66.912  1.00  0.00    -0.365 F  
ENDBRANCH  25  26
ENDBRANCH  24  25
ENDBRANCH   9  21
TORSDOF 3
ENDMDL
MODEL       60
REMARK 921   NORMALIZED FREE ENERGY PREDICTED BY IDOCK:   -6.86 KCAL/MOL
REMARK 922        TOTAL FREE ENERGY PREDICTED BY IDOCK:   -8.80 KCAL/MOL
REMARK 923 INTER-LIGAND FREE ENERGY PREDICTED BY IDOCK:   -8.13 KCAL/MOL
REMARK 924 INTRA-LIGAND FREE ENERGY PREDICTED BY IDOCK:   -0.67 KCAL/MOL
REMARK 927      BINDING AFFINITY PREDICTED BY RF-SCORE:    0.00 PKD
ROOT
HETATM    1  O   UNL     1     -10.530   9.078  70.427  1.00  0.00    -0.192 OA 
HETATM    2  H   UNL     1     -11.116   9.350  71.124  1.00  0.00     0.000 HD 
HETATM    3  C   UNL     1     -10.400   9.640  69.170  1.00  0.00    -0.207 C  
HETATM    4  C   UNL     1      -9.565   9.252  68.177  1.00  0.00    -0.143 C  
HETATM    5  N   UNL     1      -9.561   9.903  66.927  1.00  0.00    -0.172 NA 
HETATM    6  C   UNL     1      -9.130   9.236  65.699  1.00  0.00    -0.216 C  
HETATM    7  C   UNL     1     -10.296  11.084  66.784  1.00  0.00    -0.238 C  
HETATM    8  C   UNL     1      -8.134   8.100  65.912  1.00  0.00    -0.115 C  
HETATM    9  C   UNL     1     -11.212  11.549  67.654  1.00  0.00    -0.343 C  
HETATM   10  C   UNL     1     -11.482  10.567  68.740  1.00  0.00    -0.224 C  
HETATM   11  O   UNL     1      -8.320   7.118  64.589  1.00  0.00    -0.071 OA 
HETATM   12  C   UNL     1      -8.370   4.504  65.871  1.00  0.00    -0.114 C  
HETATM   13  C   UNL     1      -7.935   5.623  64.667  1.00  0.00    -0.120 C  
HETATM   14  N   UNL     1      -8.253   7.309  67.380  1.00  0.00    -0.115 N  
HETATM   15  O   UNL     1     -12.597  10.366  69.212  1.00  0.00    -0.098 OA 
HETATM   16  C   UNL     1      -8.795   7.977  68.463  1.00  0.00    -0.134 C  
HETATM   17  C   UNL     1      -8.480   5.628  67.406  1.00  0.00    -0.106 C  
HETATM   18  C   UNL     1      -7.342   5.906  65.885  1.00  0.00    -0.076 C  
HETATM   19  C   UNL     1      -9.254   6.007  66.315  1.00  0.00    -0.168 C  
HETATM   20  O   UNL     1      -8.831   7.454  69.579  1.00  0.00    -0.137 OA 
ENDROOT
BRANCH   9  21
HETATM   21  C   UNL     1     -11.892  12.846  67.308  1.00  0.00    -0.356 C  
HETATM   22  H   UNL     1     -11.953  14.890  67.583  1.00  0.00     0.000 HD 
HETATM   23  O   UNL     1     -12.639  12.910  66.330  1.00  0.00    -0.380 OA 
HETATM   24  N   UNL     1     -11.681  14.005  68.010  1.00  0.00    -0.340 N  
BRANCH  24  25
HETATM   25  C   UNL     1     -11.096  14.028  69.316  1.00  0.00    -0.232 C  
BRANCH  25  26
HETATM   26  C   UNL     1     -11.836  14.638  70.451  1.00  0.00    -0.365 A  
HETATM   27  C   UNL     1     -13.073  14.289  72.513  1.00  0.00    -0.550 A  
HETATM   28  C   UNL     1     -12.820  15.606  72.866  1.00  0.00    -0.471 A  
HETATM   29  C   UNL     1     -12.580  13.817  71.306  1.00  0.00    -0.362 A  
HETATM   30  F   UNL     1     -12.760  12.522  71.006  1.00  0.00    -0.418 F  
HETATM   31  F   UNL     1     -13.263  16.064  74.043  1.00  0.00    -0.560 F  
HETATM   32  C   UNL     1     -12.089  16.451  72.038  1.00  0.00    -0.362 A  
HETATM   33  C   UNL     1     -11.599  15.957  70.835  1.00  0.00    -0.421 A  
HETATM   34  F   UNL     1     -10.816  16.741  70.083  1.00  0.00    -0.330 F  
ENDBRANCH  25  26
ENDBRANCH  24  25
ENDBRANCH   9  21
TORSDOF 3
ENDMDL
MODEL       61
REMARK 921   NORMALIZED FREE ENERGY PREDICTED BY IDOCK:   -6.84 KCAL/MOL
REMARK 922        TOTAL FREE ENERGY PREDICTED BY IDOCK:   -8.78 KCAL/MOL
REMARK 923 INTER-LIGAND FREE ENERGY PREDICTED BY IDOCK:   -8.17 KCAL/MOL
REMARK 924 INTRA-LIGAND FREE ENERGY PREDICTED BY IDOCK:   -0.62 KCAL/MOL
REMARK 927      BINDING AFFINITY PREDICTED BY RF-SCORE:    0.00 PKD
ROOT
HETATM    1  O   UNL     1     -12.238  12.334  65.588  1.00  0.00    -0.605 OA 
HETATM    2  H   UNL     1     -12.911  11.663  65.554  1.00  0.00     0.000 HD 
HETATM    3  C   UNL     1     -11.101  12.344  66.375  1.00  0.00    -0.301 C  
HETATM    4  C   UNL     1     -10.144  13.300  66.425  1.00  0.00    -0.290 C  
HETATM    5  N   UNL     1      -9.046  13.193  67.302  1.00  0.00    -0.208 NA 
HETATM    6  C   UNL     1      -8.321  14.364  67.795  1.00  0.00    -0.169 C  
HETATM    7  C   UNL     1      -8.853  11.990  67.989  1.00  0.00    -0.179 C  
HETATM    8  C   UNL     1      -8.376  15.576  66.871  1.00  0.00    -0.290 C  
HETATM    9  C   UNL     1      -9.746  10.989  68.086  1.00  0.00    -0.180 C  
HETATM   10  C   UNL     1     -11.060  11.370  67.500  1.00  0.00    -0.281 C  
HETATM   11  O   UNL     1      -8.119  16.879  67.865  1.00  0.00    -0.182 OA 
HETATM   12  C   UNL     1     -10.191  18.689  66.912  1.00  0.00    -0.423 C  
HETATM   13  C   UNL     1      -8.637  18.280  67.463  1.00  0.00    -0.250 C  
HETATM   14  N   UNL     1      -9.748  15.693  65.922  1.00  0.00    -0.334 N  
HETATM   15  O   UNL     1     -12.140  11.045  67.983  1.00  0.00    -0.615 OA 
HETATM   16  C   UNL     1     -10.450  14.542  65.610  1.00  0.00    -0.336 C  
HETATM   17  C   UNL     1     -10.697  17.096  65.996  1.00  0.00    -0.113 C  
HETATM   18  C   UNL     1      -8.905  17.751  66.213  1.00  0.00    -0.201 C  
HETATM   19  C   UNL     1     -10.308  16.942  67.322  1.00  0.00    -0.309 C  
HETATM   20  O   UNL     1     -11.422  14.577  64.852  1.00  0.00    -0.360 OA 
ENDROOT
BRANCH   9  21
HETATM   21  C   UNL     1      -9.337   9.776  68.877  1.00  0.00    -0.158 C  
HETATM   22  H   UNL     1      -8.495   7.892  68.836  1.00  0.00     0.000 HD 
HETATM   23  O   UNL     1      -9.238   9.841  70.104  1.00  0.00    -0.234 OA 
HETATM   24  N   UNL     1      -9.007   8.582  68.287  1.00  0.00    -0.139 N  
BRANCH  24  25
HETATM   25  C   UNL     1      -9.351   8.260  66.936  1.00  0.00    -0.176 C  
BRANCH  25  26
HETATM   26  C   UNL     1      -9.314   6.848  66.476  1.00  0.00    -0.197 A  
HETATM   27  C   UNL     1     -10.540   4.785  66.093  1.00  0.00    -0.282 A  
HETATM   28  C   UNL     1      -9.543   4.377  65.219  1.00  0.00    -0.182 A  
HETATM   29  C   UNL     1     -10.414   6.018  66.717  1.00  0.00    -0.267 A  
HETATM   30  F   UNL     1     -11.418   6.442  67.499  1.00  0.00    -0.399 F  
HETATM   31  F   UNL     1      -9.669   3.204  64.588  1.00  0.00    -0.147 F  
HETATM   32  C   UNL     1      -8.434   5.174  64.962  1.00  0.00    -0.148 A  
HETATM   33  C   UNL     1      -8.330   6.408  65.592  1.00  0.00    -0.147 A  
HETATM   34  F   UNL     1      -7.311   7.216  65.272  1.00  0.00    -0.068 F  
ENDBRANCH  25  26
ENDBRANCH  24  25
ENDBRANCH   9  21
TORSDOF 3
ENDMDL
MODEL       62
REMARK 921   NORMALIZED FREE ENERGY PREDICTED BY IDOCK:   -6.83 KCAL/MOL
REMARK 922        TOTAL FREE ENERGY PREDICTED BY IDOCK:   -8.77 KCAL/MOL
REMARK 923 INTER-LIGAND FREE ENERGY PREDICTED BY IDOCK:   -7.84 KCAL/MOL
REMARK 924 INTRA-LIGAND FREE ENERGY PREDICTED BY IDOCK:   -0.93 KCAL/MOL
REMARK 927      BINDING AFFINITY PREDICTED BY RF-SCORE:    0.00 PKD
ROOT
HETATM    1  O   UNL     1      -6.756  10.886  70.413  1.00  0.00    -0.405 OA 
HETATM    2  H   UNL     1      -6.218  11.662  70.302  1.00  0.00     0.000 HD 
HETATM    3  C   UNL     1      -7.310  10.098  69.420  1.00  0.00    -0.106 C  
HETATM    4  C   UNL     1      -8.076   8.994  69.578  1.00  0.00    -0.105 C  
HETATM    5  N   UNL     1      -8.602   8.302  68.469  1.00  0.00    -0.133 NA 
HETATM    6  C   UNL     1      -9.819   7.494  68.555  1.00  0.00    -0.165 C  
HETATM    7  C   UNL     1      -8.166   8.657  67.189  1.00  0.00    -0.107 C  
HETATM    8  C   UNL     1     -10.108   6.935  69.945  1.00  0.00    -0.200 C  
HETATM    9  C   UNL     1      -7.464   9.763  66.878  1.00  0.00    -0.091 C  
HETATM   10  C   UNL     1      -7.332  10.674  68.047  1.00  0.00    -0.088 C  
HETATM   11  O   UNL     1     -11.747   6.680  69.966  1.00  0.00    -0.383 OA 
HETATM   12  C   UNL     1     -12.422   7.793  72.571  1.00  0.00    -0.072 C  
HETATM   13  C   UNL     1     -12.515   6.659  71.309  1.00  0.00    -0.228 C  
HETATM   14  N   UNL     1      -9.536   7.851  71.221  1.00  0.00    -0.155 N  
HETATM   15  O   UNL     1      -7.388  11.897  67.966  1.00  0.00    -0.087 OA 
HETATM   16  C   UNL     1      -8.455   8.690  71.015  1.00  0.00    -0.164 C  
HETATM   17  C   UNL     1     -10.613   8.375  72.421  1.00  0.00    -0.405 C  
HETATM   18  C   UNL     1     -11.283   6.641  71.939  1.00  0.00    -0.302 C  
HETATM   19  C   UNL     1     -11.388   8.485  71.272  1.00  0.00    -0.325 C  
HETATM   20  O   UNL     1      -7.957   9.325  71.948  1.00  0.00    -0.276 OA 
ENDROOT
BRANCH   9  21
HETATM   21  C   UNL     1      -7.093   9.957  65.432  1.00  0.00    -0.121 C  
HETATM   22  H   UNL     1      -7.657  10.693  63.589  1.00  0.00     0.000 HD 
HETATM   23  O   UNL     1      -5.920   9.834  65.073  1.00  0.00    -0.076 OA 
HETATM   24  N   UNL     1      -8.003  10.325  64.475  1.00  0.00    -0.152 N  
BRANCH  24  25
HETATM   25  C   UNL     1      -9.417  10.216  64.664  1.00  0.00    -0.297 C  
BRANCH  25  26
HETATM   26  C   UNL     1     -10.221  11.428  64.968  1.00  0.00    -0.333 A  
HETATM   27  C   UNL     1     -11.471  13.327  64.108  1.00  0.00    -0.438 A  
HETATM   28  C   UNL     1     -12.125  13.425  65.327  1.00  0.00    -0.413 A  
HETATM   29  C   UNL     1     -10.522  12.329  63.941  1.00  0.00    -0.429 A  
HETATM   30  F   UNL     1      -9.950  12.189  62.735  1.00  0.00    -0.305 F  
HETATM   31  F   UNL     1     -13.065  14.363  65.490  1.00  0.00    -0.489 F  
HETATM   32  C   UNL     1     -11.847  12.550  66.371  1.00  0.00    -0.445 A  
HETATM   33  C   UNL     1     -10.897  11.554  66.181  1.00  0.00    -0.278 A  
HETATM   34  F   UNL     1     -10.698  10.654  67.152  1.00  0.00    -0.262 F  
ENDBRANCH  25  26
ENDBRANCH  24  25
ENDBRANCH   9  21
TORSDOF 3
ENDMDL
MODEL       63
REMARK 921   NORMALIZED FREE ENERGY PREDICTED BY IDOCK:   -6.81 KCAL/MOL
REMARK 922        TOTAL FREE ENERGY PREDICTED BY IDOCK:   -8.75 KCAL/MOL
REMARK 923 INTER-LIGAND FREE ENERGY PREDICTED BY IDOCK:   -8.16 KCAL/MOL
REMARK 924 INTRA-LIGAND FREE ENERGY PREDICTED BY IDOCK:   -0.59 KCAL/MOL
REMARK 927      BINDING AFFINITY PREDICTED BY RF-SCORE:    0.00 PKD
ROOT
HETATM    1  O   UNL     1      -7.951  12.618  66.871  1.00  0.00    -0.358 OA 
HETATM    2  H   UNL     1      -7.347  13.279  66.551  1.00  0.00     0.000 HD 
HETATM    3  C   UNL     1      -9.050  12.808  67.689  1.00  0.00    -0.193 C  
HETATM    4  C   UNL     1      -9.909  11.867  68.145  1.00  0.00    -0.192 C  
HETATM    5  N   UNL     1     -10.976  12.202  69.003  1.00  0.00    -0.226 NA 
HETATM    6  C   UNL     1     -11.566  11.239  69.932  1.00  0.00    -0.334 C  
HETATM    7  C   UNL     1     -11.255  13.554  69.227  1.00  0.00    -0.231 C  
HETATM    8  C   UNL     1     -11.432   9.782  69.500  1.00  0.00    -0.058 C  
HETATM    9  C   UNL     1     -10.458  14.587  68.896  1.00  0.00    -0.246 C  
HETATM   10  C   UNL     1      -9.138  14.118  68.392  1.00  0.00    -0.191 C  
HETATM   11  O   UNL     1     -11.524   8.912  70.909  1.00  0.00    -0.275 OA 
HETATM   12  C   UNL     1      -9.330   7.038  70.519  1.00  0.00    -0.159 C  
HETATM   13  C   UNL     1     -10.893   7.503  70.998  1.00  0.00    -0.235 C  
HETATM   14  N   UNL     1     -10.095   9.432  68.559  1.00  0.00    -0.180 N  
HETATM   15  O   UNL     1      -8.075  14.675  68.649  1.00  0.00    -0.138 OA 
HETATM   16  C   UNL     1      -9.519  10.441  67.808  1.00  0.00    -0.145 C  
HETATM   17  C   UNL     1      -9.015   8.225  69.061  1.00  0.00    -0.147 C  
HETATM   18  C   UNL     1     -10.726   7.562  69.625  1.00  0.00    -0.236 C  
HETATM   19  C   UNL     1      -9.363   8.820  70.269  1.00  0.00    -0.193 C  
HETATM   20  O   UNL     1      -8.579  10.206  67.045  1.00  0.00    -0.128 OA 
ENDROOT
BRANCH   9  21
HETATM   21  C   UNL     1     -10.949  15.970  69.229  1.00  0.00    -0.306 C  
HETATM   22  H   UNL     1     -11.692  17.756  68.512  1.00  0.00     0.000 HD 
HETATM   23  O   UNL     1     -11.263  16.252  70.387  1.00  0.00    -0.373 OA 
HETATM   24  N   UNL     1     -11.120  16.944  68.279  1.00  0.00    -0.299 N  
BRANCH  24  25
HETATM   25  C   UNL     1     -10.533  16.874  66.977  1.00  0.00    -0.281 C  
BRANCH  25  26
HETATM   26  C   UNL     1      -9.562  17.912  66.543  1.00  0.00    -0.318 A  
HETATM   27  C   UNL     1      -8.939  20.261  66.541  1.00  0.00    -0.329 A  
HETATM   28  C   UNL     1      -7.634  19.895  66.243  1.00  0.00    -0.310 A  
HETATM   29  C   UNL     1      -9.892  19.264  66.685  1.00  0.00    -0.367 A  
HETATM   30  F   UNL     1     -11.134  19.618  67.051  1.00  0.00    -0.581 F  
HETATM   31  F   UNL     1      -6.699  20.846  66.133  1.00  0.00    -0.273 F  
HETATM   32  C   UNL     1      -7.273  18.562  66.090  1.00  0.00    -0.301 A  
HETATM   33  C   UNL     1      -8.242  17.578  66.245  1.00  0.00    -0.240 A  
HETATM   34  F   UNL     1      -7.875  16.292  66.190  1.00  0.00    -0.313 F  
ENDBRANCH  25  26
ENDBRANCH  24  25
ENDBRANCH   9  21
TORSDOF 3
ENDMDL
MODEL       64
REMARK 921   NORMALIZED FREE ENERGY PREDICTED BY IDOCK:   -6.81 KCAL/MOL
REMARK 922        TOTAL FREE ENERGY PREDICTED BY IDOCK:   -8.74 KCAL/MOL
REMARK 923 INTER-LIGAND FREE ENERGY PREDICTED BY IDOCK:   -8.04 KCAL/MOL
REMARK 924 INTRA-LIGAND FREE ENERGY PREDICTED BY IDOCK:   -0.71 KCAL/MOL
REMARK 927      BINDING AFFINITY PREDICTED BY RF-SCORE:    0.00 PKD
ROOT
HETATM    1  O   UNL     1      -9.101   8.195  67.275  1.00  0.00    -0.134 OA 
HETATM    2  H   UNL     1      -8.912   7.282  67.461  1.00  0.00     0.000 HD 
HETATM    3  C   UNL     1      -9.844   9.073  68.044  1.00  0.00    -0.166 C  
HETATM    4  C   UNL     1     -10.113  10.373  67.780  1.00  0.00    -0.181 C  
HETATM    5  N   UNL     1     -10.915  11.145  68.643  1.00  0.00    -0.202 NA 
HETATM    6  C   UNL     1     -11.671  12.308  68.178  1.00  0.00    -0.349 C  
HETATM    7  C   UNL     1     -11.276  10.607  69.882  1.00  0.00    -0.308 C  
HETATM    8  C   UNL     1     -11.081  12.996  66.951  1.00  0.00    -0.306 C  
HETATM    9  C   UNL     1     -11.136   9.320  70.251  1.00  0.00    -0.289 C  
HETATM   10  C   UNL     1     -10.689   8.472  69.112  1.00  0.00    -0.110 C  
HETATM   11  O   UNL     1     -12.363  13.771  66.241  1.00  0.00    -0.444 OA 
HETATM   12  C   UNL     1     -11.932  13.062  63.450  1.00  0.00    -0.592 C  
HETATM   13  C   UNL     1     -12.335  14.103  64.731  1.00  0.00    -0.417 C  
HETATM   14  N   UNL     1     -10.217  12.004  65.919  1.00  0.00    -0.226 N  
HETATM   15  O   UNL     1     -11.096   7.331  68.913  1.00  0.00    -0.080 OA 
HETATM   16  C   UNL     1      -9.640  10.850  66.420  1.00  0.00    -0.197 C  
HETATM   17  C   UNL     1     -10.656  11.916  64.284  1.00  0.00    -0.381 C  
HETATM   18  C   UNL     1     -10.997  13.749  64.745  1.00  0.00    -0.396 C  
HETATM   19  C   UNL     1     -11.894  12.011  64.910  1.00  0.00    -0.304 C  
HETATM   20  O   UNL     1      -8.934  10.133  65.708  1.00  0.00    -0.149 OA 
ENDROOT
BRANCH   9  21
HETATM   21  C   UNL     1     -11.591   8.948  71.636  1.00  0.00    -0.338 C  
HETATM   22  H   UNL     1     -11.035   8.431  73.555  1.00  0.00     0.000 HD 
HETATM   23  O   UNL     1     -12.754   9.161  71.983  1.00  0.00    -0.348 OA 
HETATM   24  N   UNL     1     -10.746   8.417  72.576  1.00  0.00    -0.338 N  
BRANCH  24  25
HETATM   25  C   UNL     1      -9.477   7.844  72.248  1.00  0.00    -0.189 C  
BRANCH  25  26
HETATM   26  C   UNL     1      -9.360   6.380  72.019  1.00  0.00    -0.151 A  
HETATM   27  C   UNL     1     -10.242   4.160  72.465  1.00  0.00    -0.240 A  
HETATM   28  C   UNL     1      -9.594   3.695  71.330  1.00  0.00    -0.174 A  
HETATM   29  C   UNL     1     -10.116   5.500  72.800  1.00  0.00    -0.180 A  
HETATM   30  F   UNL     1     -10.808   5.961  73.853  1.00  0.00    -0.262 F  
HETATM   31  F   UNL     1      -9.733   2.412  70.978  1.00  0.00    -0.205 F  
HETATM   32  C   UNL     1      -8.830   4.541  70.534  1.00  0.00    -0.140 A  
HETATM   33  C   UNL     1      -8.722   5.881  70.884  1.00  0.00    -0.131 A  
HETATM   34  F   UNL     1      -8.065   6.714  70.067  1.00  0.00    -0.111 F  
ENDBRANCH  25  26
ENDBRANCH  24  25
ENDBRANCH   9  21
TORSDOF 3
ENDMDL
MODEL       65
REMARK 921   NORMALIZED FREE ENERGY PREDICTED BY IDOCK:   -6.78 KCAL/MOL
REMARK 922        TOTAL FREE ENERGY PREDICTED BY IDOCK:   -8.71 KCAL/MOL
REMARK 923 INTER-LIGAND FREE ENERGY PREDICTED BY IDOCK:   -8.02 KCAL/MOL
REMARK 924 INTRA-LIGAND FREE ENERGY PREDICTED BY IDOCK:   -0.69 KCAL/MOL
REMARK 927      BINDING AFFINITY PREDICTED BY RF-SCORE:    0.00 PKD
ROOT
HETATM    1  O   UNL     1      -8.473  13.195  69.266  1.00  0.00    -0.086 OA 
HETATM    2  H   UNL     1      -8.475  14.054  69.673  1.00  0.00     0.000 HD 
HETATM    3  C   UNL     1      -9.212  12.781  68.172  1.00  0.00    -0.212 C  
HETATM    4  C   UNL     1      -9.209  11.559  67.592  1.00  0.00    -0.171 C  
HETATM    5  N   UNL     1     -10.041  11.267  66.493  1.00  0.00    -0.211 NA 
HETATM    6  C   UNL     1     -10.488   9.907  66.188  1.00  0.00    -0.074 C  
HETATM    7  C   UNL     1     -10.736  12.315  65.882  1.00  0.00    -0.258 C  
HETATM    8  C   UNL     1      -9.551   8.809  66.682  1.00  0.00    -0.283 C  
HETATM    9  C   UNL     1     -10.884  13.556  66.381  1.00  0.00    -0.291 C  
HETATM   10  C   UNL     1     -10.347  13.655  67.766  1.00  0.00    -0.241 C  
HETATM   11  O   UNL     1     -10.516   7.470  66.845  1.00  0.00    -0.309 OA 
HETATM   12  C   UNL     1      -9.624   6.488  69.437  1.00  0.00    -0.149 C  
HETATM   13  C   UNL     1     -10.117   6.336  67.818  1.00  0.00    -0.149 C  
HETATM   14  N   UNL     1      -8.658   9.186  68.044  1.00  0.00    -0.125 N  
HETATM   15  O   UNL     1     -10.879  14.312  68.656  1.00  0.00    -0.238 OA 
HETATM   16  C   UNL     1      -8.391  10.514  68.326  1.00  0.00    -0.122 C  
HETATM   17  C   UNL     1      -8.752   8.183  69.407  1.00  0.00    -0.143 C  
HETATM   18  C   UNL     1      -8.886   6.958  67.934  1.00  0.00    -0.123 C  
HETATM   19  C   UNL     1     -10.062   8.162  68.944  1.00  0.00    -0.211 C  
HETATM   20  O   UNL     1      -7.674  10.828  69.279  1.00  0.00    -0.137 OA 
ENDROOT
BRANCH   9  21
HETATM   21  C   UNL     1     -11.673  14.539  65.560  1.00  0.00    -0.343 C  
HETATM   22  H   UNL     1     -11.617  16.153  64.275  1.00  0.00     0.000 HD 
HETATM   23  O   UNL     1     -12.858  14.319  65.302  1.00  0.00    -0.630 OA 
HETATM   24  N   UNL     1     -11.118  15.673  65.024  1.00  0.00    -0.401 N  
BRANCH  24  25
HETATM   25  C   UNL     1      -9.870  16.213  65.468  1.00  0.00    -0.155 C  
BRANCH  25  26
HETATM   26  C   UNL     1      -9.851  17.382  66.385  1.00  0.00    -0.311 A  
HETATM   27  C   UNL     1     -10.828  19.522  66.998  1.00  0.00    -0.542 A  
HETATM   28  C   UNL     1     -10.281  19.387  68.265  1.00  0.00    -0.433 A  
HETATM   29  C   UNL     1     -10.605  18.517  66.068  1.00  0.00    -0.331 A  
HETATM   30  F   UNL     1     -11.202  18.613  64.870  1.00  0.00    -0.082 F  
HETATM   31  F   UNL     1     -10.515  20.334  69.181  1.00  0.00    -0.509 F  
HETATM   32  C   UNL     1      -9.522  18.276  68.613  1.00  0.00    -0.343 A  
HETATM   33  C   UNL     1      -9.316  17.278  67.668  1.00  0.00    -0.237 A  
HETATM   34  F   UNL     1      -8.665  16.165  68.032  1.00  0.00    -0.170 F  
ENDBRANCH  25  26
ENDBRANCH  24  25
ENDBRANCH   9  21
TORSDOF 3
ENDMDL
MODEL       66
REMARK 921   NORMALIZED FREE ENERGY PREDICTED BY IDOCK:   -6.77 KCAL/MOL
REMARK 922        TOTAL FREE ENERGY PREDICTED BY IDOCK:   -8.69 KCAL/MOL
REMARK 923 INTER-LIGAND FREE ENERGY PREDICTED BY IDOCK:   -7.72 KCAL/MOL
REMARK 924 INTRA-LIGAND FREE ENERGY PREDICTED BY IDOCK:   -0.98 KCAL/MOL
REMARK 927      BINDING AFFINITY PREDICTED BY RF-SCORE:    0.00 PKD
ROOT
HETATM    1  O   UNL     1      -6.951  10.048  68.457  1.00  0.00    -0.065 OA 
HETATM    2  H   UNL     1      -6.270   9.385  68.492  1.00  0.00     0.000 HD 
HETATM    3  C   UNL     1      -8.311   9.849  68.306  1.00  0.00    -0.110 C  
HETATM    4  C   UNL     1      -9.280  10.793  68.256  1.00  0.00    -0.157 C  
HETATM    5  N   UNL     1     -10.633  10.446  68.067  1.00  0.00    -0.203 NA 
HETATM    6  C   UNL     1     -11.602  11.367  67.473  1.00  0.00    -0.219 C  
HETATM    7  C   UNL     1     -10.992   9.095  68.122  1.00  0.00     0.040 C  
HETATM    8  C   UNL     1     -11.266  12.843  67.660  1.00  0.00    -0.317 C  
HETATM    9  C   UNL     1     -10.139   8.054  68.102  1.00  0.00    -0.234 C  
HETATM   10  C   UNL     1      -8.741   8.499  67.849  1.00  0.00    -0.138 C  
HETATM   11  O   UNL     1     -12.040  13.615  66.413  1.00  0.00    -0.403 OA 
HETATM   12  C   UNL     1      -9.933  15.412  65.513  1.00  0.00    -0.379 C  
HETATM   13  C   UNL     1     -11.530  14.984  65.907  1.00  0.00    -0.224 C  
HETATM   14  N   UNL     1      -9.638  13.198  67.787  1.00  0.00    -0.201 N  
HETATM   15  O   UNL     1      -7.946   7.878  67.149  1.00  0.00    -0.113 OA 
HETATM   16  C   UNL     1      -8.769  12.220  68.238  1.00  0.00    -0.178 C  
HETATM   17  C   UNL     1      -8.942  14.318  66.720  1.00  0.00    -0.249 C  
HETATM   18  C   UNL     1     -10.707  15.015  67.019  1.00  0.00    -0.304 C  
HETATM   19  C   UNL     1      -9.845  13.656  65.895  1.00  0.00    -0.263 C  
HETATM   20  O   UNL     1      -7.574  12.466  68.416  1.00  0.00    -0.117 OA 
ENDROOT
BRANCH   9  21
HETATM   21  C   UNL     1     -10.735   6.674  68.171  1.00  0.00    -0.258 C  
HETATM   22  H   UNL     1     -11.812   5.313  69.286  1.00  0.00     0.000 HD 
HETATM   23  O   UNL     1     -10.876   6.010  67.142  1.00  0.00    -0.301 OA 
HETATM   24  N   UNL     1     -11.191   6.121  69.340  1.00  0.00    -0.415 N  
BRANCH  24  25
HETATM   25  C   UNL     1     -10.835   6.624  70.630  1.00  0.00    -0.253 C  
BRANCH  25  26
HETATM   26  C   UNL     1     -11.627   7.723  71.243  1.00  0.00    -0.301 A  
HETATM   27  C   UNL     1     -11.774  10.089  71.779  1.00  0.00    -0.079 A  
HETATM   28  C   UNL     1     -13.150   9.956  71.898  1.00  0.00    -0.459 A  
HETATM   29  C   UNL     1     -11.024   8.968  71.455  1.00  0.00    -0.324 A  
HETATM   30  F   UNL     1      -9.705   9.117  71.263  1.00  0.00    -0.294 F  
HETATM   31  F   UNL     1     -13.888  11.036  72.179  1.00  0.00    -0.310 F  
HETATM   32  C   UNL     1     -13.780   8.733  71.700  1.00  0.00    -0.437 A  
HETATM   33  C   UNL     1     -13.011   7.624  71.370  1.00  0.00    -0.311 A  
HETATM   34  F   UNL     1     -13.627   6.469  71.087  1.00  0.00    -0.142 F  
ENDBRANCH  25  26
ENDBRANCH  24  25
ENDBRANCH   9  21
TORSDOF 3
ENDMDL
MODEL       67
REMARK 921   NORMALIZED FREE ENERGY PREDICTED BY IDOCK:   -6.76 KCAL/MOL
REMARK 922        TOTAL FREE ENERGY PREDICTED BY IDOCK:   -8.69 KCAL/MOL
REMARK 923 INTER-LIGAND FREE ENERGY PREDICTED BY IDOCK:   -7.76 KCAL/MOL
REMARK 924 INTRA-LIGAND FREE ENERGY PREDICTED BY IDOCK:   -0.93 KCAL/MOL
REMARK 927      BINDING AFFINITY PREDICTED BY RF-SCORE:    0.00 PKD
ROOT
HETATM    1  O   UNL     1     -12.157  11.065  67.945  1.00  0.00    -0.721 OA 
HETATM    2  H   UNL     1     -13.084  11.260  68.028  1.00  0.00     0.000 HD 
HETATM    3  C   UNL     1     -11.097  11.942  68.088  1.00  0.00    -0.242 C  
HETATM    4  C   UNL     1      -9.778  11.665  67.970  1.00  0.00    -0.182 C  
HETATM    5  N   UNL     1      -8.802  12.671  68.113  1.00  0.00    -0.192 NA 
HETATM    6  C   UNL     1      -7.485  12.579  67.483  1.00  0.00    -0.151 C  
HETATM    7  C   UNL     1      -9.200  13.931  68.571  1.00  0.00    -0.154 C  
HETATM    8  C   UNL     1      -7.004  11.154  67.228  1.00  0.00    -0.096 C  
HETATM    9  C   UNL     1     -10.470  14.366  68.668  1.00  0.00    -0.247 C  
HETATM   10  C   UNL     1     -11.427  13.394  68.071  1.00  0.00    -0.304 C  
HETATM   11  O   UNL     1      -5.921  11.289  65.980  1.00  0.00    -0.116 OA 
HETATM   12  C   UNL     1      -6.767   9.065  64.301  1.00  0.00    -0.083 C  
HETATM   13  C   UNL     1      -5.634  10.078  65.062  1.00  0.00    -0.091 C  
HETATM   14  N   UNL     1      -8.211  10.025  66.975  1.00  0.00    -0.117 N  
HETATM   15  O   UNL     1     -12.417  13.724  67.425  1.00  0.00    -0.208 OA 
HETATM   16  C   UNL     1      -9.470  10.256  67.501  1.00  0.00    -0.152 C  
HETATM   17  C   UNL     1      -8.203   9.099  65.554  1.00  0.00    -0.124 C  
HETATM   18  C   UNL     1      -6.339   9.306  65.969  1.00  0.00    -0.068 C  
HETATM   19  C   UNL     1      -7.764  10.335  65.094  1.00  0.00    -0.136 C  
HETATM   20  O   UNL     1     -10.365   9.414  67.400  1.00  0.00    -0.228 OA 
ENDROOT
BRANCH   9  21
HETATM   21  C   UNL     1     -10.681  15.762  69.188  1.00  0.00    -0.246 C  
HETATM   22  H   UNL     1     -11.252  17.697  68.755  1.00  0.00     0.000 HD 
HETATM   23  O   UNL     1     -10.751  15.966  70.402  1.00  0.00    -0.310 OA 
HETATM   24  N   UNL     1     -10.858  16.842  68.362  1.00  0.00    -0.362 N  
BRANCH  24  25
HETATM   25  C   UNL     1     -10.513  16.825  66.973  1.00  0.00    -0.285 C  
BRANCH  25  26
HETATM   26  C   UNL     1      -9.423  17.699  66.467  1.00  0.00    -0.294 A  
HETATM   27  C   UNL     1      -8.552  19.955  66.224  1.00  0.00    -0.377 A  
HETATM   28  C   UNL     1      -7.285  19.424  66.029  1.00  0.00    -0.284 A  
HETATM   29  C   UNL     1      -9.611  19.085  66.439  1.00  0.00    -0.353 A  
HETATM   30  F   UNL     1     -10.819  19.605  66.706  1.00  0.00    -0.537 F  
HETATM   31  F   UNL     1      -6.250  20.253  65.852  1.00  0.00    -0.193 F  
HETATM   32  C   UNL     1      -7.064  18.052  66.045  1.00  0.00    -0.330 A  
HETATM   33  C   UNL     1      -8.138  17.198  66.269  1.00  0.00    -0.290 A  
HETATM   34  F   UNL     1      -7.909  15.883  66.378  1.00  0.00    -0.284 F  
ENDBRANCH  25  26
ENDBRANCH  24  25
ENDBRANCH   9  21
TORSDOF 3
ENDMDL
MODEL       68
REMARK 921   NORMALIZED FREE ENERGY PREDICTED BY IDOCK:   -6.75 KCAL/MOL
REMARK 922        TOTAL FREE ENERGY PREDICTED BY IDOCK:   -8.67 KCAL/MOL
REMARK 923 INTER-LIGAND FREE ENERGY PREDICTED BY IDOCK:   -7.77 KCAL/MOL
REMARK 924 INTRA-LIGAND FREE ENERGY PREDICTED BY IDOCK:   -0.90 KCAL/MOL
REMARK 927      BINDING AFFINITY PREDICTED BY RF-SCORE:    0.00 PKD
ROOT
HETATM    1  O   UNL     1     -11.620   8.865  71.929  1.00  0.00    -0.331 OA 
HETATM    2  H   UNL     1     -11.258   8.039  72.228  1.00  0.00     0.000 HD 
HETATM    3  C   UNL     1     -11.150   9.668  70.906  1.00  0.00    -0.352 C  
HETATM    4  C   UNL     1     -11.665  10.846  70.481  1.00  0.00    -0.342 C  
HETATM    5  N   UNL     1     -11.060  11.577  69.439  1.00  0.00    -0.244 NA 
HETATM    6  C   UNL     1     -11.208  13.026  69.311  1.00  0.00    -0.199 C  
HETATM    7  C   UNL     1     -10.026  10.978  68.713  1.00  0.00    -0.207 C  
HETATM    8  C   UNL     1     -12.488  13.587  69.923  1.00  0.00    -0.194 C  
HETATM    9  C   UNL     1      -9.375   9.852  69.057  1.00  0.00    -0.175 C  
HETATM   10  C   UNL     1      -9.775   9.381  70.412  1.00  0.00    -0.261 C  
HETATM   11  O   UNL     1     -12.137  15.171  70.264  1.00  0.00    -0.296 OA 
HETATM   12  C   UNL     1     -13.252  15.396  72.945  1.00  0.00    -0.622 C  
HETATM   13  C   UNL     1     -12.922  15.924  71.364  1.00  0.00    -0.237 C  
HETATM   14  N   UNL     1     -13.105  12.723  71.215  1.00  0.00    -0.225 N  
HETATM   15  O   UNL     1      -8.992   8.894  71.222  1.00  0.00    -0.212 OA 
HETATM   16  C   UNL     1     -12.806  11.377  71.328  1.00  0.00    -0.379 C  
HETATM   17  C   UNL     1     -13.372  13.510  72.693  1.00  0.00    -0.546 C  
HETATM   18  C   UNL     1     -13.795  14.851  71.385  1.00  0.00    -0.537 C  
HETATM   19  C   UNL     1     -12.197  14.112  72.255  1.00  0.00    -0.039 C  
HETATM   20  O   UNL     1     -13.301  10.690  72.224  1.00  0.00    -0.386 OA 
ENDROOT
BRANCH   9  21
HETATM   21  C   UNL     1      -8.288   9.375  68.132  1.00  0.00    -0.119 C  
HETATM   22  H   UNL     1      -7.794   8.197  66.512  1.00  0.00     0.000 HD 
HETATM   23  O   UNL     1      -7.214   9.978  68.077  1.00  0.00    -0.081 OA 
HETATM   24  N   UNL     1      -8.449   8.308  67.286  1.00  0.00    -0.123 N  
BRANCH  24  25
HETATM   25  C   UNL     1      -9.494   7.343  67.440  1.00  0.00    -0.141 C  
BRANCH  25  26
HETATM   26  C   UNL     1      -9.450   6.373  68.565  1.00  0.00    -0.120 A  
HETATM   27  C   UNL     1      -8.092   5.182  70.191  1.00  0.00    -0.083 A  
HETATM   28  C   UNL     1      -9.229   4.974  70.959  1.00  0.00    -0.147 A  
HETATM   29  C   UNL     1      -8.215   5.879  68.998  1.00  0.00    -0.103 A  
HETATM   30  F   UNL     1      -7.102   6.146  68.298  1.00  0.00    -0.071 F  
HETATM   31  F   UNL     1      -9.118   4.332  72.127  1.00  0.00    -0.120 F  
HETATM   32  C   UNL     1     -10.472   5.447  70.556  1.00  0.00    -0.335 A  
HETATM   33  C   UNL     1     -10.572   6.148  69.361  1.00  0.00    -0.286 A  
HETATM   34  F   UNL     1     -11.751   6.684  69.020  1.00  0.00    -0.262 F  
ENDBRANCH  25  26
ENDBRANCH  24  25
ENDBRANCH   9  21
TORSDOF 3
ENDMDL
MODEL       69
REMARK 921   NORMALIZED FREE ENERGY PREDICTED BY IDOCK:   -6.74 KCAL/MOL
REMARK 922        TOTAL FREE ENERGY PREDICTED BY IDOCK:   -8.66 KCAL/MOL
REMARK 923 INTER-LIGAND FREE ENERGY PREDICTED BY IDOCK:   -7.65 KCAL/MOL
REMARK 924 INTRA-LIGAND FREE ENERGY PREDICTED BY IDOCK:   -1.01 KCAL/MOL
REMARK 927      BINDING AFFINITY PREDICTED BY RF-SCORE:    0.00 PKD
ROOT
HETATM    1  O   UNL     1      -8.735   8.097  63.766  1.00  0.00    -0.388 OA 
HETATM    2  H   UNL     1      -8.607   7.185  63.533  1.00  0.00     0.000 HD 
HETATM    3  C   UNL     1      -8.627   8.667  65.021  1.00  0.00    -0.158 C  
HETATM    4  C   UNL     1      -8.809   9.967  65.353  1.00  0.00    -0.168 C  
HETATM    5  N   UNL     1      -8.696  10.405  66.688  1.00  0.00    -0.134 NA 
HETATM    6  C   UNL     1      -9.387  11.596  67.182  1.00  0.00    -0.174 C  
HETATM    7  C   UNL     1      -8.202   9.514  67.646  1.00  0.00    -0.121 C  
HETATM    8  C   UNL     1      -9.684  12.643  66.113  1.00  0.00    -0.253 C  
HETATM    9  C   UNL     1      -8.042   8.189  67.477  1.00  0.00    -0.123 C  
HETATM   10  C   UNL     1      -8.608   7.731  66.179  1.00  0.00    -0.151 C  
HETATM   11  O   UNL     1     -10.978  13.496  66.703  1.00  0.00    -0.285 OA 
HETATM   12  C   UNL     1     -12.649  13.639  64.322  1.00  0.00    -0.195 C  
HETATM   13  C   UNL     1     -11.925  14.244  65.735  1.00  0.00    -0.393 C  
HETATM   14  N   UNL     1      -9.898  12.047  64.565  1.00  0.00    -0.200 N  
HETATM   15  O   UNL     1      -9.204   6.668  66.034  1.00  0.00    -0.130 OA 
HETATM   16  C   UNL     1      -9.312  10.842  64.222  1.00  0.00    -0.245 C  
HETATM   17  C   UNL     1     -11.331  12.396  63.728  1.00  0.00    -0.536 C  
HETATM   18  C   UNL     1     -10.998  13.994  64.739  1.00  0.00    -0.410 C  
HETATM   19  C   UNL     1     -11.793  12.223  65.028  1.00  0.00    -0.412 C  
HETATM   20  O   UNL     1      -9.385  10.406  63.070  1.00  0.00    -0.266 OA 
ENDROOT
BRANCH   9  21
HETATM   21  C   UNL     1      -7.493   7.408  68.641  1.00  0.00    -0.102 C  
HETATM   22  H   UNL     1      -7.796   5.874  69.987  1.00  0.00     0.000 HD 
HETATM   23  O   UNL     1      -6.295   7.477  68.921  1.00  0.00    -0.037 OA 
HETATM   24  N   UNL     1      -8.264   6.561  69.395  1.00  0.00    -0.118 N  
BRANCH  24  25
HETATM   25  C   UNL     1      -9.694   6.598  69.391  1.00  0.00    -0.147 C  
BRANCH  25  26
HETATM   26  C   UNL     1     -10.419   7.407  70.404  1.00  0.00    -0.230 A  
HETATM   27  C   UNL     1     -12.011   9.189  70.846  1.00  0.00    -0.299 A  
HETATM   28  C   UNL     1     -12.205   8.675  72.119  1.00  0.00    -0.386 A  
HETATM   29  C   UNL     1     -11.117   8.551  70.000  1.00  0.00    -0.151 A  
HETATM   30  F   UNL     1     -10.992   9.004  68.744  1.00  0.00    -0.205 F  
HETATM   31  F   UNL     1     -13.089   9.263  72.933  1.00  0.00    -0.454 F  
HETATM   32  C   UNL     1     -11.525   7.544  72.555  1.00  0.00    -0.376 A  
HETATM   33  C   UNL     1     -10.638   6.915  71.690  1.00  0.00    -0.209 A  
HETATM   34  F   UNL     1     -10.055   5.773  72.076  1.00  0.00    -0.193 F  
ENDBRANCH  25  26
ENDBRANCH  24  25
ENDBRANCH   9  21
TORSDOF 3
ENDMDL
MODEL       70
REMARK 921   NORMALIZED FREE ENERGY PREDICTED BY IDOCK:   -6.73 KCAL/MOL
REMARK 922        TOTAL FREE ENERGY PREDICTED BY IDOCK:   -8.65 KCAL/MOL
REMARK 923 INTER-LIGAND FREE ENERGY PREDICTED BY IDOCK:   -7.56 KCAL/MOL
REMARK 924 INTRA-LIGAND FREE ENERGY PREDICTED BY IDOCK:   -1.09 KCAL/MOL
REMARK 927      BINDING AFFINITY PREDICTED BY RF-SCORE:    0.00 PKD
ROOT
HETATM    1  O   UNL     1      -9.118   7.535  65.263  1.00  0.00    -0.364 OA 
HETATM    2  H   UNL     1      -8.971   6.599  65.179  1.00  0.00     0.000 HD 
HETATM    3  C   UNL     1      -9.658   8.207  66.345  1.00  0.00    -0.216 C  
HETATM    4  C   UNL     1      -9.868   9.538  66.464  1.00  0.00    -0.240 C  
HETATM    5  N   UNL     1     -10.459  10.087  67.621  1.00  0.00    -0.228 NA 
HETATM    6  C   UNL     1     -11.192  11.352  67.601  1.00  0.00    -0.283 C  
HETATM    7  C   UNL     1     -10.651   9.258  68.731  1.00  0.00    -0.193 C  
HETATM    8  C   UNL     1     -10.760  12.315  66.499  1.00  0.00    -0.279 C  
HETATM    9  C   UNL     1     -10.550   7.916  68.737  1.00  0.00    -0.154 C  
HETATM   10  C   UNL     1     -10.359   7.377  67.363  1.00  0.00    -0.270 C  
HETATM   11  O   UNL     1     -12.080  13.285  66.243  1.00  0.00    -0.407 OA 
HETATM   12  C   UNL     1     -12.165  13.307  63.332  1.00  0.00    -0.476 C  
HETATM   13  C   UNL     1     -12.274  13.995  64.882  1.00  0.00    -0.437 C  
HETATM   14  N   UNL     1     -10.153  11.597  65.116  1.00  0.00    -0.252 N  
HETATM   15  O   UNL     1     -10.877   6.339  66.962  1.00  0.00    -0.323 OA 
HETATM   16  C   UNL     1      -9.590  10.336  65.205  1.00  0.00    -0.277 C  
HETATM   17  C   UNL     1     -10.860  11.947  63.615  1.00  0.00    -0.510 C  
HETATM   18  C   UNL     1     -10.982  13.609  64.571  1.00  0.00    -0.405 C  
HETATM   19  C   UNL     1     -11.968  11.915  64.454  1.00  0.00    -0.311 C  
HETATM   20  O   UNL     1      -9.066   9.805  64.223  1.00  0.00    -0.233 OA 
ENDROOT
BRANCH   9  21
HETATM   21  C   UNL     1     -10.798   7.213  70.044  1.00  0.00    -0.254 C  
HETATM   22  H   UNL     1      -9.988   6.510  71.807  1.00  0.00     0.000 HD 
HETATM   23  O   UNL     1     -11.948   7.092  70.472  1.00  0.00    -0.325 OA 
HETATM   24  N   UNL     1      -9.784   6.733  70.833  1.00  0.00    -0.178 N  
BRANCH  24  25
HETATM   25  C   UNL     1      -8.452   6.531  70.351  1.00  0.00    -0.131 C  
BRANCH  25  26
HETATM   26  C   UNL     1      -7.596   7.700  70.023  1.00  0.00    -0.087 A  
HETATM   27  C   UNL     1      -6.398   8.947  68.315  1.00  0.00    -0.055 A  
HETATM   28  C   UNL     1      -6.413  10.059  69.144  1.00  0.00    -0.048 A  
HETATM   29  C   UNL     1      -6.988   7.775  68.764  1.00  0.00    -0.067 A  
HETATM   30  F   UNL     1      -7.041   6.727  67.929  1.00  0.00    -0.073 F  
HETATM   31  F   UNL     1      -5.874  11.205  68.709  1.00  0.00    -0.044 F  
HETATM   32  C   UNL     1      -7.003  10.018  70.402  1.00  0.00    -0.137 A  
HETATM   33  C   UNL     1      -7.594   8.836  70.830  1.00  0.00    -0.102 A  
HETATM   34  F   UNL     1      -8.244   8.824  72.001  1.00  0.00    -0.198 F  
ENDBRANCH  25  26
ENDBRANCH  24  25
ENDBRANCH   9  21
TORSDOF 3
ENDMDL
MODEL       71
REMARK 921   NORMALIZED FREE ENERGY PREDICTED BY IDOCK:   -6.69 KCAL/MOL
REMARK 922        TOTAL FREE ENERGY PREDICTED BY IDOCK:   -8.60 KCAL/MOL
REMARK 923 INTER-LIGAND FREE ENERGY PREDICTED BY IDOCK:   -7.63 KCAL/MOL
REMARK 924 INTRA-LIGAND FREE ENERGY PREDICTED BY IDOCK:   -0.97 KCAL/MOL
REMARK 927      BINDING AFFINITY PREDICTED BY RF-SCORE:    0.00 PKD
ROOT
HETATM    1  O   UNL     1      -9.715   9.040  65.322  1.00  0.00    -0.452 OA 
HETATM    2  H   UNL     1      -9.455   9.245  64.431  1.00  0.00     0.000 HD 
HETATM    3  C   UNL     1      -9.325   9.686  66.481  1.00  0.00    -0.165 C  
HETATM    4  C   UNL     1      -9.696   9.394  67.750  1.00  0.00    -0.151 C  
HETATM    5  N   UNL     1      -9.192  10.122  68.846  1.00  0.00    -0.163 NA 
HETATM    6  C   UNL     1      -9.101   9.551  70.190  1.00  0.00    -0.240 C  
HETATM    7  C   UNL     1      -8.449  11.280  68.597  1.00  0.00    -0.143 C  
HETATM    8  C   UNL     1     -10.111   8.444  70.475  1.00  0.00    -0.211 C  
HETATM    9  C   UNL     1      -7.954  11.653  67.403  1.00  0.00    -0.147 C  
HETATM   10  C   UNL     1      -8.151  10.595  66.375  1.00  0.00    -0.148 C  
HETATM   11  O   UNL     1      -9.421   7.541  71.683  1.00  0.00    -0.149 OA 
HETATM   12  C   UNL     1      -9.916   4.851  70.684  1.00  0.00    -0.305 C  
HETATM   13  C   UNL     1      -9.821   6.059  71.875  1.00  0.00    -0.161 C  
HETATM   14  N   UNL     1     -10.599   7.557  69.145  1.00  0.00    -0.217 N  
HETATM   15  O   UNL     1      -7.321  10.321  65.513  1.00  0.00    -0.140 OA 
HETATM   16  C   UNL     1     -10.529   8.135  67.889  1.00  0.00    -0.197 C  
HETATM   17  C   UNL     1     -10.419   5.871  69.153  1.00  0.00    -0.338 C  
HETATM   18  C   UNL     1     -10.849   6.289  70.978  1.00  0.00    -0.326 C  
HETATM   19  C   UNL     1      -9.268   6.287  69.814  1.00  0.00    -0.150 C  
HETATM   20  O   UNL     1     -10.949   7.541  66.893  1.00  0.00    -0.292 OA 
ENDROOT
BRANCH   9  21
HETATM   21  C   UNL     1      -7.178  12.942  67.352  1.00  0.00    -0.126 C  
HETATM   22  H   UNL     1      -7.213  14.989  67.611  1.00  0.00     0.000 HD 
HETATM   23  O   UNL     1      -5.946  12.921  67.328  1.00  0.00    -0.294 OA 
HETATM   24  N   UNL     1      -7.782  14.173  67.385  1.00  0.00    -0.185 N  
BRANCH  24  25
HETATM   25  C   UNL     1      -9.174  14.365  67.116  1.00  0.00    -0.222 C  
BRANCH  25  26
HETATM   26  C   UNL     1     -10.123  14.589  68.238  1.00  0.00    -0.232 A  
HETATM   27  C   UNL     1     -11.050  16.147  69.857  1.00  0.00    -0.357 A  
HETATM   28  C   UNL     1     -12.153  15.317  69.994  1.00  0.00    -0.352 A  
HETATM   29  C   UNL     1     -10.042  15.772  68.980  1.00  0.00    -0.225 A  
HETATM   30  F   UNL     1      -9.016  16.615  68.791  1.00  0.00    -0.217 F  
HETATM   31  F   UNL     1     -13.146  15.683  70.813  1.00  0.00    -0.482 F  
HETATM   32  C   UNL     1     -12.263  14.132  69.277  1.00  0.00    -0.308 A  
HETATM   33  C   UNL     1     -11.245  13.779  68.399  1.00  0.00    -0.272 A  
HETATM   34  F   UNL     1     -11.395  12.686  67.639  1.00  0.00    -0.269 F  
ENDBRANCH  25  26
ENDBRANCH  24  25
ENDBRANCH   9  21
TORSDOF 3
ENDMDL
MODEL       72
REMARK 921   NORMALIZED FREE ENERGY PREDICTED BY IDOCK:   -6.68 KCAL/MOL
REMARK 922        TOTAL FREE ENERGY PREDICTED BY IDOCK:   -8.60 KCAL/MOL
REMARK 923 INTER-LIGAND FREE ENERGY PREDICTED BY IDOCK:   -7.43 KCAL/MOL
REMARK 924 INTRA-LIGAND FREE ENERGY PREDICTED BY IDOCK:   -1.17 KCAL/MOL
REMARK 927      BINDING AFFINITY PREDICTED BY RF-SCORE:    0.00 PKD
ROOT
HETATM    1  O   UNL     1     -11.416  13.274  69.842  1.00  0.00    -0.466 OA 
HETATM    2  H   UNL     1     -11.463  12.522  70.421  1.00  0.00     0.000 HD 
HETATM    3  C   UNL     1     -10.901  13.317  68.559  1.00  0.00    -0.265 C  
HETATM    4  C   UNL     1     -10.835  14.389  67.735  1.00  0.00    -0.258 C  
HETATM    5  N   UNL     1     -10.252  14.294  66.456  1.00  0.00    -0.270 NA 
HETATM    6  C   UNL     1      -9.667  15.449  65.775  1.00  0.00    -0.350 C  
HETATM    7  C   UNL     1      -9.911  13.029  65.966  1.00  0.00    -0.276 C  
HETATM    8  C   UNL     1     -10.259  16.793  66.188  1.00  0.00    -0.363 C  
HETATM    9  C   UNL     1      -9.862  11.895  66.689  1.00  0.00    -0.219 C  
HETATM   10  C   UNL     1     -10.060  12.163  68.140  1.00  0.00    -0.206 C  
HETATM   11  O   UNL     1      -9.070  17.900  65.855  1.00  0.00    -0.512 OA 
HETATM   12  C   UNL     1      -9.136  19.497  68.289  1.00  0.00    -0.398 C  
HETATM   13  C   UNL     1      -9.027  19.249  66.612  1.00  0.00    -0.338 C  
HETATM   14  N   UNL     1     -10.851  16.866  67.750  1.00  0.00    -0.323 N  
HETATM   15  O   UNL     1      -9.451  11.576  69.029  1.00  0.00    -0.073 OA 
HETATM   16  C   UNL     1     -11.264  15.698  68.368  1.00  0.00    -0.352 C  
HETATM   17  C   UNL     1     -10.265  18.052  68.811  1.00  0.00    -0.362 C  
HETATM   18  C   UNL     1     -10.281  18.937  67.106  1.00  0.00    -0.445 C  
HETATM   19  C   UNL     1      -9.119  17.708  68.103  1.00  0.00    -0.276 C  
HETATM   20  O   UNL     1     -11.776  15.721  69.490  1.00  0.00    -0.340 OA 
ENDROOT
BRANCH   9  21
HETATM   21  C   UNL     1      -9.470  10.635  65.966  1.00  0.00    -0.193 C  
HETATM   22  H   UNL     1      -7.973   9.277  65.551  1.00  0.00     0.000 HD 
HETATM   23  O   UNL     1     -10.339   9.878  65.528  1.00  0.00    -0.213 OA 
HETATM   24  N   UNL     1      -8.165  10.245  65.808  1.00  0.00    -0.141 N  
BRANCH  24  25
HETATM   25  C   UNL     1      -7.060  11.136  65.986  1.00  0.00     0.061 C  
BRANCH  25  26
HETATM   26  C   UNL     1      -6.427  11.276  67.324  1.00  0.00    -0.085 A  
HETATM   27  C   UNL     1      -6.079  12.661  69.290  1.00  0.00    -0.100 A  
HETATM   28  C   UNL     1      -5.737  11.524  70.007  1.00  0.00    -0.120 A  
HETATM   29  C   UNL     1      -6.419  12.526  67.952  1.00  0.00    -0.105 A  
HETATM   30  F   UNL     1      -6.825  13.616  67.285  1.00  0.00    -0.182 F  
HETATM   31  F   UNL     1      -5.438  11.637  71.307  1.00  0.00    -0.121 F  
HETATM   32  C   UNL     1      -5.730  10.267  69.413  1.00  0.00    -0.037 A  
HETATM   33  C   UNL     1      -6.079  10.153  68.073  1.00  0.00    -0.052 A  
HETATM   34  F   UNL     1      -6.163   8.933  67.526  1.00  0.00    -0.049 F  
ENDBRANCH  25  26
ENDBRANCH  24  25
ENDBRANCH   9  21
TORSDOF 3
ENDMDL
MODEL       73
REMARK 921   NORMALIZED FREE ENERGY PREDICTED BY IDOCK:   -6.68 KCAL/MOL
REMARK 922        TOTAL FREE ENERGY PREDICTED BY IDOCK:   -8.59 KCAL/MOL
REMARK 923 INTER-LIGAND FREE ENERGY PREDICTED BY IDOCK:   -7.47 KCAL/MOL
REMARK 924 INTRA-LIGAND FREE ENERGY PREDICTED BY IDOCK:   -1.12 KCAL/MOL
REMARK 927      BINDING AFFINITY PREDICTED BY RF-SCORE:    0.00 PKD
ROOT
HETATM    1  O   UNL     1      -6.515   9.517  67.640  1.00  0.00    -0.061 OA 
HETATM    2  H   UNL     1      -5.842   8.879  67.850  1.00  0.00     0.000 HD 
HETATM    3  C   UNL     1      -7.706   9.733  68.308  1.00  0.00    -0.085 C  
HETATM    4  C   UNL     1      -8.664  10.641  68.008  1.00  0.00    -0.126 C  
HETATM    5  N   UNL     1      -9.851  10.730  68.763  1.00  0.00    -0.187 NA 
HETATM    6  C   UNL     1     -11.097  11.255  68.204  1.00  0.00    -0.259 C  
HETATM    7  C   UNL     1      -9.947   9.997  69.950  1.00  0.00    -0.237 C  
HETATM    8  C   UNL     1     -10.907  12.243  67.058  1.00  0.00    -0.288 C  
HETATM    9  C   UNL     1      -9.110   9.016  70.337  1.00  0.00    -0.242 C  
HETATM   10  C   UNL     1      -8.135   8.676  69.265  1.00  0.00    -0.112 C  
HETATM   11  O   UNL     1     -12.320  12.164  66.192  1.00  0.00    -0.536 OA 
HETATM   12  C   UNL     1     -11.271  12.044  63.478  1.00  0.00    -0.526 C  
HETATM   13  C   UNL     1     -12.340  12.556  64.696  1.00  0.00    -0.474 C  
HETATM   14  N   UNL     1      -9.525  12.026  66.144  1.00  0.00    -0.235 N  
HETATM   15  O   UNL     1      -7.764   7.532  69.021  1.00  0.00    -0.112 OA 
HETATM   16  C   UNL     1      -8.432  11.400  66.716  1.00  0.00    -0.165 C  
HETATM   17  C   UNL     1      -9.658  11.812  64.467  1.00  0.00    -0.093 C  
HETATM   18  C   UNL     1     -11.062  13.056  64.877  1.00  0.00    -0.326 C  
HETATM   19  C   UNL     1     -10.767  11.116  64.934  1.00  0.00    -0.318 C  
HETATM   20  O   UNL     1      -7.370  11.287  66.099  1.00  0.00    -0.070 OA 
ENDROOT
BRANCH   9  21
HETATM   21  C   UNL     1      -9.394   8.350  71.656  1.00  0.00    -0.214 C  
HETATM   22  H   UNL     1     -10.201   6.719  72.629  1.00  0.00     0.000 HD 
HETATM   23  O   UNL     1      -8.811   8.726  72.676  1.00  0.00    -0.394 OA 
HETATM   24  N   UNL     1     -10.249   7.286  71.782  1.00  0.00    -0.194 N  
BRANCH  24  25
HETATM   25  C   UNL     1     -11.206   6.934  70.778  1.00  0.00    -0.294 C  
BRANCH  25  26
HETATM   26  C   UNL     1     -10.831   5.992  69.692  1.00  0.00    -0.439 A  
HETATM   27  C   UNL     1     -10.200   5.697  67.363  1.00  0.00    -0.249 A  
HETATM   28  C   UNL     1      -9.658   4.461  67.686  1.00  0.00    -0.166 A  
HETATM   29  C   UNL     1     -10.785   6.450  68.370  1.00  0.00    -0.286 A  
HETATM   30  F   UNL     1     -11.236   7.677  68.069  1.00  0.00    -0.072 F  
HETATM   31  F   UNL     1      -9.063   3.739  66.730  1.00  0.00    -0.119 F  
HETATM   32  C   UNL     1      -9.691   3.973  68.988  1.00  0.00    -0.161 A  
HETATM   33  C   UNL     1     -10.276   4.747  69.983  1.00  0.00    -0.181 A  
HETATM   34  F   UNL     1     -10.224   4.319  71.251  1.00  0.00    -0.254 F  
ENDBRANCH  25  26
ENDBRANCH  24  25
ENDBRANCH   9  21
TORSDOF 3
ENDMDL
MODEL       74
REMARK 921   NORMALIZED FREE ENERGY PREDICTED BY IDOCK:   -6.65 KCAL/MOL
REMARK 922        TOTAL FREE ENERGY PREDICTED BY IDOCK:   -8.56 KCAL/MOL
REMARK 923 INTER-LIGAND FREE ENERGY PREDICTED BY IDOCK:   -7.41 KCAL/MOL
REMARK 924 INTRA-LIGAND FREE ENERGY PREDICTED BY IDOCK:   -1.16 KCAL/MOL
REMARK 927      BINDING AFFINITY PREDICTED BY RF-SCORE:    0.00 PKD
ROOT
HETATM    1  O   UNL     1     -12.644  10.705  68.705  1.00  0.00    -0.733 OA 
HETATM    2  H   UNL     1     -13.264  10.161  69.178  1.00  0.00     0.000 HD 
HETATM    3  C   UNL     1     -11.271  10.747  68.863  1.00  0.00    -0.268 C  
HETATM    4  C   UNL     1     -10.389  11.522  68.190  1.00  0.00    -0.195 C  
HETATM    5  N   UNL     1      -9.010  11.483  68.478  1.00  0.00    -0.164 NA 
HETATM    6  C   UNL     1      -8.122  12.615  68.215  1.00  0.00    -0.161 C  
HETATM    7  C   UNL     1      -8.534  10.490  69.341  1.00  0.00    -0.094 C  
HETATM    8  C   UNL     1      -8.587  13.533  67.089  1.00  0.00    -0.203 C  
HETATM    9  C   UNL     1      -9.292   9.701  70.124  1.00  0.00    -0.294 C  
HETATM   10  C   UNL     1     -10.722  10.112  70.093  1.00  0.00    -0.300 C  
HETATM   11  O   UNL     1      -7.878  14.996  67.414  1.00  0.00    -0.169 OA 
HETATM   12  C   UNL     1     -10.130  16.788  66.969  1.00  0.00    -0.276 C  
HETATM   13  C   UNL     1      -8.504  16.303  66.874  1.00  0.00    -0.224 C  
HETATM   14  N   UNL     1     -10.241  13.605  66.858  1.00  0.00    -0.257 N  
HETATM   15  O   UNL     1     -11.456  10.098  71.077  1.00  0.00    -0.354 OA 
HETATM   16  C   UNL     1     -11.023  12.535  67.257  1.00  0.00    -0.261 C  
HETATM   17  C   UNL     1     -11.027  15.107  66.908  1.00  0.00    -0.323 C  
HETATM   18  C   UNL     1      -9.332  15.510  66.100  1.00  0.00    -0.380 C  
HETATM   19  C   UNL     1     -10.065  15.251  67.902  1.00  0.00    -0.233 C  
HETATM   20  O   UNL     1     -12.236  12.518  67.037  1.00  0.00    -0.490 OA 
ENDROOT
BRANCH   9  21
HETATM   21  C   UNL     1      -8.577   8.692  70.982  1.00  0.00    -0.173 C  
HETATM   22  H   UNL     1      -7.609   6.872  71.063  1.00  0.00     0.000 HD 
HETATM   23  O   UNL     1      -8.159   9.014  72.097  1.00  0.00    -0.359 OA 
HETATM   24  N   UNL     1      -8.311   7.415  70.560  1.00  0.00    -0.130 N  
BRANCH  24  25
HETATM   25  C   UNL     1      -8.974   6.809  69.447  1.00  0.00    -0.137 C  
BRANCH  25  26
HETATM   26  C   UNL     1      -8.606   7.200  68.061  1.00  0.00    -0.128 A  
HETATM   27  C   UNL     1      -9.245   8.353  66.019  1.00  0.00    -0.247 A  
HETATM   28  C   UNL     1      -7.907   8.419  65.661  1.00  0.00    -0.106 A  
HETATM   29  C   UNL     1      -9.583   7.740  67.217  1.00  0.00    -0.161 A  
HETATM   30  F   UNL     1     -10.869   7.749  67.598  1.00  0.00    -0.297 F  
HETATM   31  F   UNL     1      -7.566   9.036  64.523  1.00  0.00    -0.098 F  
HETATM   32  C   UNL     1      -6.912   7.888  66.472  1.00  0.00    -0.071 A  
HETATM   33  C   UNL     1      -7.270   7.284  67.671  1.00  0.00    -0.091 A  
HETATM   34  F   UNL     1      -6.306   6.857  68.496  1.00  0.00    -0.027 F  
ENDBRANCH  25  26
ENDBRANCH  24  25
ENDBRANCH   9  21
TORSDOF 3
ENDMDL
MODEL       75
REMARK 921   NORMALIZED FREE ENERGY PREDICTED BY IDOCK:   -6.65 KCAL/MOL
REMARK 922        TOTAL FREE ENERGY PREDICTED BY IDOCK:   -8.56 KCAL/MOL
REMARK 923 INTER-LIGAND FREE ENERGY PREDICTED BY IDOCK:   -8.05 KCAL/MOL
REMARK 924 INTRA-LIGAND FREE ENERGY PREDICTED BY IDOCK:   -0.51 KCAL/MOL
REMARK 927      BINDING AFFINITY PREDICTED BY RF-SCORE:    0.00 PKD
ROOT
HETATM    1  O   UNL     1     -11.859   8.581  72.374  1.00  0.00    -0.380 OA 
HETATM    2  H   UNL     1     -11.565   7.780  72.793  1.00  0.00     0.000 HD 
HETATM    3  C   UNL     1     -11.208   9.303  71.390  1.00  0.00    -0.362 C  
HETATM    4  C   UNL     1     -11.627  10.443  70.793  1.00  0.00    -0.358 C  
HETATM    5  N   UNL     1     -10.841  11.092  69.820  1.00  0.00    -0.197 NA 
HETATM    6  C   UNL     1     -10.947  12.527  69.557  1.00  0.00     0.093 C  
HETATM    7  C   UNL     1      -9.703  10.440  69.334  1.00  0.00    -0.200 C  
HETATM    8  C   UNL     1     -12.307  13.131  69.891  1.00  0.00    -0.201 C  
HETATM    9  C   UNL     1      -9.136   9.345  69.872  1.00  0.00    -0.221 C  
HETATM   10  C   UNL     1      -9.772   8.980  71.167  1.00  0.00    -0.299 C  
HETATM   11  O   UNL     1     -12.002  14.738  70.166  1.00  0.00    -0.274 OA 
HETATM   12  C   UNL     1     -13.564  15.167  72.586  1.00  0.00    -0.594 C  
HETATM   13  C   UNL     1     -12.957  15.573  71.051  1.00  0.00    -0.489 C  
HETATM   14  N   UNL     1     -13.150  12.369  71.118  1.00  0.00    -0.135 N  
HETATM   15  O   UNL     1      -9.148   8.558  72.136  1.00  0.00    -0.217 OA 
HETATM   16  C   UNL     1     -12.891  11.036  71.384  1.00  0.00    -0.443 C  
HETATM   17  C   UNL     1     -13.661  13.267  72.462  1.00  0.00    -0.637 C  
HETATM   18  C   UNL     1     -13.833  14.503  71.001  1.00  0.00    -0.187 C  
HETATM   19  C   UNL     1     -12.421  13.836  72.191  1.00  0.00    -0.099 C  
HETATM   20  O   UNL     1     -13.543  10.420  72.229  1.00  0.00    -0.299 OA 
ENDROOT
BRANCH   9  21
HETATM   21  C   UNL     1      -7.910   8.799  69.190  1.00  0.00    -0.098 C  
HETATM   22  H   UNL     1      -7.002   8.312  67.402  1.00  0.00     0.000 HD 
HETATM   23  O   UNL     1      -6.843   8.724  69.803  1.00  0.00    -0.044 OA 
HETATM   24  N   UNL     1      -7.901   8.420  67.872  1.00  0.00    -0.106 N  
BRANCH  24  25
HETATM   25  C   UNL     1      -9.095   8.169  67.126  1.00  0.00    -0.140 C  
BRANCH  25  26
HETATM   26  C   UNL     1      -9.275   8.781  65.784  1.00  0.00    -0.269 A  
HETATM   27  C   UNL     1     -10.171  10.623  64.475  1.00  0.00    -0.399 A  
HETATM   28  C   UNL     1      -9.290  10.300  63.453  1.00  0.00    -0.303 A  
HETATM   29  C   UNL     1     -10.156   9.858  65.632  1.00  0.00    -0.237 A  
HETATM   30  F   UNL     1     -10.953  10.222  66.648  1.00  0.00    -0.262 F  
HETATM   31  F   UNL     1      -9.272  11.050  62.346  1.00  0.00    -0.286 F  
HETATM   32  C   UNL     1      -8.405   9.234  63.569  1.00  0.00    -0.185 A  
HETATM   33  C   UNL     1      -8.403   8.484  64.738  1.00  0.00    -0.153 A  
HETATM   34  F   UNL     1      -7.488   7.517  64.886  1.00  0.00    -0.069 F  
ENDBRANCH  25  26
ENDBRANCH  24  25
ENDBRANCH   9  21
TORSDOF 3
ENDMDL
MODEL       76
REMARK 921   NORMALIZED FREE ENERGY PREDICTED BY IDOCK:   -6.64 KCAL/MOL
REMARK 922        TOTAL FREE ENERGY PREDICTED BY IDOCK:   -8.55 KCAL/MOL
REMARK 923 INTER-LIGAND FREE ENERGY PREDICTED BY IDOCK:   -8.79 KCAL/MOL
REMARK 924 INTRA-LIGAND FREE ENERGY PREDICTED BY IDOCK:    0.24 KCAL/MOL
REMARK 927      BINDING AFFINITY PREDICTED BY RF-SCORE:    0.00 PKD
ROOT
HETATM    1  O   UNL     1     -13.596  15.493  70.879  1.00  0.00    -0.741 OA 
HETATM    2  H   UNL     1     -14.188  15.572  71.618  1.00  0.00     0.000 HD 
HETATM    3  C   UNL     1     -12.895  14.369  70.480  1.00  0.00    -0.294 C  
HETATM    4  C   UNL     1     -12.051  14.256  69.428  1.00  0.00    -0.318 C  
HETATM    5  N   UNL     1     -11.378  13.049  69.155  1.00  0.00    -0.273 NA 
HETATM    6  C   UNL     1     -10.106  13.007  68.433  1.00  0.00    -0.225 C  
HETATM    7  C   UNL     1     -11.738  11.904  69.873  1.00  0.00    -0.308 C  
HETATM    8  C   UNL     1      -9.884  14.177  67.479  1.00  0.00    -0.235 C  
HETATM    9  C   UNL     1     -12.505  11.878  70.978  1.00  0.00    -0.390 C  
HETATM   10  C   UNL     1     -12.812  13.252  71.461  1.00  0.00    -0.327 C  
HETATM   11  O   UNL     1      -8.236  14.290  67.325  1.00  0.00    -0.190 OA 
HETATM   12  C   UNL     1      -7.876  17.168  67.590  1.00  0.00    -0.187 C  
HETATM   13  C   UNL     1      -7.581  15.633  66.923  1.00  0.00    -0.166 C  
HETATM   14  N   UNL     1     -10.636  15.607  67.909  1.00  0.00    -0.271 N  
HETATM   15  O   UNL     1     -12.856  13.561  72.648  1.00  0.00    -0.254 OA 
HETATM   16  C   UNL     1     -11.766  15.559  68.706  1.00  0.00    -0.357 C  
HETATM   17  C   UNL     1      -9.711  17.016  68.085  1.00  0.00    -0.268 C  
HETATM   18  C   UNL     1      -8.854  16.093  66.636  1.00  0.00    -0.298 C  
HETATM   19  C   UNL     1      -8.857  16.046  68.598  1.00  0.00    -0.210 C  
HETATM   20  O   UNL     1     -12.392  16.585  68.983  1.00  0.00     0.300 OA 
ENDROOT
BRANCH   9  21
HETATM   21  C   UNL     1     -12.773  10.534  71.599  1.00  0.00    -0.445 C  
HETATM   22  H   UNL     1     -11.980   8.740  72.240  1.00  0.00     0.000 HD 
HETATM   23  O   UNL     1     -13.836  10.326  72.189  1.00  0.00    -0.170 OA 
HETATM   24  N   UNL     1     -11.854   9.517  71.591  1.00  0.00    -0.387 N  
BRANCH  24  25
HETATM   25  C   UNL     1     -10.725   9.495  70.712  1.00  0.00    -0.321 C  
BRANCH  25  26
HETATM   26  C   UNL     1     -10.558   8.379  69.745  1.00  0.00    -0.221 A  
HETATM   27  C   UNL     1     -10.874   6.017  69.267  1.00  0.00    -0.428 A  
HETATM   28  C   UNL     1     -10.770   6.297  67.912  1.00  0.00    -0.305 A  
HETATM   29  C   UNL     1     -10.764   7.063  70.172  1.00  0.00    -0.240 A  
HETATM   30  F   UNL     1     -10.944   6.800  71.475  1.00  0.00    -0.245 F  
HETATM   31  F   UNL     1     -10.907   5.302  67.028  1.00  0.00    -0.287 F  
HETATM   32  C   UNL     1     -10.561   7.593  67.454  1.00  0.00    -0.356 A  
HETATM   33  C   UNL     1     -10.459   8.626  68.377  1.00  0.00    -0.176 A  
HETATM   34  F   UNL     1     -10.352   9.885  67.931  1.00  0.00    -0.192 F  
ENDBRANCH  25  26
ENDBRANCH  24  25
ENDBRANCH   9  21
TORSDOF 3
ENDMDL
MODEL       77
REMARK 921   NORMALIZED FREE ENERGY PREDICTED BY IDOCK:   -6.64 KCAL/MOL
REMARK 922        TOTAL FREE ENERGY PREDICTED BY IDOCK:   -8.54 KCAL/MOL
REMARK 923 INTER-LIGAND FREE ENERGY PREDICTED BY IDOCK:   -7.68 KCAL/MOL
REMARK 924 INTRA-LIGAND FREE ENERGY PREDICTED BY IDOCK:   -0.87 KCAL/MOL
REMARK 927      BINDING AFFINITY PREDICTED BY RF-SCORE:    0.00 PKD
ROOT
HETATM    1  O   UNL     1     -11.726   8.753  72.109  1.00  0.00    -0.357 OA 
HETATM    2  H   UNL     1     -11.399   7.924  72.440  1.00  0.00     0.000 HD 
HETATM    3  C   UNL     1     -11.186   9.527  71.099  1.00  0.00    -0.376 C  
HETATM    4  C   UNL     1     -11.652  10.708  70.628  1.00  0.00    -0.336 C  
HETATM    5  N   UNL     1     -10.978  11.407  69.607  1.00  0.00    -0.167 NA 
HETATM    6  C   UNL     1     -11.087  12.857  69.448  1.00  0.00    -0.068 C  
HETATM    7  C   UNL     1      -9.920  10.774  68.947  1.00  0.00    -0.202 C  
HETATM    8  C   UNL     1     -12.385  13.455  69.982  1.00  0.00    -0.294 C  
HETATM    9  C   UNL     1      -9.313   9.641  69.344  1.00  0.00    -0.201 C  
HETATM   10  C   UNL     1      -9.794   9.203  70.683  1.00  0.00    -0.249 C  
HETATM   11  O   UNL     1     -12.018  15.037  70.315  1.00  0.00    -0.274 OA 
HETATM   12  C   UNL     1     -13.266  15.333  72.929  1.00  0.00    -0.610 C  
HETATM   13  C   UNL     1     -12.842  15.826  71.359  1.00  0.00    -0.442 C  
HETATM   14  N   UNL     1     -13.087  12.627  71.254  1.00  0.00    -0.219 N  
HETATM   15  O   UNL     1      -9.065   8.713  71.541  1.00  0.00    -0.195 OA 
HETATM   16  C   UNL     1     -12.824  11.277  71.404  1.00  0.00    -0.410 C  
HETATM   17  C   UNL     1     -13.414  13.445  72.703  1.00  0.00    -0.536 C  
HETATM   18  C   UNL     1     -13.738  14.772  71.352  1.00  0.00    -0.504 C  
HETATM   19  C   UNL     1     -12.205  14.015  72.317  1.00  0.00     0.057 C  
HETATM   20  O   UNL     1     -13.380  10.617  72.285  1.00  0.00    -0.386 OA 
ENDROOT
BRANCH   9  21
HETATM   21  C   UNL     1      -8.190   9.125  68.485  1.00  0.00    -0.115 C  
HETATM   22  H   UNL     1      -7.649   7.994  66.846  1.00  0.00     0.000 HD 
HETATM   23  O   UNL     1      -7.072   9.641  68.553  1.00  0.00    -0.068 OA 
HETATM   24  N   UNL     1      -8.358   8.119  67.569  1.00  0.00    -0.122 N  
BRANCH  24  25
HETATM   25  C   UNL     1      -9.483   7.236  67.580  1.00  0.00    -0.131 C  
BRANCH  25  26
HETATM   26  C   UNL     1      -9.275   5.768  67.684  1.00  0.00    -0.105 A  
HETATM   27  C   UNL     1      -9.347   3.783  69.084  1.00  0.00    -0.243 A  
HETATM   28  C   UNL     1      -9.407   3.001  67.939  1.00  0.00    -0.204 A  
HETATM   29  C   UNL     1      -9.279   5.161  68.945  1.00  0.00    -0.118 A  
HETATM   30  F   UNL     1      -9.302   5.916  70.054  1.00  0.00    -0.143 F  
HETATM   31  F   UNL     1      -9.505   1.672  68.061  1.00  0.00    -0.181 F  
HETATM   32  C   UNL     1      -9.399   3.571  66.672  1.00  0.00    -0.194 A  
HETATM   33  C   UNL     1      -9.337   4.954  66.554  1.00  0.00    -0.142 A  
HETATM   34  F   UNL     1      -9.424   5.506  65.338  1.00  0.00    -0.144 F  
ENDBRANCH  25  26
ENDBRANCH  24  25
ENDBRANCH   9  21
TORSDOF 3
ENDMDL
MODEL       78
REMARK 921   NORMALIZED FREE ENERGY PREDICTED BY IDOCK:   -6.59 KCAL/MOL
REMARK 922        TOTAL FREE ENERGY PREDICTED BY IDOCK:   -8.49 KCAL/MOL
REMARK 923 INTER-LIGAND FREE ENERGY PREDICTED BY IDOCK:   -7.66 KCAL/MOL
REMARK 924 INTRA-LIGAND FREE ENERGY PREDICTED BY IDOCK:   -0.83 KCAL/MOL
REMARK 927      BINDING AFFINITY PREDICTED BY RF-SCORE:    0.00 PKD
ROOT
HETATM    1  O   UNL     1      -8.583  12.450  69.079  1.00  0.00    -0.336 OA 
HETATM    2  H   UNL     1      -8.558  13.391  69.211  1.00  0.00     0.000 HD 
HETATM    3  C   UNL     1      -9.364  11.747  68.178  1.00  0.00    -0.190 C  
HETATM    4  C   UNL     1      -9.400  10.408  67.991  1.00  0.00    -0.140 C  
HETATM    5  N   UNL     1     -10.272   9.822  67.052  1.00  0.00    -0.216 NA 
HETATM    6  C   UNL     1     -10.751   8.446  67.179  1.00  0.00    -0.152 C  
HETATM    7  C   UNL     1     -10.969  10.658  66.173  1.00  0.00     0.085 C  
HETATM    8  C   UNL     1      -9.817   7.522  67.954  1.00  0.00    -0.185 C  
HETATM    9  C   UNL     1     -11.080  11.995  66.282  1.00  0.00    -0.363 C  
HETATM   10  C   UNL     1     -10.497  12.488  67.560  1.00  0.00    -0.219 C  
HETATM   11  O   UNL     1     -10.798   6.317  68.535  1.00  0.00    -0.263 OA 
HETATM   12  C   UNL     1      -9.839   6.131  71.279  1.00  0.00    -0.204 C  
HETATM   13  C   UNL     1     -10.386   5.516  69.792  1.00  0.00    -0.296 C  
HETATM   14  N   UNL     1      -8.874   8.265  69.117  1.00  0.00    -0.143 N  
HETATM   15  O   UNL     1     -10.989  13.394  68.226  1.00  0.00    -0.241 OA 
HETATM   16  C   UNL     1      -8.576   9.610  68.983  1.00  0.00    -0.133 C  
HETATM   17  C   UNL     1      -8.940   7.717  70.721  1.00  0.00    -0.149 C  
HETATM   18  C   UNL     1      -9.142   6.112  69.686  1.00  0.00    -0.139 C  
HETATM   19  C   UNL     1     -10.265   7.592  70.319  1.00  0.00    -0.205 C  
HETATM   20  O   UNL     1      -7.823  10.176  69.779  1.00  0.00    -0.154 OA 
ENDROOT
BRANCH   9  21
HETATM   21  C   UNL     1     -11.879  12.707  65.225  1.00  0.00    -0.408 C  
HETATM   22  H   UNL     1     -11.838  13.873  63.523  1.00  0.00     0.000 HD 
HETATM   23  O   UNL     1     -13.072  12.441  65.067  1.00  0.00    -0.678 OA 
HETATM   24  N   UNL     1     -11.325  13.625  64.369  1.00  0.00    -0.378 N  
BRANCH  24  25
HETATM   25  C   UNL     1     -10.062  14.251  64.610  1.00  0.00     0.045 C  
BRANCH  25  26
HETATM   26  C   UNL     1      -9.985  15.467  65.460  1.00  0.00    -0.377 A  
HETATM   27  C   UNL     1      -8.703  16.770  67.062  1.00  0.00    -0.226 A  
HETATM   28  C   UNL     1      -9.454  17.887  66.726  1.00  0.00    -0.287 A  
HETATM   29  C   UNL     1      -8.979  15.568  66.427  1.00  0.00    -0.324 A  
HETATM   30  F   UNL     1      -8.199  14.510  66.697  1.00  0.00    -0.191 F  
HETATM   31  F   UNL     1      -9.176  19.059  67.309  1.00  0.00    -0.283 F  
HETATM   32  C   UNL     1     -10.464  17.821  65.774  1.00  0.00    -0.199 A  
HETATM   33  C   UNL     1     -10.720  16.609  65.144  1.00  0.00    -0.189 A  
HETATM   34  F   UNL     1     -11.629  16.568  64.162  1.00  0.00    -0.518 F  
ENDBRANCH  25  26
ENDBRANCH  24  25
ENDBRANCH   9  21
TORSDOF 3
ENDMDL
MODEL       79
REMARK 921   NORMALIZED FREE ENERGY PREDICTED BY IDOCK:   -6.59 KCAL/MOL
REMARK 922        TOTAL FREE ENERGY PREDICTED BY IDOCK:   -8.49 KCAL/MOL
REMARK 923 INTER-LIGAND FREE ENERGY PREDICTED BY IDOCK:   -7.47 KCAL/MOL
REMARK 924 INTRA-LIGAND FREE ENERGY PREDICTED BY IDOCK:   -1.01 KCAL/MOL
REMARK 927      BINDING AFFINITY PREDICTED BY RF-SCORE:    0.00 PKD
ROOT
HETATM    1  O   UNL     1     -12.752  10.271  69.485  1.00  0.00    -0.585 OA 
HETATM    2  H   UNL     1     -13.606  10.689  69.468  1.00  0.00     0.000 HD 
HETATM    3  C   UNL     1     -11.530  10.844  69.184  1.00  0.00    -0.303 C  
HETATM    4  C   UNL     1     -10.314  10.249  69.208  1.00  0.00    -0.231 C  
HETATM    5  N   UNL     1      -9.148  10.951  68.845  1.00  0.00    -0.167 NA 
HETATM    6  C   UNL     1      -7.956  10.276  68.332  1.00  0.00    -0.108 C  
HETATM    7  C   UNL     1      -9.233  12.332  68.641  1.00  0.00     0.001 C  
HETATM    8  C   UNL     1      -7.801   8.830  68.792  1.00  0.00    -0.101 C  
HETATM    9  C   UNL     1     -10.371  13.039  68.522  1.00  0.00    -0.247 C  
HETATM   10  C   UNL     1     -11.564  12.150  68.471  1.00  0.00    -0.315 C  
HETATM   11  O   UNL     1      -6.862   8.112  67.629  1.00  0.00    -0.067 OA 
HETATM   12  C   UNL     1      -8.319   5.623  67.233  1.00  0.00    -0.100 C  
HETATM   13  C   UNL     1      -6.928   6.583  67.408  1.00  0.00    -0.078 C  
HETATM   14  N   UNL     1      -9.229   8.024  69.120  1.00  0.00    -0.151 N  
HETATM   15  O   UNL     1     -12.535  12.356  67.749  1.00  0.00    -0.082 OA 
HETATM   16  C   UNL     1     -10.348   8.757  69.475  1.00  0.00    -0.213 C  
HETATM   17  C   UNL     1      -9.567   6.567  68.321  1.00  0.00    -0.131 C  
HETATM   18  C   UNL     1      -7.665   6.511  68.577  1.00  0.00    -0.105 C  
HETATM   19  C   UNL     1      -8.946   7.306  67.320  1.00  0.00    -0.126 C  
HETATM   20  O   UNL     1     -11.398   8.195  69.796  1.00  0.00    -0.058 OA 
ENDROOT
BRANCH   9  21
HETATM   21  C   UNL     1     -10.240  14.523  68.305  1.00  0.00    -0.234 C  
HETATM   22  H   UNL     1     -10.100  16.062  66.938  1.00  0.00     0.000 HD 
HETATM   23  O   UNL     1     -10.471  15.305  69.229  1.00  0.00    -0.233 OA 
HETATM   24  N   UNL     1      -9.919  15.069  67.089  1.00  0.00    -0.236 N  
BRANCH  24  25
HETATM   25  C   UNL     1      -9.341  14.311  66.023  1.00  0.00    -0.109 C  
BRANCH  25  26
HETATM   26  C   UNL     1     -10.217  13.658  65.016  1.00  0.00    -0.356 A  
HETATM   27  C   UNL     1     -11.050  11.583  64.064  1.00  0.00    -0.441 A  
HETATM   28  C   UNL     1     -12.135  12.277  63.548  1.00  0.00    -0.553 A  
HETATM   29  C   UNL     1     -10.098  12.282  64.792  1.00  0.00    -0.246 A  
HETATM   30  F   UNL     1      -9.094  11.593  65.355  1.00  0.00    -0.207 F  
HETATM   31  F   UNL     1     -13.076  11.609  62.872  1.00  0.00    -0.568 F  
HETATM   32  C   UNL     1     -12.281  13.645  63.748  1.00  0.00    -0.413 A  
HETATM   33  C   UNL     1     -11.319  14.325  64.485  1.00  0.00    -0.334 A  
HETATM   34  F   UNL     1     -11.508  15.623  64.756  1.00  0.00    -0.374 F  
ENDBRANCH  25  26
ENDBRANCH  24  25
ENDBRANCH   9  21
TORSDOF 3
ENDMDL
MODEL       80
REMARK 921   NORMALIZED FREE ENERGY PREDICTED BY IDOCK:   -6.58 KCAL/MOL
REMARK 922        TOTAL FREE ENERGY PREDICTED BY IDOCK:   -8.48 KCAL/MOL
REMARK 923 INTER-LIGAND FREE ENERGY PREDICTED BY IDOCK:   -8.69 KCAL/MOL
REMARK 924 INTRA-LIGAND FREE ENERGY PREDICTED BY IDOCK:    0.21 KCAL/MOL
REMARK 927      BINDING AFFINITY PREDICTED BY RF-SCORE:    0.00 PKD
ROOT
HETATM    1  O   UNL     1     -11.246  13.156  63.697  1.00  0.00    -0.570 OA 
HETATM    2  H   UNL     1     -11.636  14.017  63.598  1.00  0.00     0.000 HD 
HETATM    3  C   UNL     1     -11.000  12.474  64.875  1.00  0.00    -0.300 C  
HETATM    4  C   UNL     1     -10.444  11.248  65.015  1.00  0.00    -0.298 C  
HETATM    5  N   UNL     1     -10.223  10.685  66.287  1.00  0.00    -0.240 NA 
HETATM    6  C   UNL     1      -9.183   9.685  66.532  1.00  0.00    -0.158 C  
HETATM    7  C   UNL     1     -10.763  11.326  67.407  1.00  0.00    -0.242 C  
HETATM    8  C   UNL     1      -8.810   8.851  65.310  1.00  0.00    -0.227 C  
HETATM    9  C   UNL     1     -11.278  12.569  67.427  1.00  0.00    -0.344 C  
HETATM   10  C   UNL     1     -11.065  13.270  66.131  1.00  0.00    -0.285 C  
HETATM   11  O   UNL     1      -7.264   8.330  65.609  1.00  0.00    -0.069 OA 
HETATM   12  C   UNL     1      -6.024   8.842  63.025  1.00  0.00    -0.086 C  
HETATM   13  C   UNL     1      -6.330   7.948  64.437  1.00  0.00    -0.056 C  
HETATM   14  N   UNL     1      -9.009   9.611  63.834  1.00  0.00    -0.233 N  
HETATM   15  O   UNL     1     -10.789  14.463  66.040  1.00  0.00    -0.299 OA 
HETATM   16  C   UNL     1      -9.928  10.639  63.726  1.00  0.00    -0.317 C  
HETATM   17  C   UNL     1      -7.691   9.731  62.774  1.00  0.00    -0.124 C  
HETATM   18  C   UNL     1      -7.440   8.023  63.614  1.00  0.00    -0.118 C  
HETATM   19  C   UNL     1      -7.082   9.912  64.011  1.00  0.00    -0.127 C  
HETATM   20  O   UNL     1     -10.157  11.173  62.638  1.00  0.00    -0.146 OA 
ENDROOT
BRANCH   9  21
HETATM   21  C   UNL     1     -11.808  13.073  68.742  1.00  0.00    -0.317 C  
HETATM   22  H   UNL     1     -12.122  12.676  70.743  1.00  0.00     0.000 HD 
HETATM   23  O   UNL     1     -12.028  14.275  68.901  1.00  0.00    -0.325 OA 
HETATM   24  N   UNL     1     -12.018  12.252  69.821  1.00  0.00    -0.313 N  
BRANCH  24  25
HETATM   25  C   UNL     1     -12.097  10.828  69.712  1.00  0.00    -0.318 C  
BRANCH  25  26
HETATM   26  C   UNL     1     -11.727   9.972  70.869  1.00  0.00    -0.462 A  
HETATM   27  C   UNL     1     -12.445   8.348  72.528  1.00  0.00    -0.337 A  
HETATM   28  C   UNL     1     -11.122   7.971  72.704  1.00  0.00    -0.387 A  
HETATM   29  C   UNL     1     -12.735   9.349  71.613  1.00  0.00    -0.374 A  
HETATM   30  F   UNL     1     -14.022   9.655  71.388  1.00  0.00    -0.353 F  
HETATM   31  F   UNL     1     -10.832   6.986  73.561  1.00  0.00    -0.327 F  
HETATM   32  C   UNL     1     -10.095   8.573  71.986  1.00  0.00    -0.386 A  
HETATM   33  C   UNL     1     -10.408   9.570  71.069  1.00  0.00    -0.283 A  
HETATM   34  F   UNL     1      -9.431  10.083  70.310  1.00  0.00    -0.266 F  
ENDBRANCH  25  26
ENDBRANCH  24  25
ENDBRANCH   9  21
TORSDOF 3
ENDMDL
MODEL       81
REMARK 921   NORMALIZED FREE ENERGY PREDICTED BY IDOCK:   -6.58 KCAL/MOL
REMARK 922        TOTAL FREE ENERGY PREDICTED BY IDOCK:   -8.48 KCAL/MOL
REMARK 923 INTER-LIGAND FREE ENERGY PREDICTED BY IDOCK:   -7.53 KCAL/MOL
REMARK 924 INTRA-LIGAND FREE ENERGY PREDICTED BY IDOCK:   -0.95 KCAL/MOL
REMARK 927      BINDING AFFINITY PREDICTED BY RF-SCORE:    0.00 PKD
ROOT
HETATM    1  O   UNL     1      -8.537   9.920  67.108  1.00  0.00    -0.125 OA 
HETATM    2  H   UNL     1      -8.248  10.786  67.373  1.00  0.00     0.000 HD 
HETATM    3  C   UNL     1      -9.247   9.003  67.862  1.00  0.00    -0.141 C  
HETATM    4  C   UNL     1      -9.658   7.770  67.485  1.00  0.00    -0.148 C  
HETATM    5  N   UNL     1     -10.352   6.925  68.374  1.00  0.00    -0.180 NA 
HETATM    6  C   UNL     1     -10.333   5.468  68.245  1.00  0.00    -0.173 C  
HETATM    7  C   UNL     1     -10.785   7.449  69.596  1.00  0.00    -0.235 C  
HETATM    8  C   UNL     1     -10.090   4.962  66.827  1.00  0.00    -0.269 C  
HETATM    9  C   UNL     1     -10.400   8.624  70.127  1.00  0.00    -0.219 C  
HETATM   10  C   UNL     1      -9.314   9.255  69.328  1.00  0.00    -0.160 C  
HETATM   11  O   UNL     1      -9.455   3.443  67.021  1.00  0.00    -0.199 OA 
HETATM   12  C   UNL     1      -7.258   3.539  65.112  1.00  0.00    -0.067 C  
HETATM   13  C   UNL     1      -8.572   2.819  65.915  1.00  0.00    -0.116 C  
HETATM   14  N   UNL     1      -9.181   5.970  65.851  1.00  0.00    -0.114 N  
HETATM   15  O   UNL     1      -8.368   9.860  69.824  1.00  0.00    -0.157 OA 
HETATM   16  C   UNL     1      -9.154   7.326  66.125  1.00  0.00    -0.122 C  
HETATM   17  C   UNL     1      -7.775   5.374  65.115  1.00  0.00    -0.086 C  
HETATM   18  C   UNL     1      -8.966   3.867  65.101  1.00  0.00    -0.132 C  
HETATM   19  C   UNL     1      -7.739   4.747  66.355  1.00  0.00    -0.091 C  
HETATM   20  O   UNL     1      -8.556   8.111  65.385  1.00  0.00    -0.160 OA 
ENDROOT
BRANCH   9  21
HETATM   21  C   UNL     1     -10.988   9.002  71.459  1.00  0.00    -0.348 C  
HETATM   22  H   UNL     1     -12.602   9.793  72.472  1.00  0.00     0.000 HD 
HETATM   23  O   UNL     1     -10.494   8.564  72.500  1.00  0.00    -0.317 OA 
HETATM   24  N   UNL     1     -12.105   9.788  71.581  1.00  0.00    -0.398 N  
BRANCH  24  25
HETATM   25  C   UNL     1     -12.605  10.601  70.516  1.00  0.00    -0.348 C  
BRANCH  25  26
HETATM   26  C   UNL     1     -12.257  12.045  70.457  1.00  0.00    -0.414 A  
HETATM   27  C   UNL     1     -11.469  13.909  69.111  1.00  0.00    -0.345 A  
HETATM   28  C   UNL     1     -12.026  14.784  70.032  1.00  0.00    -0.316 A  
HETATM   29  C   UNL     1     -11.588  12.545  69.334  1.00  0.00    -0.305 A  
HETATM   30  F   UNL     1     -11.118  11.703  68.402  1.00  0.00    -0.206 F  
HETATM   31  F   UNL     1     -11.945  16.101  69.812  1.00  0.00    -0.313 F  
HETATM   32  C   UNL     1     -12.692  14.321  71.161  1.00  0.00    -0.430 A  
HETATM   33  C   UNL     1     -12.806  12.951  71.362  1.00  0.00    -0.283 A  
HETATM   34  F   UNL     1     -13.528  12.506  72.398  1.00  0.00    -0.613 F  
ENDBRANCH  25  26
ENDBRANCH  24  25
ENDBRANCH   9  21
TORSDOF 3
ENDMDL
MODEL       82
REMARK 921   NORMALIZED FREE ENERGY PREDICTED BY IDOCK:   -6.57 KCAL/MOL
REMARK 922        TOTAL FREE ENERGY PREDICTED BY IDOCK:   -8.47 KCAL/MOL
REMARK 923 INTER-LIGAND FREE ENERGY PREDICTED BY IDOCK:   -7.60 KCAL/MOL
REMARK 924 INTRA-LIGAND FREE ENERGY PREDICTED BY IDOCK:   -0.87 KCAL/MOL
REMARK 927      BINDING AFFINITY PREDICTED BY RF-SCORE:    0.00 PKD
ROOT
HETATM    1  O   UNL     1     -12.596  10.928  69.786  1.00  0.00    -0.367 OA 
HETATM    2  H   UNL     1     -13.114  11.463  69.195  1.00  0.00     0.000 HD 
HETATM    3  C   UNL     1     -11.263  10.583  69.658  1.00  0.00    -0.282 C  
HETATM    4  C   UNL     1     -10.526   9.822  70.499  1.00  0.00    -0.301 C  
HETATM    5  N   UNL     1      -9.176   9.524  70.226  1.00  0.00    -0.246 NA 
HETATM    6  C   UNL     1      -8.516   8.328  70.748  1.00  0.00    -0.132 C  
HETATM    7  C   UNL     1      -8.545  10.186  69.167  1.00  0.00    -0.165 C  
HETATM    8  C   UNL     1      -9.112   7.794  72.047  1.00  0.00    -0.180 C  
HETATM    9  C   UNL     1      -9.161  10.913  68.217  1.00  0.00    -0.161 C  
HETATM   10  C   UNL     1     -10.642  10.808  68.323  1.00  0.00    -0.200 C  
HETATM   11  O   UNL     1      -8.711   6.185  72.068  1.00  0.00    -0.135 OA 
HETATM   12  C   UNL     1     -11.251   5.015  72.879  1.00  0.00    -0.344 C  
HETATM   13  C   UNL     1      -9.560   5.180  72.882  1.00  0.00    -0.144 C  
HETATM   14  N   UNL     1     -10.741   8.102  72.268  1.00  0.00    -0.287 N  
HETATM   15  O   UNL     1     -11.391  10.745  67.352  1.00  0.00    -0.416 OA 
HETATM   16  C   UNL     1     -11.313   9.186  71.628  1.00  0.00    -0.376 C  
HETATM   17  C   UNL     1     -11.803   6.810  72.548  1.00  0.00    -0.145 C  
HETATM   18  C   UNL     1     -10.193   6.273  73.447  1.00  0.00    -0.236 C  
HETATM   19  C   UNL     1     -10.921   6.261  71.624  1.00  0.00    -0.310 C  
HETATM   20  O   UNL     1     -12.493   9.489  71.825  1.00  0.00    -0.356 OA 
ENDROOT
BRANCH   9  21
HETATM   21  C   UNL     1      -8.293  11.544  67.162  1.00  0.00    -0.160 C  
HETATM   22  H   UNL     1      -7.016  13.090  66.676  1.00  0.00     0.000 HD 
HETATM   23  O   UNL     1      -7.961  10.898  66.166  1.00  0.00    -0.161 OA 
HETATM   24  N   UNL     1      -7.794  12.816  67.276  1.00  0.00    -0.169 N  
BRANCH  24  25
HETATM   25  C   UNL     1      -8.316  13.778  68.198  1.00  0.00    -0.165 C  
BRANCH  25  26
HETATM   26  C   UNL     1      -9.015  14.988  67.693  1.00  0.00    -0.180 A  
HETATM   27  C   UNL     1      -8.829  17.263  66.859  1.00  0.00    -0.259 A  
HETATM   28  C   UNL     1     -10.089  17.138  66.292  1.00  0.00    -0.320 A  
HETATM   29  C   UNL     1      -8.305  16.186  67.558  1.00  0.00    -0.159 A  
HETATM   30  F   UNL     1      -7.055  16.283  68.036  1.00  0.00    -0.121 F  
HETATM   31  F   UNL     1     -10.593  18.159  65.589  1.00  0.00    -0.412 F  
HETATM   32  C   UNL     1     -10.824  15.964  66.411  1.00  0.00    -0.193 A  
HETATM   33  C   UNL     1     -10.278  14.894  67.110  1.00  0.00    -0.245 A  
HETATM   34  F   UNL     1     -10.945  13.734  67.145  1.00  0.00    -0.276 F  
ENDBRANCH  25  26
ENDBRANCH  24  25
ENDBRANCH   9  21
TORSDOF 3
ENDMDL
MODEL       83
REMARK 921   NORMALIZED FREE ENERGY PREDICTED BY IDOCK:   -6.57 KCAL/MOL
REMARK 922        TOTAL FREE ENERGY PREDICTED BY IDOCK:   -8.47 KCAL/MOL
REMARK 923 INTER-LIGAND FREE ENERGY PREDICTED BY IDOCK:   -7.82 KCAL/MOL
REMARK 924 INTRA-LIGAND FREE ENERGY PREDICTED BY IDOCK:   -0.65 KCAL/MOL
REMARK 927      BINDING AFFINITY PREDICTED BY RF-SCORE:    0.00 PKD
ROOT
HETATM    1  O   UNL     1     -10.829  10.711  70.451  1.00  0.00    -0.447 OA 
HETATM    2  H   UNL     1     -10.710  10.789  71.391  1.00  0.00     0.000 HD 
HETATM    3  C   UNL     1     -10.180   9.846  69.589  1.00  0.00    -0.237 C  
HETATM    4  C   UNL     1     -10.349   9.737  68.251  1.00  0.00    -0.198 C  
HETATM    5  N   UNL     1      -9.592   8.825  67.488  1.00  0.00    -0.147 NA 
HETATM    6  C   UNL     1      -9.323   9.028  66.065  1.00  0.00    -0.242 C  
HETATM    7  C   UNL     1      -8.793   7.893  68.158  1.00  0.00    -0.125 C  
HETATM    8  C   UNL     1     -10.372   9.864  65.338  1.00  0.00    -0.004 C  
HETATM    9  C   UNL     1      -8.481   7.922  69.467  1.00  0.00    -0.133 C  
HETATM   10  C   UNL     1      -8.959   9.175  70.114  1.00  0.00    -0.198 C  
HETATM   11  O   UNL     1      -9.573  10.506  64.034  1.00  0.00    -0.261 OA 
HETATM   12  C   UNL     1     -10.498  13.264  64.149  1.00  0.00    -0.281 C  
HETATM   13  C   UNL     1     -10.077  11.811  63.375  1.00  0.00    -0.446 C  
HETATM   14  N   UNL     1     -11.171  10.991  66.280  1.00  0.00    -0.049 N  
HETATM   15  O   UNL     1      -8.325   9.782  70.972  1.00  0.00    -0.160 OA 
HETATM   16  C   UNL     1     -11.265  10.781  67.644  1.00  0.00    -0.299 C  
HETATM   17  C   UNL     1     -11.158  12.623  65.819  1.00  0.00    -0.332 C  
HETATM   18  C   UNL     1     -11.219  11.682  64.146  1.00  0.00    -0.421 C  
HETATM   19  C   UNL     1      -9.875  12.217  65.473  1.00  0.00    -0.240 C  
HETATM   20  O   UNL     1     -11.910  11.550  68.361  1.00  0.00    -0.438 OA 
ENDROOT
BRANCH   9  21
HETATM   21  C   UNL     1      -7.603   6.818  69.990  1.00  0.00    -0.100 C  
HETATM   22  H   UNL     1      -7.340   4.784  70.221  1.00  0.00     0.000 HD 
HETATM   23  O   UNL     1      -6.427   7.047  70.279  1.00  0.00    -0.041 OA 
HETATM   24  N   UNL     1      -8.036   5.523  70.117  1.00  0.00    -0.096 N  
BRANCH  24  25
HETATM   25  C   UNL     1      -9.420   5.161  70.110  1.00  0.00    -0.168 C  
BRANCH  25  26
HETATM   26  C   UNL     1     -10.393   5.930  70.930  1.00  0.00    -0.288 A  
HETATM   27  C   UNL     1     -10.812   7.192  72.964  1.00  0.00    -0.367 A  
HETATM   28  C   UNL     1     -11.908   7.781  72.350  1.00  0.00    -0.321 A  
HETATM   29  C   UNL     1     -10.065   6.269  72.247  1.00  0.00    -0.177 A  
HETATM   30  F   UNL     1      -8.961   5.762  72.816  1.00  0.00    -0.128 F  
HETATM   31  F   UNL     1     -12.617   8.697  73.020  1.00  0.00    -0.397 F  
HETATM   32  C   UNL     1     -12.265   7.463  71.044  1.00  0.00    -0.315 A  
HETATM   33  C   UNL     1     -11.500   6.540  70.342  1.00  0.00    -0.404 A  
HETATM   34  F   UNL     1     -11.787   6.305  69.055  1.00  0.00    -0.357 F  
ENDBRANCH  25  26
ENDBRANCH  24  25
ENDBRANCH   9  21
TORSDOF 3
ENDMDL
MODEL       84
REMARK 921   NORMALIZED FREE ENERGY PREDICTED BY IDOCK:   -6.51 KCAL/MOL
REMARK 922        TOTAL FREE ENERGY PREDICTED BY IDOCK:   -8.40 KCAL/MOL
REMARK 923 INTER-LIGAND FREE ENERGY PREDICTED BY IDOCK:   -7.93 KCAL/MOL
REMARK 924 INTRA-LIGAND FREE ENERGY PREDICTED BY IDOCK:   -0.47 KCAL/MOL
REMARK 927      BINDING AFFINITY PREDICTED BY RF-SCORE:    0.00 PKD
ROOT
HETATM    1  O   UNL     1     -11.732  13.678  64.944  1.00  0.00    -0.335 OA 
HETATM    2  H   UNL     1     -12.355  13.010  64.685  1.00  0.00     0.000 HD 
HETATM    3  C   UNL     1     -10.783  13.600  65.948  1.00  0.00    -0.281 C  
HETATM    4  C   UNL     1      -9.895  14.552  66.317  1.00  0.00    -0.304 C  
HETATM    5  N   UNL     1      -9.000  14.344  67.385  1.00  0.00    -0.189 NA 
HETATM    6  C   UNL     1      -8.439  15.449  68.163  1.00  0.00    -0.147 C  
HETATM    7  C   UNL     1      -8.905  13.064  67.941  1.00  0.00    -0.193 C  
HETATM    8  C   UNL     1      -8.350  16.771  67.408  1.00  0.00    -0.197 C  
HETATM    9  C   UNL     1      -9.759  12.048  67.722  1.00  0.00    -0.192 C  
HETATM   10  C   UNL     1     -10.937  12.487  66.925  1.00  0.00    -0.257 C  
HETATM   11  O   UNL     1      -8.356  17.936  68.589  1.00  0.00    -0.299 OA 
HETATM   12  C   UNL     1     -10.255  19.830  67.456  1.00  0.00    -0.572 C  
HETATM   13  C   UNL     1      -8.834  19.371  68.267  1.00  0.00    -0.337 C  
HETATM   14  N   UNL     1      -9.499  16.995  66.214  1.00  0.00    -0.266 N  
HETATM   15  O   UNL     1     -12.081  12.088  67.125  1.00  0.00    -0.587 OA 
HETATM   16  C   UNL     1     -10.075  15.886  65.619  1.00  0.00    -0.358 C  
HETATM   17  C   UNL     1     -10.497  18.365  66.262  1.00  0.00    -0.421 C  
HETATM   18  C   UNL     1      -8.816  19.007  66.932  1.00  0.00    -0.314 C  
HETATM   19  C   UNL     1     -10.385  18.043  67.610  1.00  0.00    -0.397 C  
HETATM   20  O   UNL     1     -10.870  16.008  64.684  1.00  0.00    -0.608 OA 
ENDROOT
BRANCH   9  21
HETATM   21  C   UNL     1      -9.475  10.747  68.422  1.00  0.00    -0.174 C  
HETATM   22  H   UNL     1      -8.536   8.911  68.339  1.00  0.00     0.000 HD 
HETATM   23  O   UNL     1      -9.670  10.642  69.634  1.00  0.00    -0.132 OA 
HETATM   24  N   UNL     1      -8.946   9.657  67.778  1.00  0.00    -0.119 N  
BRANCH  24  25
HETATM   25  C   UNL     1      -8.945   9.521  66.354  1.00  0.00    -0.154 C  
BRANCH  25  26
HETATM   26  C   UNL     1      -8.872   8.170  65.737  1.00  0.00    -0.173 A  
HETATM   27  C   UNL     1      -7.596   6.597  64.394  1.00  0.00    -0.103 A  
HETATM   28  C   UNL     1      -8.349   5.561  64.928  1.00  0.00    -0.142 A  
HETATM   29  C   UNL     1      -7.868   7.895  64.803  1.00  0.00    -0.125 A  
HETATM   30  F   UNL     1      -7.086   8.884  64.346  1.00  0.00    -0.085 F  
HETATM   31  F   UNL     1      -8.075   4.302  64.565  1.00  0.00    -0.088 F  
HETATM   32  C   UNL     1      -9.358   5.800  65.853  1.00  0.00    -0.096 A  
HETATM   33  C   UNL     1      -9.610   7.106  66.254  1.00  0.00    -0.034 A  
HETATM   34  F   UNL     1     -10.517   7.327  67.214  1.00  0.00    -0.252 F  
ENDBRANCH  25  26
ENDBRANCH  24  25
ENDBRANCH   9  21
TORSDOF 3
ENDMDL
MODEL       85
REMARK 921   NORMALIZED FREE ENERGY PREDICTED BY IDOCK:   -6.51 KCAL/MOL
REMARK 922        TOTAL FREE ENERGY PREDICTED BY IDOCK:   -8.39 KCAL/MOL
REMARK 923 INTER-LIGAND FREE ENERGY PREDICTED BY IDOCK:   -8.14 KCAL/MOL
REMARK 924 INTRA-LIGAND FREE ENERGY PREDICTED BY IDOCK:   -0.25 KCAL/MOL
REMARK 927      BINDING AFFINITY PREDICTED BY RF-SCORE:    0.00 PKD
ROOT
HETATM    1  O   UNL     1      -7.922   8.090  71.511  1.00  0.00    -0.091 OA 
HETATM    2  H   UNL     1      -7.856   8.443  72.391  1.00  0.00     0.000 HD 
HETATM    3  C   UNL     1      -8.838   8.435  70.533  1.00  0.00    -0.148 C  
HETATM    4  C   UNL     1      -8.932   7.933  69.280  1.00  0.00    -0.145 C  
HETATM    5  N   UNL     1      -9.941   8.359  68.394  1.00  0.00    -0.181 NA 
HETATM    6  C   UNL     1     -10.431   7.518  67.302  1.00  0.00    -0.321 C  
HETATM    7  C   UNL     1     -10.734   9.453  68.757  1.00  0.00    -0.171 C  
HETATM    8  C   UNL     1      -9.420   6.496  66.790  1.00  0.00    -0.188 C  
HETATM    9  C   UNL     1     -10.795  10.006  69.982  1.00  0.00    -0.352 C  
HETATM   10  C   UNL     1     -10.028   9.210  70.979  1.00  0.00    -0.297 C  
HETATM   11  O   UNL     1     -10.339   5.293  66.113  1.00  0.00    -0.214 OA 
HETATM   12  C   UNL     1      -9.012   2.939  67.196  1.00  0.00    -0.181 C  
HETATM   13  C   UNL     1      -9.776   3.858  65.989  1.00  0.00    -0.162 C  
HETATM   14  N   UNL     1      -8.306   5.962  67.917  1.00  0.00    -0.111 N  
HETATM   15  O   UNL     1     -10.400   9.028  72.135  1.00  0.00    -0.316 OA 
HETATM   16  C   UNL     1      -7.998   6.774  68.994  1.00  0.00    -0.116 C  
HETATM   17  C   UNL     1      -8.161   4.301  68.224  1.00  0.00    -0.090 C  
HETATM   18  C   UNL     1      -8.545   4.381  66.344  1.00  0.00    -0.112 C  
HETATM   19  C   UNL     1      -9.532   4.440  68.039  1.00  0.00    -0.208 C  
HETATM   20  O   UNL     1      -7.127   6.448  69.805  1.00  0.00    -0.068 OA 
ENDROOT
BRANCH   9  21
HETATM   21  C   UNL     1     -11.717  11.182  70.161  1.00  0.00    -0.353 C  
HETATM   22  H   UNL     1     -12.551  12.866  69.310  1.00  0.00     0.000 HD 
HETATM   23  O   UNL     1     -12.524  11.199  71.092  1.00  0.00    -0.382 OA 
HETATM   24  N   UNL     1     -11.745  12.241  69.291  1.00  0.00    -0.315 N  
BRANCH  24  25
HETATM   25  C   UNL     1     -10.694  12.510  68.358  1.00  0.00    -0.240 C  
BRANCH  25  26
HETATM   26  C   UNL     1     -11.020  12.827  66.943  1.00  0.00    -0.291 A  
HETATM   27  C   UNL     1     -11.296  12.008  64.671  1.00  0.00    -0.377 A  
HETATM   28  C   UNL     1     -12.060  13.130  64.380  1.00  0.00    -0.410 A  
HETATM   29  C   UNL     1     -10.781  11.869  65.952  1.00  0.00    -0.284 A  
HETATM   30  F   UNL     1     -10.111  10.746  66.251  1.00  0.00    -0.240 F  
HETATM   31  F   UNL     1     -12.589  13.260  63.158  1.00  0.00    -0.494 F  
HETATM   32  C   UNL     1     -12.312  14.103  65.340  1.00  0.00    -0.475 A  
HETATM   33  C   UNL     1     -11.792  13.941  66.618  1.00  0.00    -0.420 A  
HETATM   34  F   UNL     1     -12.113  14.831  67.566  1.00  0.00    -0.384 F  
ENDBRANCH  25  26
ENDBRANCH  24  25
ENDBRANCH   9  21
TORSDOF 3
ENDMDL
MODEL       86
REMARK 921   NORMALIZED FREE ENERGY PREDICTED BY IDOCK:   -6.48 KCAL/MOL
REMARK 922        TOTAL FREE ENERGY PREDICTED BY IDOCK:   -8.35 KCAL/MOL
REMARK 923 INTER-LIGAND FREE ENERGY PREDICTED BY IDOCK:   -7.78 KCAL/MOL
REMARK 924 INTRA-LIGAND FREE ENERGY PREDICTED BY IDOCK:   -0.57 KCAL/MOL
REMARK 927      BINDING AFFINITY PREDICTED BY RF-SCORE:    0.00 PKD
ROOT
HETATM    1  O   UNL     1     -11.615  17.193  69.738  1.00  0.00     0.243 OA 
HETATM    2  H   UNL     1     -12.280  16.789  70.283  1.00  0.00     0.000 HD 
HETATM    3  C   UNL     1     -11.131  16.738  68.525  1.00  0.00    -0.260 C  
HETATM    4  C   UNL     1     -10.182  17.313  67.749  1.00  0.00    -0.332 C  
HETATM    5  N   UNL     1      -9.762  16.718  66.543  1.00  0.00    -0.268 NA 
HETATM    6  C   UNL     1      -8.436  16.958  65.972  1.00  0.00    -0.151 C  
HETATM    7  C   UNL     1     -10.474  15.617  66.055  1.00  0.00    -0.331 C  
HETATM    8  C   UNL     1      -7.815  18.296  66.359  1.00  0.00    -0.290 C  
HETATM    9  C   UNL     1     -11.388  14.906  66.741  1.00  0.00    -0.328 C  
HETATM   10  C   UNL     1     -11.449  15.328  68.167  1.00  0.00    -0.346 C  
HETATM   11  O   UNL     1      -6.180  18.066  66.201  1.00  0.00    -0.182 OA 
HETATM   12  C   UNL     1      -5.231  19.299  68.663  1.00  0.00    -0.194 C  
HETATM   13  C   UNL     1      -5.189  18.942  67.002  1.00  0.00    -0.142 C  
HETATM   14  N   UNL     1      -8.286  18.903  67.844  1.00  0.00    -0.271 N  
HETATM   15  O   UNL     1     -11.605  14.547  69.101  1.00  0.00    -0.264 OA 
HETATM   16  C   UNL     1      -9.506  18.519  68.371  1.00  0.00    -0.341 C  
HETATM   17  C   UNL     1      -7.107  19.281  69.003  1.00  0.00    -0.391 C  
HETATM   18  C   UNL     1      -6.267  19.741  67.338  1.00  0.00    -0.205 C  
HETATM   19  C   UNL     1      -6.581  18.134  68.420  1.00  0.00    -0.211 C  
HETATM   20  O   UNL     1      -9.922  19.003  69.427  1.00  0.00    -0.256 OA 
ENDROOT
BRANCH   9  21
HETATM   21  C   UNL     1     -12.040  13.754  66.027  1.00  0.00    -0.436 C  
HETATM   22  H   UNL     1     -12.078  11.715  65.715  1.00  0.00     0.000 HD 
HETATM   23  O   UNL     1     -13.144  13.900  65.498  1.00  0.00    -0.699 OA 
HETATM   24  N   UNL     1     -11.484  12.502  65.975  1.00  0.00    -0.356 N  
BRANCH  24  25
HETATM   25  C   UNL     1     -10.107  12.250  66.269  1.00  0.00    -0.234 C  
BRANCH  25  26
HETATM   26  C   UNL     1      -9.720  11.029  67.023  1.00  0.00    -0.208 A  
HETATM   27  C   UNL     1     -10.057   9.643  68.991  1.00  0.00    -0.193 A  
HETATM   28  C   UNL     1      -9.480   8.577  68.316  1.00  0.00    -0.134 A  
HETATM   29  C   UNL     1     -10.169  10.861  68.338  1.00  0.00    -0.178 A  
HETATM   30  F   UNL     1     -10.800  11.866  68.965  1.00  0.00    -0.226 F  
HETATM   31  F   UNL     1      -9.395   7.389  68.925  1.00  0.00    -0.145 F  
HETATM   32  C   UNL     1      -9.018   8.710  67.012  1.00  0.00    -0.152 A  
HETATM   33  C   UNL     1      -9.145   9.938  66.373  1.00  0.00    -0.150 A  
HETATM   34  F   UNL     1      -8.786  10.040  65.087  1.00  0.00    -0.151 F  
ENDBRANCH  25  26
ENDBRANCH  24  25
ENDBRANCH   9  21
TORSDOF 3
ENDMDL
MODEL       87
REMARK 921   NORMALIZED FREE ENERGY PREDICTED BY IDOCK:   -6.43 KCAL/MOL
REMARK 922        TOTAL FREE ENERGY PREDICTED BY IDOCK:   -8.30 KCAL/MOL
REMARK 923 INTER-LIGAND FREE ENERGY PREDICTED BY IDOCK:   -7.41 KCAL/MOL
REMARK 924 INTRA-LIGAND FREE ENERGY PREDICTED BY IDOCK:   -0.88 KCAL/MOL
REMARK 927      BINDING AFFINITY PREDICTED BY RF-SCORE:    0.00 PKD
ROOT
HETATM    1  O   UNL     1     -10.811  10.350  70.666  1.00  0.00    -0.412 OA 
HETATM    2  H   UNL     1     -10.593  10.093  71.554  1.00  0.00     0.000 HD 
HETATM    3  C   UNL     1     -10.146  10.005  69.503  1.00  0.00    -0.227 C  
HETATM    4  C   UNL     1     -10.457  10.372  68.238  1.00  0.00    -0.191 C  
HETATM    5  N   UNL     1      -9.668   9.969  67.143  1.00  0.00    -0.168 NA 
HETATM    6  C   UNL     1      -9.607  10.734  65.897  1.00  0.00    -0.208 C  
HETATM    7  C   UNL     1      -8.661   9.022  67.355  1.00  0.00    -0.119 C  
HETATM    8  C   UNL     1     -10.851  11.568  65.607  1.00  0.00    -0.310 C  
HETATM    9  C   UNL     1      -8.201   8.620  68.555  1.00  0.00    -0.122 C  
HETATM   10  C   UNL     1      -8.783   9.428  69.661  1.00  0.00    -0.167 C  
HETATM   11  O   UNL     1     -10.323  12.785  64.613  1.00  0.00    -0.324 OA 
HETATM   12  C   UNL     1     -11.638  15.077  65.838  1.00  0.00    -0.165 C  
HETATM   13  C   UNL     1     -11.097  14.123  64.540  1.00  0.00    -0.330 C  
HETATM   14  N   UNL     1     -11.693  12.092  66.953  1.00  0.00    -0.314 N  
HETATM   15  O   UNL     1      -8.150   9.781  70.652  1.00  0.00    -0.264 OA 
HETATM   16  C   UNL     1     -11.589  11.376  68.133  1.00  0.00    -0.294 C  
HETATM   17  C   UNL     1     -11.986  13.749  67.161  1.00  0.00    -0.442 C  
HETATM   18  C   UNL     1     -12.104  13.504  65.260  1.00  0.00    -0.439 C  
HETATM   19  C   UNL     1     -10.707  13.749  66.617  1.00  0.00    -0.277 C  
HETATM   20  O   UNL     1     -12.252  11.688  69.125  1.00  0.00    -0.275 OA 
ENDROOT
BRANCH   9  21
HETATM   21  C   UNL     1      -7.108   7.586  68.561  1.00  0.00    -0.081 C  
HETATM   22  H   UNL     1      -6.558   5.653  68.096  1.00  0.00     0.000 HD 
HETATM   23  O   UNL     1      -5.935   7.927  68.724  1.00  0.00    -0.033 OA 
HETATM   24  N   UNL     1      -7.346   6.254  68.338  1.00  0.00    -0.084 N  
BRANCH  24  25
HETATM   25  C   UNL     1      -8.648   5.670  68.430  1.00  0.00    -0.111 C  
BRANCH  25  26
HETATM   26  C   UNL     1      -9.455   5.845  69.666  1.00  0.00    -0.172 A  
HETATM   27  C   UNL     1     -11.611   6.396  70.643  1.00  0.00    -0.412 A  
HETATM   28  C   UNL     1     -11.227   5.748  71.808  1.00  0.00    -0.211 A  
HETATM   29  C   UNL     1     -10.719   6.440  69.582  1.00  0.00    -0.282 A  
HETATM   30  F   UNL     1     -11.124   6.998  68.431  1.00  0.00    -0.214 F  
HETATM   31  F   UNL     1     -12.090   5.671  72.827  1.00  0.00    -0.320 F  
HETATM   32  C   UNL     1      -9.977   5.151  71.927  1.00  0.00    -0.239 A  
HETATM   33  C   UNL     1      -9.101   5.201  70.850  1.00  0.00    -0.140 A  
HETATM   34  F   UNL     1      -7.936   4.545  70.931  1.00  0.00    -0.066 F  
ENDBRANCH  25  26
ENDBRANCH  24  25
ENDBRANCH   9  21
TORSDOF 3
ENDMDL
MODEL       88
REMARK 921   NORMALIZED FREE ENERGY PREDICTED BY IDOCK:   -6.40 KCAL/MOL
REMARK 922        TOTAL FREE ENERGY PREDICTED BY IDOCK:   -8.27 KCAL/MOL
REMARK 923 INTER-LIGAND FREE ENERGY PREDICTED BY IDOCK:   -7.92 KCAL/MOL
REMARK 924 INTRA-LIGAND FREE ENERGY PREDICTED BY IDOCK:   -0.35 KCAL/MOL
REMARK 927      BINDING AFFINITY PREDICTED BY RF-SCORE:    0.00 PKD
ROOT
HETATM    1  O   UNL     1     -13.454  14.842  70.697  1.00  0.00    -0.621 OA 
HETATM    2  H   UNL     1     -14.130  14.916  71.361  1.00  0.00     0.000 HD 
HETATM    3  C   UNL     1     -12.768  13.702  70.319  1.00  0.00    -0.098 C  
HETATM    4  C   UNL     1     -11.806  13.597  69.373  1.00  0.00    -0.339 C  
HETATM    5  N   UNL     1     -11.166  12.369  69.112  1.00  0.00    -0.248 NA 
HETATM    6  C   UNL     1      -9.818  12.292  68.549  1.00  0.00    -0.153 C  
HETATM    7  C   UNL     1     -11.671  11.210  69.709  1.00  0.00    -0.345 C  
HETATM    8  C   UNL     1      -9.417  13.496  67.703  1.00  0.00    -0.222 C  
HETATM    9  C   UNL     1     -12.572  11.170  70.709  1.00  0.00    -0.445 C  
HETATM   10  C   UNL     1     -12.865  12.532  71.234  1.00  0.00    -0.241 C  
HETATM   11  O   UNL     1      -7.760  13.521  67.758  1.00  0.00    -0.131 OA 
HETATM   12  C   UNL     1      -7.289  16.354  68.239  1.00  0.00    -0.158 C  
HETATM   13  C   UNL     1      -6.992  14.843  67.522  1.00  0.00    -0.176 C  
HETATM   14  N   UNL     1     -10.144  14.942  68.123  1.00  0.00    -0.220 N  
HETATM   15  O   UNL     1     -13.042  12.779  72.423  1.00  0.00    -0.375 OA 
HETATM   16  C   UNL     1     -11.365  14.918  68.772  1.00  0.00    -0.287 C  
HETATM   17  C   UNL     1      -9.176  16.284  68.497  1.00  0.00    -0.211 C  
HETATM   18  C   UNL     1      -8.194  15.391  67.109  1.00  0.00    -0.250 C  
HETATM   19  C   UNL     1      -8.445  15.239  69.050  1.00  0.00    -0.221 C  
HETATM   20  O   UNL     1     -11.967  15.963  69.032  1.00  0.00    -0.378 OA 
ENDROOT
BRANCH   9  21
HETATM   21  C   UNL     1     -12.984   9.813  71.210  1.00  0.00    -0.380 C  
HETATM   22  H   UNL     1     -12.500   8.186  72.383  1.00  0.00     0.000 HD 
HETATM   23  O   UNL     1     -14.156   9.444  71.105  1.00  0.00    -0.177 OA 
HETATM   24  N   UNL     1     -12.115   8.960  71.842  1.00  0.00    -0.348 N  
BRANCH  24  25
HETATM   25  C   UNL     1     -10.694   9.107  71.775  1.00  0.00    -0.335 C  
BRANCH  25  26
HETATM   26  C   UNL     1      -9.828   7.906  71.651  1.00  0.00    -0.212 A  
HETATM   27  C   UNL     1      -8.586   6.150  72.783  1.00  0.00    -0.123 A  
HETATM   28  C   UNL     1      -8.620   5.400  71.617  1.00  0.00    -0.131 A  
HETATM   29  C   UNL     1      -9.189   7.399  72.788  1.00  0.00    -0.149 A  
HETATM   30  F   UNL     1      -9.222   8.087  73.940  1.00  0.00    -0.320 F  
HETATM   31  F   UNL     1      -8.070   4.180  71.609  1.00  0.00    -0.077 F  
HETATM   32  C   UNL     1      -9.242   5.875  70.468  1.00  0.00    -0.167 A  
HETATM   33  C   UNL     1      -9.846   7.126  70.496  1.00  0.00    -0.179 A  
HETATM   34  F   UNL     1     -10.525   7.543  69.419  1.00  0.00    -0.202 F  
ENDBRANCH  25  26
ENDBRANCH  24  25
ENDBRANCH   9  21
TORSDOF 3
ENDMDL
MODEL       89
REMARK 921   NORMALIZED FREE ENERGY PREDICTED BY IDOCK:   -6.35 KCAL/MOL
REMARK 922        TOTAL FREE ENERGY PREDICTED BY IDOCK:   -8.21 KCAL/MOL
REMARK 923 INTER-LIGAND FREE ENERGY PREDICTED BY IDOCK:   -7.17 KCAL/MOL
REMARK 924 INTRA-LIGAND FREE ENERGY PREDICTED BY IDOCK:   -1.04 KCAL/MOL
REMARK 927      BINDING AFFINITY PREDICTED BY RF-SCORE:    0.00 PKD
ROOT
HETATM    1  O   UNL     1      -6.473  11.398  67.816  1.00  0.00    -0.060 OA 
HETATM    2  H   UNL     1      -5.803  12.042  67.616  1.00  0.00     0.000 HD 
HETATM    3  C   UNL     1      -7.799  11.634  68.130  1.00  0.00    -0.133 C  
HETATM    4  C   UNL     1      -8.753  10.716  68.414  1.00  0.00    -0.141 C  
HETATM    5  N   UNL     1     -10.066  11.104  68.749  1.00  0.00    -0.200 NA 
HETATM    6  C   UNL     1     -10.945  10.268  69.567  1.00  0.00    -0.258 C  
HETATM    7  C   UNL     1     -10.428  12.446  68.597  1.00  0.00    -0.204 C  
HETATM    8  C   UNL     1     -10.640   8.775  69.497  1.00  0.00    -0.224 C  
HETATM    9  C   UNL     1      -9.579  13.469  68.387  1.00  0.00    -0.196 C  
HETATM   10  C   UNL     1      -8.160  13.032  68.492  1.00  0.00    -0.082 C  
HETATM   11  O   UNL     1     -11.234   8.154  70.915  1.00  0.00    -0.258 OA 
HETATM   12  C   UNL     1      -9.025   6.430  71.707  1.00  0.00    -0.139 C  
HETATM   13  C   UNL     1     -10.660   6.838  71.492  1.00  0.00    -0.219 C  
HETATM   14  N   UNL     1      -9.045   8.381  69.187  1.00  0.00    -0.147 N  
HETATM   15  O   UNL     1      -7.275  13.712  69.004  1.00  0.00    -0.107 OA 
HETATM   16  C   UNL     1      -8.246   9.291  68.518  1.00  0.00    -0.114 C  
HETATM   17  C   UNL     1      -8.210   7.372  70.264  1.00  0.00    -0.132 C  
HETATM   18  C   UNL     1      -9.999   6.675  70.287  1.00  0.00    -0.191 C  
HETATM   19  C   UNL     1      -8.988   8.133  71.129  1.00  0.00    -0.174 C  
HETATM   20  O   UNL     1      -7.087   9.008  68.205  1.00  0.00    -0.075 OA 
ENDROOT
BRANCH   9  21
HETATM   21  C   UNL     1     -10.178  14.843  68.251  1.00  0.00    -0.225 C  
HETATM   22  H   UNL     1     -11.047  16.230  66.995  1.00  0.00     0.000 HD 
HETATM   23  O   UNL     1     -10.526  15.468  69.255  1.00  0.00    -0.216 OA 
HETATM   24  N   UNL     1     -10.412  15.433  67.035  1.00  0.00    -0.288 N  
BRANCH  24  25
HETATM   25  C   UNL     1      -9.807  14.981  65.821  1.00  0.00    -0.353 C  
BRANCH  25  26
HETATM   26  C   UNL     1     -10.581  14.138  64.874  1.00  0.00    -0.449 A  
HETATM   27  C   UNL     1     -11.222  11.899  64.178  1.00  0.00    -0.446 A  
HETATM   28  C   UNL     1     -12.320  12.438  63.522  1.00  0.00    -0.546 A  
HETATM   29  C   UNL     1     -10.360  12.756  64.846  1.00  0.00    -0.309 A  
HETATM   30  F   UNL     1      -9.346  12.224  65.544  1.00  0.00    -0.198 F  
HETATM   31  F   UNL     1     -13.176  11.619  62.901  1.00  0.00    -0.483 F  
HETATM   32  C   UNL     1     -12.565  13.806  63.525  1.00  0.00     0.112 A  
HETATM   33  C   UNL     1     -11.693  14.647  64.205  1.00  0.00    -0.275 A  
HETATM   34  F   UNL     1     -11.981  15.952  64.287  1.00  0.00    -0.437 F  
ENDBRANCH  25  26
ENDBRANCH  24  25
ENDBRANCH   9  21
TORSDOF 3
ENDMDL
MODEL       90
REMARK 921   NORMALIZED FREE ENERGY PREDICTED BY IDOCK:   -6.27 KCAL/MOL
REMARK 922        TOTAL FREE ENERGY PREDICTED BY IDOCK:   -8.12 KCAL/MOL
REMARK 923 INTER-LIGAND FREE ENERGY PREDICTED BY IDOCK:   -7.33 KCAL/MOL
REMARK 924 INTRA-LIGAND FREE ENERGY PREDICTED BY IDOCK:   -0.79 KCAL/MOL
REMARK 927      BINDING AFFINITY PREDICTED BY RF-SCORE:    0.00 PKD
ROOT
HETATM    1  O   UNL     1      -6.170  13.097  70.013  1.00  0.00    -0.239 OA 
HETATM    2  H   UNL     1      -5.766  13.860  70.410  1.00  0.00     0.000 HD 
HETATM    3  C   UNL     1      -7.160  13.076  69.047  1.00  0.00    -0.026 C  
HETATM    4  C   UNL     1      -7.736  11.989  68.483  1.00  0.00    -0.127 C  
HETATM    5  N   UNL     1      -8.761  12.118  67.525  1.00  0.00    -0.165 NA 
HETATM    6  C   UNL     1      -9.760  11.072  67.301  1.00  0.00    -0.166 C  
HETATM    7  C   UNL     1      -9.049  13.389  67.017  1.00  0.00    -0.243 C  
HETATM    8  C   UNL     1      -9.290   9.665  67.656  1.00  0.00    -0.144 C  
HETATM    9  C   UNL     1      -8.607  14.555  67.524  1.00  0.00    -0.198 C  
HETATM   10  C   UNL     1      -7.887  14.353  68.811  1.00  0.00    -0.138 C  
HETATM   11  O   UNL     1     -10.682   8.821  67.973  1.00  0.00    -0.190 OA 
HETATM   12  C   UNL     1      -9.911   7.423  70.409  1.00  0.00    -0.183 C  
HETATM   13  C   UNL     1     -10.646   7.571  68.884  1.00  0.00    -0.169 C  
HETATM   14  N   UNL     1      -8.139   9.576  68.864  1.00  0.00    -0.094 N  
HETATM   15  O   UNL     1      -7.975  15.120  69.766  1.00  0.00    -0.192 OA 
HETATM   16  C   UNL     1      -7.318  10.666  69.093  1.00  0.00    -0.111 C  
HETATM   17  C   UNL     1      -8.439   8.622  70.234  1.00  0.00    -0.133 C  
HETATM   18  C   UNL     1      -9.266   7.637  68.808  1.00  0.00    -0.142 C  
HETATM   19  C   UNL     1      -9.696   9.156  69.975  1.00  0.00    -0.217 C  
HETATM   20  O   UNL     1      -6.409  10.612  69.924  1.00  0.00    -0.078 OA 
ENDROOT
BRANCH   9  21
HETATM   21  C   UNL     1      -9.036  15.816  66.823  1.00  0.00    -0.249 C  
HETATM   22  H   UNL     1     -10.444  17.318  66.681  1.00  0.00     0.000 HD 
HETATM   23  O   UNL     1      -8.231  16.444  66.133  1.00  0.00    -0.324 OA 
HETATM   24  N   UNL     1     -10.294  16.347  66.956  1.00  0.00    -0.291 N  
BRANCH  24  25
HETATM   25  C   UNL     1     -11.404  15.602  67.463  1.00  0.00    -0.198 C  
BRANCH  25  26
HETATM   26  C   UNL     1     -11.456  15.230  68.901  1.00  0.00    -0.346 A  
HETATM   27  C   UNL     1     -11.543  15.985  71.209  1.00  0.00    -0.506 A  
HETATM   28  C   UNL     1     -12.036  14.742  71.577  1.00  0.00    -0.353 A  
HETATM   29  C   UNL     1     -11.255  16.217  69.873  1.00  0.00    -0.349 A  
HETATM   30  F   UNL     1     -10.854  17.445  69.510  1.00  0.00    -0.242 F  
HETATM   31  F   UNL     1     -12.348  14.516  72.859  1.00  0.00    -0.377 F  
HETATM   32  C   UNL     1     -12.242  13.737  70.639  1.00  0.00    -0.434 A  
HETATM   33  C   UNL     1     -11.953  13.992  69.304  1.00  0.00    -0.353 A  
HETATM   34  F   UNL     1     -12.240  13.058  68.388  1.00  0.00    -0.353 F  
ENDBRANCH  25  26
ENDBRANCH  24  25
ENDBRANCH   9  21
TORSDOF 3
ENDMDL
MODEL       91
REMARK 921   NORMALIZED FREE ENERGY PREDICTED BY IDOCK:   -6.27 KCAL/MOL
REMARK 922        TOTAL FREE ENERGY PREDICTED BY IDOCK:   -8.11 KCAL/MOL
REMARK 923 INTER-LIGAND FREE ENERGY PREDICTED BY IDOCK:   -7.66 KCAL/MOL
REMARK 924 INTRA-LIGAND FREE ENERGY PREDICTED BY IDOCK:   -0.46 KCAL/MOL
REMARK 927      BINDING AFFINITY PREDICTED BY RF-SCORE:    0.00 PKD
ROOT
HETATM    1  O   UNL     1      -7.271  14.560  69.699  1.00  0.00    -0.274 OA 
HETATM    2  H   UNL     1      -7.098  13.669  69.980  1.00  0.00     0.000 HD 
HETATM    3  C   UNL     1      -8.237  14.989  68.806  1.00  0.00    -0.168 C  
HETATM    4  C   UNL     1      -8.482  16.258  68.405  1.00  0.00    -0.195 C  
HETATM    5  N   UNL     1      -9.486  16.547  67.460  1.00  0.00    -0.223 NA 
HETATM    6  C   UNL     1      -9.440  17.734  66.607  1.00  0.00    -0.292 C  
HETATM    7  C   UNL     1     -10.362  15.525  67.079  1.00  0.00    -0.279 C  
HETATM    8  C   UNL     1      -8.661  18.905  67.196  1.00  0.00    -0.295 C  
HETATM    9  C   UNL     1     -10.202  14.215  67.343  1.00  0.00    -0.244 C  
HETATM   10  C   UNL     1      -8.878  13.941  67.965  1.00  0.00    -0.184 C  
HETATM   11  O   UNL     1      -8.179  19.798  65.884  1.00  0.00    -0.347 OA 
HETATM   12  C   UNL     1      -5.403  20.321  66.589  1.00  0.00    -0.185 C  
HETATM   13  C   UNL     1      -6.938  20.716  65.979  1.00  0.00    -0.136 C  
HETATM   14  N   UNL     1      -7.423  18.491  68.241  1.00  0.00    -0.271 N  
HETATM   15  O   UNL     1      -8.199  12.951  67.710  1.00  0.00    -0.147 OA 
HETATM   16  C   UNL     1      -7.486  17.282  68.912  1.00  0.00    -0.240 C  
HETATM   17  C   UNL     1      -5.849  19.040  67.929  1.00  0.00    -0.202 C  
HETATM   18  C   UNL     1      -6.959  20.494  67.345  1.00  0.00    -0.363 C  
HETATM   19  C   UNL     1      -6.319  18.774  66.648  1.00  0.00    -0.206 C  
HETATM   20  O   UNL     1      -6.631  16.974  69.746  1.00  0.00    -0.199 OA 
ENDROOT
BRANCH   9  21
HETATM   21  C   UNL     1     -11.266  13.277  66.839  1.00  0.00    -0.305 C  
HETATM   22  H   UNL     1     -12.706  11.881  67.324  1.00  0.00     0.000 HD 
HETATM   23  O   UNL     1     -11.705  13.398  65.694  1.00  0.00    -0.323 OA 
HETATM   24  N   UNL     1     -11.826  12.302  67.624  1.00  0.00    -0.324 N  
BRANCH  24  25
HETATM   25  C   UNL     1     -11.233  11.847  68.844  1.00  0.00    -0.254 C  
BRANCH  25  26
HETATM   26  C   UNL     1     -10.863  10.417  69.002  1.00  0.00    -0.273 A  
HETATM   27  C   UNL     1     -11.266   8.311  70.146  1.00  0.00    -0.132 A  
HETATM   28  C   UNL     1     -10.646   7.645  69.098  1.00  0.00    -0.186 A  
HETATM   29  C   UNL     1     -11.366   9.693  70.088  1.00  0.00    -0.227 A  
HETATM   30  F   UNL     1     -12.036  10.325  71.064  1.00  0.00    -0.350 F  
HETATM   31  F   UNL     1     -10.572   6.310  69.126  1.00  0.00    -0.205 F  
HETATM   32  C   UNL     1     -10.130   8.334  68.006  1.00  0.00    -0.243 A  
HETATM   33  C   UNL     1     -10.247   9.718  67.966  1.00  0.00    -0.190 A  
HETATM   34  F   UNL     1      -9.834  10.371  66.872  1.00  0.00    -0.194 F  
ENDBRANCH  25  26
ENDBRANCH  24  25
ENDBRANCH   9  21
TORSDOF 3
ENDMDL
MODEL       92
REMARK 921   NORMALIZED FREE ENERGY PREDICTED BY IDOCK:   -6.26 KCAL/MOL
REMARK 922        TOTAL FREE ENERGY PREDICTED BY IDOCK:   -8.10 KCAL/MOL
REMARK 923 INTER-LIGAND FREE ENERGY PREDICTED BY IDOCK:   -7.02 KCAL/MOL
REMARK 924 INTRA-LIGAND FREE ENERGY PREDICTED BY IDOCK:   -1.08 KCAL/MOL
REMARK 927      BINDING AFFINITY PREDICTED BY RF-SCORE:    0.00 PKD
ROOT
HETATM    1  O   UNL     1     -11.342   9.417  71.773  1.00  0.00    -0.379 OA 
HETATM    2  H   UNL     1     -11.262   8.940  72.591  1.00  0.00     0.000 HD 
HETATM    3  C   UNL     1     -10.465   9.404  70.703  1.00  0.00    -0.290 C  
HETATM    4  C   UNL     1     -10.578  10.084  69.538  1.00  0.00    -0.244 C  
HETATM    5  N   UNL     1      -9.587   9.999  68.540  1.00  0.00    -0.148 NA 
HETATM    6  C   UNL     1      -9.365  11.065  67.564  1.00  0.00    -0.159 C  
HETATM    7  C   UNL     1      -8.571   9.049  68.685  1.00  0.00    -0.129 C  
HETATM    8  C   UNL     1     -10.593  11.922  67.274  1.00  0.00    -0.261 C  
HETATM    9  C   UNL     1      -8.298   8.355  69.806  1.00  0.00    -0.125 C  
HETATM   10  C   UNL     1      -9.114   8.832  70.955  1.00  0.00    -0.218 C  
HETATM   11  O   UNL     1      -9.985  13.368  66.737  1.00  0.00    -0.251 OA 
HETATM   12  C   UNL     1     -11.641  15.231  68.244  1.00  0.00    -0.357 C  
HETATM   13  C   UNL     1     -10.822  14.662  66.868  1.00  0.00    -0.305 C  
HETATM   14  N   UNL     1     -11.687  12.057  68.531  1.00  0.00    -0.316 N  
HETATM   15  O   UNL     1      -8.685   8.924  72.102  1.00  0.00    -0.386 OA 
HETATM   16  C   UNL     1     -11.740  11.058  69.487  1.00  0.00    -0.329 C  
HETATM   17  C   UNL     1     -12.121  13.595  69.098  1.00  0.00    -0.361 C  
HETATM   18  C   UNL     1     -11.894  13.857  67.209  1.00  0.00    -0.442 C  
HETATM   19  C   UNL     1     -10.770  13.764  68.815  1.00  0.00    -0.267 C  
HETATM   20  O   UNL     1     -12.582  11.085  70.387  1.00  0.00    -0.304 OA 
ENDROOT
BRANCH   9  21
HETATM   21  C   UNL     1      -7.156   7.377  69.748  1.00  0.00    -0.068 C  
HETATM   22  H   UNL     1      -6.465   5.571  69.030  1.00  0.00     0.000 HD 
HETATM   23  O   UNL     1      -6.021   7.732  70.075  1.00  0.00    -0.023 OA 
HETATM   24  N   UNL     1      -7.301   6.093  69.290  1.00  0.00    -0.085 N  
BRANCH  24  25
HETATM   25  C   UNL     1      -8.574   5.451  69.162  1.00  0.00    -0.102 C  
BRANCH  25  26
HETATM   26  C   UNL     1      -9.162   5.230  67.816  1.00  0.00    -0.120 A  
HETATM   27  C   UNL     1      -9.351   3.778  65.876  1.00  0.00    -0.167 A  
HETATM   28  C   UNL     1     -10.527   4.426  65.529  1.00  0.00    -0.199 A  
HETATM   29  C   UNL     1      -8.677   4.189  67.017  1.00  0.00    -0.110 A  
HETATM   30  F   UNL     1      -7.584   3.507  67.392  1.00  0.00    -0.070 F  
HETATM   31  F   UNL     1     -11.203   4.018  64.449  1.00  0.00    -0.335 F  
HETATM   32  C   UNL     1     -11.034   5.468  66.297  1.00  0.00    -0.031 A  
HETATM   33  C   UNL     1     -10.347   5.860  67.440  1.00  0.00    -0.220 A  
HETATM   34  F   UNL     1     -10.884   6.799  68.229  1.00  0.00    -0.220 F  
ENDBRANCH  25  26
ENDBRANCH  24  25
ENDBRANCH   9  21
TORSDOF 3
ENDMDL
MODEL       93
REMARK 921   NORMALIZED FREE ENERGY PREDICTED BY IDOCK:   -6.26 KCAL/MOL
REMARK 922        TOTAL FREE ENERGY PREDICTED BY IDOCK:   -8.10 KCAL/MOL
REMARK 923 INTER-LIGAND FREE ENERGY PREDICTED BY IDOCK:   -7.69 KCAL/MOL
REMARK 924 INTRA-LIGAND FREE ENERGY PREDICTED BY IDOCK:   -0.41 KCAL/MOL
REMARK 927      BINDING AFFINITY PREDICTED BY RF-SCORE:    0.00 PKD
ROOT
HETATM    1  O   UNL     1     -12.758  10.389  69.336  1.00  0.00    -0.658 OA 
HETATM    2  H   UNL     1     -13.227  10.760  68.597  1.00  0.00     0.000 HD 
HETATM    3  C   UNL     1     -11.387  10.321  69.512  1.00  0.00    -0.241 C  
HETATM    4  C   UNL     1     -10.719   9.793  70.564  1.00  0.00    -0.317 C  
HETATM    5  N   UNL     1      -9.310   9.763  70.597  1.00  0.00    -0.090 NA 
HETATM    6  C   UNL     1      -8.566   8.772  71.373  1.00  0.00    -0.194 C  
HETATM    7  C   UNL     1      -8.603  10.461  69.613  1.00  0.00    -0.040 C  
HETATM    8  C   UNL     1      -9.317   8.223  72.583  1.00  0.00    -0.350 C  
HETATM    9  C   UNL     1      -9.125  10.972  68.484  1.00  0.00    -0.173 C  
HETATM   10  C   UNL     1     -10.547  10.570  68.309  1.00  0.00    -0.206 C  
HETATM   11  O   UNL     1      -8.634   6.739  72.868  1.00  0.00    -0.117 OA 
HETATM   12  C   UNL     1     -11.023   5.130  73.294  1.00  0.00    -0.375 C  
HETATM   13  C   UNL     1      -9.434   5.643  73.610  1.00  0.00    -0.138 C  
HETATM   14  N   UNL     1     -10.983   8.201  72.443  1.00  0.00    -0.320 N  
HETATM   15  O   UNL     1     -11.044  10.282  67.224  1.00  0.00    -0.264 OA 
HETATM   16  C   UNL     1     -11.598   9.093  71.583  1.00  0.00    -0.379 C  
HETATM   17  C   UNL     1     -11.818   6.741  72.657  1.00  0.00    -0.054 C  
HETATM   18  C   UNL     1     -10.368   6.619  73.910  1.00  0.00    -0.385 C  
HETATM   19  C   UNL     1     -10.671   6.321  71.993  1.00  0.00    -0.268 C  
HETATM   20  O   UNL     1     -12.827   9.158  71.508  1.00  0.00    -0.323 OA 
ENDROOT
BRANCH   9  21
HETATM   21  C   UNL     1      -8.185  11.691  67.554  1.00  0.00    -0.148 C  
HETATM   22  H   UNL     1      -7.791  13.413  66.489  1.00  0.00     0.000 HD 
HETATM   23  O   UNL     1      -7.032  11.282  67.404  1.00  0.00    -0.087 OA 
HETATM   24  N   UNL     1      -8.533  12.837  66.886  1.00  0.00    -0.150 N  
BRANCH  24  25
HETATM   25  C   UNL     1      -9.889  13.260  66.721  1.00  0.00    -0.264 C  
BRANCH  25  26
HETATM   26  C   UNL     1     -10.543  14.084  67.771  1.00  0.00    -0.244 A  
HETATM   27  C   UNL     1     -12.495  14.441  69.174  1.00  0.00    -0.010 A  
HETATM   28  C   UNL     1     -11.714  15.197  70.036  1.00  0.00    -0.307 A  
HETATM   29  C   UNL     1     -11.902  13.893  68.047  1.00  0.00    -0.375 A  
HETATM   30  F   UNL     1     -12.642  13.099  67.259  1.00  0.00    -0.234 F  
HETATM   31  F   UNL     1     -12.267  15.704  71.144  1.00  0.00    -0.317 F  
HETATM   32  C   UNL     1     -10.362  15.410  69.790  1.00  0.00    -0.296 A  
HETATM   33  C   UNL     1      -9.786  14.847  68.658  1.00  0.00    -0.226 A  
HETATM   34  F   UNL     1      -8.466  14.973  68.472  1.00  0.00    -0.138 F  
ENDBRANCH  25  26
ENDBRANCH  24  25
ENDBRANCH   9  21
TORSDOF 3
ENDMDL
MODEL       94
REMARK 921   NORMALIZED FREE ENERGY PREDICTED BY IDOCK:   -6.24 KCAL/MOL
REMARK 922        TOTAL FREE ENERGY PREDICTED BY IDOCK:   -8.08 KCAL/MOL
REMARK 923 INTER-LIGAND FREE ENERGY PREDICTED BY IDOCK:   -7.99 KCAL/MOL
REMARK 924 INTRA-LIGAND FREE ENERGY PREDICTED BY IDOCK:   -0.09 KCAL/MOL
REMARK 927      BINDING AFFINITY PREDICTED BY RF-SCORE:    0.00 PKD
ROOT
HETATM    1  O   UNL     1      -7.197   9.637  66.889  1.00  0.00    -0.089 OA 
HETATM    2  H   UNL     1      -6.933  10.178  66.154  1.00  0.00     0.000 HD 
HETATM    3  C   UNL     1      -8.318   9.790  67.686  1.00  0.00    -0.114 C  
HETATM    4  C   UNL     1      -8.694   9.020  68.733  1.00  0.00    -0.136 C  
HETATM    5  N   UNL     1      -9.853   9.313  69.480  1.00  0.00    -0.174 NA 
HETATM    6  C   UNL     1     -10.011   8.901  70.874  1.00  0.00    -0.242 C  
HETATM    7  C   UNL     1     -10.722  10.301  69.007  1.00  0.00    -0.227 C  
HETATM    8  C   UNL     1      -9.211   7.662  71.262  1.00  0.00    -0.155 C  
HETATM    9  C   UNL     1     -10.450  11.182  68.026  1.00  0.00    -0.217 C  
HETATM   10  C   UNL     1      -9.029  11.094  67.591  1.00  0.00    -0.140 C  
HETATM   11  O   UNL     1      -8.999   7.789  72.901  1.00  0.00    -0.150 OA 
HETATM   12  C   UNL     1      -6.177   7.105  73.125  1.00  0.00    -0.057 C  
HETATM   13  C   UNL     1      -7.811   7.078  73.591  1.00  0.00    -0.096 C  
HETATM   14  N   UNL     1      -7.798   7.421  70.400  1.00  0.00    -0.097 N  
HETATM   15  O   UNL     1      -8.348  12.070  67.292  1.00  0.00    -0.160 OA 
HETATM   16  C   UNL     1      -7.685   7.959  69.130  1.00  0.00    -0.100 C  
HETATM   17  C   UNL     1      -6.329   7.269  71.232  1.00  0.00    -0.036 C  
HETATM   18  C   UNL     1      -7.597   6.416  72.395  1.00  0.00    -0.097 C  
HETATM   19  C   UNL     1      -6.986   8.236  71.984  1.00  0.00    -0.094 C  
HETATM   20  O   UNL     1      -6.690   7.741  68.435  1.00  0.00    -0.058 OA 
ENDROOT
BRANCH   9  21
HETATM   21  C   UNL     1     -11.529  12.168  67.669  1.00  0.00    -0.331 C  
HETATM   22  H   UNL     1     -12.595  13.841  68.236  1.00  0.00     0.000 HD 
HETATM   23  O   UNL     1     -11.926  12.255  66.505  1.00  0.00    -0.596 OA 
HETATM   24  N   UNL     1     -12.073  13.036  68.581  1.00  0.00    -0.241 N  
BRANCH  24  25
HETATM   25  C   UNL     1     -11.942  12.862  69.995  1.00  0.00    -0.309 C  
BRANCH  25  26
HETATM   26  C   UNL     1     -12.308  13.968  70.917  1.00  0.00    -0.443 A  
HETATM   27  C   UNL     1     -13.334  14.628  73.019  1.00  0.00    -0.527 A  
HETATM   28  C   UNL     1     -12.636  15.826  72.962  1.00  0.00    -0.483 A  
HETATM   29  C   UNL     1     -13.165  13.711  71.993  1.00  0.00    -0.434 A  
HETATM   30  F   UNL     1     -13.780  12.523  72.092  1.00  0.00    -0.539 F  
HETATM   31  F   UNL     1     -12.766  16.705  73.962  1.00  0.00    -0.508 F  
HETATM   32  C   UNL     1     -11.780  16.116  71.905  1.00  0.00    -0.575 A  
HETATM   33  C   UNL     1     -11.621  15.180  70.890  1.00  0.00    -0.338 A  
HETATM   34  F   UNL     1     -10.726  15.420  69.923  1.00  0.00    -0.230 F  
ENDBRANCH  25  26
ENDBRANCH  24  25
ENDBRANCH   9  21
TORSDOF 3
ENDMDL
MODEL       95
REMARK 921   NORMALIZED FREE ENERGY PREDICTED BY IDOCK:   -6.22 KCAL/MOL
REMARK 922        TOTAL FREE ENERGY PREDICTED BY IDOCK:   -8.06 KCAL/MOL
REMARK 923 INTER-LIGAND FREE ENERGY PREDICTED BY IDOCK:   -8.16 KCAL/MOL
REMARK 924 INTRA-LIGAND FREE ENERGY PREDICTED BY IDOCK:    0.10 KCAL/MOL
REMARK 927      BINDING AFFINITY PREDICTED BY RF-SCORE:    0.00 PKD
ROOT
HETATM    1  O   UNL     1      -9.237  16.498  67.407  1.00  0.00    -0.213 OA 
HETATM    2  H   UNL     1      -8.855  17.016  66.707  1.00  0.00     0.000 HD 
HETATM    3  C   UNL     1     -10.087  15.414  67.283  1.00  0.00    -0.238 C  
HETATM    4  C   UNL     1     -10.631  14.676  68.279  1.00  0.00    -0.235 C  
HETATM    5  N   UNL     1     -11.511  13.611  68.006  1.00  0.00    -0.291 NA 
HETATM    6  C   UNL     1     -12.517  13.159  68.968  1.00  0.00     0.312 C  
HETATM    7  C   UNL     1     -11.670  13.196  66.680  1.00  0.00    -0.375 C  
HETATM    8  C   UNL     1     -12.163  13.433  70.426  1.00  0.00    -0.415 C  
HETATM    9  C   UNL     1     -11.248  13.866  65.592  1.00  0.00    -0.306 C  
HETATM   10  C   UNL     1     -10.718  15.210  65.950  1.00  0.00    -0.334 C  
HETATM   11  O   UNL     1     -13.622  13.484  71.213  1.00  0.00    -0.171 OA 
HETATM   12  C   UNL     1     -13.249  15.851  72.867  1.00  0.00    -0.619 C  
HETATM   13  C   UNL     1     -13.765  14.266  72.540  1.00  0.00    -0.505 C  
HETATM   14  N   UNL     1     -11.190  14.766  70.690  1.00  0.00    -0.186 N  
HETATM   15  O   UNL     1     -10.898  16.216  65.269  1.00  0.00    -0.383 OA 
HETATM   16  C   UNL     1     -10.359  15.205  69.674  1.00  0.00    -0.227 C  
HETATM   17  C   UNL     1     -11.714  15.987  71.745  1.00  0.00    -0.593 C  
HETATM   18  C   UNL     1     -12.385  14.376  72.548  1.00  0.00    -0.224 C  
HETATM   19  C   UNL     1     -12.900  15.619  71.118  1.00  0.00    -0.540 C  
HETATM   20  O   UNL     1      -9.573  16.137  69.855  1.00  0.00    -0.062 OA 
ENDROOT
BRANCH   9  21
HETATM   21  C   UNL     1     -11.522  13.242  64.250  1.00  0.00    -0.396 C  
HETATM   22  H   UNL     1     -11.846  11.502  63.190  1.00  0.00     0.000 HD 
HETATM   23  O   UNL     1     -11.915  13.939  63.312  1.00  0.00    -0.259 OA 
HETATM   24  N   UNL     1     -11.404  11.895  64.020  1.00  0.00    -0.376 N  
BRANCH  24  25
HETATM   25  C   UNL     1     -10.689  11.017  64.894  1.00  0.00    -0.208 C  
BRANCH  25  26
HETATM   26  C   UNL     1      -9.234  10.791  64.691  1.00  0.00    -0.249 A  
HETATM   27  C   UNL     1      -7.186   9.767  65.509  1.00  0.00    -0.108 A  
HETATM   28  C   UNL     1      -6.650   9.868  64.233  1.00  0.00    -0.126 A  
HETATM   29  C   UNL     1      -8.475  10.233  65.726  1.00  0.00    -0.157 A  
HETATM   30  F   UNL     1      -9.018  10.062  66.941  1.00  0.00    -0.133 F  
HETATM   31  F   UNL     1      -5.420   9.393  64.003  1.00  0.00    -0.058 F  
HETATM   32  C   UNL     1      -7.374  10.421  63.184  1.00  0.00    -0.070 A  
HETATM   33  C   UNL     1      -8.665  10.876  63.422  1.00  0.00    -0.073 A  
HETATM   34  F   UNL     1      -9.396  11.322  62.392  1.00  0.00    -0.338 F  
ENDBRANCH  25  26
ENDBRANCH  24  25
ENDBRANCH   9  21
TORSDOF 3
ENDMDL
MODEL       96
REMARK 921   NORMALIZED FREE ENERGY PREDICTED BY IDOCK:   -6.15 KCAL/MOL
REMARK 922        TOTAL FREE ENERGY PREDICTED BY IDOCK:   -7.98 KCAL/MOL
REMARK 923 INTER-LIGAND FREE ENERGY PREDICTED BY IDOCK:   -7.49 KCAL/MOL
REMARK 924 INTRA-LIGAND FREE ENERGY PREDICTED BY IDOCK:   -0.49 KCAL/MOL
REMARK 927      BINDING AFFINITY PREDICTED BY RF-SCORE:    0.00 PKD
ROOT
HETATM    1  O   UNL     1      -7.850   7.656  71.955  1.00  0.00    -0.088 OA 
HETATM    2  H   UNL     1      -7.721   7.929  72.857  1.00  0.00     0.000 HD 
HETATM    3  C   UNL     1      -8.955   7.890  71.156  1.00  0.00    -0.138 C  
HETATM    4  C   UNL     1      -9.139   7.501  69.873  1.00  0.00    -0.144 C  
HETATM    5  N   UNL     1     -10.336   7.785  69.186  1.00  0.00    -0.213 NA 
HETATM    6  C   UNL     1     -10.812   6.967  68.070  1.00  0.00    -0.200 C  
HETATM    7  C   UNL     1     -11.263   8.646  69.782  1.00  0.00     0.016 C  
HETATM    8  C   UNL     1      -9.711   6.237  67.308  1.00  0.00    -0.150 C  
HETATM    9  C   UNL     1     -11.244   9.054  71.065  1.00  0.00    -0.361 C  
HETATM   10  C   UNL     1     -10.192   8.348  71.846  1.00  0.00    -0.270 C  
HETATM   11  O   UNL     1     -10.468   4.936  66.612  1.00  0.00    -0.262 OA 
HETATM   12  C   UNL     1      -8.554   2.825  67.211  1.00  0.00    -0.119 C  
HETATM   13  C   UNL     1      -9.659   3.672  66.238  1.00  0.00    -0.130 C  
HETATM   14  N   UNL     1      -8.354   5.847  68.205  1.00  0.00    -0.115 N  
HETATM   15  O   UNL     1     -10.339   7.982  73.009  1.00  0.00    -0.329 OA 
HETATM   16  C   UNL     1      -8.050   6.599  69.325  1.00  0.00    -0.116 C  
HETATM   17  C   UNL     1      -7.840   4.233  68.281  1.00  0.00    -0.075 C  
HETATM   18  C   UNL     1      -8.515   4.407  66.492  1.00  0.00    -0.112 C  
HETATM   19  C   UNL     1      -9.224   4.095  68.295  1.00  0.00    -0.195 C  
HETATM   20  O   UNL     1      -7.019   6.390  69.969  1.00  0.00    -0.062 OA 
ENDROOT
BRANCH   9  21
HETATM   21  C   UNL     1     -12.340   9.985  71.507  1.00  0.00    -0.419 C  
HETATM   22  H   UNL     1     -13.380  11.727  71.133  1.00  0.00     0.000 HD 
HETATM   23  O   UNL     1     -13.182   9.605  72.323  1.00  0.00    -0.433 OA 
HETATM   24  N   UNL     1     -12.489  11.250  70.999  1.00  0.00    -0.402 N  
BRANCH  24  25
HETATM   25  C   UNL     1     -11.450  11.931  70.289  1.00  0.00     0.066 C  
BRANCH  25  26
HETATM   26  C   UNL     1     -11.754  12.617  69.006  1.00  0.00    -0.367 A  
HETATM   27  C   UNL     1     -11.892  14.716  67.789  1.00  0.00    -0.359 A  
HETATM   28  C   UNL     1     -11.807  14.009  66.598  1.00  0.00    -0.419 A  
HETATM   29  C   UNL     1     -11.867  14.012  68.983  1.00  0.00    -0.354 A  
HETATM   30  F   UNL     1     -11.869  14.705  70.132  1.00  0.00    -0.277 F  
HETATM   31  F   UNL     1     -11.798  14.680  65.440  1.00  0.00    -0.347 F  
HETATM   32  C   UNL     1     -11.699  12.623  66.584  1.00  0.00    -0.464 A  
HETATM   33  C   UNL     1     -11.670  11.937  67.792  1.00  0.00    -0.292 A  
HETATM   34  F   UNL     1     -11.472  10.613  67.781  1.00  0.00    -0.362 F  
ENDBRANCH  25  26
ENDBRANCH  24  25
ENDBRANCH   9  21
TORSDOF 3
ENDMDL
MODEL       97
REMARK 921   NORMALIZED FREE ENERGY PREDICTED BY IDOCK:   -6.11 KCAL/MOL
REMARK 922        TOTAL FREE ENERGY PREDICTED BY IDOCK:   -7.92 KCAL/MOL
REMARK 923 INTER-LIGAND FREE ENERGY PREDICTED BY IDOCK:   -6.82 KCAL/MOL
REMARK 924 INTRA-LIGAND FREE ENERGY PREDICTED BY IDOCK:   -1.10 KCAL/MOL
REMARK 927      BINDING AFFINITY PREDICTED BY RF-SCORE:    0.00 PKD
ROOT
HETATM    1  O   UNL     1     -12.245  10.722  71.597  1.00  0.00    -0.268 OA 
HETATM    2  H   UNL     1     -12.212  10.004  72.219  1.00  0.00     0.000 HD 
HETATM    3  C   UNL     1     -11.805  10.718  70.285  1.00  0.00    -0.349 C  
HETATM    4  C   UNL     1     -11.852  11.740  69.399  1.00  0.00    -0.334 C  
HETATM    5  N   UNL     1     -11.335  11.604  68.095  1.00  0.00    -0.266 NA 
HETATM    6  C   UNL     1     -10.862  12.749  67.317  1.00  0.00    -0.251 C  
HETATM    7  C   UNL     1     -10.943  10.334  67.660  1.00  0.00    -0.294 C  
HETATM    8  C   UNL     1     -11.513  14.077  67.688  1.00  0.00    -0.362 C  
HETATM    9  C   UNL     1     -10.783   9.250  68.441  1.00  0.00    -0.192 C  
HETATM   10  C   UNL     1     -10.918   9.593  69.883  1.00  0.00    -0.252 C  
HETATM   11  O   UNL     1     -10.417  15.231  67.223  1.00  0.00    -0.265 OA 
HETATM   12  C   UNL     1     -10.449  16.965  69.563  1.00  0.00    -0.228 C  
HETATM   13  C   UNL     1     -10.417  16.623  67.899  1.00  0.00    -0.322 C  
HETATM   14  N   UNL     1     -12.023  14.208  69.275  1.00  0.00    -0.328 N  
HETATM   15  O   UNL     1     -10.225   9.098  70.768  1.00  0.00    -0.218 OA 
HETATM   16  C   UNL     1     -12.327  13.058  69.981  1.00  0.00    -0.152 C  
HETATM   17  C   UNL     1     -11.455  15.489  70.230  1.00  0.00    -0.352 C  
HETATM   18  C   UNL     1     -11.620  16.268  68.482  1.00  0.00    -0.188 C  
HETATM   19  C   UNL     1     -10.330  15.172  69.477  1.00  0.00    -0.251 C  
HETATM   20  O   UNL     1     -12.776  13.117  71.128  1.00  0.00    -0.355 OA 
ENDROOT
BRANCH   9  21
HETATM   21  C   UNL     1     -10.353   7.975  67.769  1.00  0.00    -0.231 C  
HETATM   22  H   UNL     1      -8.951   6.465  67.667  1.00  0.00     0.000 HD 
HETATM   23  O   UNL     1     -11.155   7.336  67.084  1.00  0.00    -0.295 OA 
HETATM   24  N   UNL     1      -9.099   7.441  67.922  1.00  0.00    -0.130 N  
BRANCH  24  25
HETATM   25  C   UNL     1      -7.989   8.192  68.423  1.00  0.00    -0.123 C  
BRANCH  25  26
HETATM   26  C   UNL     1      -7.128   8.960  67.486  1.00  0.00    -0.076 A  
HETATM   27  C   UNL     1      -5.903   8.989  65.387  1.00  0.00    -0.051 A  
HETATM   28  C   UNL     1      -5.932  10.376  65.413  1.00  0.00    -0.131 A  
HETATM   29  C   UNL     1      -6.501   8.293  66.428  1.00  0.00    -0.054 A  
HETATM   30  F   UNL     1      -6.541   6.954  66.359  1.00  0.00    -0.045 F  
HETATM   31  F   UNL     1      -5.387  11.059  64.399  1.00  0.00    -0.152 F  
HETATM   32  C   UNL     1      -6.542  11.070  66.451  1.00  0.00    -0.126 A  
HETATM   33  C   UNL     1      -7.140  10.353  67.481  1.00  0.00    -0.086 A  
HETATM   34  F   UNL     1      -7.808  11.019  68.431  1.00  0.00    -0.101 F  
ENDBRANCH  25  26
ENDBRANCH  24  25
ENDBRANCH   9  21
TORSDOF 3
ENDMDL
MODEL       98
REMARK 921   NORMALIZED FREE ENERGY PREDICTED BY IDOCK:   -6.10 KCAL/MOL
REMARK 922        TOTAL FREE ENERGY PREDICTED BY IDOCK:   -7.91 KCAL/MOL
REMARK 923 INTER-LIGAND FREE ENERGY PREDICTED BY IDOCK:   -7.36 KCAL/MOL
REMARK 924 INTRA-LIGAND FREE ENERGY PREDICTED BY IDOCK:   -0.55 KCAL/MOL
REMARK 927      BINDING AFFINITY PREDICTED BY RF-SCORE:    0.00 PKD
ROOT
HETATM    1  O   UNL     1      -8.990   8.686  63.665  1.00  0.00    -0.393 OA 
HETATM    2  H   UNL     1      -8.847   7.788  63.388  1.00  0.00     0.000 HD 
HETATM    3  C   UNL     1      -8.683   9.246  64.892  1.00  0.00    -0.192 C  
HETATM    4  C   UNL     1      -8.886  10.525  65.287  1.00  0.00    -0.188 C  
HETATM    5  N   UNL     1      -8.549  10.953  66.586  1.00  0.00    -0.143 NA 
HETATM    6  C   UNL     1      -9.212  12.086  67.234  1.00  0.00    -0.182 C  
HETATM    7  C   UNL     1      -7.822  10.088  67.410  1.00  0.00    -0.099 C  
HETATM    8  C   UNL     1      -9.779  13.122  66.268  1.00  0.00    -0.269 C  
HETATM    9  C   UNL     1      -7.607   8.780  67.179  1.00  0.00    -0.088 C  
HETATM   10  C   UNL     1      -8.379   8.299  66.000  1.00  0.00    -0.128 C  
HETATM   11  O   UNL     1     -10.991  13.872  67.115  1.00  0.00    -0.284 OA 
HETATM   12  C   UNL     1     -13.091  13.926  65.099  1.00  0.00    -0.136 C  
HETATM   13  C   UNL     1     -12.154  14.563  66.365  1.00  0.00    -0.301 C  
HETATM   14  N   UNL     1     -10.244  12.532  64.774  1.00  0.00    -0.293 N  
HETATM   15  O   UNL     1      -8.918   7.198  65.943  1.00  0.00    -0.146 OA 
HETATM   16  C   UNL     1      -9.654  11.376  64.294  1.00  0.00    -0.188 C  
HETATM   17  C   UNL     1     -11.831  12.788  64.234  1.00  0.00    -0.460 C  
HETATM   18  C   UNL     1     -11.420  14.393  65.205  1.00  0.00    -0.362 C  
HETATM   19  C   UNL     1     -12.022  12.566  65.592  1.00  0.00    -0.492 C  
HETATM   20  O   UNL     1      -9.916  10.952  63.166  1.00  0.00    -0.327 OA 
ENDROOT
BRANCH   9  21
HETATM   21  C   UNL     1      -6.795   8.026  68.196  1.00  0.00    -0.069 C  
HETATM   22  H   UNL     1      -6.788   7.015  69.995  1.00  0.00     0.000 HD 
HETATM   23  O   UNL     1      -5.679   7.594  67.899  1.00  0.00    -0.033 OA 
HETATM   24  N   UNL     1      -7.261   7.739  69.454  1.00  0.00    -0.078 N  
BRANCH  24  25
HETATM   25  C   UNL     1      -8.381   8.409  70.040  1.00  0.00    -0.123 C  
BRANCH  25  26
HETATM   26  C   UNL     1      -9.475   7.621  70.664  1.00  0.00    -0.163 A  
HETATM   27  C   UNL     1     -10.942   7.310  72.577  1.00  0.00    -0.322 A  
HETATM   28  C   UNL     1     -11.807   6.585  71.771  1.00  0.00    -0.335 A  
HETATM   29  C   UNL     1      -9.781   7.820  72.015  1.00  0.00    -0.173 A  
HETATM   30  F   UNL     1      -8.987   8.588  72.777  1.00  0.00    -0.276 F  
HETATM   31  F   UNL     1     -12.946   6.115  72.293  1.00  0.00    -0.309 F  
HETATM   32  C   UNL     1     -11.532   6.364  70.426  1.00  0.00    -0.458 A  
HETATM   33  C   UNL     1     -10.366   6.889  69.882  1.00  0.00    -0.205 A  
HETATM   34  F   UNL     1     -10.147   6.756  68.567  1.00  0.00    -0.146 F  
ENDBRANCH  25  26
ENDBRANCH  24  25
ENDBRANCH   9  21
TORSDOF 3
ENDMDL
MODEL       99
REMARK 921   NORMALIZED FREE ENERGY PREDICTED BY IDOCK:   -6.09 KCAL/MOL
REMARK 922        TOTAL FREE ENERGY PREDICTED BY IDOCK:   -7.91 KCAL/MOL
REMARK 923 INTER-LIGAND FREE ENERGY PREDICTED BY IDOCK:   -7.52 KCAL/MOL
REMARK 924 INTRA-LIGAND FREE ENERGY PREDICTED BY IDOCK:   -0.39 KCAL/MOL
REMARK 927      BINDING AFFINITY PREDICTED BY RF-SCORE:    0.00 PKD
ROOT
HETATM    1  O   UNL     1     -11.478   9.150  72.064  1.00  0.00    -0.362 OA 
HETATM    2  H   UNL     1     -12.085   9.877  71.979  1.00  0.00     0.000 HD 
HETATM    3  C   UNL     1     -10.302   8.950  71.364  1.00  0.00    -0.307 C  
HETATM    4  C   UNL     1      -9.438   7.915  71.485  1.00  0.00    -0.147 C  
HETATM    5  N   UNL     1      -8.286   7.825  70.679  1.00  0.00    -0.113 NA 
HETATM    6  C   UNL     1      -7.646   6.546  70.368  1.00  0.00    -0.096 C  
HETATM    7  C   UNL     1      -7.939   8.919  69.881  1.00  0.00    -0.108 C  
HETATM    8  C   UNL     1      -7.872   5.457  71.411  1.00  0.00    -0.110 C  
HETATM    9  C   UNL     1      -8.726   9.978  69.614  1.00  0.00    -0.210 C  
HETATM   10  C   UNL     1     -10.102   9.782  70.146  1.00  0.00    -0.265 C  
HETATM   11  O   UNL     1      -7.681   4.032  70.585  1.00  0.00    -0.047 OA 
HETATM   12  C   UNL     1      -9.967   2.530  71.582  1.00  0.00    -0.162 C  
HETATM   13  C   UNL     1      -8.351   2.737  71.099  1.00  0.00    -0.061 C  
HETATM   14  N   UNL     1      -9.302   5.570  72.270  1.00  0.00    -0.145 N  
HETATM   15  O   UNL     1     -11.117  10.144  69.556  1.00  0.00    -0.230 OA 
HETATM   16  C   UNL     1      -9.908   6.806  72.406  1.00  0.00    -0.158 C  
HETATM   17  C   UNL     1     -10.373   4.256  72.283  1.00  0.00    -0.214 C  
HETATM   18  C   UNL     1      -8.642   3.426  72.263  1.00  0.00    -0.096 C  
HETATM   19  C   UNL     1      -9.894   4.223  70.978  1.00  0.00    -0.251 C  
HETATM   20  O   UNL     1     -10.923   6.943  73.094  1.00  0.00    -0.285 OA 
ENDROOT
BRANCH   9  21
HETATM   21  C   UNL     1      -8.157  11.052  68.727  1.00  0.00    -0.145 C  
HETATM   22  H   UNL     1      -8.465  12.300  67.113  1.00  0.00     0.000 HD 
HETATM   23  O   UNL     1      -7.163  11.687  69.085  1.00  0.00    -0.112 OA 
HETATM   24  N   UNL     1      -8.730  11.410  67.534  1.00  0.00    -0.137 N  
BRANCH  24  25
HETATM   25  C   UNL     1      -9.684  10.590  66.852  1.00  0.00    -0.180 C  
BRANCH  25  26
HETATM   26  C   UNL     1     -10.518  11.167  65.766  1.00  0.00    -0.305 A  
HETATM   27  C   UNL     1     -12.174  12.822  65.115  1.00  0.00    -0.530 A  
HETATM   28  C   UNL     1     -11.777  12.672  63.794  1.00  0.00    -0.491 A  
HETATM   29  C   UNL     1     -11.542  12.064  66.089  1.00  0.00    -0.304 A  
HETATM   30  F   UNL     1     -11.874  12.271  67.373  1.00  0.00    -0.387 F  
HETATM   31  F   UNL     1     -12.357  13.420  62.849  1.00  0.00    -0.575 F  
HETATM   32  C   UNL     1     -10.767  11.785  63.437  1.00  0.00    -0.468 A  
HETATM   33  C   UNL     1     -10.142  11.040  64.430  1.00  0.00    -0.334 A  
HETATM   34  F   UNL     1      -9.108  10.257  64.099  1.00  0.00    -0.183 F  
ENDBRANCH  25  26
ENDBRANCH  24  25
ENDBRANCH   9  21
TORSDOF 3
ENDMDL
MODEL      100
REMARK 921   NORMALIZED FREE ENERGY PREDICTED BY IDOCK:   -6.08 KCAL/MOL
REMARK 922        TOTAL FREE ENERGY PREDICTED BY IDOCK:   -7.89 KCAL/MOL
REMARK 923 INTER-LIGAND FREE ENERGY PREDICTED BY IDOCK:   -6.91 KCAL/MOL
REMARK 924 INTRA-LIGAND FREE ENERGY PREDICTED BY IDOCK:   -0.99 KCAL/MOL
REMARK 927      BINDING AFFINITY PREDICTED BY RF-SCORE:    0.00 PKD
ROOT
HETATM    1  O   UNL     1      -8.575   7.476  63.327  1.00  0.00    -0.362 OA 
HETATM    2  H   UNL     1      -8.470   6.576  63.037  1.00  0.00     0.000 HD 
HETATM    3  C   UNL     1      -8.536   7.950  64.625  1.00  0.00     0.046 C  
HETATM    4  C   UNL     1      -8.685   9.231  65.038  1.00  0.00    -0.190 C  
HETATM    5  N   UNL     1      -8.652   9.569  66.405  1.00  0.00    -0.132 NA 
HETATM    6  C   UNL     1      -9.325  10.755  66.935  1.00  0.00    -0.160 C  
HETATM    7  C   UNL     1      -8.270   8.590  67.328  1.00  0.00    -0.108 C  
HETATM    8  C   UNL     1      -9.496  11.887  65.927  1.00  0.00    -0.227 C  
HETATM    9  C   UNL     1      -8.156   7.273  67.074  1.00  0.00    -0.117 C  
HETATM   10  C   UNL     1      -8.644   6.936  65.709  1.00  0.00    -0.131 C  
HETATM   11  O   UNL     1     -10.792  12.759  66.485  1.00  0.00    -0.252 OA 
HETATM   12  C   UNL     1     -12.273  13.149  64.009  1.00  0.00    -0.482 C  
HETATM   13  C   UNL     1     -11.631  13.618  65.510  1.00  0.00    -0.324 C  
HETATM   14  N   UNL     1      -9.621  11.412  64.329  1.00  0.00    -0.216 N  
HETATM   15  O   UNL     1      -9.273   5.916  65.445  1.00  0.00    -0.021 OA 
HETATM   16  C   UNL     1      -9.064  10.206  63.940  1.00  0.00    -0.260 C  
HETATM   17  C   UNL     1     -10.971  11.888  63.420  1.00  0.00    -0.470 C  
HETATM   18  C   UNL     1     -10.644  13.394  64.566  1.00  0.00    -0.441 C  
HETATM   19  C   UNL     1     -11.535  11.647  64.668  1.00  0.00    -0.249 C  
HETATM   20  O   UNL     1      -9.070   9.857  62.758  1.00  0.00    -0.252 OA 
ENDROOT
BRANCH   9  21
HETATM   21  C   UNL     1      -7.729   6.387  68.214  1.00  0.00    -0.104 C  
HETATM   22  H   UNL     1      -8.219   4.810  69.450  1.00  0.00     0.000 HD 
HETATM   23  O   UNL     1      -6.545   6.343  68.553  1.00  0.00    -0.050 OA 
HETATM   24  N   UNL     1      -8.601   5.564  68.880  1.00  0.00    -0.100 N  
BRANCH  24  25
HETATM   25  C   UNL     1     -10.022   5.717  68.811  1.00  0.00    -0.167 C  
BRANCH  25  26
HETATM   26  C   UNL     1     -10.760   6.320  69.951  1.00  0.00    -0.355 A  
HETATM   27  C   UNL     1     -11.282   6.247  72.323  1.00  0.00    -0.325 A  
HETATM   28  C   UNL     1     -11.665   7.579  72.261  1.00  0.00    -0.304 A  
HETATM   29  C   UNL     1     -10.835   5.629  71.165  1.00  0.00    -0.218 A  
HETATM   30  F   UNL     1     -10.391   4.365  71.246  1.00  0.00    -0.254 F  
HETATM   31  F   UNL     1     -12.067   8.195  73.378  1.00  0.00    -0.067 F  
HETATM   32  C   UNL     1     -11.608   8.294  71.071  1.00  0.00    -0.301 A  
HETATM   33  C   UNL     1     -11.152   7.658  69.923  1.00  0.00    -0.150 A  
HETATM   34  F   UNL     1     -11.009   8.372  68.799  1.00  0.00    -0.163 F  
ENDBRANCH  25  26
ENDBRANCH  24  25
ENDBRANCH   9  21
TORSDOF 3
ENDMDL
MODEL      101
REMARK 921   NORMALIZED FREE ENERGY PREDICTED BY IDOCK:   -6.07 KCAL/MOL
REMARK 922        TOTAL FREE ENERGY PREDICTED BY IDOCK:   -7.88 KCAL/MOL
REMARK 923 INTER-LIGAND FREE ENERGY PREDICTED BY IDOCK:   -7.03 KCAL/MOL
REMARK 924 INTRA-LIGAND FREE ENERGY PREDICTED BY IDOCK:   -0.85 KCAL/MOL
REMARK 927      BINDING AFFINITY PREDICTED BY RF-SCORE:    0.00 PKD
ROOT
HETATM    1  O   UNL     1      -8.665   7.402  64.608  1.00  0.00    -0.357 OA 
HETATM    2  H   UNL     1      -8.617   6.557  64.175  1.00  0.00     0.000 HD 
HETATM    3  C   UNL     1      -8.504   7.666  65.956  1.00  0.00    -0.144 C  
HETATM    4  C   UNL     1      -8.572   8.870  66.572  1.00  0.00    -0.124 C  
HETATM    5  N   UNL     1      -8.416   8.988  67.968  1.00  0.00    -0.124 NA 
HETATM    6  C   UNL     1      -8.999  10.092  68.730  1.00  0.00    -0.147 C  
HETATM    7  C   UNL     1      -7.997   7.868  68.693  1.00  0.00    -0.124 C  
HETATM    8  C   UNL     1      -9.209  11.372  67.927  1.00  0.00    -0.164 C  
HETATM    9  C   UNL     1      -7.952   6.605  68.230  1.00  0.00    -0.111 C  
HETATM   10  C   UNL     1      -8.561   6.497  66.876  1.00  0.00    -0.114 C  
HETATM   11  O   UNL     1     -10.423  12.177  68.721  1.00  0.00    -0.224 OA 
HETATM   12  C   UNL     1     -12.084  12.986  66.470  1.00  0.00    -0.410 C  
HETATM   13  C   UNL     1     -11.305  13.198  67.965  1.00  0.00    -0.292 C  
HETATM   14  N   UNL     1      -9.480  11.157  66.291  1.00  0.00    -0.190 N  
HETATM   15  O   UNL     1      -9.247   5.547  66.513  1.00  0.00    -0.132 OA 
HETATM   16  C   UNL     1      -9.001  10.014  65.675  1.00  0.00    -0.172 C  
HETATM   17  C   UNL     1     -10.881  11.801  65.585  1.00  0.00    -0.342 C  
HETATM   18  C   UNL     1     -10.407  13.101  66.917  1.00  0.00    -0.247 C  
HETATM   19  C   UNL     1     -11.351  11.382  66.824  1.00  0.00    -0.252 C  
HETATM   20  O   UNL     1      -9.116   9.854  64.457  1.00  0.00    -0.215 OA 
ENDROOT
BRANCH   9  21
HETATM   21  C   UNL     1      -7.469   5.542  69.179  1.00  0.00    -0.078 C  
HETATM   22  H   UNL     1      -7.798   3.674  69.991  1.00  0.00     0.000 HD 
HETATM   23  O   UNL     1      -6.311   5.569  69.600  1.00  0.00    -0.030 OA 
HETATM   24  N   UNL     1      -8.251   4.485  69.570  1.00  0.00    -0.064 N  
BRANCH  24  25
HETATM   25  C   UNL     1      -9.673   4.470  69.415  1.00  0.00    -0.202 C  
BRANCH  25  26
HETATM   26  C   UNL     1     -10.526   5.299  70.306  1.00  0.00    -0.332 A  
HETATM   27  C   UNL     1     -10.848   6.271  72.510  1.00  0.00    -0.273 A  
HETATM   28  C   UNL     1     -11.725   7.192  71.955  1.00  0.00    -0.289 A  
HETATM   29  C   UNL     1     -10.258   5.330  71.679  1.00  0.00    -0.212 A  
HETATM   30  F   UNL     1      -9.351   4.493  72.206  1.00  0.00    -0.134 F  
HETATM   31  F   UNL     1     -12.275   8.124  72.741  1.00  0.00    -0.394 F  
HETATM   32  C   UNL     1     -12.017   7.185  70.596  1.00  0.00    -0.312 A  
HETATM   33  C   UNL     1     -11.411   6.238  69.780  1.00  0.00    -0.436 A  
HETATM   34  F   UNL     1     -11.620   6.292  68.459  1.00  0.00    -0.386 F  
ENDBRANCH  25  26
ENDBRANCH  24  25
ENDBRANCH   9  21
TORSDOF 3
ENDMDL
MODEL      102
REMARK 921   NORMALIZED FREE ENERGY PREDICTED BY IDOCK:   -6.02 KCAL/MOL
REMARK 922        TOTAL FREE ENERGY PREDICTED BY IDOCK:   -7.82 KCAL/MOL
REMARK 923 INTER-LIGAND FREE ENERGY PREDICTED BY IDOCK:   -6.93 KCAL/MOL
REMARK 924 INTRA-LIGAND FREE ENERGY PREDICTED BY IDOCK:   -0.88 KCAL/MOL
REMARK 927      BINDING AFFINITY PREDICTED BY RF-SCORE:    0.00 PKD
ROOT
HETATM    1  O   UNL     1     -12.317  12.318  65.883  1.00  0.00    -0.618 OA 
HETATM    2  H   UNL     1     -13.127  11.821  65.893  1.00  0.00     0.000 HD 
HETATM    3  C   UNL     1     -11.206  12.132  66.686  1.00  0.00    -0.324 C  
HETATM    4  C   UNL     1     -10.053  12.840  66.672  1.00  0.00    -0.243 C  
HETATM    5  N   UNL     1      -9.009  12.558  67.575  1.00  0.00    -0.176 NA 
HETATM    6  C   UNL     1      -8.030  13.566  67.981  1.00  0.00    -0.151 C  
HETATM    7  C   UNL     1      -9.098  11.407  68.364  1.00  0.00    -0.179 C  
HETATM    8  C   UNL     1      -7.804  14.675  66.957  1.00  0.00    -0.056 C  
HETATM    9  C   UNL     1     -10.200  10.651  68.529  1.00  0.00    -0.191 C  
HETATM   10  C   UNL     1     -11.391  11.275  67.890  1.00  0.00    -0.299 C  
HETATM   11  O   UNL     1      -7.250  15.963  67.842  1.00  0.00    -0.121 OA 
HETATM   12  C   UNL     1      -8.846  18.116  66.703  1.00  0.00    -0.287 C  
HETATM   13  C   UNL     1      -7.428  17.406  67.315  1.00  0.00    -0.188 C  
HETATM   14  N   UNL     1      -9.113  15.024  65.977  1.00  0.00    -0.215 N  
HETATM   15  O   UNL     1     -12.516  11.252  68.379  1.00  0.00    -0.403 OA 
HETATM   16  C   UNL     1     -10.064  14.045  65.751  1.00  0.00    -0.327 C  
HETATM   17  C   UNL     1      -9.710  16.610  65.916  1.00  0.00    -0.269 C  
HETATM   18  C   UNL     1      -7.814  16.848  66.109  1.00  0.00    -0.277 C  
HETATM   19  C   UNL     1      -9.365  16.484  67.257  1.00  0.00    -0.227 C  
HETATM   20  O   UNL     1     -11.003  14.239  64.976  1.00  0.00    -0.344 OA 
ENDROOT
BRANCH   9  21
HETATM   21  C   UNL     1     -10.082   9.449  69.426  1.00  0.00    -0.198 C  
HETATM   22  H   UNL     1      -9.463   7.490  69.614  1.00  0.00     0.000 HD 
HETATM   23  O   UNL     1     -10.205   9.573  70.646  1.00  0.00    -0.265 OA 
HETATM   24  N   UNL     1      -9.785   8.196  68.953  1.00  0.00    -0.154 N  
BRANCH  24  25
HETATM   25  C   UNL     1      -9.907   7.837  67.573  1.00  0.00    -0.171 C  
BRANCH  25  26
HETATM   26  C   UNL     1      -8.850   8.232  66.606  1.00  0.00    -0.166 A  
HETATM   27  C   UNL     1      -6.698   7.719  65.600  1.00  0.00    -0.045 A  
HETATM   28  C   UNL     1      -7.023   8.543  64.532  1.00  0.00    -0.073 A  
HETATM   29  C   UNL     1      -7.616   7.573  66.630  1.00  0.00    -0.097 A  
HETATM   30  F   UNL     1      -7.332   6.715  67.621  1.00  0.00    -0.084 F  
HETATM   31  F   UNL     1      -6.159   8.666  63.517  1.00  0.00    -0.074 F  
HETATM   32  C   UNL     1      -8.238   9.216  64.479  1.00  0.00    -0.152 A  
HETATM   33  C   UNL     1      -9.146   9.051  65.518  1.00  0.00    -0.214 A  
HETATM   34  F   UNL     1     -10.352   9.625  65.422  1.00  0.00    -0.346 F  
ENDBRANCH  25  26
ENDBRANCH  24  25
ENDBRANCH   9  21
TORSDOF 3
ENDMDL
MODEL      103
REMARK 921   NORMALIZED FREE ENERGY PREDICTED BY IDOCK:   -5.99 KCAL/MOL
REMARK 922        TOTAL FREE ENERGY PREDICTED BY IDOCK:   -7.78 KCAL/MOL
REMARK 923 INTER-LIGAND FREE ENERGY PREDICTED BY IDOCK:   -7.41 KCAL/MOL
REMARK 924 INTRA-LIGAND FREE ENERGY PREDICTED BY IDOCK:   -0.37 KCAL/MOL
REMARK 927      BINDING AFFINITY PREDICTED BY RF-SCORE:    0.00 PKD
ROOT
HETATM    1  O   UNL     1      -9.550   5.643  66.566  1.00  0.00    -0.146 OA 
HETATM    2  H   UNL     1      -9.137   5.435  65.736  1.00  0.00     0.000 HD 
HETATM    3  C   UNL     1      -9.907   6.894  67.036  1.00  0.00    -0.174 C  
HETATM    4  C   UNL     1     -10.495   7.191  68.218  1.00  0.00    -0.198 C  
HETATM    5  N   UNL     1     -10.777   8.523  68.583  1.00  0.00    -0.107 NA 
HETATM    6  C   UNL     1     -10.881   8.947  69.979  1.00  0.00    -0.227 C  
HETATM    7  C   UNL     1     -10.615   9.528  67.624  1.00  0.00    -0.269 C  
HETATM    8  C   UNL     1     -11.297   7.843  70.945  1.00  0.00    -0.290 C  
HETATM    9  C   UNL     1      -9.986   9.392  66.442  1.00  0.00    -0.346 C  
HETATM   10  C   UNL     1      -9.323   8.065  66.326  1.00  0.00    -0.184 C  
HETATM   11  O   UNL     1     -10.710   8.325  72.419  1.00  0.00    -0.296 OA 
HETATM   12  C   UNL     1      -9.550   5.829  73.370  1.00  0.00    -0.143 C  
HETATM   13  C   UNL     1     -10.420   7.281  73.523  1.00  0.00    -0.374 C  
HETATM   14  N   UNL     1     -10.853   6.294  70.499  1.00  0.00    -0.266 N  
HETATM   15  O   UNL     1      -8.230   7.895  65.795  1.00  0.00    -0.115 OA 
HETATM   16  C   UNL     1     -10.649   6.012  69.160  1.00  0.00    -0.295 C  
HETATM   17  C   UNL     1      -9.930   5.351  71.565  1.00  0.00    -0.237 C  
HETATM   18  C   UNL     1     -11.078   6.357  72.730  1.00  0.00    -0.281 C  
HETATM   19  C   UNL     1      -9.391   6.617  71.761  1.00  0.00    -0.148 C  
HETATM   20  O   UNL     1     -10.393   4.866  68.784  1.00  0.00    -0.108 OA 
ENDROOT
BRANCH   9  21
HETATM   21  C   UNL     1      -9.924  10.605  65.553  1.00  0.00    -0.272 C  
HETATM   22  H   UNL     1      -9.097  12.467  65.230  1.00  0.00     0.000 HD 
HETATM   23  O   UNL     1     -10.362  10.551  64.402  1.00  0.00    -0.341 OA 
HETATM   24  N   UNL     1      -9.342  11.784  65.945  1.00  0.00    -0.224 N  
BRANCH  24  25
HETATM   25  C   UNL     1      -9.065  12.097  67.313  1.00  0.00    -0.181 C  
BRANCH  25  26
HETATM   26  C   UNL     1      -9.614  13.339  67.916  1.00  0.00    -0.217 A  
HETATM   27  C   UNL     1      -9.302  15.706  68.375  1.00  0.00    -0.195 A  
HETATM   28  C   UNL     1     -10.672  15.833  68.548  1.00  0.00    -0.274 A  
HETATM   29  C   UNL     1      -8.785  14.457  68.063  1.00  0.00    -0.170 A  
HETATM   30  F   UNL     1      -7.470  14.354  67.818  1.00  0.00    -0.109 F  
HETATM   31  F   UNL     1     -11.186  17.039  68.819  1.00  0.00    -0.281 F  
HETATM   32  C   UNL     1     -11.524  14.743  68.416  1.00  0.00    -0.336 A  
HETATM   33  C   UNL     1     -10.987  13.502  68.096  1.00  0.00    -0.254 A  
HETATM   34  F   UNL     1     -11.816  12.474  67.876  1.00  0.00    -0.355 F  
ENDBRANCH  25  26
ENDBRANCH  24  25
ENDBRANCH   9  21
TORSDOF 3
ENDMDL
MODEL      104
REMARK 921   NORMALIZED FREE ENERGY PREDICTED BY IDOCK:   -5.99 KCAL/MOL
REMARK 922        TOTAL FREE ENERGY PREDICTED BY IDOCK:   -7.78 KCAL/MOL
REMARK 923 INTER-LIGAND FREE ENERGY PREDICTED BY IDOCK:   -6.91 KCAL/MOL
REMARK 924 INTRA-LIGAND FREE ENERGY PREDICTED BY IDOCK:   -0.87 KCAL/MOL
REMARK 927      BINDING AFFINITY PREDICTED BY RF-SCORE:    0.00 PKD
ROOT
HETATM    1  O   UNL     1      -9.667  10.159  70.026  1.00  0.00    -0.363 OA 
HETATM    2  H   UNL     1      -9.147   9.836  70.753  1.00  0.00     0.000 HD 
HETATM    3  C   UNL     1      -9.618   9.744  68.707  1.00  0.00    -0.154 C  
HETATM    4  C   UNL     1     -10.359  10.203  67.672  1.00  0.00    -0.219 C  
HETATM    5  N   UNL     1     -10.181   9.706  66.366  1.00  0.00    -0.240 NA 
HETATM    6  C   UNL     1     -10.513  10.491  65.177  1.00  0.00    -0.154 C  
HETATM    7  C   UNL     1      -9.359   8.590  66.180  1.00  0.00    -0.214 C  
HETATM    8  C   UNL     1     -11.598  11.541  65.396  1.00  0.00     0.012 C  
HETATM    9  C   UNL     1      -8.519   8.072  67.095  1.00  0.00    -0.124 C  
HETATM   10  C   UNL     1      -8.436   8.931  68.308  1.00  0.00    -0.130 C  
HETATM   11  O   UNL     1     -11.329  12.681  64.222  1.00  0.00    -0.321 OA 
HETATM   12  C   UNL     1     -11.593  15.123  65.786  1.00  0.00    -0.097 C  
HETATM   13  C   UNL     1     -11.817  14.135  64.421  1.00  0.00    -0.428 C  
HETATM   14  N   UNL     1     -11.697  12.157  66.947  1.00  0.00    -0.337 N  
HETATM   15  O   UNL     1      -7.397   9.132  68.930  1.00  0.00    -0.072 OA 
HETATM   16  C   UNL     1     -11.238  11.393  68.005  1.00  0.00    -0.281 C  
HETATM   17  C   UNL     1     -11.583  13.832  67.188  1.00  0.00    -0.392 C  
HETATM   18  C   UNL     1     -12.523  13.678  65.520  1.00  0.00    -0.544 C  
HETATM   19  C   UNL     1     -10.669  13.626  66.161  1.00  0.00    -0.286 C  
HETATM   20  O   UNL     1     -11.361  11.782  69.169  1.00  0.00    -0.239 OA 
ENDROOT
BRANCH   9  21
HETATM   21  C   UNL     1      -7.721   6.863  66.690  1.00  0.00    -0.105 C  
HETATM   22  H   UNL     1      -7.751   4.973  65.861  1.00  0.00     0.000 HD 
HETATM   23  O   UNL     1      -6.495   6.937  66.585  1.00  0.00    -0.044 OA 
HETATM   24  N   UNL     1      -8.303   5.662  66.372  1.00  0.00    -0.110 N  
BRANCH  24  25
HETATM   25  C   UNL     1      -9.650   5.333  66.724  1.00  0.00    -0.148 C  
BRANCH  25  26
HETATM   26  C   UNL     1      -9.982   4.963  68.125  1.00  0.00    -0.171 A  
HETATM   27  C   UNL     1      -9.440   3.611  70.070  1.00  0.00    -0.260 A  
HETATM   28  C   UNL     1     -10.147   4.504  70.863  1.00  0.00    -0.158 A  
HETATM   29  C   UNL     1      -9.367   3.849  68.706  1.00  0.00    -0.166 A  
HETATM   30  F   UNL     1      -8.617   3.028  67.955  1.00  0.00    -0.087 F  
HETATM   31  F   UNL     1     -10.198   4.303  72.185  1.00  0.00    -0.229 F  
HETATM   32  C   UNL     1     -10.774   5.618  70.318  1.00  0.00    -0.364 A  
HETATM   33  C   UNL     1     -10.683   5.841  68.950  1.00  0.00    -0.263 A  
HETATM   34  F   UNL     1     -11.207   6.963  68.439  1.00  0.00    -0.219 F  
ENDBRANCH  25  26
ENDBRANCH  24  25
ENDBRANCH   9  21
TORSDOF 3
ENDMDL
MODEL      105
REMARK 921   NORMALIZED FREE ENERGY PREDICTED BY IDOCK:   -5.92 KCAL/MOL
REMARK 922        TOTAL FREE ENERGY PREDICTED BY IDOCK:   -7.70 KCAL/MOL
REMARK 923 INTER-LIGAND FREE ENERGY PREDICTED BY IDOCK:   -7.45 KCAL/MOL
REMARK 924 INTRA-LIGAND FREE ENERGY PREDICTED BY IDOCK:   -0.25 KCAL/MOL
REMARK 927      BINDING AFFINITY PREDICTED BY RF-SCORE:    0.00 PKD
ROOT
HETATM    1  O   UNL     1     -12.848   8.324  72.888  1.00  0.00    -0.633 OA 
HETATM    2  H   UNL     1     -13.669   8.693  73.196  1.00  0.00     0.000 HD 
HETATM    3  C   UNL     1     -12.009   8.838  71.916  1.00  0.00    -0.365 C  
HETATM    4  C   UNL     1     -10.841   8.313  71.476  1.00  0.00    -0.249 C  
HETATM    5  N   UNL     1     -10.099   8.933  70.451  1.00  0.00    -0.187 NA 
HETATM    6  C   UNL     1      -9.187   8.187  69.584  1.00  0.00    -0.155 C  
HETATM    7  C   UNL     1     -10.486  10.206  70.020  1.00  0.00    -0.274 C  
HETATM    8  C   UNL     1      -8.611   6.922  70.213  1.00  0.00    -0.140 C  
HETATM    9  C   UNL     1     -11.647  10.817  70.317  1.00  0.00    -0.427 C  
HETATM   10  C   UNL     1     -12.573   9.906  71.045  1.00  0.00    -0.336 C  
HETATM   11  O   UNL     1      -8.211   5.953  68.928  1.00  0.00    -0.101 OA 
HETATM   12  C   UNL     1      -9.273   3.399  69.838  1.00  0.00    -0.222 C  
HETATM   13  C   UNL     1      -8.129   4.419  69.104  1.00  0.00    -0.068 C  
HETATM   14  N   UNL     1      -9.581   6.184  71.357  1.00  0.00    -0.160 N  
HETATM   15  O   UNL     1     -13.786   9.879  70.860  1.00  0.00    -0.238 OA 
HETATM   16  C   UNL     1     -10.512   6.945  72.042  1.00  0.00    -0.205 C  
HETATM   17  C   UNL     1     -10.013   4.556  71.160  1.00  0.00    -0.257 C  
HETATM   18  C   UNL     1      -8.224   4.636  70.467  1.00  0.00    -0.085 C  
HETATM   19  C   UNL     1     -10.048   5.023  69.851  1.00  0.00    -0.344 C  
HETATM   20  O   UNL     1     -11.194   6.454  72.944  1.00  0.00    -0.244 OA 
ENDROOT
BRANCH   9  21
HETATM   21  C   UNL     1     -11.867  12.192  69.748  1.00  0.00    -0.327 C  
HETATM   22  H   UNL     1     -12.421  13.314  68.107  1.00  0.00     0.000 HD 
HETATM   23  O   UNL     1     -11.965  13.164  70.500  1.00  0.00    -0.320 OA 
HETATM   24  N   UNL     1     -12.020  12.424  68.405  1.00  0.00    -0.292 N  
BRANCH  24  25
HETATM   25  C   UNL     1     -11.643  11.475  67.403  1.00  0.00    -0.228 C  
BRANCH  25  26
HETATM   26  C   UNL     1     -10.237  11.417  66.927  1.00  0.00    -0.254 A  
HETATM   27  C   UNL     1      -8.043  12.463  66.885  1.00  0.00    -0.064 A  
HETATM   28  C   UNL     1      -7.487  11.239  66.544  1.00  0.00    -0.105 A  
HETATM   29  C   UNL     1      -9.416  12.541  67.071  1.00  0.00    -0.217 A  
HETATM   30  F   UNL     1      -9.939  13.707  67.478  1.00  0.00    -0.219 F  
HETATM   31  F   UNL     1      -6.161  11.144  66.392  1.00  0.00    -0.101 F  
HETATM   32  C   UNL     1      -8.274  10.104  66.388  1.00  0.00    -0.122 A  
HETATM   33  C   UNL     1      -9.646  10.202  66.585  1.00  0.00    -0.183 A  
HETATM   34  F   UNL     1     -10.391   9.090  66.527  1.00  0.00    -0.328 F  
ENDBRANCH  25  26
ENDBRANCH  24  25
ENDBRANCH   9  21
TORSDOF 3
ENDMDL
MODEL      106
REMARK 921   NORMALIZED FREE ENERGY PREDICTED BY IDOCK:   -5.88 KCAL/MOL
REMARK 922        TOTAL FREE ENERGY PREDICTED BY IDOCK:   -7.65 KCAL/MOL
REMARK 923 INTER-LIGAND FREE ENERGY PREDICTED BY IDOCK:   -7.18 KCAL/MOL
REMARK 924 INTRA-LIGAND FREE ENERGY PREDICTED BY IDOCK:   -0.47 KCAL/MOL
REMARK 927      BINDING AFFINITY PREDICTED BY RF-SCORE:    0.00 PKD
ROOT
HETATM    1  O   UNL     1      -8.738   7.193  65.618  1.00  0.00    -0.248 OA 
HETATM    2  H   UNL     1      -8.368   7.191  64.742  1.00  0.00     0.000 HD 
HETATM    3  C   UNL     1      -9.465   8.204  66.220  1.00  0.00    -0.190 C  
HETATM    4  C   UNL     1      -9.991   8.208  67.467  1.00  0.00    -0.192 C  
HETATM    5  N   UNL     1     -10.688   9.327  67.965  1.00  0.00    -0.211 NA 
HETATM    6  C   UNL     1     -10.788   9.615  69.396  1.00  0.00    -0.217 C  
HETATM    7  C   UNL     1     -10.998  10.369  67.085  1.00  0.00    -0.196 C  
HETATM    8  C   UNL     1     -10.679   8.388  70.295  1.00  0.00    -0.240 C  
HETATM    9  C   UNL     1     -10.491  10.530  65.849  1.00  0.00    -0.224 C  
HETATM   10  C   UNL     1      -9.415   9.541  65.567  1.00  0.00    -0.268 C  
HETATM   11  O   UNL     1     -10.149   8.976  71.752  1.00  0.00    -0.326 OA 
HETATM   12  C   UNL     1      -8.082   7.027  72.391  1.00  0.00    -0.105 C  
HETATM   13  C   UNL     1      -9.391   8.054  72.736  1.00  0.00    -0.263 C  
HETATM   14  N   UNL     1      -9.762   7.130  69.685  1.00  0.00    -0.158 N  
HETATM   15  O   UNL     1      -8.396   9.806  64.937  1.00  0.00    -0.131 OA 
HETATM   16  C   UNL     1      -9.614   7.009  68.315  1.00  0.00    -0.134 C  
HETATM   17  C   UNL     1      -8.457   6.534  70.588  1.00  0.00    -0.134 C  
HETATM   18  C   UNL     1      -9.757   6.995  71.924  1.00  0.00    -0.166 C  
HETATM   19  C   UNL     1      -8.386   7.898  70.847  1.00  0.00    -0.115 C  
HETATM   20  O   UNL     1      -9.008   6.053  67.824  1.00  0.00    -0.114 OA 
ENDROOT
BRANCH   9  21
HETATM   21  C   UNL     1     -10.959  11.725  65.063  1.00  0.00    -0.300 C  
HETATM   22  H   UNL     1     -10.614  13.692  64.543  1.00  0.00     0.000 HD 
HETATM   23  O   UNL     1     -11.791  11.587  64.164  1.00  0.00    -0.221 OA 
HETATM   24  N   UNL     1     -10.460  12.987  65.264  1.00  0.00    -0.297 N  
BRANCH  24  25
HETATM   25  C   UNL     1      -9.732  13.358  66.438  1.00  0.00    -0.277 C  
BRANCH  25  26
HETATM   26  C   UNL     1     -10.301  14.359  67.378  1.00  0.00    -0.252 A  
HETATM   27  C   UNL     1     -11.450  14.774  69.479  1.00  0.00    -0.331 A  
HETATM   28  C   UNL     1     -10.977  16.078  69.458  1.00  0.00    -0.326 A  
HETATM   29  C   UNL     1     -11.109  13.926  68.436  1.00  0.00    -0.255 A  
HETATM   30  F   UNL     1     -11.502  12.645  68.500  1.00  0.00    -0.260 F  
HETATM   31  F   UNL     1     -11.273  16.895  70.475  1.00  0.00    -0.304 F  
HETATM   32  C   UNL     1     -10.176  16.542  68.421  1.00  0.00    -0.266 A  
HETATM   33  C   UNL     1      -9.841  15.675  67.388  1.00  0.00    -0.225 A  
HETATM   34  F   UNL     1      -8.995  16.093  66.439  1.00  0.00    -0.235 F  
ENDBRANCH  25  26
ENDBRANCH  24  25
ENDBRANCH   9  21
TORSDOF 3
ENDMDL
MODEL      107
REMARK 921   NORMALIZED FREE ENERGY PREDICTED BY IDOCK:   -5.87 KCAL/MOL
REMARK 922        TOTAL FREE ENERGY PREDICTED BY IDOCK:   -7.65 KCAL/MOL
REMARK 923 INTER-LIGAND FREE ENERGY PREDICTED BY IDOCK:   -7.45 KCAL/MOL
REMARK 924 INTRA-LIGAND FREE ENERGY PREDICTED BY IDOCK:   -0.20 KCAL/MOL
REMARK 927      BINDING AFFINITY PREDICTED BY RF-SCORE:    0.00 PKD
ROOT
HETATM    1  O   UNL     1     -13.688   9.818  72.916  1.00  0.00    -0.584 OA 
HETATM    2  H   UNL     1     -13.774   9.007  73.406  1.00  0.00     0.000 HD 
HETATM    3  C   UNL     1     -12.887  10.052  71.812  1.00  0.00    -0.446 C  
HETATM    4  C   UNL     1     -12.764  11.205  71.115  1.00  0.00    -0.408 C  
HETATM    5  N   UNL     1     -11.882  11.311  70.022  1.00  0.00    -0.337 NA 
HETATM    6  C   UNL     1     -11.306  12.588  69.601  1.00  0.00    -0.112 C  
HETATM    7  C   UNL     1     -11.270  10.149  69.541  1.00  0.00    -0.238 C  
HETATM    8  C   UNL     1     -12.151  13.808  69.952  1.00  0.00    -0.412 C  
HETATM    9  C   UNL     1     -11.248   8.957  70.164  1.00  0.00    -0.175 C  
HETATM   10  C   UNL     1     -11.826   9.046  71.533  1.00  0.00    -0.345 C  
HETATM   11  O   UNL     1     -11.073  15.067  70.015  1.00  0.00    -0.253 OA 
HETATM   12  C   UNL     1     -11.936  16.380  72.467  1.00  0.00    -0.579 C  
HETATM   13  C   UNL     1     -11.391  16.324  70.858  1.00  0.00    -0.285 C  
HETATM   14  N   UNL     1     -13.109  13.650  71.313  1.00  0.00    -0.312 N  
HETATM   15  O   UNL     1     -11.378   8.438  72.501  1.00  0.00    -0.375 OA 
HETATM   16  C   UNL     1     -13.502  12.387  71.716  1.00  0.00    -0.166 C  
HETATM   17  C   UNL     1     -12.958  14.774  72.574  1.00  0.00    -0.481 C  
HETATM   18  C   UNL     1     -12.676  15.828  70.994  1.00  0.00    -0.453 C  
HETATM   19  C   UNL     1     -11.639  14.633  72.156  1.00  0.00     0.038 C  
HETATM   20  O   UNL     1     -14.268  12.234  72.670  1.00  0.00     0.103 OA 
ENDROOT
BRANCH   9  21
HETATM   21  C   UNL     1     -10.531   7.830  69.470  1.00  0.00    -0.225 C  
HETATM   22  H   UNL     1      -8.716   6.972  68.995  1.00  0.00     0.000 HD 
HETATM   23  O   UNL     1     -11.147   6.814  69.143  1.00  0.00    -0.250 OA 
HETATM   24  N   UNL     1      -9.183   7.851  69.221  1.00  0.00    -0.148 N  
BRANCH  24  25
HETATM   25  C   UNL     1      -8.401   9.048  69.264  1.00  0.00    -0.122 C  
BRANCH  25  26
HETATM   26  C   UNL     1      -7.730   9.542  68.034  1.00  0.00    -0.087 A  
HETATM   27  C   UNL     1      -6.073   9.139  66.303  1.00  0.00    -0.060 A  
HETATM   28  C   UNL     1      -6.719  10.064  65.496  1.00  0.00    -0.105 A  
HETATM   29  C   UNL     1      -6.584   8.888  67.567  1.00  0.00    -0.062 A  
HETATM   30  F   UNL     1      -6.004   7.935  68.312  1.00  0.00    -0.035 F  
HETATM   31  F   UNL     1      -6.254  10.292  64.262  1.00  0.00    -0.118 F  
HETATM   32  C   UNL     1      -7.856  10.736  65.930  1.00  0.00    -0.131 A  
HETATM   33  C   UNL     1      -8.355  10.465  67.198  1.00  0.00    -0.126 A  
HETATM   34  F   UNL     1      -9.503  11.041  67.579  1.00  0.00    -0.159 F  
ENDBRANCH  25  26
ENDBRANCH  24  25
ENDBRANCH   9  21
TORSDOF 3
ENDMDL
MODEL      108
REMARK 921   NORMALIZED FREE ENERGY PREDICTED BY IDOCK:   -5.86 KCAL/MOL
REMARK 922        TOTAL FREE ENERGY PREDICTED BY IDOCK:   -7.63 KCAL/MOL
REMARK 923 INTER-LIGAND FREE ENERGY PREDICTED BY IDOCK:   -6.74 KCAL/MOL
REMARK 924 INTRA-LIGAND FREE ENERGY PREDICTED BY IDOCK:   -0.89 KCAL/MOL
REMARK 927      BINDING AFFINITY PREDICTED BY RF-SCORE:    0.00 PKD
ROOT
HETATM    1  O   UNL     1      -7.297  10.656  68.991  1.00  0.00    -0.088 OA 
HETATM    2  H   UNL     1      -6.582  10.054  69.166  1.00  0.00     0.000 HD 
HETATM    3  C   UNL     1      -8.616  10.338  68.722  1.00  0.00    -0.139 C  
HETATM    4  C   UNL     1      -9.635  11.194  68.473  1.00  0.00    -0.193 C  
HETATM    5  N   UNL     1     -10.931  10.725  68.182  1.00  0.00    -0.235 NA 
HETATM    6  C   UNL     1     -11.888  11.506  67.397  1.00  0.00    -0.027 C  
HETATM    7  C   UNL     1     -11.203   9.363  68.342  1.00  0.00     0.189 C  
HETATM    8  C   UNL     1     -11.675  13.015  67.461  1.00  0.00    -0.421 C  
HETATM    9  C   UNL     1     -10.286   8.395  68.520  1.00  0.00    -0.228 C  
HETATM   10  C   UNL     1      -8.901   8.920  68.368  1.00  0.00    -0.134 C  
HETATM   11  O   UNL     1     -12.356  13.598  66.066  1.00  0.00    -0.432 OA 
HETATM   12  C   UNL     1     -10.287  15.458  65.205  1.00  0.00    -0.420 C  
HETATM   13  C   UNL     1     -11.885  14.948  65.474  1.00  0.00    -0.155 C  
HETATM   14  N   UNL     1     -10.098  13.507  67.718  1.00  0.00    -0.231 N  
HETATM   15  O   UNL     1      -7.994   8.297  67.824  1.00  0.00    -0.118 OA 
HETATM   16  C   UNL     1      -9.221  12.648  68.357  1.00  0.00    -0.135 C  
HETATM   17  C   UNL     1      -9.365  14.567  66.616  1.00  0.00    -0.301 C  
HETATM   18  C   UNL     1     -11.194  15.151  66.656  1.00  0.00    -0.274 C  
HETATM   19  C   UNL     1     -10.124  13.760  65.776  1.00  0.00    -0.322 C  
HETATM   20  O   UNL     1      -8.072  13.003  68.630  1.00  0.00    -0.112 OA 
ENDROOT
BRANCH   9  21
HETATM   21  C   UNL     1     -10.792   6.986  68.672  1.00  0.00    -0.147 C  
HETATM   22  H   UNL     1     -12.112   5.720  69.627  1.00  0.00     0.000 HD 
HETATM   23  O   UNL     1     -10.531   6.139  67.815  1.00  0.00    -0.176 OA 
HETATM   24  N   UNL     1     -11.594   6.594  69.714  1.00  0.00    -0.334 N  
BRANCH  24  25
HETATM   25  C   UNL     1     -11.735   7.356  70.916  1.00  0.00    -0.296 C  
BRANCH  25  26
HETATM   26  C   UNL     1     -10.687   7.287  71.967  1.00  0.00    -0.241 A  
HETATM   27  C   UNL     1      -9.265   5.886  73.353  1.00  0.00    -0.131 A  
HETATM   28  C   UNL     1      -8.421   6.969  73.548  1.00  0.00    -0.130 A  
HETATM   29  C   UNL     1     -10.393   6.056  72.565  1.00  0.00    -0.195 A  
HETATM   30  F   UNL     1     -11.164   4.987  72.314  1.00  0.00    -0.259 F  
HETATM   31  F   UNL     1      -7.312   6.809  74.281  1.00  0.00    -0.095 F  
HETATM   32  C   UNL     1      -8.685   8.207  72.974  1.00  0.00    -0.309 A  
HETATM   33  C   UNL     1      -9.818   8.355  72.182  1.00  0.00    -0.302 A  
HETATM   34  F   UNL     1     -10.022   9.519  71.554  1.00  0.00    -0.353 F  
ENDBRANCH  25  26
ENDBRANCH  24  25
ENDBRANCH   9  21
TORSDOF 3
ENDMDL
MODEL      109
REMARK 921   NORMALIZED FREE ENERGY PREDICTED BY IDOCK:   -5.84 KCAL/MOL
REMARK 922        TOTAL FREE ENERGY PREDICTED BY IDOCK:   -7.61 KCAL/MOL
REMARK 923 INTER-LIGAND FREE ENERGY PREDICTED BY IDOCK:   -6.92 KCAL/MOL
REMARK 924 INTRA-LIGAND FREE ENERGY PREDICTED BY IDOCK:   -0.69 KCAL/MOL
REMARK 927      BINDING AFFINITY PREDICTED BY RF-SCORE:    0.00 PKD
ROOT
HETATM    1  O   UNL     1      -7.387  10.553  64.683  1.00  0.00    -0.318 OA 
HETATM    2  H   UNL     1      -6.718  10.999  64.176  1.00  0.00     0.000 HD 
HETATM    3  C   UNL     1      -7.774  10.820  65.984  1.00  0.00    -0.139 C  
HETATM    4  C   UNL     1      -8.726  10.185  66.706  1.00  0.00    -0.125 C  
HETATM    5  N   UNL     1      -8.996  10.546  68.041  1.00  0.00    -0.133 NA 
HETATM    6  C   UNL     1      -9.568   9.607  69.006  1.00  0.00    -0.168 C  
HETATM    7  C   UNL     1      -8.400  11.702  68.556  1.00  0.00    -0.140 C  
HETATM    8  C   UNL     1     -10.412   8.498  68.385  1.00  0.00    -0.215 C  
HETATM    9  C   UNL     1      -7.396  12.389  67.983  1.00  0.00    -0.108 C  
HETATM   10  C   UNL     1      -6.863  11.683  66.786  1.00  0.00    -0.086 C  
HETATM   11  O   UNL     1     -10.367   7.262  69.489  1.00  0.00    -0.211 OA 
HETATM   12  C   UNL     1      -9.876   4.996  67.727  1.00  0.00    -0.199 C  
HETATM   13  C   UNL     1     -10.602   5.802  69.035  1.00  0.00    -0.281 C  
HETATM   14  N   UNL     1      -9.981   8.053  66.832  1.00  0.00    -0.242 N  
HETATM   15  O   UNL     1      -5.672  11.644  66.493  1.00  0.00    -0.170 OA 
HETATM   16  C   UNL     1      -9.324   8.968  66.028  1.00  0.00    -0.242 C  
HETATM   17  C   UNL     1      -9.608   6.432  66.502  1.00  0.00    -0.185 C  
HETATM   18  C   UNL     1     -11.005   6.316  67.814  1.00  0.00    -0.427 C  
HETATM   19  C   UNL     1      -9.063   6.600  67.770  1.00  0.00    -0.113 C  
HETATM   20  O   UNL     1      -9.057   8.703  64.854  1.00  0.00    -0.050 OA 
ENDROOT
BRANCH   9  21
HETATM   21  C   UNL     1      -6.897  13.611  68.707  1.00  0.00    -0.107 C  
HETATM   22  H   UNL     1      -7.158  15.624  69.078  1.00  0.00     0.000 HD 
HETATM   23  O   UNL     1      -6.113  13.493  69.651  1.00  0.00    -0.109 OA 
HETATM   24  N   UNL     1      -7.319  14.879  68.400  1.00  0.00    -0.108 N  
BRANCH  24  25
HETATM   25  C   UNL     1      -7.976  15.205  67.172  1.00  0.00    -0.215 C  
BRANCH  25  26
HETATM   26  C   UNL     1      -8.888  16.376  67.105  1.00  0.00    -0.214 A  
HETATM   27  C   UNL     1     -10.778  17.559  68.072  1.00  0.00    -0.342 A  
HETATM   28  C   UNL     1     -10.360  18.714  67.427  1.00  0.00    -0.406 A  
HETATM   29  C   UNL     1     -10.038  16.398  67.902  1.00  0.00    -0.250 A  
HETATM   30  F   UNL     1     -10.400  15.305  68.589  1.00  0.00    -0.214 F  
HETATM   31  F   UNL     1     -11.048  19.848  67.608  1.00  0.00    -0.475 F  
HETATM   32  C   UNL     1      -9.226  18.726  66.624  1.00  0.00    -0.333 A  
HETATM   33  C   UNL     1      -8.495  17.554  66.472  1.00  0.00    -0.268 A  
HETATM   34  F   UNL     1      -7.352  17.589  65.775  1.00  0.00    -0.328 F  
ENDBRANCH  25  26
ENDBRANCH  24  25
ENDBRANCH   9  21
TORSDOF 3
ENDMDL
MODEL      110
REMARK 921   NORMALIZED FREE ENERGY PREDICTED BY IDOCK:   -5.84 KCAL/MOL
REMARK 922        TOTAL FREE ENERGY PREDICTED BY IDOCK:   -7.60 KCAL/MOL
REMARK 923 INTER-LIGAND FREE ENERGY PREDICTED BY IDOCK:   -7.97 KCAL/MOL
REMARK 924 INTRA-LIGAND FREE ENERGY PREDICTED BY IDOCK:    0.36 KCAL/MOL
REMARK 927      BINDING AFFINITY PREDICTED BY RF-SCORE:    0.00 PKD
ROOT
HETATM    1  O   UNL     1      -6.510  10.535  68.236  1.00  0.00    -0.055 OA 
HETATM    2  H   UNL     1      -5.891  11.113  67.804  1.00  0.00     0.000 HD 
HETATM    3  C   UNL     1      -7.845  10.779  68.500  1.00  0.00    -0.122 C  
HETATM    4  C   UNL     1      -8.726   9.956  69.114  1.00  0.00    -0.159 C  
HETATM    5  N   UNL     1     -10.059  10.350  69.346  1.00  0.00    -0.228 NA 
HETATM    6  C   UNL     1     -10.865   9.791  70.431  1.00  0.00    -0.311 C  
HETATM    7  C   UNL     1     -10.519  11.534  68.759  1.00  0.00    -0.204 C  
HETATM    8  C   UNL     1     -10.454   8.387  70.863  1.00  0.00    -0.235 C  
HETATM    9  C   UNL     1      -9.750  12.475  68.182  1.00  0.00    -0.222 C  
HETATM   10  C   UNL     1      -8.302  12.191  68.377  1.00  0.00    -0.143 C  
HETATM   11  O   UNL     1     -10.983   8.252  72.429  1.00  0.00    -0.323 OA 
HETATM   12  C   UNL     1      -8.645   7.047  73.677  1.00  0.00    -0.164 C  
HETATM   13  C   UNL     1     -10.308   7.253  73.397  1.00  0.00    -0.363 C  
HETATM   14  N   UNL     1      -8.838   8.013  70.646  1.00  0.00    -0.141 N  
HETATM   15  O   UNL     1      -7.462  13.060  68.594  1.00  0.00    -0.115 OA 
HETATM   16  C   UNL     1      -8.116   8.688  69.678  1.00  0.00    -0.112 C  
HETATM   17  C   UNL     1      -7.919   7.489  71.971  1.00  0.00    -0.103 C  
HETATM   18  C   UNL     1      -9.653   6.730  72.296  1.00  0.00    -0.153 C  
HETATM   19  C   UNL     1      -8.739   8.448  72.553  1.00  0.00    -0.277 C  
HETATM   20  O   UNL     1      -6.944   8.389  69.438  1.00  0.00    -0.048 OA 
ENDROOT
BRANCH   9  21
HETATM   21  C   UNL     1     -10.448  13.678  67.609  1.00  0.00    -0.238 C  
HETATM   22  H   UNL     1     -11.720  15.265  67.958  1.00  0.00     0.000 HD 
HETATM   23  O   UNL     1     -10.076  14.156  66.535  1.00  0.00    -0.266 OA 
HETATM   24  N   UNL     1     -11.470  14.323  68.258  1.00  0.00    -0.287 N  
BRANCH  24  25
HETATM   25  C   UNL     1     -12.200  13.733  69.338  1.00  0.00    -0.278 C  
BRANCH  25  26
HETATM   26  C   UNL     1     -12.464  14.518  70.572  1.00  0.00    -0.408 A  
HETATM   27  C   UNL     1     -12.817  14.498  72.976  1.00  0.00    -0.550 A  
HETATM   28  C   UNL     1     -12.474  15.841  73.019  1.00  0.00    -0.472 A  
HETATM   29  C   UNL     1     -12.812  13.849  71.750  1.00  0.00    -0.335 A  
HETATM   30  F   UNL     1     -13.067  12.532  71.725  1.00  0.00    -0.469 F  
HETATM   31  F   UNL     1     -12.445  16.470  74.199  1.00  0.00    -0.544 F  
HETATM   32  C   UNL     1     -12.128  16.538  71.866  1.00  0.00    -0.096 A  
HETATM   33  C   UNL     1     -12.123  15.867  70.649  1.00  0.00    -0.333 A  
HETATM   34  F   UNL     1     -11.700  16.513  69.555  1.00  0.00    -0.215 F  
ENDBRANCH  25  26
ENDBRANCH  24  25
ENDBRANCH   9  21
TORSDOF 3
ENDMDL
MODEL      111
REMARK 921   NORMALIZED FREE ENERGY PREDICTED BY IDOCK:   -5.83 KCAL/MOL
REMARK 922        TOTAL FREE ENERGY PREDICTED BY IDOCK:   -7.59 KCAL/MOL
REMARK 923 INTER-LIGAND FREE ENERGY PREDICTED BY IDOCK:   -6.80 KCAL/MOL
REMARK 924 INTRA-LIGAND FREE ENERGY PREDICTED BY IDOCK:   -0.79 KCAL/MOL
REMARK 927      BINDING AFFINITY PREDICTED BY RF-SCORE:    0.00 PKD
ROOT
HETATM    1  O   UNL     1     -11.176   8.922  71.118  1.00  0.00    -0.249 OA 
HETATM    2  H   UNL     1     -10.708   8.121  71.325  1.00  0.00     0.000 HD 
HETATM    3  C   UNL     1     -10.770   9.937  70.271  1.00  0.00    -0.310 C  
HETATM    4  C   UNL     1     -11.436  11.078  69.976  1.00  0.00    -0.314 C  
HETATM    5  N   UNL     1     -10.885  12.046  69.112  1.00  0.00    -0.172 NA 
HETATM    6  C   UNL     1     -11.254  13.460  69.184  1.00  0.00    -0.248 C  
HETATM    7  C   UNL     1      -9.720  11.728  68.407  1.00  0.00    -0.197 C  
HETATM    8  C   UNL     1     -12.647  13.721  69.748  1.00  0.00    -0.083 C  
HETATM    9  C   UNL     1      -8.923  10.670  68.642  1.00  0.00    -0.170 C  
HETATM   10  C   UNL     1      -9.336   9.938  69.871  1.00  0.00    -0.216 C  
HETATM   11  O   UNL     1     -12.578  15.266  70.348  1.00  0.00    -0.370 OA 
HETATM   12  C   UNL     1     -13.898  14.896  72.917  1.00  0.00    -0.316 C  
HETATM   13  C   UNL     1     -13.547  15.711  71.467  1.00  0.00    -0.377 C  
HETATM   14  N   UNL     1     -13.205  12.582  70.837  1.00  0.00     0.164 N  
HETATM   15  O   UNL     1      -8.543   9.449  70.670  1.00  0.00    -0.211 OA 
HETATM   16  C   UNL     1     -12.703  11.294  70.780  1.00  0.00    -0.269 C  
HETATM   17  C   UNL     1     -13.697  13.077  72.383  1.00  0.00    -0.593 C  
HETATM   18  C   UNL     1     -14.237  14.531  71.250  1.00  0.00    -0.311 C  
HETATM   19  C   UNL     1     -12.606  13.907  72.149  1.00  0.00    -0.247 C  
HETATM   20  O   UNL     1     -13.143  10.408  71.517  1.00  0.00    -0.390 OA 
ENDROOT
BRANCH   9  21
HETATM   21  C   UNL     1      -7.712  10.512  67.763  1.00  0.00    -0.093 C  
HETATM   22  H   UNL     1      -6.970  10.472  65.838  1.00  0.00     0.000 HD 
HETATM   23  O   UNL     1      -6.581  10.609  68.245  1.00  0.00    -0.061 OA 
HETATM   24  N   UNL     1      -7.799  10.311  66.409  1.00  0.00    -0.114 N  
BRANCH  24  25
HETATM   25  C   UNL     1      -9.001   9.885  65.762  1.00  0.00    -0.156 C  
BRANCH  25  26
HETATM   26  C   UNL     1      -9.525   8.514  65.994  1.00  0.00    -0.256 A  
HETATM   27  C   UNL     1      -9.054   6.132  66.101  1.00  0.00    -0.158 A  
HETATM   28  C   UNL     1     -10.202   5.958  66.860  1.00  0.00    -0.214 A  
HETATM   29  C   UNL     1      -8.727   7.410  65.673  1.00  0.00    -0.075 A  
HETATM   30  F   UNL     1      -7.575   7.585  65.008  1.00  0.00    -0.075 F  
HETATM   31  F   UNL     1     -10.511   4.735  67.306  1.00  0.00    -0.213 F  
HETATM   32  C   UNL     1     -11.020   7.032  67.193  1.00  0.00    -0.393 A  
HETATM   33  C   UNL     1     -10.671   8.305  66.759  1.00  0.00    -0.002 A  
HETATM   34  F   UNL     1     -11.407   9.350  67.158  1.00  0.00    -0.115 F  
ENDBRANCH  25  26
ENDBRANCH  24  25
ENDBRANCH   9  21
TORSDOF 3
ENDMDL
MODEL      112
REMARK 921   NORMALIZED FREE ENERGY PREDICTED BY IDOCK:   -5.80 KCAL/MOL
REMARK 922        TOTAL FREE ENERGY PREDICTED BY IDOCK:   -7.57 KCAL/MOL
REMARK 923 INTER-LIGAND FREE ENERGY PREDICTED BY IDOCK:   -7.41 KCAL/MOL
REMARK 924 INTRA-LIGAND FREE ENERGY PREDICTED BY IDOCK:   -0.16 KCAL/MOL
REMARK 927      BINDING AFFINITY PREDICTED BY RF-SCORE:    0.00 PKD
ROOT
HETATM    1  O   UNL     1     -12.509   5.981  72.744  1.00  0.00    -0.485 OA 
HETATM    2  H   UNL     1     -13.347   6.093  73.177  1.00  0.00     0.000 HD 
HETATM    3  C   UNL     1     -11.832   6.906  71.969  1.00  0.00    -0.310 C  
HETATM    4  C   UNL     1     -10.638   6.746  71.352  1.00  0.00    -0.221 C  
HETATM    5  N   UNL     1     -10.078   7.771  70.563  1.00  0.00    -0.192 NA 
HETATM    6  C   UNL     1      -9.137   7.498  69.477  1.00  0.00    -0.143 C  
HETATM    7  C   UNL     1     -10.679   9.034  70.580  1.00  0.00    -0.239 C  
HETATM    8  C   UNL     1      -8.335   6.211  69.645  1.00  0.00    -0.124 C  
HETATM    9  C   UNL     1     -11.891   9.320  71.091  1.00  0.00    -0.396 C  
HETATM   10  C   UNL     1     -12.613   8.087  71.508  1.00  0.00    -0.312 C  
HETATM   11  O   UNL     1      -7.900   5.778  68.105  1.00  0.00    -0.101 OA 
HETATM   12  C   UNL     1      -8.502   2.930  68.164  1.00  0.00    -0.103 C  
HETATM   13  C   UNL     1      -7.580   4.302  67.770  1.00  0.00    -0.069 C  
HETATM   14  N   UNL     1      -9.094   5.001  70.513  1.00  0.00    -0.134 N  
HETATM   15  O   UNL     1     -13.820   7.922  71.357  1.00  0.00    -0.335 OA 
HETATM   16  C   UNL     1     -10.070   5.343  71.433  1.00  0.00    -0.202 C  
HETATM   17  C   UNL     1      -9.297   3.471  69.810  1.00  0.00    -0.244 C  
HETATM   18  C   UNL     1      -7.599   4.058  69.132  1.00  0.00    -0.054 C  
HETATM   19  C   UNL     1      -9.502   4.316  68.725  1.00  0.00    -0.230 C  
HETATM   20  O   UNL     1     -10.599   4.486  72.145  1.00  0.00    -0.164 OA 
ENDROOT
BRANCH   9  21
HETATM   21  C   UNL     1     -12.353  10.749  71.006  1.00  0.00    -0.404 C  
HETATM   22  H   UNL     1     -12.893  12.319  69.780  1.00  0.00     0.000 HD 
HETATM   23  O   UNL     1     -12.815  11.310  72.002  1.00  0.00    -0.368 OA 
HETATM   24  N   UNL     1     -12.336  11.467  69.837  1.00  0.00    -0.249 N  
BRANCH  24  25
HETATM   25  C   UNL     1     -11.571  11.073  68.694  1.00  0.00    -0.316 C  
BRANCH  25  26
HETATM   26  C   UNL     1     -10.663  12.048  68.036  1.00  0.00    -0.244 A  
HETATM   27  C   UNL     1     -10.332  14.315  67.223  1.00  0.00    -0.260 A  
HETATM   28  C   UNL     1      -8.961  14.112  67.274  1.00  0.00    -0.214 A  
HETATM   29  C   UNL     1     -11.172  13.278  67.603  1.00  0.00    -0.280 A  
HETATM   30  F   UNL     1     -12.494  13.504  67.629  1.00  0.00    -0.314 F  
HETATM   31  F   UNL     1      -8.141  15.115  66.940  1.00  0.00    -0.208 F  
HETATM   32  C   UNL     1      -8.422  12.902  67.694  1.00  0.00    -0.183 A  
HETATM   33  C   UNL     1      -9.280  11.878  68.076  1.00  0.00    -0.190 A  
HETATM   34  F   UNL     1      -8.760  10.747  68.569  1.00  0.00    -0.121 F  
ENDBRANCH  25  26
ENDBRANCH  24  25
ENDBRANCH   9  21
TORSDOF 3
ENDMDL
MODEL      113
REMARK 921   NORMALIZED FREE ENERGY PREDICTED BY IDOCK:   -5.80 KCAL/MOL
REMARK 922        TOTAL FREE ENERGY PREDICTED BY IDOCK:   -7.56 KCAL/MOL
REMARK 923 INTER-LIGAND FREE ENERGY PREDICTED BY IDOCK:   -6.71 KCAL/MOL
REMARK 924 INTRA-LIGAND FREE ENERGY PREDICTED BY IDOCK:   -0.85 KCAL/MOL
REMARK 927      BINDING AFFINITY PREDICTED BY RF-SCORE:    0.00 PKD
ROOT
HETATM    1  O   UNL     1     -13.014  11.075  69.444  1.00  0.00    -0.310 OA 
HETATM    2  H   UNL     1     -13.573  11.539  68.831  1.00  0.00     0.000 HD 
HETATM    3  C   UNL     1     -11.654  10.845  69.333  1.00  0.00    -0.316 C  
HETATM    4  C   UNL     1     -10.858  10.185  70.205  1.00  0.00    -0.311 C  
HETATM    5  N   UNL     1      -9.485   9.998  69.947  1.00  0.00    -0.215 NA 
HETATM    6  C   UNL     1      -8.725   8.885  70.517  1.00  0.00    -0.186 C  
HETATM    7  C   UNL     1      -8.909  10.672  68.865  1.00  0.00    -0.157 C  
HETATM    8  C   UNL     1      -9.280   8.351  71.833  1.00  0.00    -0.306 C  
HETATM    9  C   UNL     1      -9.581  11.305  67.886  1.00  0.00    -0.182 C  
HETATM   10  C   UNL     1     -11.047  11.073  67.992  1.00  0.00    -0.286 C  
HETATM   11  O   UNL     1      -8.738   6.786  71.918  1.00  0.00    -0.124 OA 
HETATM   12  C   UNL     1     -11.170   5.427  72.766  1.00  0.00    -0.358 C  
HETATM   13  C   UNL     1      -9.500   5.741  72.767  1.00  0.00    -0.145 C  
HETATM   14  N   UNL     1     -10.931   8.521  72.038  1.00  0.00    -0.316 N  
HETATM   15  O   UNL     1     -11.782  10.907  67.022  1.00  0.00    -0.330 OA 
HETATM   16  C   UNL     1     -11.593   9.526  71.355  1.00  0.00    -0.395 C  
HETATM   17  C   UNL     1     -11.877   7.152  72.365  1.00  0.00    -0.224 C  
HETATM   18  C   UNL     1     -10.231   6.795  73.288  1.00  0.00    -0.271 C  
HETATM   19  C   UNL     1     -10.944   6.649  71.465  1.00  0.00    -0.287 C  
HETATM   20  O   UNL     1     -12.796   9.730  71.537  1.00  0.00    -0.345 OA 
ENDROOT
BRANCH   9  21
HETATM   21  C   UNL     1      -8.765  11.970  66.810  1.00  0.00    -0.192 C  
HETATM   22  H   UNL     1      -8.488  12.262  64.787  1.00  0.00     0.000 HD 
HETATM   23  O   UNL     1      -8.014  12.905  67.093  1.00  0.00    -0.167 OA 
HETATM   24  N   UNL     1      -8.854  11.618  65.488  1.00  0.00     0.021 N  
BRANCH  24  25
HETATM   25  C   UNL     1      -9.436  10.387  65.047  1.00  0.00    -0.253 C  
BRANCH  25  26
HETATM   26  C   UNL     1      -8.591   9.171  64.915  1.00  0.00    -0.208 A  
HETATM   27  C   UNL     1      -6.528   8.190  64.087  1.00  0.00    -0.066 A  
HETATM   28  C   UNL     1      -6.683   7.149  64.991  1.00  0.00    -0.047 A  
HETATM   29  C   UNL     1      -7.487   9.192  64.056  1.00  0.00    -0.110 A  
HETATM   30  F   UNL     1      -7.293  10.236  63.237  1.00  0.00    -0.139 F  
HETATM   31  F   UNL     1      -5.748   6.194  65.052  1.00  0.00    -0.019 F  
HETATM   32  C   UNL     1      -7.770   7.095  65.855  1.00  0.00    -0.101 A  
HETATM   33  C   UNL     1      -8.716   8.112  65.812  1.00  0.00    -0.154 A  
HETATM   34  F   UNL     1      -9.712   8.109  66.708  1.00  0.00    -0.209 F  
ENDBRANCH  25  26
ENDBRANCH  24  25
ENDBRANCH   9  21
TORSDOF 3
ENDMDL
MODEL      114
REMARK 921   NORMALIZED FREE ENERGY PREDICTED BY IDOCK:   -5.79 KCAL/MOL
REMARK 922        TOTAL FREE ENERGY PREDICTED BY IDOCK:   -7.55 KCAL/MOL
REMARK 923 INTER-LIGAND FREE ENERGY PREDICTED BY IDOCK:   -6.88 KCAL/MOL
REMARK 924 INTRA-LIGAND FREE ENERGY PREDICTED BY IDOCK:   -0.67 KCAL/MOL
REMARK 927      BINDING AFFINITY PREDICTED BY RF-SCORE:    0.00 PKD
ROOT
HETATM    1  O   UNL     1      -8.110  10.932  64.283  1.00  0.00    -0.365 OA 
HETATM    2  H   UNL     1      -7.975  11.870  64.213  1.00  0.00     0.000 HD 
HETATM    3  C   UNL     1      -8.786  10.251  65.280  1.00  0.00    -0.180 C  
HETATM    4  C   UNL     1      -8.978   8.915  65.379  1.00  0.00    -0.182 C  
HETATM    5  N   UNL     1      -9.666   8.353  66.473  1.00  0.00    -0.245 NA 
HETATM    6  C   UNL     1      -9.439   6.978  66.917  1.00  0.00    -0.160 C  
HETATM    7  C   UNL     1     -10.320   9.209  67.365  1.00  0.00    -0.264 C  
HETATM    8  C   UNL     1      -8.949   6.033  65.824  1.00  0.00    -0.116 C  
HETATM    9  C   UNL     1     -10.165  10.544  67.428  1.00  0.00    -0.253 C  
HETATM   10  C   UNL     1      -9.076  11.011  66.526  1.00  0.00    -0.173 C  
HETATM   11  O   UNL     1      -8.151   4.826  66.633  1.00  0.00    -0.106 OA 
HETATM   12  C   UNL     1      -5.756   4.585  64.995  1.00  0.00    -0.014 C  
HETATM   13  C   UNL     1      -7.057   3.999  65.918  1.00  0.00    -0.067 C  
HETATM   14  N   UNL     1      -8.061   6.750  64.602  1.00  0.00    -0.116 N  
HETATM   15  O   UNL     1      -8.291  11.909  66.817  1.00  0.00    -0.178 OA 
HETATM   16  C   UNL     1      -8.248   8.094  64.334  1.00  0.00    -0.101 C  
HETATM   17  C   UNL     1      -6.505   6.173  64.254  1.00  0.00    -0.033 C  
HETATM   18  C   UNL     1      -7.475   4.588  64.738  1.00  0.00    -0.072 C  
HETATM   19  C   UNL     1      -6.548   6.065  65.640  1.00  0.00    -0.047 C  
HETATM   20  O   UNL     1      -7.667   8.640  63.393  1.00  0.00    -0.124 OA 
ENDROOT
BRANCH   9  21
HETATM   21  C   UNL     1     -10.966  11.281  68.466  1.00  0.00    -0.220 C  
HETATM   22  H   UNL     1     -12.567  12.526  68.849  1.00  0.00     0.000 HD 
HETATM   23  O   UNL     1     -10.853  10.987  69.658  1.00  0.00    -0.240 OA 
HETATM   24  N   UNL     1     -11.879  12.254  68.147  1.00  0.00    -0.349 N  
BRANCH  24  25
HETATM   25  C   UNL     1     -11.909  12.905  66.874  1.00  0.00    -0.379 C  
BRANCH  25  26
HETATM   26  C   UNL     1     -11.317  14.259  66.718  1.00  0.00    -0.357 A  
HETATM   27  C   UNL     1     -10.682  16.352  67.778  1.00  0.00    -0.328 A  
HETATM   28  C   UNL     1      -9.819  16.603  66.721  1.00  0.00    -0.273 A  
HETATM   29  C   UNL     1     -11.426  15.181  67.765  1.00  0.00    -0.318 A  
HETATM   30  F   UNL     1     -12.198  14.905  68.826  1.00  0.00    -0.306 F  
HETATM   31  F   UNL     1      -9.072  17.713  66.737  1.00  0.00    -0.232 F  
HETATM   32  C   UNL     1      -9.691  15.711  65.662  1.00  0.00    -0.348 A  
HETATM   33  C   UNL     1     -10.441  14.542  65.671  1.00  0.00    -0.336 A  
HETATM   34  F   UNL     1     -10.248  13.640  64.700  1.00  0.00    -0.395 F  
ENDBRANCH  25  26
ENDBRANCH  24  25
ENDBRANCH   9  21
TORSDOF 3
ENDMDL
MODEL      115
REMARK 921   NORMALIZED FREE ENERGY PREDICTED BY IDOCK:   -5.78 KCAL/MOL
REMARK 922        TOTAL FREE ENERGY PREDICTED BY IDOCK:   -7.54 KCAL/MOL
REMARK 923 INTER-LIGAND FREE ENERGY PREDICTED BY IDOCK:   -6.94 KCAL/MOL
REMARK 924 INTRA-LIGAND FREE ENERGY PREDICTED BY IDOCK:   -0.60 KCAL/MOL
REMARK 927      BINDING AFFINITY PREDICTED BY RF-SCORE:    0.00 PKD
ROOT
HETATM    1  O   UNL     1      -6.119  13.559  70.053  1.00  0.00    -0.134 OA 
HETATM    2  H   UNL     1      -5.786  12.744  70.411  1.00  0.00     0.000 HD 
HETATM    3  C   UNL     1      -7.195  13.724  69.199  1.00  0.00    -0.016 C  
HETATM    4  C   UNL     1      -7.670  14.884  68.689  1.00  0.00    -0.127 C  
HETATM    5  N   UNL     1      -8.764  14.901  67.801  1.00  0.00    -0.161 NA 
HETATM    6  C   UNL     1      -8.965  15.974  66.827  1.00  0.00    -0.246 C  
HETATM    7  C   UNL     1      -9.481  13.718  67.599  1.00  0.00    -0.217 C  
HETATM    8  C   UNL     1      -8.355  17.313  67.228  1.00  0.00    -0.216 C  
HETATM    9  C   UNL     1      -9.093  12.489  67.985  1.00  0.00    -0.200 C  
HETATM   10  C   UNL     1      -7.706  12.499  68.526  1.00  0.00    -0.113 C  
HETATM   11  O   UNL     1      -8.107  18.112  65.796  1.00  0.00    -0.520 OA 
HETATM   12  C   UNL     1      -5.416  19.141  66.221  1.00  0.00    -0.172 C  
HETATM   13  C   UNL     1      -7.030  19.218  65.696  1.00  0.00    -0.270 C  
HETATM   14  N   UNL     1      -7.004  17.221  68.209  1.00  0.00    -0.180 N  
HETATM   15  O   UNL     1      -6.890  11.604  68.323  1.00  0.00    -0.061 OA 
HETATM   16  C   UNL     1      -6.826  16.104  69.006  1.00  0.00    -0.176 C  
HETATM   17  C   UNL     1      -5.564  17.970  67.718  1.00  0.00    -0.149 C  
HETATM   18  C   UNL     1      -6.931  19.155  67.074  1.00  0.00    -0.208 C  
HETATM   19  C   UNL     1      -6.061  17.487  66.513  1.00  0.00    -0.248 C  
HETATM   20  O   UNL     1      -5.883  16.032  69.797  1.00  0.00    -0.144 OA 
ENDROOT
BRANCH   9  21
HETATM   21  C   UNL     1     -10.016  11.344  67.668  1.00  0.00    -0.179 C  
HETATM   22  H   UNL     1     -11.494  10.078  68.354  1.00  0.00     0.000 HD 
HETATM   23  O   UNL     1     -10.224  11.023  66.496  1.00  0.00    -0.218 OA 
HETATM   24  N   UNL     1     -10.700  10.652  68.635  1.00  0.00    -0.192 N  
BRANCH  24  25
HETATM   25  C   UNL     1     -10.349  10.701  70.021  1.00  0.00     0.070 C  
BRANCH  25  26
HETATM   26  C   UNL     1     -10.566   9.511  70.885  1.00  0.00    -0.395 A  
HETATM   27  C   UNL     1      -9.616   7.919  72.456  1.00  0.00    -0.278 A  
HETATM   28  C   UNL     1     -10.896   7.619  72.898  1.00  0.00    -0.389 A  
HETATM   29  C   UNL     1      -9.463   8.861  71.450  1.00  0.00    -0.274 A  
HETATM   30  F   UNL     1      -8.220   9.205  71.082  1.00  0.00    -0.175 F  
HETATM   31  F   UNL     1     -11.054   6.735  73.890  1.00  0.00    -0.198 F  
HETATM   32  C   UNL     1     -12.014   8.242  72.355  1.00  0.00    -0.447 A  
HETATM   33  C   UNL     1     -11.839   9.188  71.352  1.00  0.00    -0.345 A  
HETATM   34  F   UNL     1     -12.907   9.854  70.895  1.00  0.00    -0.361 F  
ENDBRANCH  25  26
ENDBRANCH  24  25
ENDBRANCH   9  21
TORSDOF 3
ENDMDL
MODEL      116
REMARK 921   NORMALIZED FREE ENERGY PREDICTED BY IDOCK:   -5.77 KCAL/MOL
REMARK 922        TOTAL FREE ENERGY PREDICTED BY IDOCK:   -7.53 KCAL/MOL
REMARK 923 INTER-LIGAND FREE ENERGY PREDICTED BY IDOCK:   -7.80 KCAL/MOL
REMARK 924 INTRA-LIGAND FREE ENERGY PREDICTED BY IDOCK:    0.28 KCAL/MOL
REMARK 927      BINDING AFFINITY PREDICTED BY RF-SCORE:    0.00 PKD
ROOT
HETATM    1  O   UNL     1      -9.234  12.443  64.913  1.00  0.00    -0.305 OA 
HETATM    2  H   UNL     1      -8.937  13.281  64.575  1.00  0.00     0.000 HD 
HETATM    3  C   UNL     1      -9.981  12.214  66.054  1.00  0.00    -0.236 C  
HETATM    4  C   UNL     1     -10.404  11.021  66.535  1.00  0.00    -0.245 C  
HETATM    5  N   UNL     1     -11.138  10.933  67.734  1.00  0.00    -0.288 NA 
HETATM    6  C   UNL     1     -11.141   9.728  68.564  1.00  0.00    -0.087 C  
HETATM    7  C   UNL     1     -11.594  12.114  68.329  1.00  0.00    -0.325 C  
HETATM    8  C   UNL     1     -10.869   8.435  67.800  1.00  0.00    -0.061 C  
HETATM    9  C   UNL     1     -11.203  13.359  68.002  1.00  0.00    -0.298 C  
HETATM   10  C   UNL     1     -10.084  13.341  67.021  1.00  0.00    -0.242 C  
HETATM   11  O   UNL     1     -10.267   7.390  68.938  1.00  0.00    -0.185 OA 
HETATM   12  C   UNL     1      -8.017   6.256  67.478  1.00  0.00    -0.109 C  
HETATM   13  C   UNL     1      -9.365   6.208  68.511  1.00  0.00    -0.117 C  
HETATM   14  N   UNL     1      -9.915   8.595  66.436  1.00  0.00    -0.278 N  
HETATM   15  O   UNL     1      -9.141  14.127  67.050  1.00  0.00    -0.223 OA 
HETATM   16  C   UNL     1      -9.871   9.815  65.786  1.00  0.00    -0.290 C  
HETATM   17  C   UNL     1      -8.500   7.671  66.295  1.00  0.00    -0.140 C  
HETATM   18  C   UNL     1      -9.717   6.496  67.204  1.00  0.00    -0.176 C  
HETATM   19  C   UNL     1      -8.509   7.978  67.651  1.00  0.00    -0.131 C  
HETATM   20  O   UNL     1      -9.239   9.952  64.736  1.00  0.00    -0.219 OA 
ENDROOT
BRANCH   9  21
HETATM   21  C   UNL     1     -11.820  14.497  68.769  1.00  0.00    -0.315 C  
HETATM   22  H   UNL     1     -12.455  16.460  68.732  1.00  0.00     0.000 HD 
HETATM   23  O   UNL     1     -12.410  14.280  69.830  1.00  0.00    -0.332 OA 
HETATM   24  N   UNL     1     -11.809  15.791  68.315  1.00  0.00    -0.221 N  
BRANCH  24  25
HETATM   25  C   UNL     1     -10.930  16.245  67.281  1.00  0.00    -0.144 C  
BRANCH  25  26
HETATM   26  C   UNL     1     -10.173  17.512  67.453  1.00  0.00    -0.337 A  
HETATM   27  C   UNL     1      -8.217  18.621  68.375  1.00  0.00    -0.361 A  
HETATM   28  C   UNL     1      -8.397  19.654  67.467  1.00  0.00    -0.302 A  
HETATM   29  C   UNL     1      -9.110  17.560  68.361  1.00  0.00    -0.276 A  
HETATM   30  F   UNL     1      -8.885  16.526  69.187  1.00  0.00    -0.240 F  
HETATM   31  F   UNL     1      -7.524  20.667  67.449  1.00  0.00    -0.322 F  
HETATM   32  C   UNL     1      -9.446  19.641  66.554  1.00  0.00    -0.472 A  
HETATM   33  C   UNL     1     -10.325  18.565  66.553  1.00  0.00    -0.414 A  
HETATM   34  F   UNL     1     -11.278  18.508  65.613  1.00  0.00    -0.115 F  
ENDBRANCH  25  26
ENDBRANCH  24  25
ENDBRANCH   9  21
TORSDOF 3
ENDMDL
MODEL      117
REMARK 921   NORMALIZED FREE ENERGY PREDICTED BY IDOCK:   -5.76 KCAL/MOL
REMARK 922        TOTAL FREE ENERGY PREDICTED BY IDOCK:   -7.51 KCAL/MOL
REMARK 923 INTER-LIGAND FREE ENERGY PREDICTED BY IDOCK:   -7.67 KCAL/MOL
REMARK 924 INTRA-LIGAND FREE ENERGY PREDICTED BY IDOCK:    0.16 KCAL/MOL
REMARK 927      BINDING AFFINITY PREDICTED BY RF-SCORE:    0.00 PKD
ROOT
HETATM    1  O   UNL     1     -12.842  15.942  69.698  1.00  0.00    -0.526 OA 
HETATM    2  H   UNL     1     -13.552  15.924  70.330  1.00  0.00     0.000 HD 
HETATM    3  C   UNL     1     -12.049  14.883  69.294  1.00  0.00    -0.251 C  
HETATM    4  C   UNL     1     -11.038  14.909  68.395  1.00  0.00    -0.273 C  
HETATM    5  N   UNL     1     -10.289  13.753  68.100  1.00  0.00    -0.245 NA 
HETATM    6  C   UNL     1      -8.915  13.815  67.604  1.00  0.00    -0.194 C  
HETATM    7  C   UNL     1     -10.726  12.525  68.607  1.00  0.00    -0.234 C  
HETATM    8  C   UNL     1      -8.574  15.094  66.846  1.00  0.00    -0.289 C  
HETATM    9  C   UNL     1     -11.666  12.356  69.555  1.00  0.00    -0.388 C  
HETATM   10  C   UNL     1     -12.093  13.657  70.138  1.00  0.00    -0.361 C  
HETATM   11  O   UNL     1      -6.929  15.246  66.987  1.00  0.00    -0.228 OA 
HETATM   12  C   UNL     1      -6.713  18.074  67.646  1.00  0.00    -0.192 C  
HETATM   13  C   UNL     1      -6.261  16.636  66.863  1.00  0.00    -0.154 C  
HETATM   14  N   UNL     1      -9.435  16.452  67.307  1.00  0.00    -0.225 N  
HETATM   15  O   UNL     1     -12.345  13.819  71.328  1.00  0.00    -0.353 OA 
HETATM   16  C   UNL     1     -10.679  16.294  67.890  1.00  0.00    -0.329 C  
HETATM   17  C   UNL     1      -8.598  17.842  67.802  1.00  0.00    -0.237 C  
HETATM   18  C   UNL     1      -7.482  17.111  66.420  1.00  0.00    -0.341 C  
HETATM   19  C   UNL     1      -7.811  16.827  68.334  1.00  0.00    -0.214 C  
HETATM   20  O   UNL     1     -11.375  17.271  68.175  1.00  0.00    -0.073 OA 
ENDROOT
BRANCH   9  21
HETATM   21  C   UNL     1     -11.989  10.943  69.960  1.00  0.00    -0.350 C  
HETATM   22  H   UNL     1     -11.261   9.060  70.385  1.00  0.00     0.000 HD 
HETATM   23  O   UNL     1     -13.090  10.676  70.446  1.00  0.00    -0.260 OA 
HETATM   24  N   UNL     1     -11.084   9.918  69.863  1.00  0.00    -0.261 N  
BRANCH  24  25
HETATM   25  C   UNL     1      -9.901   9.997  69.062  1.00  0.00    -0.199 C  
BRANCH  25  26
HETATM   26  C   UNL     1      -9.608   8.937  68.063  1.00  0.00    -0.167 A  
HETATM   27  C   UNL     1      -9.285   8.359  65.724  1.00  0.00    -0.175 A  
HETATM   28  C   UNL     1      -8.609   7.214  66.120  1.00  0.00    -0.146 A  
HETATM   29  C   UNL     1      -9.781   9.210  66.701  1.00  0.00    -0.223 A  
HETATM   30  F   UNL     1     -10.363  10.355  66.314  1.00  0.00    -0.276 F  
HETATM   31  F   UNL     1      -8.098   6.402  65.188  1.00  0.00    -0.111 F  
HETATM   32  C   UNL     1      -8.424   6.910  67.464  1.00  0.00    -0.122 A  
HETATM   33  C   UNL     1      -8.924   7.779  68.427  1.00  0.00    -0.132 A  
HETATM   34  F   UNL     1      -8.664   7.535  69.718  1.00  0.00    -0.135 F  
ENDBRANCH  25  26
ENDBRANCH  24  25
ENDBRANCH   9  21
TORSDOF 3
ENDMDL
MODEL      118
REMARK 921   NORMALIZED FREE ENERGY PREDICTED BY IDOCK:   -5.75 KCAL/MOL
REMARK 922        TOTAL FREE ENERGY PREDICTED BY IDOCK:   -7.50 KCAL/MOL
REMARK 923 INTER-LIGAND FREE ENERGY PREDICTED BY IDOCK:   -6.63 KCAL/MOL
REMARK 924 INTRA-LIGAND FREE ENERGY PREDICTED BY IDOCK:   -0.87 KCAL/MOL
REMARK 927      BINDING AFFINITY PREDICTED BY RF-SCORE:    0.00 PKD
ROOT
HETATM    1  O   UNL     1      -9.915   6.941  67.845  1.00  0.00    -0.138 OA 
HETATM    2  H   UNL     1     -10.020   6.006  67.979  1.00  0.00     0.000 HD 
HETATM    3  C   UNL     1     -10.263   7.959  68.714  1.00  0.00    -0.205 C  
HETATM    4  C   UNL     1     -10.114   9.291  68.523  1.00  0.00    -0.190 C  
HETATM    5  N   UNL     1     -10.544  10.223  69.488  1.00  0.00    -0.228 NA 
HETATM    6  C   UNL     1     -10.915  11.595  69.142  1.00  0.00    -0.219 C  
HETATM    7  C   UNL     1     -10.956   9.750  70.738  1.00  0.00    -0.336 C  
HETATM    8  C   UNL     1     -10.237  12.134  67.886  1.00  0.00    -0.203 C  
HETATM    9  C   UNL     1     -11.214   8.466  71.046  1.00  0.00    -0.304 C  
HETATM   10  C   UNL     1     -11.166   7.595  69.841  1.00  0.00    -0.085 C  
HETATM   11  O   UNL     1     -11.251  13.325  67.335  1.00  0.00    -0.270 OA 
HETATM   12  C   UNL     1     -11.310  12.699  64.492  1.00  0.00    -0.378 C  
HETATM   13  C   UNL     1     -11.241  13.729  65.842  1.00  0.00    -0.302 C  
HETATM   14  N   UNL     1      -9.834  10.986  66.739  1.00  0.00    -0.193 N  
HETATM   15  O   UNL     1     -11.938   6.661  69.645  1.00  0.00    -0.189 OA 
HETATM   16  C   UNL     1      -9.627   9.679  67.140  1.00  0.00    -0.166 C  
HETATM   17  C   UNL     1     -10.414  11.152  65.154  1.00  0.00    -0.341 C  
HETATM   18  C   UNL     1     -10.097  12.962  65.710  1.00  0.00    -0.294 C  
HETATM   19  C   UNL     1     -11.496  11.599  65.904  1.00  0.00    -0.189 C  
HETATM   20  O   UNL     1      -9.256   8.820  66.337  1.00  0.00    -0.161 OA 
ENDROOT
BRANCH   9  21
HETATM   21  C   UNL     1     -11.648   8.170  72.457  1.00  0.00    -0.404 C  
HETATM   22  H   UNL     1     -11.143   7.350  74.282  1.00  0.00     0.000 HD 
HETATM   23  O   UNL     1     -12.626   8.746  72.936  1.00  0.00    -0.288 OA 
HETATM   24  N   UNL     1     -10.964   7.311  73.278  1.00  0.00    -0.349 N  
BRANCH  24  25
HETATM   25  C   UNL     1     -10.012   6.361  72.791  1.00  0.00    -0.172 C  
BRANCH  25  26
HETATM   26  C   UNL     1      -8.628   6.794  72.468  1.00  0.00    -0.127 A  
HETATM   27  C   UNL     1      -6.878   6.979  70.793  1.00  0.00    -0.054 A  
HETATM   28  C   UNL     1      -6.274   7.965  71.560  1.00  0.00    -0.035 A  
HETATM   29  C   UNL     1      -8.050   6.401  71.257  1.00  0.00    -0.117 A  
HETATM   30  F   UNL     1      -8.673   5.506  70.474  1.00  0.00    -0.124 F  
HETATM   31  F   UNL     1      -5.160   8.553  71.108  1.00  0.00    -0.028 F  
HETATM   32  C   UNL     1      -6.818   8.376  72.771  1.00  0.00    -0.099 A  
HETATM   33  C   UNL     1      -7.996   7.788  73.215  1.00  0.00    -0.139 A  
HETATM   34  F   UNL     1      -8.570   8.249  74.333  1.00  0.00    -0.302 F  
ENDBRANCH  25  26
ENDBRANCH  24  25
ENDBRANCH   9  21
TORSDOF 3
ENDMDL
MODEL      119
REMARK 921   NORMALIZED FREE ENERGY PREDICTED BY IDOCK:   -5.75 KCAL/MOL
REMARK 922        TOTAL FREE ENERGY PREDICTED BY IDOCK:   -7.50 KCAL/MOL
REMARK 923 INTER-LIGAND FREE ENERGY PREDICTED BY IDOCK:   -6.78 KCAL/MOL
REMARK 924 INTRA-LIGAND FREE ENERGY PREDICTED BY IDOCK:   -0.72 KCAL/MOL
REMARK 927      BINDING AFFINITY PREDICTED BY RF-SCORE:    0.00 PKD
ROOT
HETATM    1  O   UNL     1      -7.176   9.409  65.093  1.00  0.00    -0.095 OA 
HETATM    2  H   UNL     1      -6.659  10.130  64.752  1.00  0.00     0.000 HD 
HETATM    3  C   UNL     1      -8.441   9.471  65.649  1.00  0.00    -0.133 C  
HETATM    4  C   UNL     1      -9.177   8.444  66.134  1.00  0.00    -0.205 C  
HETATM    5  N   UNL     1     -10.448   8.659  66.704  1.00  0.00    -0.242 NA 
HETATM    6  C   UNL     1     -11.025   7.752  67.697  1.00  0.00     0.050 C  
HETATM    7  C   UNL     1     -11.028   9.926  66.590  1.00  0.00     0.149 C  
HETATM    8  C   UNL     1     -10.519   6.315  67.609  1.00  0.00    -0.288 C  
HETATM    9  C   UNL     1     -10.396  11.047  66.195  1.00  0.00    -0.306 C  
HETATM   10  C   UNL     1      -8.933  10.821  66.037  1.00  0.00    -0.181 C  
HETATM   11  O   UNL     1     -10.740   5.694  69.130  1.00  0.00    -0.276 OA 
HETATM   12  C   UNL     1      -8.190   4.345  69.527  1.00  0.00    -0.065 C  
HETATM   13  C   UNL     1      -9.879   4.506  69.619  1.00  0.00    -0.218 C  
HETATM   14  N   UNL     1      -8.968   6.136  67.009  1.00  0.00    -0.113 N  
HETATM   15  O   UNL     1      -8.080  11.646  66.353  1.00  0.00    -0.130 OA 
HETATM   16  C   UNL     1      -8.453   7.113  66.175  1.00  0.00    -0.142 C  
HETATM   17  C   UNL     1      -7.807   5.315  67.931  1.00  0.00    -0.092 C  
HETATM   18  C   UNL     1      -9.436   4.374  68.315  1.00  0.00    -0.210 C  
HETATM   19  C   UNL     1      -8.516   6.003  68.909  1.00  0.00    -0.116 C  
HETATM   20  O   UNL     1      -7.343   6.981  65.654  1.00  0.00    -0.074 OA 
ENDROOT
BRANCH   9  21
HETATM   21  C   UNL     1     -11.208  12.312  66.141  1.00  0.00    -0.328 C  
HETATM   22  H   UNL     1     -11.421  14.256  66.801  1.00  0.00     0.000 HD 
HETATM   23  O   UNL     1     -12.029  12.482  65.237  1.00  0.00    -0.400 OA 
HETATM   24  N   UNL     1     -11.043  13.338  67.037  1.00  0.00    -0.276 N  
BRANCH  24  25
HETATM   25  C   UNL     1     -10.366  13.179  68.287  1.00  0.00    -0.252 C  
BRANCH  25  26
HETATM   26  C   UNL     1     -11.148  13.060  69.545  1.00  0.00    -0.052 A  
HETATM   27  C   UNL     1     -12.492  14.176  71.234  1.00  0.00    -0.446 A  
HETATM   28  C   UNL     1     -13.025  12.947  71.595  1.00  0.00    -0.313 A  
HETATM   29  C   UNL     1     -11.555  14.221  70.212  1.00  0.00    -0.224 A  
HETATM   30  F   UNL     1     -11.103  15.419  69.813  1.00  0.00    -0.222 F  
HETATM   31  F   UNL     1     -13.953  12.895  72.557  1.00  0.00    -0.614 F  
HETATM   32  C   UNL     1     -12.638  11.774  70.957  1.00  0.00    -0.409 A  
HETATM   33  C   UNL     1     -11.702  11.842  69.932  1.00  0.00    -0.323 A  
HETATM   34  F   UNL     1     -11.401  10.726  69.255  1.00  0.00    -0.235 F  
ENDBRANCH  25  26
ENDBRANCH  24  25
ENDBRANCH   9  21
TORSDOF 3
ENDMDL
MODEL      120
REMARK 921   NORMALIZED FREE ENERGY PREDICTED BY IDOCK:   -5.72 KCAL/MOL
REMARK 922        TOTAL FREE ENERGY PREDICTED BY IDOCK:   -7.47 KCAL/MOL
REMARK 923 INTER-LIGAND FREE ENERGY PREDICTED BY IDOCK:   -6.67 KCAL/MOL
REMARK 924 INTRA-LIGAND FREE ENERGY PREDICTED BY IDOCK:   -0.80 KCAL/MOL
REMARK 927      BINDING AFFINITY PREDICTED BY RF-SCORE:    0.00 PKD
ROOT
HETATM    1  O   UNL     1     -11.774   9.639  71.901  1.00  0.00    -0.357 OA 
HETATM    2  H   UNL     1     -11.791   9.148  72.714  1.00  0.00     0.000 HD 
HETATM    3  C   UNL     1     -10.776   9.646  70.943  1.00  0.00    -0.332 C  
HETATM    4  C   UNL     1     -10.751  10.346  69.785  1.00  0.00    -0.278 C  
HETATM    5  N   UNL     1      -9.647  10.280  68.912  1.00  0.00    -0.180 NA 
HETATM    6  C   UNL     1      -9.314  11.363  67.987  1.00  0.00    -0.171 C  
HETATM    7  C   UNL     1      -8.651   9.330  69.162  1.00  0.00    -0.134 C  
HETATM    8  C   UNL     1     -10.503  12.221  67.566  1.00  0.00    -0.230 C  
HETATM    9  C   UNL     1      -8.512   8.618  70.295  1.00  0.00    -0.133 C  
HETATM   10  C   UNL     1      -9.462   9.073  71.347  1.00  0.00    -0.264 C  
HETATM   11  O   UNL     1      -9.841  13.678  67.131  1.00  0.00    -0.232 OA 
HETATM   12  C   UNL     1     -11.673  15.511  68.458  1.00  0.00    -0.351 C  
HETATM   13  C   UNL     1     -10.693  14.968  67.181  1.00  0.00    -0.303 C  
HETATM   14  N   UNL     1     -11.740  12.333  68.685  1.00  0.00    -0.313 N  
HETATM   15  O   UNL     1      -9.174   9.146  72.538  1.00  0.00    -0.113 OA 
HETATM   16  C   UNL     1     -11.902  11.318  69.611  1.00  0.00    -0.360 C  
HETATM   17  C   UNL     1     -12.245  13.860  69.221  1.00  0.00    -0.319 C  
HETATM   18  C   UNL     1     -11.795  14.154  67.377  1.00  0.00    -0.447 C  
HETATM   19  C   UNL     1     -10.871  14.036  69.105  1.00  0.00    -0.235 C  
HETATM   20  O   UNL     1     -12.847  11.327  70.404  1.00  0.00    -0.167 OA 
ENDROOT
BRANCH   9  21
HETATM   21  C   UNL     1      -7.367   7.643  70.359  1.00  0.00    -0.071 C  
HETATM   22  H   UNL     1      -6.707   5.727  69.971  1.00  0.00     0.000 HD 
HETATM   23  O   UNL     1      -6.217   8.052  70.534  1.00  0.00    -0.036 OA 
HETATM   24  N   UNL     1      -7.530   6.294  70.177  1.00  0.00    -0.092 N  
BRANCH  24  25
HETATM   25  C   UNL     1      -8.802   5.645  70.263  1.00  0.00    -0.139 C  
BRANCH  25  26
HETATM   26  C   UNL     1      -9.037   4.605  71.298  1.00  0.00    -0.179 A  
HETATM   27  C   UNL     1      -9.501   4.103  73.630  1.00  0.00    -0.122 A  
HETATM   28  C   UNL     1      -9.964   2.852  73.248  1.00  0.00    -0.111 A  
HETATM   29  C   UNL     1      -9.039   4.968  72.649  1.00  0.00    -0.131 A  
HETATM   30  F   UNL     1      -8.667   6.204  73.013  1.00  0.00    -0.122 F  
HETATM   31  F   UNL     1     -10.443   2.021  74.182  1.00  0.00    -0.137 F  
HETATM   32  C   UNL     1      -9.971   2.457  71.916  1.00  0.00    -0.220 A  
HETATM   33  C   UNL     1      -9.509   3.341  70.948  1.00  0.00    -0.164 A  
HETATM   34  F   UNL     1      -9.604   2.997  69.657  1.00  0.00    -0.219 F  
ENDBRANCH  25  26
ENDBRANCH  24  25
ENDBRANCH   9  21
TORSDOF 3
ENDMDL
MODEL      121
REMARK 921   NORMALIZED FREE ENERGY PREDICTED BY IDOCK:   -5.71 KCAL/MOL
REMARK 922        TOTAL FREE ENERGY PREDICTED BY IDOCK:   -7.46 KCAL/MOL
REMARK 923 INTER-LIGAND FREE ENERGY PREDICTED BY IDOCK:   -6.66 KCAL/MOL
REMARK 924 INTRA-LIGAND FREE ENERGY PREDICTED BY IDOCK:   -0.80 KCAL/MOL
REMARK 927      BINDING AFFINITY PREDICTED BY RF-SCORE:    0.00 PKD
ROOT
HETATM    1  O   UNL     1     -12.472   6.780  69.983  1.00  0.00    -0.546 OA 
HETATM    2  H   UNL     1     -13.171   6.735  69.340  1.00  0.00     0.000 HD 
HETATM    3  C   UNL     1     -11.174   7.214  69.784  1.00  0.00    -0.173 C  
HETATM    4  C   UNL     1     -10.179   7.278  70.699  1.00  0.00    -0.195 C  
HETATM    5  N   UNL     1      -8.887   7.715  70.347  1.00  0.00    -0.143 NA 
HETATM    6  C   UNL     1      -7.692   7.304  71.086  1.00  0.00    -0.092 C  
HETATM    7  C   UNL     1      -8.689   8.269  69.078  1.00  0.00    -0.143 C  
HETATM    8  C   UNL     1      -7.947   6.939  72.545  1.00  0.00    -0.099 C  
HETATM    9  C   UNL     1      -9.559   8.213  68.053  1.00  0.00    -0.174 C  
HETATM   10  C   UNL     1     -10.723   7.341  68.371  1.00  0.00    -0.121 C  
HETATM   11  O   UNL     1      -6.706   5.917  72.949  1.00  0.00    -0.070 OA 
HETATM   12  C   UNL     1      -8.173   3.835  74.361  1.00  0.00    -0.085 C  
HETATM   13  C   UNL     1      -6.876   4.902  74.104  1.00  0.00    -0.072 C  
HETATM   14  N   UNL     1      -9.471   6.340  72.880  1.00  0.00    -0.146 N  
HETATM   15  O   UNL     1     -11.253   6.591  67.556  1.00  0.00    -0.343 OA 
HETATM   16  C   UNL     1     -10.524   6.679  72.049  1.00  0.00    -0.204 C  
HETATM   17  C   UNL     1      -9.627   4.828  73.631  1.00  0.00    -0.142 C  
HETATM   18  C   UNL     1      -8.045   5.568  74.429  1.00  0.00    -0.104 C  
HETATM   19  C   UNL     1      -8.544   4.619  72.785  1.00  0.00    -0.114 C  
HETATM   20  O   UNL     1     -11.676   6.318  72.304  1.00  0.00    -0.302 OA 
ENDROOT
BRANCH   9  21
HETATM   21  C   UNL     1      -9.149   8.876  66.766  1.00  0.00    -0.143 C  
HETATM   22  H   UNL     1      -9.267  10.558  65.577  1.00  0.00     0.000 HD 
HETATM   23  O   UNL     1      -8.208   8.425  66.111  1.00  0.00    -0.104 OA 
HETATM   24  N   UNL     1      -9.748  10.017  66.295  1.00  0.00    -0.200 N  
BRANCH  24  25
HETATM   25  C   UNL     1     -11.016  10.482  66.767  1.00  0.00    -0.080 C  
BRANCH  25  26
HETATM   26  C   UNL     1     -11.129  11.825  67.392  1.00  0.00    -0.338 A  
HETATM   27  C   UNL     1     -11.361  14.222  67.068  1.00  0.00    -0.354 A  
HETATM   28  C   UNL     1     -11.830  14.334  68.369  1.00  0.00    -0.338 A  
HETATM   29  C   UNL     1     -11.012  12.967  66.592  1.00  0.00    -0.279 A  
HETATM   30  F   UNL     1     -10.636  12.853  65.310  1.00  0.00    -0.279 F  
HETATM   31  F   UNL     1     -12.199  15.534  68.829  1.00  0.00    -0.321 F  
HETATM   32  C   UNL     1     -11.953  13.221  69.192  1.00  0.00    -0.343 A  
HETATM   33  C   UNL     1     -11.604  11.971  68.694  1.00  0.00    -0.319 A  
HETATM   34  F   UNL     1     -11.812  10.889  69.455  1.00  0.00    -0.295 F  
ENDBRANCH  25  26
ENDBRANCH  24  25
ENDBRANCH   9  21
TORSDOF 3
ENDMDL
MODEL      122
REMARK 921   NORMALIZED FREE ENERGY PREDICTED BY IDOCK:   -5.70 KCAL/MOL
REMARK 922        TOTAL FREE ENERGY PREDICTED BY IDOCK:   -7.45 KCAL/MOL
REMARK 923 INTER-LIGAND FREE ENERGY PREDICTED BY IDOCK:   -6.59 KCAL/MOL
REMARK 924 INTRA-LIGAND FREE ENERGY PREDICTED BY IDOCK:   -0.86 KCAL/MOL
REMARK 927      BINDING AFFINITY PREDICTED BY RF-SCORE:    0.00 PKD
ROOT
HETATM    1  O   UNL     1      -6.126  12.101  66.633  1.00  0.00    -0.467 OA 
HETATM    2  H   UNL     1      -6.003  11.306  66.127  1.00  0.00     0.000 HD 
HETATM    3  C   UNL     1      -7.319  12.632  67.089  1.00  0.00    -0.037 C  
HETATM    4  C   UNL     1      -7.495  13.765  67.809  1.00  0.00    -0.163 C  
HETATM    5  N   UNL     1      -8.780  14.205  68.181  1.00  0.00    -0.173 NA 
HETATM    6  C   UNL     1      -9.080  15.612  68.447  1.00  0.00    -0.190 C  
HETATM    7  C   UNL     1      -9.869  13.355  67.962  1.00  0.00    -0.229 C  
HETATM    8  C   UNL     1      -7.883  16.434  68.917  1.00  0.00    -0.234 C  
HETATM    9  C   UNL     1      -9.856  12.240  67.208  1.00  0.00    -0.208 C  
HETATM   10  C   UNL     1      -8.565  12.087  66.483  1.00  0.00    -0.100 C  
HETATM   11  O   UNL     1      -8.256  17.997  68.506  1.00  0.00    -0.296 OA 
HETATM   12  C   UNL     1      -5.726  18.859  67.350  1.00  0.00    -0.160 C  
HETATM   13  C   UNL     1      -7.130  19.036  68.290  1.00  0.00    -0.268 C  
HETATM   14  N   UNL     1      -6.394  15.912  68.365  1.00  0.00    -0.106 N  
HETATM   15  O   UNL     1      -8.477  11.665  65.334  1.00  0.00     0.201 OA 
HETATM   16  C   UNL     1      -6.235  14.585  68.011  1.00  0.00    -0.154 C  
HETATM   17  C   UNL     1      -5.393  16.990  67.520  1.00  0.00    -0.152 C  
HETATM   18  C   UNL     1      -6.257  18.104  68.824  1.00  0.00    -0.208 C  
HETATM   19  C   UNL     1      -6.654  17.346  67.057  1.00  0.00    -0.212 C  
HETATM   20  O   UNL     1      -5.134  14.146  67.671  1.00  0.00    -0.304 OA 
ENDROOT
BRANCH   9  21
HETATM   21  C   UNL     1     -11.142  11.465  67.103  1.00  0.00    -0.305 C  
HETATM   22  H   UNL     1     -12.452  10.163  68.022  1.00  0.00     0.000 HD 
HETATM   23  O   UNL     1     -11.966  11.751  66.233  1.00  0.00    -0.490 OA 
HETATM   24  N   UNL     1     -11.479  10.465  67.979  1.00  0.00    -0.206 N  
BRANCH  24  25
HETATM   25  C   UNL     1     -10.527   9.827  68.835  1.00  0.00    -0.214 C  
BRANCH  25  26
HETATM   26  C   UNL     1     -10.256   8.373  68.691  1.00  0.00    -0.220 A  
HETATM   27  C   UNL     1     -10.752   6.113  69.436  1.00  0.00    -0.385 A  
HETATM   28  C   UNL     1     -10.243   5.628  68.240  1.00  0.00    -0.186 A  
HETATM   29  C   UNL     1     -10.751   7.483  69.651  1.00  0.00    -0.230 A  
HETATM   30  F   UNL     1     -11.317   7.953  70.774  1.00  0.00    -0.262 F  
HETATM   31  F   UNL     1     -10.267   4.310  68.008  1.00  0.00    -0.138 F  
HETATM   32  C   UNL     1      -9.739   6.482  67.267  1.00  0.00    -0.160 A  
HETATM   33  C   UNL     1      -9.753   7.852  67.500  1.00  0.00    -0.159 A  
HETATM   34  F   UNL     1      -9.355   8.680  66.525  1.00  0.00    -0.177 F  
ENDBRANCH  25  26
ENDBRANCH  24  25
ENDBRANCH   9  21
TORSDOF 3
ENDMDL
MODEL      123
REMARK 921   NORMALIZED FREE ENERGY PREDICTED BY IDOCK:   -5.70 KCAL/MOL
REMARK 922        TOTAL FREE ENERGY PREDICTED BY IDOCK:   -7.44 KCAL/MOL
REMARK 923 INTER-LIGAND FREE ENERGY PREDICTED BY IDOCK:   -7.16 KCAL/MOL
REMARK 924 INTRA-LIGAND FREE ENERGY PREDICTED BY IDOCK:   -0.28 KCAL/MOL
REMARK 927      BINDING AFFINITY PREDICTED BY RF-SCORE:    0.00 PKD
ROOT
HETATM    1  O   UNL     1      -9.965   7.354  66.372  1.00  0.00    -0.416 OA 
HETATM    2  H   UNL     1      -9.682   7.210  65.476  1.00  0.00     0.000 HD 
HETATM    3  C   UNL     1      -9.507   8.316  67.254  1.00  0.00    -0.151 C  
HETATM    4  C   UNL     1      -9.910   8.521  68.530  1.00  0.00    -0.173 C  
HETATM    5  N   UNL     1      -9.330   9.526  69.329  1.00  0.00    -0.161 NA 
HETATM    6  C   UNL     1      -9.306   9.448  70.790  1.00  0.00    -0.226 C  
HETATM    7  C   UNL     1      -8.460  10.442  68.728  1.00  0.00    -0.132 C  
HETATM    8  C   UNL     1     -10.434   8.621  71.397  1.00  0.00    -0.327 C  
HETATM    9  C   UNL     1      -7.924  10.325  67.499  1.00  0.00    -0.106 C  
HETATM   10  C   UNL     1      -8.238   9.004  66.889  1.00  0.00    -0.116 C  
HETATM   11  O   UNL     1      -9.852   8.124  72.868  1.00  0.00    -0.270 OA 
HETATM   12  C   UNL     1     -10.644   5.322  72.833  1.00  0.00    -0.273 C  
HETATM   13  C   UNL     1     -10.416   6.850  73.540  1.00  0.00    -0.352 C  
HETATM   14  N   UNL     1     -11.016   7.385  70.432  1.00  0.00    -0.248 N  
HETATM   15  O   UNL     1      -7.443   8.364  66.208  1.00  0.00    -0.086 OA 
HETATM   16  C   UNL     1     -10.880   7.483  69.059  1.00  0.00    -0.061 C  
HETATM   17  C   UNL     1     -11.026   5.797  71.027  1.00  0.00    -0.300 C  
HETATM   18  C   UNL     1     -11.410   6.862  72.578  1.00  0.00    -0.291 C  
HETATM   19  C   UNL     1      -9.838   6.292  71.550  1.00  0.00    -0.193 C  
HETATM   20  O   UNL     1     -11.362   6.629  68.311  1.00  0.00    -0.185 OA 
ENDROOT
BRANCH   9  21
HETATM   21  C   UNL     1      -7.009  11.428  67.040  1.00  0.00    -0.135 C  
HETATM   22  H   UNL     1      -6.654  13.459  66.968  1.00  0.00     0.000 HD 
HETATM   23  O   UNL     1      -5.854  11.170  66.696  1.00  0.00    -0.092 OA 
HETATM   24  N   UNL     1      -7.382  12.748  67.033  1.00  0.00     0.003 N  
BRANCH  24  25
HETATM   25  C   UNL     1      -8.746  13.171  67.113  1.00  0.00    -0.213 C  
BRANCH  25  26
HETATM   26  C   UNL     1      -9.088  14.609  66.956  1.00  0.00    -0.254 A  
HETATM   27  C   UNL     1     -10.392  16.288  65.778  1.00  0.00    -0.393 A  
HETATM   28  C   UNL     1     -10.201  17.156  66.843  1.00  0.00    -0.315 A  
HETATM   29  C   UNL     1      -9.831  15.021  65.844  1.00  0.00    -0.338 A  
HETATM   30  F   UNL     1     -10.085  14.158  64.849  1.00  0.00    -0.396 F  
HETATM   31  F   UNL     1     -10.764  18.369  66.806  1.00  0.00    -0.385 F  
HETATM   32  C   UNL     1      -9.465  16.781  67.961  1.00  0.00    -0.233 A  
HETATM   33  C   UNL     1      -8.916  15.505  68.010  1.00  0.00    -0.174 A  
HETATM   34  F   UNL     1      -8.287  15.112  69.125  1.00  0.00    -0.167 F  
ENDBRANCH  25  26
ENDBRANCH  24  25
ENDBRANCH   9  21
TORSDOF 3
ENDMDL
MODEL      124
REMARK 921   NORMALIZED FREE ENERGY PREDICTED BY IDOCK:   -5.69 KCAL/MOL
REMARK 922        TOTAL FREE ENERGY PREDICTED BY IDOCK:   -7.43 KCAL/MOL
REMARK 923 INTER-LIGAND FREE ENERGY PREDICTED BY IDOCK:   -6.46 KCAL/MOL
REMARK 924 INTRA-LIGAND FREE ENERGY PREDICTED BY IDOCK:   -0.97 KCAL/MOL
REMARK 927      BINDING AFFINITY PREDICTED BY RF-SCORE:    0.00 PKD
ROOT
HETATM    1  O   UNL     1     -11.209   8.998  69.204  1.00  0.00    -0.441 OA 
HETATM    2  H   UNL     1     -11.210   8.169  69.669  1.00  0.00     0.000 HD 
HETATM    3  C   UNL     1     -10.174   9.551  68.472  1.00  0.00    -0.199 C  
HETATM    4  C   UNL     1     -10.174  10.732  67.811  1.00  0.00    -0.182 C  
HETATM    5  N   UNL     1      -9.029  11.188  67.127  1.00  0.00    -0.143 NA 
HETATM    6  C   UNL     1      -8.776  12.609  66.884  1.00  0.00    -0.175 C  
HETATM    7  C   UNL     1      -7.947  10.316  66.975  1.00  0.00    -0.111 C  
HETATM    8  C   UNL     1     -10.032  13.472  66.824  1.00  0.00    -0.269 C  
HETATM    9  C   UNL     1      -7.782   9.149  67.625  1.00  0.00    -0.089 C  
HETATM   10  C   UNL     1      -8.825   8.953  68.669  1.00  0.00    -0.137 C  
HETATM   11  O   UNL     1      -9.517  14.998  67.220  1.00  0.00    -0.202 OA 
HETATM   12  C   UNL     1     -11.602  15.793  69.091  1.00  0.00    -0.399 C  
HETATM   13  C   UNL     1     -10.509  16.027  67.812  1.00  0.00    -0.298 C  
HETATM   14  N   UNL     1     -11.325  12.924  67.731  1.00  0.00    -0.280 N  
HETATM   15  O   UNL     1      -8.603   8.448  69.765  1.00  0.00    -0.128 OA 
HETATM   16  C   UNL     1     -11.416  11.575  68.024  1.00  0.00    -0.311 C  
HETATM   17  C   UNL     1     -12.022  13.944  68.893  1.00  0.00    -0.393 C  
HETATM   18  C   UNL     1     -11.521  15.144  67.480  1.00  0.00    -0.306 C  
HETATM   19  C   UNL     1     -10.672  14.255  69.010  1.00  0.00    -0.259 C  
HETATM   20  O   UNL     1     -12.392  11.121  68.627  1.00  0.00    -0.549 OA 
ENDROOT
BRANCH   9  21
HETATM   21  C   UNL     1      -6.540   8.358  67.315  1.00  0.00    -0.059 C  
HETATM   22  H   UNL     1      -5.644   6.962  66.087  1.00  0.00     0.000 HD 
HETATM   23  O   UNL     1      -5.457   8.693  67.799  1.00  0.00    -0.034 OA 
HETATM   24  N   UNL     1      -6.537   7.287  66.458  1.00  0.00    -0.054 N  
BRANCH  24  25
HETATM   25  C   UNL     1      -7.730   6.604  66.062  1.00  0.00    -0.089 C  
BRANCH  25  26
HETATM   26  C   UNL     1      -8.457   5.751  67.038  1.00  0.00    -0.107 A  
HETATM   27  C   UNL     1      -8.325   4.259  68.952  1.00  0.00    -0.092 A  
HETATM   28  C   UNL     1      -9.663   4.512  69.217  1.00  0.00    -0.190 A  
HETATM   29  C   UNL     1      -7.734   4.880  67.861  1.00  0.00    -0.083 A  
HETATM   30  F   UNL     1      -6.422   4.696  67.655  1.00  0.00    -0.039 F  
HETATM   31  F   UNL     1     -10.235   3.944  70.285  1.00  0.00    -0.219 F  
HETATM   32  C   UNL     1     -10.411   5.367  68.416  1.00  0.00    -0.191 A  
HETATM   33  C   UNL     1      -9.799   5.984  67.332  1.00  0.00    -0.131 A  
HETATM   34  F   UNL     1     -10.494   6.879  66.618  1.00  0.00    -0.300 F  
ENDBRANCH  25  26
ENDBRANCH  24  25
ENDBRANCH   9  21
TORSDOF 3
ENDMDL
MODEL      125
REMARK 921   NORMALIZED FREE ENERGY PREDICTED BY IDOCK:   -5.67 KCAL/MOL
REMARK 922        TOTAL FREE ENERGY PREDICTED BY IDOCK:   -7.41 KCAL/MOL
REMARK 923 INTER-LIGAND FREE ENERGY PREDICTED BY IDOCK:   -7.61 KCAL/MOL
REMARK 924 INTRA-LIGAND FREE ENERGY PREDICTED BY IDOCK:    0.20 KCAL/MOL
REMARK 927      BINDING AFFINITY PREDICTED BY RF-SCORE:    0.00 PKD
ROOT
HETATM    1  O   UNL     1     -11.416   6.107  73.428  1.00  0.00    -0.425 OA 
HETATM    2  H   UNL     1     -12.280   5.969  73.800  1.00  0.00     0.000 HD 
HETATM    3  C   UNL     1     -10.993   7.176  72.659  1.00  0.00    -0.288 C  
HETATM    4  C   UNL     1      -9.763   7.372  72.129  1.00  0.00    -0.150 C  
HETATM    5  N   UNL     1      -9.479   8.500  71.334  1.00  0.00    -0.191 NA 
HETATM    6  C   UNL     1      -8.420   8.501  70.325  1.00  0.00    -0.128 C  
HETATM    7  C   UNL     1     -10.432   9.521  71.254  1.00  0.00    -0.250 C  
HETATM    8  C   UNL     1      -7.283   7.523  70.603  1.00  0.00    -0.067 C  
HETATM    9  C   UNL     1     -11.709   9.437  71.670  1.00  0.00    -0.468 C  
HETATM   10  C   UNL     1     -12.056   8.053  72.094  1.00  0.00    -0.343 C  
HETATM   11  O   UNL     1      -6.621   7.207  69.116  1.00  0.00    -0.042 OA 
HETATM   12  C   UNL     1      -6.339   4.313  69.264  1.00  0.00    -0.029 C  
HETATM   13  C   UNL     1      -5.847   5.891  68.870  1.00  0.00    -0.016 C  
HETATM   14  N   UNL     1      -7.705   6.159  71.474  1.00  0.00    -0.099 N  
HETATM   15  O   UNL     1     -13.142   7.525  71.872  1.00  0.00    -0.311 OA 
HETATM   16  C   UNL     1      -8.806   6.210  72.311  1.00  0.00    -0.137 C  
HETATM   17  C   UNL     1      -7.384   4.624  70.828  1.00  0.00    -0.052 C  
HETATM   18  C   UNL     1      -5.895   5.683  70.237  1.00  0.00    -0.024 C  
HETATM   19  C   UNL     1      -7.751   5.342  69.695  1.00  0.00    -0.073 C  
HETATM   20  O   UNL     1      -9.105   5.250  73.025  1.00  0.00    -0.125 OA 
ENDROOT
BRANCH   9  21
HETATM   21  C   UNL     1     -12.573  10.656  71.491  1.00  0.00    -0.412 C  
HETATM   22  H   UNL     1     -13.199  12.156  70.220  1.00  0.00     0.000 HD 
HETATM   23  O   UNL     1     -13.480  10.894  72.291  1.00  0.00    -0.324 OA 
HETATM   24  N   UNL     1     -12.436  11.513  70.429  1.00  0.00    -0.270 N  
BRANCH  24  25
HETATM   25  C   UNL     1     -11.270  11.545  69.601  1.00  0.00    -0.204 C  
BRANCH  25  26
HETATM   26  C   UNL     1     -11.345  12.124  68.234  1.00  0.00    -0.343 A  
HETATM   27  C   UNL     1     -11.530  11.718  65.845  1.00  0.00    -0.273 A  
HETATM   28  C   UNL     1     -11.977  13.021  65.678  1.00  0.00    -0.429 A  
HETATM   29  C   UNL     1     -11.215  11.283  67.124  1.00  0.00    -0.275 A  
HETATM   30  F   UNL     1     -10.860  10.000  67.291  1.00  0.00    -0.305 F  
HETATM   31  F   UNL     1     -12.314  13.443  64.454  1.00  0.00    -0.409 F  
HETATM   32  C   UNL     1     -12.112  13.885  66.758  1.00  0.00    -0.476 A  
HETATM   33  C   UNL     1     -11.797  13.427  68.032  1.00  0.00    -0.357 A  
HETATM   34  F   UNL     1     -12.017  14.228  69.082  1.00  0.00    -0.316 F  
ENDBRANCH  25  26
ENDBRANCH  24  25
ENDBRANCH   9  21
TORSDOF 3
ENDMDL
MODEL      126
REMARK 921   NORMALIZED FREE ENERGY PREDICTED BY IDOCK:   -5.62 KCAL/MOL
REMARK 922        TOTAL FREE ENERGY PREDICTED BY IDOCK:   -7.35 KCAL/MOL
REMARK 923 INTER-LIGAND FREE ENERGY PREDICTED BY IDOCK:   -7.58 KCAL/MOL
REMARK 924 INTRA-LIGAND FREE ENERGY PREDICTED BY IDOCK:    0.23 KCAL/MOL
REMARK 927      BINDING AFFINITY PREDICTED BY RF-SCORE:    0.00 PKD
ROOT
HETATM    1  O   UNL     1     -10.524  13.979  65.291  1.00  0.00    -0.336 OA 
HETATM    2  H   UNL     1     -10.972  13.183  65.028  1.00  0.00     0.000 HD 
HETATM    3  C   UNL     1      -9.429  14.090  66.129  1.00  0.00    -0.185 C  
HETATM    4  C   UNL     1      -8.791  15.223  66.503  1.00  0.00    -0.300 C  
HETATM    5  N   UNL     1      -7.699  15.190  67.394  1.00  0.00    -0.182 NA 
HETATM    6  C   UNL     1      -7.341  16.331  68.236  1.00  0.00    -0.145 C  
HETATM    7  C   UNL     1      -7.155  13.949  67.740  1.00  0.00    -0.172 C  
HETATM    8  C   UNL     1      -7.759  17.686  67.676  1.00  0.00    -0.211 C  
HETATM    9  C   UNL     1      -7.716  12.750  67.497  1.00  0.00    -0.168 C  
HETATM   10  C   UNL     1      -9.091  12.892  66.946  1.00  0.00    -0.224 C  
HETATM   11  O   UNL     1      -7.881  18.674  69.002  1.00  0.00    -0.261 OA 
HETATM   12  C   UNL     1     -10.402  20.016  68.434  1.00  0.00    -0.465 C  
HETATM   13  C   UNL     1      -8.789  19.925  68.961  1.00  0.00     0.073 C  
HETATM   14  N   UNL     1      -9.117  17.671  66.700  1.00  0.00    -0.257 N  
HETATM   15  O   UNL     1     -10.024  12.152  67.246  1.00  0.00    -0.201 OA 
HETATM   16  C   UNL     1      -9.456  16.504  66.038  1.00  0.00    -0.282 C  
HETATM   17  C   UNL     1     -10.433  18.668  67.086  1.00  0.00    -0.461 C  
HETATM   18  C   UNL     1      -8.907  19.715  67.598  1.00  0.00    -0.378 C  
HETATM   19  C   UNL     1     -10.000  18.265  68.344  1.00  0.00    -0.401 C  
HETATM   20  O   UNL     1     -10.406  16.474  65.252  1.00  0.00    -0.596 OA 
ENDROOT
BRANCH   9  21
HETATM   21  C   UNL     1      -6.961  11.532  67.955  1.00  0.00    -0.075 C  
HETATM   22  H   UNL     1      -7.071   9.583  68.624  1.00  0.00     0.000 HD 
HETATM   23  O   UNL     1      -5.752  11.434  67.733  1.00  0.00    -0.043 OA 
HETATM   24  N   UNL     1      -7.569  10.471  68.576  1.00  0.00    -0.092 N  
BRANCH  24  25
HETATM   25  C   UNL     1      -8.872  10.555  69.162  1.00  0.00    -0.151 C  
BRANCH  25  26
HETATM   26  C   UNL     1      -9.666   9.320  69.388  1.00  0.00    -0.175 A  
HETATM   27  C   UNL     1     -10.729   7.361  68.418  1.00  0.00    -0.142 A  
HETATM   28  C   UNL     1     -10.712   6.757  69.667  1.00  0.00    -0.251 A  
HETATM   29  C   UNL     1     -10.207   8.640  68.291  1.00  0.00    -0.198 A  
HETATM   30  F   UNL     1     -10.153   9.188  67.068  1.00  0.00    -0.231 F  
HETATM   31  F   UNL     1     -11.184   5.512  69.796  1.00  0.00    -0.401 F  
HETATM   32  C   UNL     1     -10.187   7.406  70.778  1.00  0.00    -0.200 A  
HETATM   33  C   UNL     1      -9.664   8.684  70.628  1.00  0.00    -0.184 A  
HETATM   34  F   UNL     1      -9.074   9.271  71.678  1.00  0.00    -0.284 F  
ENDBRANCH  25  26
ENDBRANCH  24  25
ENDBRANCH   9  21
TORSDOF 3
ENDMDL
MODEL      127
REMARK 921   NORMALIZED FREE ENERGY PREDICTED BY IDOCK:   -5.62 KCAL/MOL
REMARK 922        TOTAL FREE ENERGY PREDICTED BY IDOCK:   -7.35 KCAL/MOL
REMARK 923 INTER-LIGAND FREE ENERGY PREDICTED BY IDOCK:   -7.30 KCAL/MOL
REMARK 924 INTRA-LIGAND FREE ENERGY PREDICTED BY IDOCK:   -0.05 KCAL/MOL
REMARK 927      BINDING AFFINITY PREDICTED BY RF-SCORE:    0.00 PKD
ROOT
HETATM    1  O   UNL     1     -12.428  13.432  63.764  1.00  0.00    -0.682 OA 
HETATM    2  H   UNL     1     -12.910  14.222  63.548  1.00  0.00     0.000 HD 
HETATM    3  C   UNL     1     -11.900  13.080  64.993  1.00  0.00    -0.362 C  
HETATM    4  C   UNL     1     -11.213  11.955  65.302  1.00  0.00    -0.295 C  
HETATM    5  N   UNL     1     -10.704  11.739  66.598  1.00  0.00    -0.251 NA 
HETATM    6  C   UNL     1      -9.546  10.882  66.851  1.00  0.00    -0.178 C  
HETATM    7  C   UNL     1     -11.081  12.615  67.620  1.00  0.00    -0.263 C  
HETATM    8  C   UNL     1      -9.332   9.786  65.812  1.00  0.00    -0.278 C  
HETATM    9  C   UNL     1     -11.700  13.799  67.452  1.00  0.00    -0.417 C  
HETATM   10  C   UNL     1     -11.803  14.161  66.012  1.00  0.00    -0.398 C  
HETATM   11  O   UNL     1      -7.715   9.429  65.900  1.00  0.00    -0.098 OA 
HETATM   12  C   UNL     1      -7.038   9.333  63.069  1.00  0.00    -0.091 C  
HETATM   13  C   UNL     1      -6.986   8.808  64.685  1.00  0.00    -0.080 C  
HETATM   14  N   UNL     1      -9.877  10.142  64.272  1.00  0.00    -0.281 N  
HETATM   15  O   UNL     1     -11.664  15.304  65.587  1.00  0.00    -0.136 OA 
HETATM   16  C   UNL     1     -10.894  11.066  64.115  1.00  0.00    -0.180 C  
HETATM   17  C   UNL     1      -8.800  10.053  62.964  1.00  0.00    -0.237 C  
HETATM   18  C   UNL     1      -8.233   8.623  64.114  1.00  0.00    -0.156 C  
HETATM   19  C   UNL     1      -7.989  10.566  63.971  1.00  0.00     0.003 C  
HETATM   20  O   UNL     1     -11.374  11.300  63.003  1.00  0.00     0.017 OA 
ENDROOT
BRANCH   9  21
HETATM   21  C   UNL     1     -12.018  14.591  68.691  1.00  0.00    -0.285 C  
HETATM   22  H   UNL     1     -12.129  16.456  69.566  1.00  0.00     0.000 HD 
HETATM   23  O   UNL     1     -12.662  14.074  69.607  1.00  0.00    -0.152 OA 
HETATM   24  N   UNL     1     -11.668  15.908  68.840  1.00  0.00    -0.396 N  
BRANCH  24  25
HETATM   25  C   UNL     1     -10.684  16.549  68.022  1.00  0.00    -0.343 C  
BRANCH  25  26
HETATM   26  C   UNL     1      -9.265  16.114  68.089  1.00  0.00    -0.193 A  
HETATM   27  C   UNL     1      -7.029  16.269  67.150  1.00  0.00    -0.243 A  
HETATM   28  C   UNL     1      -6.513  15.800  68.350  1.00  0.00    -0.113 A  
HETATM   29  C   UNL     1      -8.402  16.419  67.031  1.00  0.00    -0.199 A  
HETATM   30  F   UNL     1      -8.890  16.948  65.898  1.00  0.00    -0.300 F  
HETATM   31  F   UNL     1      -5.188  15.681  68.488  1.00  0.00    -0.086 F  
HETATM   32  C   UNL     1      -7.342  15.483  69.420  1.00  0.00    -0.215 A  
HETATM   33  C   UNL     1      -8.715  15.646  69.281  1.00  0.00    -0.267 A  
HETATM   34  F   UNL     1      -9.504  15.430  70.342  1.00  0.00    -0.142 F  
ENDBRANCH  25  26
ENDBRANCH  24  25
ENDBRANCH   9  21
TORSDOF 3
ENDMDL
MODEL      128
REMARK 921   NORMALIZED FREE ENERGY PREDICTED BY IDOCK:   -5.61 KCAL/MOL
REMARK 922        TOTAL FREE ENERGY PREDICTED BY IDOCK:   -7.34 KCAL/MOL
REMARK 923 INTER-LIGAND FREE ENERGY PREDICTED BY IDOCK:   -6.98 KCAL/MOL
REMARK 924 INTRA-LIGAND FREE ENERGY PREDICTED BY IDOCK:   -0.36 KCAL/MOL
REMARK 927      BINDING AFFINITY PREDICTED BY RF-SCORE:    0.00 PKD
ROOT
HETATM    1  O   UNL     1      -7.308  11.911  66.708  1.00  0.00    -0.303 OA 
HETATM    2  H   UNL     1      -6.636  12.466  66.327  1.00  0.00     0.000 HD 
HETATM    3  C   UNL     1      -8.654  12.196  66.846  1.00  0.00    -0.191 C  
HETATM    4  C   UNL     1      -9.611  11.407  67.389  1.00  0.00    -0.174 C  
HETATM    5  N   UNL     1     -10.947  11.841  67.493  1.00  0.00    -0.240 NA 
HETATM    6  C   UNL     1     -11.863  11.320  68.508  1.00  0.00    -0.285 C  
HETATM    7  C   UNL     1     -11.318  13.029  66.854  1.00  0.00    -0.311 C  
HETATM    8  C   UNL     1     -11.534   9.912  68.992  1.00  0.00     0.003 C  
HETATM    9  C   UNL     1     -10.472  13.939  66.337  1.00  0.00    -0.284 C  
HETATM   10  C   UNL     1      -9.057  13.618  66.666  1.00  0.00    -0.174 C  
HETATM   11  O   UNL     1     -12.206   9.815  70.505  1.00  0.00    -0.230 OA 
HETATM   12  C   UNL     1     -10.026   8.563  71.975  1.00  0.00    -0.383 C  
HETATM   13  C   UNL     1     -11.650   8.811  71.542  1.00  0.00    -0.303 C  
HETATM   14  N   UNL     1      -9.917   9.490  68.927  1.00  0.00    -0.173 N  
HETATM   15  O   UNL     1      -8.215  14.466  66.948  1.00  0.00    -0.161 OA 
HETATM   16  C   UNL     1      -9.091  10.130  68.020  1.00  0.00    -0.131 C  
HETATM   17  C   UNL     1      -9.136   8.959  70.336  1.00  0.00    -0.217 C  
HETATM   18  C   UNL     1     -10.913   8.254  70.512  1.00  0.00    -0.253 C  
HETATM   19  C   UNL     1      -9.977   9.950  70.830  1.00  0.00    -0.009 C  
HETATM   20  O   UNL     1      -7.911   9.796  67.891  1.00  0.00    -0.090 OA 
ENDROOT
BRANCH   9  21
HETATM   21  C   UNL     1     -11.081  15.153  65.689  1.00  0.00    -0.334 C  
HETATM   22  H   UNL     1     -11.201  17.213  65.652  1.00  0.00     0.000 HD 
HETATM   23  O   UNL     1     -11.629  15.057  64.589  1.00  0.00    -0.410 OA 
HETATM   24  N   UNL     1     -11.011  16.405  66.245  1.00  0.00    -0.045 N  
BRANCH  24  25
HETATM   25  C   UNL     1     -10.684  16.629  67.619  1.00  0.00    -0.306 C  
BRANCH  25  26
HETATM   26  C   UNL     1      -9.357  17.189  67.985  1.00  0.00    -0.254 A  
HETATM   27  C   UNL     1      -7.327  16.955  69.301  1.00  0.00    -0.150 A  
HETATM   28  C   UNL     1      -6.682  17.814  68.424  1.00  0.00    -0.213 A  
HETATM   29  C   UNL     1      -8.662  16.653  69.075  1.00  0.00    -0.193 A  
HETATM   30  F   UNL     1      -9.259  15.760  69.879  1.00  0.00    -0.259 F  
HETATM   31  F   UNL     1      -5.386  18.089  68.613  1.00  0.00    -0.151 F  
HETATM   32  C   UNL     1      -7.344  18.369  67.334  1.00  0.00    -0.221 A  
HETATM   33  C   UNL     1      -8.679  18.048  67.122  1.00  0.00    -0.243 A  
HETATM   34  F   UNL     1      -9.289  18.507  66.022  1.00  0.00    -0.292 F  
ENDBRANCH  25  26
ENDBRANCH  24  25
ENDBRANCH   9  21
TORSDOF 3
ENDMDL
MODEL      129
REMARK 921   NORMALIZED FREE ENERGY PREDICTED BY IDOCK:   -5.61 KCAL/MOL
REMARK 922        TOTAL FREE ENERGY PREDICTED BY IDOCK:   -7.34 KCAL/MOL
REMARK 923 INTER-LIGAND FREE ENERGY PREDICTED BY IDOCK:   -6.51 KCAL/MOL
REMARK 924 INTRA-LIGAND FREE ENERGY PREDICTED BY IDOCK:   -0.82 KCAL/MOL
REMARK 927      BINDING AFFINITY PREDICTED BY RF-SCORE:    0.00 PKD
ROOT
HETATM    1  O   UNL     1      -8.314  10.520  67.340  1.00  0.00    -0.121 OA 
HETATM    2  H   UNL     1      -8.719  11.009  68.047  1.00  0.00     0.000 HD 
HETATM    3  C   UNL     1      -8.744  10.425  66.029  1.00  0.00    -0.152 C  
HETATM    4  C   UNL     1      -8.168   9.728  65.022  1.00  0.00    -0.142 C  
HETATM    5  N   UNL     1      -8.736   9.696  63.733  1.00  0.00    -0.209 NA 
HETATM    6  C   UNL     1      -8.510   8.589  62.805  1.00  0.00    -0.111 C  
HETATM    7  C   UNL     1      -9.805  10.553  63.451  1.00  0.00    -0.264 C  
HETATM    8  C   UNL     1      -7.198   7.841  63.022  1.00  0.00    -0.091 C  
HETATM    9  C   UNL     1     -10.515  11.248  64.359  1.00  0.00    -0.407 C  
HETATM   10  C   UNL     1     -10.135  10.877  65.749  1.00  0.00    -0.252 C  
HETATM   11  O   UNL     1      -7.461   6.331  62.387  1.00  0.00    -0.051 OA 
HETATM   12  C   UNL     1      -6.324   4.668  64.489  1.00  0.00    -0.034 C  
HETATM   13  C   UNL     1      -6.632   5.123  62.881  1.00  0.00    -0.026 C  
HETATM   14  N   UNL     1      -6.625   7.839  64.592  1.00  0.00    -0.044 N  
HETATM   15  O   UNL     1     -10.940  10.777  66.671  1.00  0.00    -0.209 OA 
HETATM   16  C   UNL     1      -6.996   8.863  65.445  1.00  0.00    -0.080 C  
HETATM   17  C   UNL     1      -6.309   6.362  65.363  1.00  0.00    -0.038 C  
HETATM   18  C   UNL     1      -5.819   6.031  63.536  1.00  0.00    -0.022 C  
HETATM   19  C   UNL     1      -7.450   6.064  64.627  1.00  0.00    -0.080 C  
HETATM   20  O   UNL     1      -6.535   8.937  66.587  1.00  0.00    -0.061 OA 
ENDROOT
BRANCH   9  21
HETATM   21  C   UNL     1     -11.630  12.116  63.842  1.00  0.00    -0.448 C  
HETATM   22  H   UNL     1     -12.214  14.003  63.246  1.00  0.00     0.000 HD 
HETATM   23  O   UNL     1     -12.639  11.601  63.354  1.00  0.00    -0.485 OA 
HETATM   24  N   UNL     1     -11.562  13.486  63.835  1.00  0.00    -0.352 N  
BRANCH  24  25
HETATM   25  C   UNL     1     -10.618  14.222  64.618  1.00  0.00    -0.340 C  
BRANCH  25  26
HETATM   26  C   UNL     1     -10.787  14.314  66.092  1.00  0.00    -0.310 A  
HETATM   27  C   UNL     1     -12.284  14.133  67.998  1.00  0.00    -0.181 A  
HETATM   28  C   UNL     1     -11.182  13.967  68.824  1.00  0.00    -0.272 A  
HETATM   29  C   UNL     1     -12.075  14.307  66.638  1.00  0.00    -0.420 A  
HETATM   30  F   UNL     1     -13.146  14.388  65.834  1.00  0.00    -0.468 F  
HETATM   31  F   UNL     1     -11.372  13.765  70.133  1.00  0.00    -0.267 F  
HETATM   32  C   UNL     1      -9.888  13.973  68.316  1.00  0.00    -0.233 A  
HETATM   33  C   UNL     1      -9.701  14.143  66.949  1.00  0.00    -0.269 A  
HETATM   34  F   UNL     1      -8.462  14.055  66.448  1.00  0.00    -0.073 F  
ENDBRANCH  25  26
ENDBRANCH  24  25
ENDBRANCH   9  21
TORSDOF 3
ENDMDL
MODEL      130
REMARK 921   NORMALIZED FREE ENERGY PREDICTED BY IDOCK:   -5.59 KCAL/MOL
REMARK 922        TOTAL FREE ENERGY PREDICTED BY IDOCK:   -7.32 KCAL/MOL
REMARK 923 INTER-LIGAND FREE ENERGY PREDICTED BY IDOCK:   -6.32 KCAL/MOL
REMARK 924 INTRA-LIGAND FREE ENERGY PREDICTED BY IDOCK:   -1.00 KCAL/MOL
REMARK 927      BINDING AFFINITY PREDICTED BY RF-SCORE:    0.00 PKD
ROOT
HETATM    1  O   UNL     1     -13.067  10.971  72.214  1.00  0.00    -0.546 OA 
HETATM    2  H   UNL     1     -13.248  10.426  72.972  1.00  0.00     0.000 HD 
HETATM    3  C   UNL     1     -12.359  10.623  71.078  1.00  0.00    -0.403 C  
HETATM    4  C   UNL     1     -12.101  11.399  69.999  1.00  0.00    -0.340 C  
HETATM    5  N   UNL     1     -11.335  10.921  68.918  1.00  0.00    -0.264 NA 
HETATM    6  C   UNL     1     -10.583  11.813  68.036  1.00  0.00    -0.206 C  
HETATM    7  C   UNL     1     -11.000   9.563  68.883  1.00  0.00    -0.086 C  
HETATM    8  C   UNL     1     -11.149  13.226  67.935  1.00  0.00    -0.287 C  
HETATM    9  C   UNL     1     -11.132   8.695  69.903  1.00  0.00    -0.119 C  
HETATM   10  C   UNL     1     -11.535   9.386  71.159  1.00  0.00    -0.352 C  
HETATM   11  O   UNL     1      -9.858  14.169  67.494  1.00  0.00    -0.229 OA 
HETATM   12  C   UNL     1     -10.202  16.420  69.310  1.00  0.00    -0.278 C  
HETATM   13  C   UNL     1      -9.850  15.681  67.821  1.00  0.00    -0.220 C  
HETATM   14  N   UNL     1     -11.970  13.768  69.287  1.00  0.00    -0.340 N  
HETATM   15  O   UNL     1     -11.106   9.084  72.269  1.00  0.00    -0.298 OA 
HETATM   16  C   UNL     1     -12.543  12.843  70.142  1.00  0.00     0.054 C  
HETATM   17  C   UNL     1     -11.483  15.210  70.036  1.00  0.00    -0.315 C  
HETATM   18  C   UNL     1     -11.182  15.546  68.170  1.00  0.00    -0.343 C  
HETATM   19  C   UNL     1     -10.265  14.656  69.659  1.00  0.00     0.023 C  
HETATM   20  O   UNL     1     -13.219  13.205  71.108  1.00  0.00    -0.180 OA 
ENDROOT
BRANCH   9  21
HETATM   21  C   UNL     1     -10.710   7.272  69.655  1.00  0.00    -0.236 C  
HETATM   22  H   UNL     1      -9.270   5.823  69.943  1.00  0.00     0.000 HD 
HETATM   23  O   UNL     1     -11.539   6.438  69.284  1.00  0.00    -0.354 OA 
HETATM   24  N   UNL     1      -9.432   6.828  69.874  1.00  0.00    -0.156 N  
BRANCH  24  25
HETATM   25  C   UNL     1      -8.314   7.710  70.011  1.00  0.00    -0.134 C  
BRANCH  25  26
HETATM   26  C   UNL     1      -7.677   8.295  68.803  1.00  0.00    -0.114 A  
HETATM   27  C   UNL     1      -6.574  10.211  67.792  1.00  0.00    -0.067 A  
HETATM   28  C   UNL     1      -6.042   9.370  66.825  1.00  0.00    -0.064 A  
HETATM   29  C   UNL     1      -7.390   9.664  68.772  1.00  0.00    -0.074 A  
HETATM   30  F   UNL     1      -7.837  10.467  69.750  1.00  0.00    -0.140 F  
HETATM   31  F   UNL     1      -5.228   9.880  65.894  1.00  0.00    -0.036 F  
HETATM   32  C   UNL     1      -6.311   8.006  66.823  1.00  0.00    -0.055 A  
HETATM   33  C   UNL     1      -7.125   7.478  67.817  1.00  0.00    -0.085 A  
HETATM   34  F   UNL     1      -7.307   6.152  67.870  1.00  0.00    -0.076 F  
ENDBRANCH  25  26
ENDBRANCH  24  25
ENDBRANCH   9  21
TORSDOF 3
ENDMDL
MODEL      131
REMARK 921   NORMALIZED FREE ENERGY PREDICTED BY IDOCK:   -5.57 KCAL/MOL
REMARK 922        TOTAL FREE ENERGY PREDICTED BY IDOCK:   -7.29 KCAL/MOL
REMARK 923 INTER-LIGAND FREE ENERGY PREDICTED BY IDOCK:   -6.65 KCAL/MOL
REMARK 924 INTRA-LIGAND FREE ENERGY PREDICTED BY IDOCK:   -0.64 KCAL/MOL
REMARK 927      BINDING AFFINITY PREDICTED BY RF-SCORE:    0.00 PKD
ROOT
HETATM    1  O   UNL     1     -12.181  12.421  67.000  1.00  0.00    -0.508 OA 
HETATM    2  H   UNL     1     -12.920  11.853  67.187  1.00  0.00     0.000 HD 
HETATM    3  C   UNL     1     -10.884  12.293  67.464  1.00  0.00    -0.234 C  
HETATM    4  C   UNL     1      -9.832  13.103  67.199  1.00  0.00    -0.235 C  
HETATM    5  N   UNL     1      -8.564  12.868  67.767  1.00  0.00    -0.172 NA 
HETATM    6  C   UNL     1      -7.588  13.937  67.975  1.00  0.00    -0.144 C  
HETATM    7  C   UNL     1      -8.353  11.672  68.462  1.00  0.00    -0.140 C  
HETATM    8  C   UNL     1      -7.729  15.115  67.017  1.00  0.00    -0.158 C  
HETATM    9  C   UNL     1      -9.311  10.812  68.855  1.00  0.00    -0.183 C  
HETATM   10  C   UNL     1     -10.672  11.359  68.604  1.00  0.00    -0.206 C  
HETATM   11  O   UNL     1      -7.051  16.398  67.819  1.00  0.00    -0.121 OA 
HETATM   12  C   UNL     1      -9.048  18.456  67.312  1.00  0.00    -0.268 C  
HETATM   13  C   UNL     1      -7.470  17.846  67.470  1.00  0.00    -0.205 C  
HETATM   14  N   UNL     1      -9.277  15.397  66.449  1.00  0.00    -0.282 N  
HETATM   15  O   UNL     1     -11.618  11.208  69.371  1.00  0.00    -0.258 OA 
HETATM   16  C   UNL     1     -10.179  14.349  66.408  1.00  0.00    -0.289 C  
HETATM   17  C   UNL     1      -9.981  16.924  66.669  1.00  0.00    -0.302 C  
HETATM   18  C   UNL     1      -8.126  17.322  66.371  1.00  0.00    -0.328 C  
HETATM   19  C   UNL     1      -9.278  16.757  67.857  1.00  0.00    -0.225 C  
HETATM   20  O   UNL     1     -11.305  14.500  65.927  1.00  0.00    -0.333 OA 
ENDROOT
BRANCH   9  21
HETATM   21  C   UNL     1      -8.867   9.578  69.593  1.00  0.00    -0.187 C  
HETATM   22  H   UNL     1      -8.193   7.633  69.456  1.00  0.00     0.000 HD 
HETATM   23  O   UNL     1      -8.556   9.649  70.784  1.00  0.00    -0.227 OA 
HETATM   24  N   UNL     1      -8.738   8.356  68.985  1.00  0.00    -0.141 N  
BRANCH  24  25
HETATM   25  C   UNL     1      -9.331   8.049  67.720  1.00  0.00    -0.137 C  
BRANCH  25  26
HETATM   26  C   UNL     1      -9.186   6.688  67.142  1.00  0.00    -0.134 A  
HETATM   27  C   UNL     1      -7.693   4.982  66.266  1.00  0.00    -0.092 A  
HETATM   28  C   UNL     1      -8.669   4.028  66.512  1.00  0.00    -0.116 A  
HETATM   29  C   UNL     1      -7.962   6.306  66.582  1.00  0.00    -0.108 A  
HETATM   30  F   UNL     1      -6.987   7.212  66.417  1.00  0.00    -0.061 F  
HETATM   31  F   UNL     1      -8.409   2.744  66.241  1.00  0.00    -0.083 F  
HETATM   32  C   UNL     1      -9.898   4.373  67.062  1.00  0.00    -0.227 A  
HETATM   33  C   UNL     1     -10.146   5.704  67.377  1.00  0.00    -0.173 A  
HETATM   34  F   UNL     1     -11.291   6.022  67.994  1.00  0.00    -0.372 F  
ENDBRANCH  25  26
ENDBRANCH  24  25
ENDBRANCH   9  21
TORSDOF 3
ENDMDL
MODEL      132
REMARK 921   NORMALIZED FREE ENERGY PREDICTED BY IDOCK:   -5.50 KCAL/MOL
REMARK 922        TOTAL FREE ENERGY PREDICTED BY IDOCK:   -7.21 KCAL/MOL
REMARK 923 INTER-LIGAND FREE ENERGY PREDICTED BY IDOCK:   -7.42 KCAL/MOL
REMARK 924 INTRA-LIGAND FREE ENERGY PREDICTED BY IDOCK:    0.21 KCAL/MOL
REMARK 927      BINDING AFFINITY PREDICTED BY RF-SCORE:    0.00 PKD
ROOT
HETATM    1  O   UNL     1     -12.659   8.280  73.075  1.00  0.00    -0.680 OA 
HETATM    2  H   UNL     1     -13.456   8.695  73.384  1.00  0.00     0.000 HD 
HETATM    3  C   UNL     1     -11.841   8.695  72.040  1.00  0.00    -0.372 C  
HETATM    4  C   UNL     1     -10.706   8.105  71.600  1.00  0.00    -0.241 C  
HETATM    5  N   UNL     1      -9.985   8.624  70.507  1.00  0.00    -0.183 NA 
HETATM    6  C   UNL     1      -9.126   7.789  69.667  1.00  0.00    -0.146 C  
HETATM    7  C   UNL     1     -10.351   9.874  69.996  1.00  0.00    -0.272 C  
HETATM    8  C   UNL     1      -8.564   6.557  70.368  1.00  0.00    -0.146 C  
HETATM    9  C   UNL     1     -11.483  10.540  70.287  1.00  0.00    -0.416 C  
HETATM   10  C   UNL     1     -12.406   9.714  71.112  1.00  0.00    -0.339 C  
HETATM   11  O   UNL     1      -8.238   5.485  69.145  1.00  0.00    -0.094 OA 
HETATM   12  C   UNL     1      -9.338   3.038  70.278  1.00  0.00    -0.228 C  
HETATM   13  C   UNL     1      -8.193   3.966  69.431  1.00  0.00    -0.057 C  
HETATM   14  N   UNL     1      -9.512   5.934  71.596  1.00  0.00    -0.149 N  
HETATM   15  O   UNL     1     -13.626   9.711  70.971  1.00  0.00    -0.309 OA 
HETATM   16  C   UNL     1     -10.395   6.772  72.254  1.00  0.00    -0.196 C  
HETATM   17  C   UNL     1      -9.996   4.311  71.535  1.00  0.00    -0.243 C  
HETATM   18  C   UNL     1      -8.232   4.284  70.777  1.00  0.00    -0.079 C  
HETATM   19  C   UNL     1     -10.065   4.681  70.197  1.00  0.00    -0.283 C  
HETATM   20  O   UNL     1     -11.057   6.369  73.214  1.00  0.00    -0.223 OA 
ENDROOT
BRANCH   9  21
HETATM   21  C   UNL     1     -11.684  11.877  69.626  1.00  0.00    -0.343 C  
HETATM   22  H   UNL     1     -12.132  12.892  67.886  1.00  0.00     0.000 HD 
HETATM   23  O   UNL     1     -11.858  12.886  70.312  1.00  0.00    -0.305 OA 
HETATM   24  N   UNL     1     -11.739  12.030  68.264  1.00  0.00    -0.330 N  
BRANCH  24  25
HETATM   25  C   UNL     1     -11.268  11.036  67.350  1.00  0.00    -0.285 C  
BRANCH  25  26
HETATM   26  C   UNL     1     -10.539  11.444  66.120  1.00  0.00    -0.316 A  
HETATM   27  C   UNL     1      -9.495  10.757  64.036  1.00  0.00    -0.312 A  
HETATM   28  C   UNL     1      -9.614  12.059  63.570  1.00  0.00    -0.084 A  
HETATM   29  C   UNL     1      -9.957  10.463  65.310  1.00  0.00    -0.309 A  
HETATM   30  F   UNL     1      -9.912   9.188  65.725  1.00  0.00    -0.356 F  
HETATM   31  F   UNL     1      -9.201  12.348  62.331  1.00  0.00     0.780 F  
HETATM   32  C   UNL     1     -10.182  13.059  64.350  1.00  0.00    -0.335 A  
HETATM   33  C   UNL     1     -10.644  12.741  65.622  1.00  0.00    -0.275 A  
HETATM   34  F   UNL     1     -11.276  13.681  66.336  1.00  0.00    -0.295 F  
ENDBRANCH  25  26
ENDBRANCH  24  25
ENDBRANCH   9  21
TORSDOF 3
ENDMDL
MODEL      133
REMARK 921   NORMALIZED FREE ENERGY PREDICTED BY IDOCK:   -5.45 KCAL/MOL
REMARK 922        TOTAL FREE ENERGY PREDICTED BY IDOCK:   -7.15 KCAL/MOL
REMARK 923 INTER-LIGAND FREE ENERGY PREDICTED BY IDOCK:   -6.52 KCAL/MOL
REMARK 924 INTRA-LIGAND FREE ENERGY PREDICTED BY IDOCK:   -0.62 KCAL/MOL
REMARK 927      BINDING AFFINITY PREDICTED BY RF-SCORE:    0.00 PKD
ROOT
HETATM    1  O   UNL     1      -8.153  10.865  64.946  1.00  0.00    -0.363 OA 
HETATM    2  H   UNL     1      -8.068  11.805  65.058  1.00  0.00     0.000 HD 
HETATM    3  C   UNL     1      -8.843   9.980  65.756  1.00  0.00    -0.150 C  
HETATM    4  C   UNL     1      -8.965   8.642  65.595  1.00  0.00    -0.182 C  
HETATM    5  N   UNL     1      -9.677   7.854  66.521  1.00  0.00    -0.222 NA 
HETATM    6  C   UNL     1      -9.397   6.432  66.720  1.00  0.00    -0.147 C  
HETATM    7  C   UNL     1     -10.425   8.498  67.512  1.00  0.00    -0.258 C  
HETATM    8  C   UNL     1      -8.797   5.732  65.505  1.00  0.00    -0.119 C  
HETATM    9  C   UNL     1     -10.350   9.804  67.829  1.00  0.00    -0.274 C  
HETATM   10  C   UNL     1      -9.242  10.480  67.100  1.00  0.00    -0.143 C  
HETATM   11  O   UNL     1      -7.976   4.432  66.128  1.00  0.00    -0.098 OA 
HETATM   12  C   UNL     1      -5.487   4.610  64.628  1.00  0.00    -0.013 C  
HETATM   13  C   UNL     1      -6.801   3.804  65.343  1.00  0.00    -0.053 C  
HETATM   14  N   UNL     1      -7.886   6.703  64.494  1.00  0.00    -0.112 N  
HETATM   15  O   UNL     1      -8.526  11.342  67.600  1.00  0.00    -0.124 OA 
HETATM   16  C   UNL     1      -8.134   8.064  64.466  1.00  0.00    -0.132 C  
HETATM   17  C   UNL     1      -6.283   6.273  64.146  1.00  0.00    -0.030 C  
HETATM   18  C   UNL     1      -7.187   4.583  64.267  1.00  0.00    -0.058 C  
HETATM   19  C   UNL     1      -6.395   5.906  65.482  1.00  0.00    -0.042 C  
HETATM   20  O   UNL     1      -7.535   8.802  63.680  1.00  0.00    -0.101 OA 
ENDROOT
BRANCH   9  21
HETATM   21  C   UNL     1     -11.246  10.297  68.933  1.00  0.00    -0.207 C  
HETATM   22  H   UNL     1     -11.470  10.628  70.957  1.00  0.00     0.000 HD 
HETATM   23  O   UNL     1     -12.233  10.986  68.666  1.00  0.00    -0.571 OA 
HETATM   24  N   UNL     1     -10.990  10.060  70.259  1.00  0.00    -0.295 N  
BRANCH  24  25
HETATM   25  C   UNL     1     -10.079   9.052  70.707  1.00  0.00    -0.241 C  
BRANCH  25  26
HETATM   26  C   UNL     1     -10.522   8.038  71.700  1.00  0.00    -0.272 A  
HETATM   27  C   UNL     1     -11.722   5.966  72.115  1.00  0.00    -0.287 A  
HETATM   28  C   UNL     1     -11.022   5.821  73.304  1.00  0.00    -0.253 A  
HETATM   29  C   UNL     1     -11.467   7.077  71.325  1.00  0.00    -0.286 A  
HETATM   30  F   UNL     1     -12.089   7.172  70.139  1.00  0.00    -0.232 F  
HETATM   31  F   UNL     1     -11.236   4.738  74.060  1.00  0.00    -0.341 F  
HETATM   32  C   UNL     1     -10.080   6.760  73.709  1.00  0.00    -0.349 A  
HETATM   33  C   UNL     1      -9.835   7.862  72.899  1.00  0.00    -0.282 A  
HETATM   34  F   UNL     1      -8.862   8.716  73.243  1.00  0.00    -0.289 F  
ENDBRANCH  25  26
ENDBRANCH  24  25
ENDBRANCH   9  21
TORSDOF 3
ENDMDL
MODEL      134
REMARK 921   NORMALIZED FREE ENERGY PREDICTED BY IDOCK:   -5.44 KCAL/MOL
REMARK 922        TOTAL FREE ENERGY PREDICTED BY IDOCK:   -7.14 KCAL/MOL
REMARK 923 INTER-LIGAND FREE ENERGY PREDICTED BY IDOCK:   -6.57 KCAL/MOL
REMARK 924 INTRA-LIGAND FREE ENERGY PREDICTED BY IDOCK:   -0.56 KCAL/MOL
REMARK 927      BINDING AFFINITY PREDICTED BY RF-SCORE:    0.00 PKD
ROOT
HETATM    1  O   UNL     1     -10.293  12.464  65.786  1.00  0.00    -0.252 OA 
HETATM    2  H   UNL     1     -10.624  11.667  65.388  1.00  0.00     0.000 HD 
HETATM    3  C   UNL     1     -10.476  12.892  67.088  1.00  0.00    -0.238 C  
HETATM    4  C   UNL     1     -10.005  14.027  67.655  1.00  0.00    -0.237 C  
HETATM    5  N   UNL     1     -10.297  14.353  68.995  1.00  0.00    -0.225 NA 
HETATM    6  C   UNL     1     -10.306  15.733  69.481  1.00  0.00    -0.272 C  
HETATM    7  C   UNL     1     -10.922  13.394  69.797  1.00  0.00     0.243 C  
HETATM    8  C   UNL     1      -9.407  16.685  68.697  1.00  0.00    -0.247 C  
HETATM    9  C   UNL     1     -11.498  12.259  69.359  1.00  0.00    -0.341 C  
HETATM   10  C   UNL     1     -11.540  12.206  67.872  1.00  0.00    -0.347 C  
HETATM   11  O   UNL     1     -10.062  18.188  68.947  1.00  0.00    -0.381 OA 
HETATM   12  C   UNL     1      -9.998  19.250  66.236  1.00  0.00    -0.484 C  
HETATM   13  C   UNL     1      -9.819  19.323  67.925  1.00  0.00    -0.350 C  
HETATM   14  N   UNL     1      -9.175  16.291  67.089  1.00  0.00    -0.210 N  
HETATM   15  O   UNL     1     -12.486  11.753  67.234  1.00  0.00     0.135 OA 
HETATM   16  C   UNL     1      -9.314  14.973  66.692  1.00  0.00    -0.266 C  
HETATM   17  C   UNL     1      -9.550  17.430  65.889  1.00  0.00    -0.052 C  
HETATM   18  C   UNL     1      -8.876  18.501  67.334  1.00  0.00    -0.276 C  
HETATM   19  C   UNL     1     -10.564  17.644  66.816  1.00  0.00    -0.224 C  
HETATM   20  O   UNL     1      -9.079  14.632  65.531  1.00  0.00     0.216 OA 
ENDROOT
BRANCH   9  21
HETATM   21  C   UNL     1     -12.119  11.359  70.393  1.00  0.00    -0.384 C  
HETATM   22  H   UNL     1     -12.092   9.513  71.314  1.00  0.00     0.000 HD 
HETATM   23  O   UNL     1     -12.855  11.831  71.262  1.00  0.00    -0.386 OA 
HETATM   24  N   UNL     1     -11.862  10.013  70.456  1.00  0.00    -0.294 N  
BRANCH  24  25
HETATM   25  C   UNL     1     -11.286   9.279  69.371  1.00  0.00     0.052 C  
BRANCH  25  26
HETATM   26  C   UNL     1     -10.292   8.208  69.643  1.00  0.00    -0.221 A  
HETATM   27  C   UNL     1      -8.059   7.633  70.409  1.00  0.00    -0.113 A  
HETATM   28  C   UNL     1      -8.498   6.340  70.656  1.00  0.00    -0.134 A  
HETATM   29  C   UNL     1      -8.962   8.555  69.902  1.00  0.00    -0.145 A  
HETATM   30  F   UNL     1      -8.554   9.823  69.740  1.00  0.00    -0.135 F  
HETATM   31  F   UNL     1      -7.645   5.449  71.175  1.00  0.00    -0.084 F  
HETATM   32  C   UNL     1      -9.811   5.960  70.405  1.00  0.00    -0.231 A  
HETATM   33  C   UNL     1     -10.701   6.902  69.903  1.00  0.00    -0.246 A  
HETATM   34  F   UNL     1     -11.987   6.561  69.751  1.00  0.00    -0.443 F  
ENDBRANCH  25  26
ENDBRANCH  24  25
ENDBRANCH   9  21
TORSDOF 3
ENDMDL
MODEL      135
REMARK 921   NORMALIZED FREE ENERGY PREDICTED BY IDOCK:   -5.43 KCAL/MOL
REMARK 922        TOTAL FREE ENERGY PREDICTED BY IDOCK:   -7.13 KCAL/MOL
REMARK 923 INTER-LIGAND FREE ENERGY PREDICTED BY IDOCK:   -6.14 KCAL/MOL
REMARK 924 INTRA-LIGAND FREE ENERGY PREDICTED BY IDOCK:   -0.99 KCAL/MOL
REMARK 927      BINDING AFFINITY PREDICTED BY RF-SCORE:    0.00 PKD
ROOT
HETATM    1  O   UNL     1     -11.692   6.396  67.604  1.00  0.00    -0.528 OA 
HETATM    2  H   UNL     1     -12.442   6.837  67.987  1.00  0.00     0.000 HD 
HETATM    3  C   UNL     1     -10.415   6.902  67.434  1.00  0.00    -0.269 C  
HETATM    4  C   UNL     1      -9.348   6.273  66.889  1.00  0.00    -0.136 C  
HETATM    5  N   UNL     1      -8.106   6.925  66.749  1.00  0.00    -0.108 NA 
HETATM    6  C   UNL     1      -7.131   6.543  65.728  1.00  0.00    -0.062 C  
HETATM    7  C   UNL     1      -7.932   8.172  67.358  1.00  0.00    -0.117 C  
HETATM    8  C   UNL     1      -7.225   5.088  65.278  1.00  0.00    -0.067 C  
HETATM    9  C   UNL     1      -8.912   8.938  67.873  1.00  0.00    -0.142 C  
HETATM   10  C   UNL     1     -10.257   8.375  67.578  1.00  0.00    -0.243 C  
HETATM   11  O   UNL     1      -6.570   5.072  63.755  1.00  0.00    -0.032 OA 
HETATM   12  C   UNL     1      -8.529   3.437  62.353  1.00  0.00    -0.073 C  
HETATM   13  C   UNL     1      -6.963   3.966  62.749  1.00  0.00    -0.036 C  
HETATM   14  N   UNL     1      -8.746   4.401  65.383  1.00  0.00    -0.122 N  
HETATM   15  O   UNL     1     -11.235   9.062  67.296  1.00  0.00     0.175 OA 
HETATM   16  C   UNL     1      -9.654   4.913  66.293  1.00  0.00    -0.174 C  
HETATM   17  C   UNL     1      -9.447   3.714  64.000  1.00  0.00    -0.146 C  
HETATM   18  C   UNL     1      -7.579   3.316  63.804  1.00  0.00    -0.067 C  
HETATM   19  C   UNL     1      -8.794   4.821  63.471  1.00  0.00    -0.104 C  
HETATM   20  O   UNL     1     -10.758   4.387  66.452  1.00  0.00     0.021 OA 
ENDROOT
BRANCH   9  21
HETATM   21  C   UNL     1      -8.508  10.252  68.485  1.00  0.00    -0.121 C  
HETATM   22  H   UNL     1      -8.450  12.305  68.284  1.00  0.00     0.000 HD 
HETATM   23  O   UNL     1      -8.239  10.318  69.687  1.00  0.00    -0.167 OA 
HETATM   24  N   UNL     1      -8.471  11.423  67.772  1.00  0.00    -0.124 N  
BRANCH  24  25
HETATM   25  C   UNL     1      -8.462  11.463  66.342  1.00  0.00    -0.160 C  
BRANCH  25  26
HETATM   26  C   UNL     1      -9.657  11.949  65.605  1.00  0.00    -0.221 A  
HETATM   27  C   UNL     1     -10.891  13.852  64.731  1.00  0.00    -0.430 A  
HETATM   28  C   UNL     1     -11.548  12.999  63.856  1.00  0.00    -0.449 A  
HETATM   29  C   UNL     1      -9.953  13.317  65.601  1.00  0.00    -0.230 A  
HETATM   30  F   UNL     1      -9.263  14.156  66.389  1.00  0.00    -0.273 F  
HETATM   31  F   UNL     1     -12.433  13.508  62.990  1.00  0.00    -0.555 F  
HETATM   32  C   UNL     1     -11.283  11.635  63.837  1.00  0.00    -0.479 A  
HETATM   33  C   UNL     1     -10.334  11.121  64.712  1.00  0.00    -0.325 A  
HETATM   34  F   UNL     1     -10.012   9.823  64.629  1.00  0.00    -0.373 F  
ENDBRANCH  25  26
ENDBRANCH  24  25
ENDBRANCH   9  21
TORSDOF 3
ENDMDL
MODEL      136
REMARK 921   NORMALIZED FREE ENERGY PREDICTED BY IDOCK:   -5.42 KCAL/MOL
REMARK 922        TOTAL FREE ENERGY PREDICTED BY IDOCK:   -7.12 KCAL/MOL
REMARK 923 INTER-LIGAND FREE ENERGY PREDICTED BY IDOCK:   -6.54 KCAL/MOL
REMARK 924 INTRA-LIGAND FREE ENERGY PREDICTED BY IDOCK:   -0.58 KCAL/MOL
REMARK 927      BINDING AFFINITY PREDICTED BY RF-SCORE:    0.00 PKD
ROOT
HETATM    1  O   UNL     1     -12.400   6.763  69.873  1.00  0.00    -0.581 OA 
HETATM    2  H   UNL     1     -13.105   7.004  69.282  1.00  0.00     0.000 HD 
HETATM    3  C   UNL     1     -11.048   6.702  69.589  1.00  0.00    -0.334 C  
HETATM    4  C   UNL     1     -10.045   6.359  70.431  1.00  0.00    -0.185 C  
HETATM    5  N   UNL     1      -8.706   6.310  69.995  1.00  0.00    -0.140 NA 
HETATM    6  C   UNL     1      -7.704   5.460  70.637  1.00  0.00    -0.089 C  
HETATM    7  C   UNL     1      -8.397   6.808  68.725  1.00  0.00    -0.121 C  
HETATM    8  C   UNL     1      -7.985   5.150  72.104  1.00  0.00    -0.112 C  
HETATM    9  C   UNL     1      -9.287   7.119  67.765  1.00  0.00    -0.131 C  
HETATM   10  C   UNL     1     -10.668   6.717  68.150  1.00  0.00    -0.236 C  
HETATM   11  O   UNL     1      -7.183   3.729  72.398  1.00  0.00    -0.046 OA 
HETATM   12  C   UNL     1      -9.222   2.266  73.874  1.00  0.00    -0.088 C  
HETATM   13  C   UNL     1      -7.642   2.797  73.544  1.00  0.00    -0.051 C  
HETATM   14  N   UNL     1      -9.600   5.134  72.537  1.00  0.00    -0.148 N  
HETATM   15  O   UNL     1     -11.485   6.249  67.362  1.00  0.00    -0.110 OA 
HETATM   16  C   UNL     1     -10.504   5.869  71.791  1.00  0.00    -0.227 C  
HETATM   17  C   UNL     1     -10.253   3.751  73.270  1.00  0.00    -0.220 C  
HETATM   18  C   UNL     1      -8.464   3.828  73.965  1.00  0.00    -0.086 C  
HETATM   19  C   UNL     1      -9.375   3.198  72.344  1.00  0.00    -0.163 C  
HETATM   20  O   UNL     1     -11.689   5.941  72.122  1.00  0.00    -0.294 OA 
ENDROOT
BRANCH   9  21
HETATM   21  C   UNL     1      -8.742   7.642  66.464  1.00  0.00    -0.149 C  
HETATM   22  H   UNL     1      -8.066   9.283  65.411  1.00  0.00     0.000 HD 
HETATM   23  O   UNL     1      -8.287   6.861  65.626  1.00  0.00    -0.138 OA 
HETATM   24  N   UNL     1      -8.673   8.981  66.173  1.00  0.00    -0.139 N  
BRANCH  24  25
HETATM   25  C   UNL     1      -9.414   9.972  66.890  1.00  0.00    -0.166 C  
BRANCH  25  26
HETATM   26  C   UNL     1      -9.476  11.366  66.380  1.00  0.00    -0.224 A  
HETATM   27  C   UNL     1     -10.441  12.921  64.780  1.00  0.00    -0.371 A  
HETATM   28  C   UNL     1     -10.084  13.971  65.614  1.00  0.00    -0.322 A  
HETATM   29  C   UNL     1     -10.131  11.627  65.171  1.00  0.00    -0.262 A  
HETATM   30  F   UNL     1     -10.548  10.611  64.401  1.00  0.00    -0.430 F  
HETATM   31  F   UNL     1     -10.406  15.221  65.264  1.00  0.00    -0.329 F  
HETATM   32  C   UNL     1      -9.429  13.748  66.820  1.00  0.00    -0.281 A  
HETATM   33  C   UNL     1      -9.133  12.443  67.195  1.00  0.00    -0.199 A  
HETATM   34  F   UNL     1      -8.586  12.223  68.398  1.00  0.00    -0.163 F  
ENDBRANCH  25  26
ENDBRANCH  24  25
ENDBRANCH   9  21
TORSDOF 3
ENDMDL
MODEL      137
REMARK 921   NORMALIZED FREE ENERGY PREDICTED BY IDOCK:   -5.42 KCAL/MOL
REMARK 922        TOTAL FREE ENERGY PREDICTED BY IDOCK:   -7.11 KCAL/MOL
REMARK 923 INTER-LIGAND FREE ENERGY PREDICTED BY IDOCK:   -6.44 KCAL/MOL
REMARK 924 INTRA-LIGAND FREE ENERGY PREDICTED BY IDOCK:   -0.67 KCAL/MOL
REMARK 927      BINDING AFFINITY PREDICTED BY RF-SCORE:    0.00 PKD
ROOT
HETATM    1  O   UNL     1     -10.591   9.448  71.149  1.00  0.00    -0.295 OA 
HETATM    2  H   UNL     1     -11.087  10.041  71.703  1.00  0.00     0.000 HD 
HETATM    3  C   UNL     1     -10.433   9.515  69.777  1.00  0.00    -0.231 C  
HETATM    4  C   UNL     1      -9.728   8.671  68.988  1.00  0.00    -0.173 C  
HETATM    5  N   UNL     1      -9.677   8.844  67.590  1.00  0.00    -0.154 NA 
HETATM    6  C   UNL     1      -9.429   7.733  66.672  1.00  0.00    -0.205 C  
HETATM    7  C   UNL     1     -10.210  10.015  67.041  1.00  0.00    -0.237 C  
HETATM    8  C   UNL     1      -8.629   6.583  67.275  1.00  0.00    -0.111 C  
HETATM    9  C   UNL     1     -10.988  10.903  67.687  1.00  0.00    -0.350 C  
HETATM   10  C   UNL     1     -11.364  10.415  69.042  1.00  0.00    -0.219 C  
HETATM   11  O   UNL     1      -9.044   5.257  66.370  1.00  0.00    -0.129 OA 
HETATM   12  C   UNL     1      -9.468   3.290  68.475  1.00  0.00    -0.206 C  
HETATM   13  C   UNL     1      -8.913   3.835  66.964  1.00  0.00    -0.143 C  
HETATM   14  N   UNL     1      -8.803   6.374  68.925  1.00  0.00    -0.125 N  
HETATM   15  O   UNL     1     -12.471  10.586  69.543  1.00  0.00    -0.201 OA 
HETATM   16  C   UNL     1      -9.169   7.457  69.704  1.00  0.00    -0.146 C  
HETATM   17  C   UNL     1      -9.309   4.872  69.527  1.00  0.00    -0.190 C  
HETATM   18  C   UNL     1      -8.219   4.409  68.015  1.00  0.00    -0.094 C  
HETATM   19  C   UNL     1     -10.063   4.984  68.364  1.00  0.00    -0.176 C  
HETATM   20  O   UNL     1      -9.236   7.361  70.932  1.00  0.00    -0.154 OA 
ENDROOT
BRANCH   9  21
HETATM   21  C   UNL     1     -11.457  12.102  66.908  1.00  0.00    -0.351 C  
HETATM   22  H   UNL     1     -11.010  13.993  66.214  1.00  0.00     0.000 HD 
HETATM   23  O   UNL     1     -12.432  12.009  66.158  1.00  0.00    -0.213 OA 
HETATM   24  N   UNL     1     -10.811  13.311  66.946  1.00  0.00    -0.275 N  
BRANCH  24  25
HETATM   25  C   UNL     1      -9.872  13.659  67.967  1.00  0.00    -0.244 C  
BRANCH  25  26
HETATM   26  C   UNL     1      -9.047  14.888  67.830  1.00  0.00    -0.182 A  
HETATM   27  C   UNL     1      -8.706  17.208  68.468  1.00  0.00    -0.261 A  
HETATM   28  C   UNL     1      -7.380  17.100  68.077  1.00  0.00    -0.189 A  
HETATM   29  C   UNL     1      -9.530  16.099  68.338  1.00  0.00    -0.210 A  
HETATM   30  F   UNL     1     -10.790  16.184  68.790  1.00  0.00    -0.244 F  
HETATM   31  F   UNL     1      -6.568  18.153  68.228  1.00  0.00    -0.187 F  
HETATM   32  C   UNL     1      -6.869  15.914  67.564  1.00  0.00    -0.213 A  
HETATM   33  C   UNL     1      -7.709  14.813  67.448  1.00  0.00    -0.204 A  
HETATM   34  F   UNL     1      -7.195  13.645  67.042  1.00  0.00    -0.127 F  
ENDBRANCH  25  26
ENDBRANCH  24  25
ENDBRANCH   9  21
TORSDOF 3
ENDMDL
MODEL      138
REMARK 921   NORMALIZED FREE ENERGY PREDICTED BY IDOCK:   -5.40 KCAL/MOL
REMARK 922        TOTAL FREE ENERGY PREDICTED BY IDOCK:   -7.09 KCAL/MOL
REMARK 923 INTER-LIGAND FREE ENERGY PREDICTED BY IDOCK:   -6.44 KCAL/MOL
REMARK 924 INTRA-LIGAND FREE ENERGY PREDICTED BY IDOCK:   -0.65 KCAL/MOL
REMARK 927      BINDING AFFINITY PREDICTED BY RF-SCORE:    0.00 PKD
ROOT
HETATM    1  O   UNL     1      -9.766   7.367  65.734  1.00  0.00    -0.354 OA 
HETATM    2  H   UNL     1      -9.594   7.528  64.813  1.00  0.00     0.000 HD 
HETATM    3  C   UNL     1      -9.271   8.069  66.818  1.00  0.00    -0.165 C  
HETATM    4  C   UNL     1      -9.516   7.839  68.129  1.00  0.00    -0.146 C  
HETATM    5  N   UNL     1      -8.915   8.622  69.135  1.00  0.00    -0.141 NA 
HETATM    6  C   UNL     1      -8.692   8.117  70.490  1.00  0.00    -0.135 C  
HETATM    7  C   UNL     1      -8.208   9.768  68.760  1.00  0.00    -0.108 C  
HETATM    8  C   UNL     1      -9.661   7.023  70.925  1.00  0.00    -0.176 C  
HETATM    9  C   UNL     1      -7.832  10.084  67.507  1.00  0.00    -0.095 C  
HETATM   10  C   UNL     1      -8.120   8.976  66.555  1.00  0.00    -0.111 C  
HETATM   11  O   UNL     1      -8.852   6.183  72.103  1.00  0.00    -0.138 OA 
HETATM   12  C   UNL     1      -9.420   3.446  71.288  1.00  0.00    -0.224 C  
HETATM   13  C   UNL     1      -9.220   4.711  72.404  1.00  0.00    -0.125 C  
HETATM   14  N   UNL     1     -10.268   6.071  69.692  1.00  0.00    -0.191 N  
HETATM   15  O   UNL     1      -7.374   8.662  65.631  1.00  0.00    -0.082 OA 
HETATM   16  C   UNL     1     -10.323   6.586  68.409  1.00  0.00    -0.189 C  
HETATM   17  C   UNL     1     -10.075   4.388  69.765  1.00  0.00    -0.101 C  
HETATM   18  C   UNL     1     -10.332   4.893  71.600  1.00  0.00    -0.241 C  
HETATM   19  C   UNL     1      -8.870   4.839  70.291  1.00  0.00    -0.137 C  
HETATM   20  O   UNL     1     -10.832   5.943  67.488  1.00  0.00    -0.276 OA 
ENDROOT
BRANCH   9  21
HETATM   21  C   UNL     1      -7.075  11.370  67.319  1.00  0.00    -0.119 C  
HETATM   22  H   UNL     1      -6.867  13.348  67.871  1.00  0.00     0.000 HD 
HETATM   23  O   UNL     1      -5.976  11.365  66.760  1.00  0.00    -0.114 OA 
HETATM   24  N   UNL     1      -7.528  12.574  67.794  1.00  0.00    -0.117 N  
BRANCH  24  25
HETATM   25  C   UNL     1      -8.886  12.795  68.187  1.00  0.00    -0.194 C  
BRANCH  25  26
HETATM   26  C   UNL     1      -9.887  13.238  67.182  1.00  0.00    -0.237 A  
HETATM   27  C   UNL     1     -12.085  12.910  66.199  1.00  0.00    -0.458 A  
HETATM   28  C   UNL     1     -12.044  14.212  65.720  1.00  0.00    -0.420 A  
HETATM   29  C   UNL     1     -11.003  12.434  66.924  1.00  0.00    -0.265 A  
HETATM   30  F   UNL     1     -11.082  11.204  67.452  1.00  0.00    -0.275 F  
HETATM   31  F   UNL     1     -13.095  14.693  65.046  1.00  0.00    -0.307 F  
HETATM   32  C   UNL     1     -10.949  15.035  65.953  1.00  0.00    -0.343 A  
HETATM   33  C   UNL     1      -9.878  14.541  66.687  1.00  0.00    -0.273 A  
HETATM   34  F   UNL     1      -8.865  15.363  66.991  1.00  0.00    -0.187 F  
ENDBRANCH  25  26
ENDBRANCH  24  25
ENDBRANCH   9  21
TORSDOF 3
ENDMDL
MODEL      139
REMARK 921   NORMALIZED FREE ENERGY PREDICTED BY IDOCK:   -5.39 KCAL/MOL
REMARK 922        TOTAL FREE ENERGY PREDICTED BY IDOCK:   -7.08 KCAL/MOL
REMARK 923 INTER-LIGAND FREE ENERGY PREDICTED BY IDOCK:   -7.76 KCAL/MOL
REMARK 924 INTRA-LIGAND FREE ENERGY PREDICTED BY IDOCK:    0.68 KCAL/MOL
REMARK 927      BINDING AFFINITY PREDICTED BY RF-SCORE:    0.00 PKD
ROOT
HETATM    1  O   UNL     1     -10.290   5.589  73.322  1.00  0.00    -0.183 OA 
HETATM    2  H   UNL     1     -10.986   5.044  73.671  1.00  0.00     0.000 HD 
HETATM    3  C   UNL     1     -10.416   6.819  72.701  1.00  0.00    -0.213 C  
HETATM    4  C   UNL     1      -9.425   7.595  72.203  1.00  0.00    -0.155 C  
HETATM    5  N   UNL     1      -9.704   8.820  71.565  1.00  0.00    -0.264 NA 
HETATM    6  C   UNL     1      -8.809   9.404  70.567  1.00  0.00    -0.239 C  
HETATM    7  C   UNL     1     -11.008   9.322  71.619  1.00  0.00    -0.363 C  
HETATM    8  C   UNL     1      -7.346   8.997  70.715  1.00  0.00    -0.109 C  
HETATM    9  C   UNL     1     -12.097   8.639  72.019  1.00  0.00    -0.442 C  
HETATM   10  C   UNL     1     -11.784   7.203  72.256  1.00  0.00    -0.258 C  
HETATM   11  O   UNL     1      -6.699   9.183  69.199  1.00  0.00    -0.049 OA 
HETATM   12  C   UNL     1      -5.182   6.708  68.964  1.00  0.00    -0.013 C  
HETATM   13  C   UNL     1      -5.446   8.377  68.783  1.00  0.00    -0.036 C  
HETATM   14  N   UNL     1      -7.086   7.492  71.396  1.00  0.00    -0.058 N  
HETATM   15  O   UNL     1     -12.544   6.285  71.964  1.00  0.00    -0.269 OA 
HETATM   16  C   UNL     1      -8.050   6.956  72.231  1.00  0.00    -0.093 C  
HETATM   17  C   UNL     1      -6.168   6.342  70.554  1.00  0.00    -0.039 C  
HETATM   18  C   UNL     1      -5.322   8.008  70.110  1.00  0.00    -0.023 C  
HETATM   19  C   UNL     1      -6.873   6.957  69.525  1.00  0.00    -0.051 C  
HETATM   20  O   UNL     1      -7.863   5.884  72.811  1.00  0.00    -0.103 OA 
ENDROOT
BRANCH   9  21
HETATM   21  C   UNL     1     -13.412   9.370  72.002  1.00  0.00    -0.449 C  
HETATM   22  H   UNL     1     -14.612  10.741  71.034  1.00  0.00     0.000 HD 
HETATM   23  O   UNL     1     -14.352   8.968  72.692  1.00  0.00    -0.603 OA 
HETATM   24  N   UNL     1     -13.647  10.457  71.199  1.00  0.00    -0.078 N  
BRANCH  24  25
HETATM   25  C   UNL     1     -12.598  11.209  70.582  1.00  0.00    -0.318 C  
BRANCH  25  26
HETATM   26  C   UNL     1     -12.566  12.689  70.720  1.00  0.00    -0.302 A  
HETATM   27  C   UNL     1     -12.947  14.623  72.142  1.00  0.00    -0.421 A  
HETATM   28  C   UNL     1     -12.115  15.368  71.319  1.00  0.00    -0.366 A  
HETATM   29  C   UNL     1     -13.167  13.288  71.832  1.00  0.00    -0.431 A  
HETATM   30  F   UNL     1     -13.907  12.552  72.674  1.00  0.00    -0.553 F  
HETATM   31  F   UNL     1     -11.870  16.647  71.625  1.00  0.00    -0.457 F  
HETATM   32  C   UNL     1     -11.506  14.805  70.203  1.00  0.00    -0.313 A  
HETATM   33  C   UNL     1     -11.735  13.465  69.914  1.00  0.00    -0.267 A  
HETATM   34  F   UNL     1     -11.075  12.900  68.895  1.00  0.00    -0.246 F  
ENDBRANCH  25  26
ENDBRANCH  24  25
ENDBRANCH   9  21
TORSDOF 3
ENDMDL
MODEL      140
REMARK 921   NORMALIZED FREE ENERGY PREDICTED BY IDOCK:   -5.39 KCAL/MOL
REMARK 922        TOTAL FREE ENERGY PREDICTED BY IDOCK:   -7.08 KCAL/MOL
REMARK 923 INTER-LIGAND FREE ENERGY PREDICTED BY IDOCK:   -6.68 KCAL/MOL
REMARK 924 INTRA-LIGAND FREE ENERGY PREDICTED BY IDOCK:   -0.40 KCAL/MOL
REMARK 927      BINDING AFFINITY PREDICTED BY RF-SCORE:    0.00 PKD
ROOT
HETATM    1  O   UNL     1      -9.592  12.203  64.843  1.00  0.00    -0.439 OA 
HETATM    2  H   UNL     1      -9.796  13.118  65.002  1.00  0.00     0.000 HD 
HETATM    3  C   UNL     1      -9.780  11.138  65.706  1.00  0.00    -0.225 C  
HETATM    4  C   UNL     1      -9.490   9.835  65.480  1.00  0.00    -0.262 C  
HETATM    5  N   UNL     1      -9.708   8.854  66.467  1.00  0.00    -0.232 NA 
HETATM    6  C   UNL     1      -8.948   7.605  66.512  1.00  0.00    -0.158 C  
HETATM    7  C   UNL     1     -10.411   9.211  67.622  1.00  0.00    -0.261 C  
HETATM    8  C   UNL     1      -8.408   7.146  65.161  1.00  0.00    -0.081 C  
HETATM    9  C   UNL     1     -10.703  10.467  68.008  1.00  0.00    -0.292 C  
HETATM   10  C   UNL     1     -10.044  11.474  67.132  1.00  0.00    -0.197 C  
HETATM   11  O   UNL     1      -7.102   6.192  65.529  1.00  0.00    -0.065 OA 
HETATM   12  C   UNL     1      -5.157   7.189  63.605  1.00  0.00    -0.029 C  
HETATM   13  C   UNL     1      -5.968   5.991  64.497  1.00  0.00    -0.025 C  
HETATM   14  N   UNL     1      -8.082   8.367  64.066  1.00  0.00    -0.154 N  
HETATM   15  O   UNL     1      -9.562  12.524  67.546  1.00  0.00    -0.180 OA 
HETATM   16  C   UNL     1      -8.759   9.569  64.178  1.00  0.00    -0.215 C  
HETATM   17  C   UNL     1      -6.530   8.495  63.395  1.00  0.00    -0.085 C  
HETATM   18  C   UNL     1      -6.793   6.600  63.568  1.00  0.00    -0.049 C  
HETATM   19  C   UNL     1      -6.248   8.109  64.701  1.00  0.00    -0.056 C  
HETATM   20  O   UNL     1      -8.602  10.466  63.346  1.00  0.00    -0.172 OA 
ENDROOT
BRANCH   9  21
HETATM   21  C   UNL     1     -11.472  10.632  69.291  1.00  0.00    -0.281 C  
HETATM   22  H   UNL     1     -11.416  10.597  71.353  1.00  0.00     0.000 HD 
HETATM   23  O   UNL     1     -12.570  11.191  69.286  1.00  0.00    -0.336 OA 
HETATM   24  N   UNL     1     -10.981  10.230  70.507  1.00  0.00    -0.307 N  
BRANCH  24  25
HETATM   25  C   UNL     1      -9.886   9.319  70.642  1.00  0.00    -0.270 C  
BRANCH  25  26
HETATM   26  C   UNL     1     -10.069   8.043  71.381  1.00  0.00    -0.228 A  
HETATM   27  C   UNL     1      -9.768   6.817  73.458  1.00  0.00    -0.228 A  
HETATM   28  C   UNL     1     -10.753   5.928  73.053  1.00  0.00    -0.256 A  
HETATM   29  C   UNL     1      -9.433   7.866  72.615  1.00  0.00    -0.222 A  
HETATM   30  F   UNL     1      -8.538   8.769  73.044  1.00  0.00    -0.243 F  
HETATM   31  F   UNL     1     -11.107   4.930  73.871  1.00  0.00    -0.329 F  
HETATM   32  C   UNL     1     -11.401   6.070  71.831  1.00  0.00    -0.335 A  
HETATM   33  C   UNL     1     -11.054   7.132  71.005  1.00  0.00    -0.260 A  
HETATM   34  F   UNL     1     -11.743   7.323  69.872  1.00  0.00    -0.206 F  
ENDBRANCH  25  26
ENDBRANCH  24  25
ENDBRANCH   9  21
TORSDOF 3
ENDMDL
MODEL      141
REMARK 921   NORMALIZED FREE ENERGY PREDICTED BY IDOCK:   -5.38 KCAL/MOL
REMARK 922        TOTAL FREE ENERGY PREDICTED BY IDOCK:   -7.07 KCAL/MOL
REMARK 923 INTER-LIGAND FREE ENERGY PREDICTED BY IDOCK:   -6.40 KCAL/MOL
REMARK 924 INTRA-LIGAND FREE ENERGY PREDICTED BY IDOCK:   -0.67 KCAL/MOL
REMARK 927      BINDING AFFINITY PREDICTED BY RF-SCORE:    0.00 PKD
ROOT
HETATM    1  O   UNL     1      -5.772   9.880  71.836  1.00  0.00    -0.255 OA 
HETATM    2  H   UNL     1      -5.141  10.532  72.121  1.00  0.00     0.000 HD 
HETATM    3  C   UNL     1      -6.501   9.874  70.661  1.00  0.00    -0.106 C  
HETATM    4  C   UNL     1      -7.399   8.946  70.255  1.00  0.00    -0.067 C  
HETATM    5  N   UNL     1      -8.095   9.083  69.038  1.00  0.00    -0.105 NA 
HETATM    6  C   UNL     1      -9.403   8.469  68.810  1.00  0.00    -0.143 C  
HETATM    7  C   UNL     1      -7.708  10.096  68.155  1.00  0.00    -0.088 C  
HETATM    8  C   UNL     1      -9.666   7.218  69.642  1.00  0.00    -0.159 C  
HETATM    9  C   UNL     1      -6.884  11.119  68.446  1.00  0.00    -0.066 C  
HETATM   10  C   UNL     1      -6.542  11.150  69.895  1.00  0.00    -0.129 C  
HETATM   11  O   UNL     1     -11.318   7.114  69.742  1.00  0.00    -0.215 OA 
HETATM   12  C   UNL     1     -11.642   6.514  72.573  1.00  0.00    -0.243 C  
HETATM   13  C   UNL     1     -11.983   6.357  70.916  1.00  0.00    -0.193 C  
HETATM   14  N   UNL     1      -8.881   7.158  71.117  1.00  0.00    -0.143 N  
HETATM   15  O   UNL     1      -6.433  12.184  70.546  1.00  0.00    -0.071 OA 
HETATM   16  C   UNL     1      -7.712   7.879  71.286  1.00  0.00    -0.086 C  
HETATM   17  C   UNL     1      -9.785   6.944  72.536  1.00  0.00    -0.169 C  
HETATM   18  C   UNL     1     -10.723   5.884  71.238  1.00  0.00    -0.325 C  
HETATM   19  C   UNL     1     -10.618   7.766  71.786  1.00  0.00    -0.260 C  
HETATM   20  O   UNL     1      -7.064   7.802  72.333  1.00  0.00    -0.071 OA 
ENDROOT
BRANCH   9  21
HETATM   21  C   UNL     1      -6.594  12.105  67.347  1.00  0.00    -0.147 C  
HETATM   22  H   UNL     1      -7.047  13.933  66.504  1.00  0.00     0.000 HD 
HETATM   23  O   UNL     1      -5.559  12.006  66.684  1.00  0.00    -0.298 OA 
HETATM   24  N   UNL     1      -7.416  13.167  67.067  1.00  0.00     0.061 N  
BRANCH  24  25
HETATM   25  C   UNL     1      -8.767  13.248  67.529  1.00  0.00    -0.202 C  
BRANCH  25  26
HETATM   26  C   UNL     1      -9.888  13.241  66.552  1.00  0.00    -0.281 A  
HETATM   27  C   UNL     1     -11.559  14.527  65.344  1.00  0.00    -0.355 A  
HETATM   28  C   UNL     1     -11.653  13.498  64.418  1.00  0.00    -0.396 A  
HETATM   29  C   UNL     1     -10.678  14.387  66.406  1.00  0.00    -0.306 A  
HETATM   30  F   UNL     1     -10.532  15.417  67.253  1.00  0.00    -0.260 F  
HETATM   31  F   UNL     1     -12.477  13.634  63.372  1.00  0.00    -0.516 F  
HETATM   32  C   UNL     1     -10.887  12.344  64.537  1.00  0.00    -0.358 A  
HETATM   33  C   UNL     1     -10.006  12.227  65.604  1.00  0.00    -0.251 A  
HETATM   34  F   UNL     1      -9.201  11.158  65.666  1.00  0.00    -0.201 F  
ENDBRANCH  25  26
ENDBRANCH  24  25
ENDBRANCH   9  21
TORSDOF 3
ENDMDL
MODEL      142
REMARK 921   NORMALIZED FREE ENERGY PREDICTED BY IDOCK:   -5.34 KCAL/MOL
REMARK 922        TOTAL FREE ENERGY PREDICTED BY IDOCK:   -7.02 KCAL/MOL
REMARK 923 INTER-LIGAND FREE ENERGY PREDICTED BY IDOCK:   -7.23 KCAL/MOL
REMARK 924 INTRA-LIGAND FREE ENERGY PREDICTED BY IDOCK:    0.21 KCAL/MOL
REMARK 927      BINDING AFFINITY PREDICTED BY RF-SCORE:    0.00 PKD
ROOT
HETATM    1  O   UNL     1     -11.477   8.943  72.236  1.00  0.00    -0.348 OA 
HETATM    2  H   UNL     1     -12.002   9.011  73.025  1.00  0.00     0.000 HD 
HETATM    3  C   UNL     1     -11.411   9.845  71.189  1.00  0.00    -0.370 C  
HETATM    4  C   UNL     1     -10.663   9.747  70.065  1.00  0.00    -0.283 C  
HETATM    5  N   UNL     1     -10.719  10.733  69.060  1.00  0.00    -0.213 NA 
HETATM    6  C   UNL     1     -10.401  10.445  67.662  1.00  0.00    -0.219 C  
HETATM    7  C   UNL     1     -11.413  11.919  69.322  1.00  0.00    -0.306 C  
HETATM    8  C   UNL     1      -9.440   9.278  67.460  1.00  0.00    -0.160 C  
HETATM    9  C   UNL     1     -12.247  12.128  70.358  1.00  0.00    -0.378 C  
HETATM   10  C   UNL     1     -12.482  10.877  71.131  1.00  0.00    -0.405 C  
HETATM   11  O   UNL     1      -9.756   8.729  65.928  1.00  0.00    -0.237 OA 
HETATM   12  C   UNL     1      -9.824   5.856  66.399  1.00  0.00    -0.161 C  
HETATM   13  C   UNL     1      -9.427   7.268  65.540  1.00  0.00     0.631 C  
HETATM   14  N   UNL     1      -9.489   8.096  68.641  1.00  0.00    -0.147 N  
HETATM   15  O   UNL     1     -13.569  10.568  71.610  1.00  0.00    -0.225 OA 
HETATM   16  C   UNL     1      -9.928   8.430  69.910  1.00  0.00    -0.190 C  
HETATM   17  C   UNL     1      -9.782   6.485  68.197  1.00  0.00    -0.126 C  
HETATM   18  C   UNL     1      -8.741   7.173  66.738  1.00  0.00    -0.128 C  
HETATM   19  C   UNL     1     -10.614   7.180  67.326  1.00  0.00    -0.398 C  
HETATM   20  O   UNL     1      -9.908   7.605  70.826  1.00  0.00    -0.178 OA 
ENDROOT
BRANCH   9  21
HETATM   21  C   UNL     1     -12.897  13.481  70.456  1.00  0.00    -0.061 C  
HETATM   22  H   UNL     1     -13.010  15.400  69.706  1.00  0.00     0.000 HD 
HETATM   23  O   UNL     1     -13.946  13.619  71.088  1.00  0.00     0.038 OA 
HETATM   24  N   UNL     1     -12.400  14.591  69.820  1.00  0.00    -0.302 N  
BRANCH  24  25
HETATM   25  C   UNL     1     -11.065  14.663  69.311  1.00  0.00    -0.269 C  
BRANCH  25  26
HETATM   26  C   UNL     1     -10.684  15.756  68.379  1.00  0.00    -0.281 A  
HETATM   27  C   UNL     1     -10.615  16.564  66.088  1.00  0.00    -0.239 A  
HETATM   28  C   UNL     1     -10.489  17.859  66.569  1.00  0.00    -0.313 A  
HETATM   29  C   UNL     1     -10.709  15.523  67.000  1.00  0.00    -0.321 A  
HETATM   30  F   UNL     1     -10.910  14.282  66.532  1.00  0.00    -0.291 F  
HETATM   31  F   UNL     1     -10.429  18.875  65.700  1.00  0.00    -0.450 F  
HETATM   32  C   UNL     1     -10.455  18.126  67.933  1.00  0.00    -0.408 A  
HETATM   33  C   UNL     1     -10.557  17.069  68.829  1.00  0.00    -0.346 A  
HETATM   34  F   UNL     1     -10.620  17.335  70.140  1.00  0.00    -0.150 F  
ENDBRANCH  25  26
ENDBRANCH  24  25
ENDBRANCH   9  21
TORSDOF 3
ENDMDL
MODEL      143
REMARK 921   NORMALIZED FREE ENERGY PREDICTED BY IDOCK:   -5.34 KCAL/MOL
REMARK 922        TOTAL FREE ENERGY PREDICTED BY IDOCK:   -7.02 KCAL/MOL
REMARK 923 INTER-LIGAND FREE ENERGY PREDICTED BY IDOCK:   -6.57 KCAL/MOL
REMARK 924 INTRA-LIGAND FREE ENERGY PREDICTED BY IDOCK:   -0.45 KCAL/MOL
REMARK 927      BINDING AFFINITY PREDICTED BY RF-SCORE:    0.00 PKD
ROOT
HETATM    1  O   UNL     1     -10.074   9.271  69.547  1.00  0.00    -0.183 OA 
HETATM    2  H   UNL     1     -10.640   9.627  70.223  1.00  0.00     0.000 HD 
HETATM    3  C   UNL     1      -9.997   9.663  68.223  1.00  0.00    -0.155 C  
HETATM    4  C   UNL     1      -9.193   9.155  67.260  1.00  0.00    -0.133 C  
HETATM    5  N   UNL     1      -9.242   9.634  65.936  1.00  0.00    -0.179 NA 
HETATM    6  C   UNL     1      -8.845   8.814  64.791  1.00  0.00    -0.045 C  
HETATM    7  C   UNL     1     -10.000  10.778  65.665  1.00  0.00    -0.260 C  
HETATM    8  C   UNL     1      -7.825   7.728  65.116  1.00  0.00    -0.123 C  
HETATM    9  C   UNL     1     -10.891  11.345  66.499  1.00  0.00    -0.334 C  
HETATM   10  C   UNL     1     -11.108  10.513  67.714  1.00  0.00    -0.317 C  
HETATM   11  O   UNL     1      -8.042   6.577  63.942  1.00  0.00    -0.105 OA 
HETATM   12  C   UNL     1      -8.008   4.156  65.559  1.00  0.00    -0.097 C  
HETATM   13  C   UNL     1      -7.632   5.109  64.203  1.00  0.00    -0.069 C  
HETATM   14  N   UNL     1      -7.880   7.137  66.679  1.00  0.00    -0.107 N  
HETATM   15  O   UNL     1     -12.202  10.365  68.250  1.00  0.00    -0.034 OA 
HETATM   16  C   UNL     1      -8.394   7.938  67.684  1.00  0.00    -0.124 C  
HETATM   17  C   UNL     1      -8.081   5.473  66.936  1.00  0.00    -0.101 C  
HETATM   18  C   UNL     1      -7.001   5.558  65.350  1.00  0.00    -0.064 C  
HETATM   19  C   UNL     1      -8.899   5.695  65.833  1.00  0.00    -0.154 C  
HETATM   20  O   UNL     1      -8.382   7.567  68.860  1.00  0.00    -0.127 OA 
ENDROOT
BRANCH   9  21
HETATM   21  C   UNL     1     -11.603  12.578  66.010  1.00  0.00    -0.406 C  
HETATM   22  H   UNL     1     -11.516  14.618  65.714  1.00  0.00     0.000 HD 
HETATM   23  O   UNL     1     -12.603  12.472  65.298  1.00  0.00    -0.645 OA 
HETATM   24  N   UNL     1     -11.157  13.847  66.277  1.00  0.00    -0.302 N  
BRANCH  24  25
HETATM   25  C   UNL     1     -10.212  14.138  67.311  1.00  0.00    -0.256 C  
BRANCH  25  26
HETATM   26  C   UNL     1     -10.677  14.690  68.609  1.00  0.00    -0.252 A  
HETATM   27  C   UNL     1     -11.598  16.588  69.817  1.00  0.00     0.163 A  
HETATM   28  C   UNL     1     -12.023  15.722  70.815  1.00  0.00    -0.407 A  
HETATM   29  C   UNL     1     -10.926  16.062  68.723  1.00  0.00    -0.320 A  
HETATM   30  F   UNL     1     -10.588  16.892  67.724  1.00  0.00    -0.303 F  
HETATM   31  F   UNL     1     -12.700  16.212  71.859  1.00  0.00    -0.486 F  
HETATM   32  C   UNL     1     -11.788  14.354  70.736  1.00  0.00    -0.349 A  
HETATM   33  C   UNL     1     -11.118  13.848  69.629  1.00  0.00    -0.072 A  
HETATM   34  F   UNL     1     -10.975  12.522  69.508  1.00  0.00    -0.222 F  
ENDBRANCH  25  26
ENDBRANCH  24  25
ENDBRANCH   9  21
TORSDOF 3
ENDMDL
MODEL      144
REMARK 921   NORMALIZED FREE ENERGY PREDICTED BY IDOCK:   -5.34 KCAL/MOL
REMARK 922        TOTAL FREE ENERGY PREDICTED BY IDOCK:   -7.01 KCAL/MOL
REMARK 923 INTER-LIGAND FREE ENERGY PREDICTED BY IDOCK:   -7.32 KCAL/MOL
REMARK 924 INTRA-LIGAND FREE ENERGY PREDICTED BY IDOCK:    0.31 KCAL/MOL
REMARK 927      BINDING AFFINITY PREDICTED BY RF-SCORE:    0.00 PKD
ROOT
HETATM    1  O   UNL     1     -13.198   9.592  72.735  1.00  0.00    -0.537 OA 
HETATM    2  H   UNL     1     -13.179   8.732  73.141  1.00  0.00     0.000 HD 
HETATM    3  C   UNL     1     -12.541   9.993  71.586  1.00  0.00    -0.427 C  
HETATM    4  C   UNL     1     -12.567  11.217  71.008  1.00  0.00    -0.403 C  
HETATM    5  N   UNL     1     -11.819  11.495  69.847  1.00  0.00    -0.328 NA 
HETATM    6  C   UNL     1     -11.373  12.847  69.508  1.00  0.00    -0.153 C  
HETATM    7  C   UNL     1     -11.193  10.436  69.183  1.00  0.00    -0.246 C  
HETATM    8  C   UNL     1     -12.249  13.961  70.073  1.00  0.00    -0.408 C  
HETATM    9  C   UNL     1     -11.029   9.192  69.669  1.00  0.00    -0.168 C  
HETATM   10  C   UNL     1     -11.456   9.101  71.092  1.00  0.00    -0.318 C  
HETATM   11  O   UNL     1     -11.250  15.282  70.160  1.00  0.00    -0.252 OA 
HETATM   12  C   UNL     1     -11.917  16.277  72.815  1.00  0.00    -0.636 C  
HETATM   13  C   UNL     1     -11.551  16.422  71.162  1.00  0.00    -0.204 C  
HETATM   14  N   UNL     1     -13.038  13.598  71.502  1.00  0.00    -0.354 N  
HETATM   15  O   UNL     1     -10.868   8.433  71.938  1.00  0.00    -0.257 OA 
HETATM   16  C   UNL     1     -13.306  12.275  71.805  1.00  0.00    -0.254 C  
HETATM   17  C   UNL     1     -12.820  14.598  72.854  1.00  0.00    -0.556 C  
HETATM   18  C   UNL     1     -12.780  15.822  71.375  1.00  0.00    -0.509 C  
HETATM   19  C   UNL     1     -11.549  14.596  72.289  1.00  0.00     0.077 C  
HETATM   20  O   UNL     1     -13.951  11.972  72.811  1.00  0.00     0.306 OA 
ENDROOT
BRANCH   9  21
HETATM   21  C   UNL     1     -10.324   8.196  68.788  1.00  0.00    -0.202 C  
HETATM   22  H   UNL     1      -8.681   7.796  67.607  1.00  0.00     0.000 HD 
HETATM   23  O   UNL     1     -10.648   7.007  68.817  1.00  0.00    -0.206 OA 
HETATM   24  N   UNL     1      -9.278   8.538  67.971  1.00  0.00    -0.137 N  
BRANCH  24  25
HETATM   25  C   UNL     1      -8.986   9.890  67.605  1.00  0.00    -0.128 C  
BRANCH  25  26
HETATM   26  C   UNL     1      -7.892  10.625  68.292  1.00  0.00    -0.113 A  
HETATM   27  C   UNL     1      -6.859  12.770  68.784  1.00  0.00    -0.096 A  
HETATM   28  C   UNL     1      -6.231  12.194  69.879  1.00  0.00    -0.120 A  
HETATM   29  C   UNL     1      -7.683  11.977  67.999  1.00  0.00    -0.132 A  
HETATM   30  F   UNL     1      -8.351  12.557  66.989  1.00  0.00    -0.167 F  
HETATM   31  F   UNL     1      -5.459  12.955  70.663  1.00  0.00    -0.112 F  
HETATM   32  C   UNL     1      -6.412  10.853  70.196  1.00  0.00    -0.145 A  
HETATM   33  C   UNL     1      -7.246  10.078  69.400  1.00  0.00    -0.087 A  
HETATM   34  F   UNL     1      -7.494   8.812  69.759  1.00  0.00    -0.052 F  
ENDBRANCH  25  26
ENDBRANCH  24  25
ENDBRANCH   9  21
TORSDOF 3
ENDMDL
MODEL      145
REMARK 921   NORMALIZED FREE ENERGY PREDICTED BY IDOCK:   -5.28 KCAL/MOL
REMARK 922        TOTAL FREE ENERGY PREDICTED BY IDOCK:   -6.95 KCAL/MOL
REMARK 923 INTER-LIGAND FREE ENERGY PREDICTED BY IDOCK:   -6.34 KCAL/MOL
REMARK 924 INTRA-LIGAND FREE ENERGY PREDICTED BY IDOCK:   -0.62 KCAL/MOL
REMARK 927      BINDING AFFINITY PREDICTED BY RF-SCORE:    0.00 PKD
ROOT
HETATM    1  O   UNL     1     -11.657   6.594  66.719  1.00  0.00    -0.718 OA 
HETATM    2  H   UNL     1     -12.345   7.236  66.581  1.00  0.00     0.000 HD 
HETATM    3  C   UNL     1     -10.541   6.719  67.526  1.00  0.00    -0.279 C  
HETATM    4  C   UNL     1      -9.562   5.806  67.724  1.00  0.00    -0.115 C  
HETATM    5  N   UNL     1      -8.459   6.081  68.556  1.00  0.00    -0.113 NA 
HETATM    6  C   UNL     1      -7.165   5.419  68.387  1.00  0.00    -0.071 C  
HETATM    7  C   UNL     1      -8.481   7.243  69.335  1.00  0.00    -0.133 C  
HETATM    8  C   UNL     1      -7.242   4.039  67.742  1.00  0.00    -0.063 C  
HETATM    9  C   UNL     1      -9.348   8.263  69.198  1.00  0.00    -0.151 C  
HETATM   10  C   UNL     1     -10.207   8.092  67.995  1.00  0.00    -0.212 C  
HETATM   11  O   UNL     1      -5.748   3.807  67.060  1.00  0.00    -0.021 OA 
HETATM   12  C   UNL     1      -6.513   2.754  64.455  1.00  0.00    -0.027 C  
HETATM   13  C   UNL     1      -5.577   2.832  65.871  1.00  0.00    -0.017 C  
HETATM   14  N   UNL     1      -8.523   3.807  66.694  1.00  0.00    -0.104 N  
HETATM   15  O   UNL     1     -10.545   9.019  67.263  1.00  0.00    -0.276 OA 
HETATM   16  C   UNL     1      -9.665   4.572  66.848  1.00  0.00    -0.205 C  
HETATM   17  C   UNL     1      -8.218   3.313  65.100  1.00  0.00    -0.094 C  
HETATM   18  C   UNL     1      -6.869   2.404  66.121  1.00  0.00    -0.043 C  
HETATM   19  C   UNL     1      -7.159   4.181  65.340  1.00  0.00    -0.063 C  
HETATM   20  O   UNL     1     -10.658   4.379  66.142  1.00  0.00    -0.181 OA 
ENDROOT
BRANCH   9  21
HETATM   21  C   UNL     1      -9.197   9.425  70.142  1.00  0.00    -0.234 C  
HETATM   22  H   UNL     1      -9.566  10.175  72.029  1.00  0.00     0.000 HD 
HETATM   23  O   UNL     1      -8.386  10.321  69.896  1.00  0.00    -0.143 OA 
HETATM   24  N   UNL     1      -9.894   9.519  71.320  1.00  0.00    -0.159 N  
BRANCH  24  25
HETATM   25  C   UNL     1     -11.060   8.739  71.599  1.00  0.00    -0.327 C  
BRANCH  25  26
HETATM   26  C   UNL     1     -10.971   7.570  72.511  1.00  0.00    -0.362 A  
HETATM   27  C   UNL     1     -11.579   5.257  72.942  1.00  0.00    -0.292 A  
HETATM   28  C   UNL     1     -10.520   5.165  73.834  1.00  0.00    -0.274 A  
HETATM   29  C   UNL     1     -11.796   6.461  72.290  1.00  0.00    -0.271 A  
HETATM   30  F   UNL     1     -12.770   6.522  71.370  1.00  0.00    -0.365 F  
HETATM   31  F   UNL     1     -10.281   3.999  74.446  1.00  0.00    -0.159 F  
HETATM   32  C   UNL     1      -9.685   6.248  74.082  1.00  0.00    -0.244 A  
HETATM   33  C   UNL     1      -9.916   7.444  73.413  1.00  0.00    -0.314 A  
HETATM   34  F   UNL     1      -9.056   8.457  73.581  1.00  0.00    -0.306 F  
ENDBRANCH  25  26
ENDBRANCH  24  25
ENDBRANCH   9  21
TORSDOF 3
ENDMDL
MODEL      146
REMARK 921   NORMALIZED FREE ENERGY PREDICTED BY IDOCK:   -5.28 KCAL/MOL
REMARK 922        TOTAL FREE ENERGY PREDICTED BY IDOCK:   -6.95 KCAL/MOL
REMARK 923 INTER-LIGAND FREE ENERGY PREDICTED BY IDOCK:   -5.77 KCAL/MOL
REMARK 924 INTRA-LIGAND FREE ENERGY PREDICTED BY IDOCK:   -1.17 KCAL/MOL
REMARK 927      BINDING AFFINITY PREDICTED BY RF-SCORE:    0.00 PKD
ROOT
HETATM    1  O   UNL     1     -11.824   9.440  71.946  1.00  0.00    -0.373 OA 
HETATM    2  H   UNL     1     -12.530  10.067  71.836  1.00  0.00     0.000 HD 
HETATM    3  C   UNL     1     -10.680   9.318  71.177  1.00  0.00    -0.333 C  
HETATM    4  C   UNL     1      -9.676   8.424  71.333  1.00  0.00    -0.199 C  
HETATM    5  N   UNL     1      -8.578   8.395  70.450  1.00  0.00    -0.131 NA 
HETATM    6  C   UNL     1      -7.790   7.184  70.221  1.00  0.00    -0.104 C  
HETATM    7  C   UNL     1      -8.439   9.428  69.518  1.00  0.00    -0.152 C  
HETATM    8  C   UNL     1      -7.792   6.199  71.386  1.00  0.00    -0.108 C  
HETATM    9  C   UNL     1      -9.381  10.338  69.209  1.00  0.00    -0.221 C  
HETATM   10  C   UNL     1     -10.679  10.026  69.867  1.00  0.00    -0.286 C  
HETATM   11  O   UNL     1      -7.462   4.727  70.697  1.00  0.00    -0.055 OA 
HETATM   12  C   UNL     1      -9.447   3.062  72.026  1.00  0.00    -0.204 C  
HETATM   13  C   UNL     1      -7.911   3.421  71.394  1.00  0.00    -0.056 C  
HETATM   14  N   UNL     1      -9.164   6.221  72.341  1.00  0.00    -0.139 N  
HETATM   15  O   UNL     1     -11.771  10.183  69.328  1.00  0.00    -0.134 OA 
HETATM   16  C   UNL     1      -9.926   7.374  72.398  1.00  0.00    -0.180 C  
HETATM   17  C   UNL     1     -10.041   4.788  72.576  1.00  0.00    -0.234 C  
HETATM   18  C   UNL     1      -8.216   4.194  72.501  1.00  0.00    -0.099 C  
HETATM   19  C   UNL     1      -9.649   4.671  71.247  1.00  0.00    -0.238 C  
HETATM   20  O   UNL     1     -10.902   7.454  73.148  1.00  0.00    -0.343 OA 
ENDROOT
BRANCH   9  21
HETATM   21  C   UNL     1      -9.027  11.370  68.173  1.00  0.00    -0.169 C  
HETATM   22  H   UNL     1      -9.502  12.228  66.357  1.00  0.00     0.000 HD 
HETATM   23  O   UNL     1      -8.254  12.289  68.455  1.00  0.00    -0.161 OA 
HETATM   24  N   UNL     1      -9.572  11.376  66.914  1.00  0.00    -0.183 N  
BRANCH  24  25
HETATM   25  C   UNL     1     -10.233  10.241  66.348  1.00  0.00    -0.225 C  
BRANCH  25  26
HETATM   26  C   UNL     1      -9.438   9.160  65.710  1.00  0.00    -0.322 A  
HETATM   27  C   UNL     1      -7.631   8.566  64.196  1.00  0.00    -0.123 A  
HETATM   28  C   UNL     1      -7.554   7.323  64.807  1.00  0.00    -0.104 A  
HETATM   29  C   UNL     1      -8.576   9.473  64.653  1.00  0.00    -0.187 A  
HETATM   30  F   UNL     1      -8.594  10.701  64.113  1.00  0.00    -0.175 F  
HETATM   31  F   UNL     1      -6.626   6.451  64.397  1.00  0.00    -0.032 F  
HETATM   32  C   UNL     1      -8.398   6.977  65.856  1.00  0.00    -0.141 A  
HETATM   33  C   UNL     1      -9.334   7.903  66.302  1.00  0.00    -0.164 A  
HETATM   34  F   UNL     1     -10.082   7.605  67.372  1.00  0.00    -0.196 F  
ENDBRANCH  25  26
ENDBRANCH  24  25
ENDBRANCH   9  21
TORSDOF 3
ENDMDL
MODEL      147
REMARK 921   NORMALIZED FREE ENERGY PREDICTED BY IDOCK:   -5.26 KCAL/MOL
REMARK 922        TOTAL FREE ENERGY PREDICTED BY IDOCK:   -6.93 KCAL/MOL
REMARK 923 INTER-LIGAND FREE ENERGY PREDICTED BY IDOCK:   -6.28 KCAL/MOL
REMARK 924 INTRA-LIGAND FREE ENERGY PREDICTED BY IDOCK:   -0.65 KCAL/MOL
REMARK 927      BINDING AFFINITY PREDICTED BY RF-SCORE:    0.00 PKD
ROOT
HETATM    1  O   UNL     1     -11.722   9.052  70.233  1.00  0.00    -0.457 OA 
HETATM    2  H   UNL     1     -12.028   8.423  70.877  1.00  0.00     0.000 HD 
HETATM    3  C   UNL     1     -10.415   9.431  69.984  1.00  0.00    -0.234 C  
HETATM    4  C   UNL     1      -9.979  10.327  69.068  1.00  0.00    -0.213 C  
HETATM    5  N   UNL     1      -8.610  10.641  68.944  1.00  0.00    -0.153 NA 
HETATM    6  C   UNL     1      -8.146  11.922  68.411  1.00  0.00    -0.155 C  
HETATM    7  C   UNL     1      -7.680   9.871  69.650  1.00  0.00    -0.149 C  
HETATM    8  C   UNL     1      -9.120  12.597  67.452  1.00  0.00    -0.191 C  
HETATM    9  C   UNL     1      -7.967   9.001  70.635  1.00  0.00    -0.159 C  
HETATM   10  C   UNL     1      -9.405   9.058  71.013  1.00  0.00    -0.271 C  
HETATM   11  O   UNL     1      -8.741  14.210  67.528  1.00  0.00    -0.181 OA 
HETATM   12  C   UNL     1     -11.404  15.371  67.723  1.00  0.00    -0.308 C  
HETATM   13  C   UNL     1      -9.801  15.277  67.168  1.00  0.00    -0.224 C  
HETATM   14  N   UNL     1     -10.736  12.255  67.711  1.00  0.00    -0.211 N  
HETATM   15  O   UNL     1      -9.809   8.961  72.168  1.00  0.00    -0.312 OA 
HETATM   16  C   UNL     1     -11.081  11.073  68.341  1.00  0.00    -0.251 C  
HETATM   17  C   UNL     1     -11.829  13.528  67.959  1.00  0.00    -0.400 C  
HETATM   18  C   UNL     1     -10.583  14.244  66.684  1.00  0.00    -0.278 C  
HETATM   19  C   UNL     1     -10.699  13.985  68.627  1.00  0.00    -0.269 C  
HETATM   20  O   UNL     1     -12.263  10.750  68.484  1.00  0.00    -0.470 OA 
ENDROOT
BRANCH   9  21
HETATM   21  C   UNL     1      -6.812   8.272  71.267  1.00  0.00    -0.059 C  
HETATM   22  H   UNL     1      -5.963   6.447  71.720  1.00  0.00     0.000 HD 
HETATM   23  O   UNL     1      -5.763   8.871  71.513  1.00  0.00    -0.043 OA 
HETATM   24  N   UNL     1      -6.844   6.929  71.543  1.00  0.00    -0.064 N  
BRANCH  24  25
HETATM   25  C   UNL     1      -8.058   6.174  71.595  1.00  0.00    -0.110 C  
BRANCH  25  26
HETATM   26  C   UNL     1      -8.248   5.010  70.691  1.00  0.00    -0.102 A  
HETATM   27  C   UNL     1      -8.820   2.658  70.471  1.00  0.00    -0.144 A  
HETATM   28  C   UNL     1      -9.111   2.874  69.132  1.00  0.00    -0.135 A  
HETATM   29  C   UNL     1      -8.388   3.730  71.238  1.00  0.00    -0.072 A  
HETATM   30  F   UNL     1      -8.185   3.534  72.550  1.00  0.00    -0.074 F  
HETATM   31  F   UNL     1      -9.558   1.855  68.389  1.00  0.00    -0.221 F  
HETATM   32  C   UNL     1      -8.977   4.131  68.554  1.00  0.00    -0.159 A  
HETATM   33  C   UNL     1      -8.549   5.193  69.342  1.00  0.00    -0.096 A  
HETATM   34  F   UNL     1      -8.511   6.421  68.810  1.00  0.00    -0.117 F  
ENDBRANCH  25  26
ENDBRANCH  24  25
ENDBRANCH   9  21
TORSDOF 3
ENDMDL
MODEL      148
REMARK 921   NORMALIZED FREE ENERGY PREDICTED BY IDOCK:   -5.25 KCAL/MOL
REMARK 922        TOTAL FREE ENERGY PREDICTED BY IDOCK:   -6.92 KCAL/MOL
REMARK 923 INTER-LIGAND FREE ENERGY PREDICTED BY IDOCK:   -6.91 KCAL/MOL
REMARK 924 INTRA-LIGAND FREE ENERGY PREDICTED BY IDOCK:   -0.00 KCAL/MOL
REMARK 927      BINDING AFFINITY PREDICTED BY RF-SCORE:    0.00 PKD
ROOT
HETATM    1  O   UNL     1     -11.708   9.533  71.820  1.00  0.00    -0.383 OA 
HETATM    2  H   UNL     1     -12.225  10.242  71.454  1.00  0.00     0.000 HD 
HETATM    3  C   UNL     1     -10.488   9.063  71.368  1.00  0.00    -0.324 C  
HETATM    4  C   UNL     1      -9.753   8.053  71.889  1.00  0.00    -0.190 C  
HETATM    5  N   UNL     1      -8.533   7.657  71.304  1.00  0.00    -0.114 NA 
HETATM    6  C   UNL     1      -7.996   6.305  71.452  1.00  0.00    -0.109 C  
HETATM    7  C   UNL     1      -7.991   8.448  70.286  1.00  0.00    -0.102 C  
HETATM    8  C   UNL     1      -8.444   5.582  72.719  1.00  0.00    -0.120 C  
HETATM    9  C   UNL     1      -8.633   9.432  69.630  1.00  0.00    -0.171 C  
HETATM   10  C   UNL     1     -10.073   9.490  70.004  1.00  0.00    -0.242 C  
HETATM   11  O   UNL     1      -8.309   3.970  72.358  1.00  0.00    -0.095 OA 
HETATM   12  C   UNL     1     -10.831   2.975  73.418  1.00  0.00    -0.307 C  
HETATM   13  C   UNL     1      -9.159   2.926  73.119  1.00  0.00    -0.089 C  
HETATM   14  N   UNL     1      -9.941   6.033  73.311  1.00  0.00    -0.175 N  
HETATM   15  O   UNL     1     -10.974   9.730  69.206  1.00  0.00    -0.228 OA 
HETATM   16  C   UNL     1     -10.431   7.292  73.012  1.00  0.00    -0.310 C  
HETATM   17  C   UNL     1     -11.136   4.853  73.547  1.00  0.00    -0.405 C  
HETATM   18  C   UNL     1      -9.505   3.942  73.993  1.00  0.00    -0.114 C  
HETATM   19  C   UNL     1     -10.521   4.411  72.380  1.00  0.00    -0.219 C  
HETATM   20  O   UNL     1     -11.496   7.689  73.491  1.00  0.00    -0.126 OA 
ENDROOT
BRANCH   9  21
HETATM   21  C   UNL     1      -7.864  10.163  68.563  1.00  0.00    -0.095 C  
HETATM   22  H   UNL     1      -7.399  11.984  67.711  1.00  0.00     0.000 HD 
HETATM   23  O   UNL     1      -6.941   9.601  67.971  1.00  0.00    -0.076 OA 
HETATM   24  N   UNL     1      -8.107  11.474  68.239  1.00  0.00    -0.141 N  
BRANCH  24  25
HETATM   25  C   UNL     1      -9.308  12.157  68.609  1.00  0.00    -0.025 C  
BRANCH  25  26
HETATM   26  C   UNL     1     -10.128  12.832  67.570  1.00  0.00    -0.213 A  
HETATM   27  C   UNL     1     -11.536  12.603  65.602  1.00  0.00    -0.387 A  
HETATM   28  C   UNL     1     -12.069  13.858  65.861  1.00  0.00    -0.433 A  
HETATM   29  C   UNL     1     -10.567  12.103  66.460  1.00  0.00    -0.237 A  
HETATM   30  F   UNL     1     -10.113  10.858  66.252  1.00  0.00    -0.238 F  
HETATM   31  F   UNL     1     -13.027  14.338  65.060  1.00  0.00    -0.416 F  
HETATM   32  C   UNL     1     -11.652  14.611  66.952  1.00  0.00    -0.374 A  
HETATM   33  C   UNL     1     -10.685  14.089  67.802  1.00  0.00    -0.243 A  
HETATM   34  F   UNL     1     -10.352  14.774  68.904  1.00  0.00    -0.215 F  
ENDBRANCH  25  26
ENDBRANCH  24  25
ENDBRANCH   9  21
TORSDOF 3
ENDMDL
MODEL      149
REMARK 921   NORMALIZED FREE ENERGY PREDICTED BY IDOCK:   -5.24 KCAL/MOL
REMARK 922        TOTAL FREE ENERGY PREDICTED BY IDOCK:   -6.90 KCAL/MOL
REMARK 923 INTER-LIGAND FREE ENERGY PREDICTED BY IDOCK:   -6.07 KCAL/MOL
REMARK 924 INTRA-LIGAND FREE ENERGY PREDICTED BY IDOCK:   -0.83 KCAL/MOL
REMARK 927      BINDING AFFINITY PREDICTED BY RF-SCORE:    0.00 PKD
ROOT
HETATM    1  O   UNL     1     -10.212  10.199  69.298  1.00  0.00    -0.196 OA 
HETATM    2  H   UNL     1     -10.356  10.591  70.152  1.00  0.00     0.000 HD 
HETATM    3  C   UNL     1      -9.397   9.124  68.993  1.00  0.00    -0.151 C  
HETATM    4  C   UNL     1      -9.192   8.566  67.777  1.00  0.00    -0.135 C  
HETATM    5  N   UNL     1      -8.304   7.485  67.606  1.00  0.00    -0.117 NA 
HETATM    6  C   UNL     1      -7.638   7.212  66.332  1.00  0.00    -0.092 C  
HETATM    7  C   UNL     1      -7.778   6.865  68.744  1.00  0.00    -0.110 C  
HETATM    8  C   UNL     1      -8.394   7.712  65.105  1.00  0.00    -0.100 C  
HETATM    9  C   UNL     1      -7.842   7.344  70.000  1.00  0.00    -0.104 C  
HETATM   10  C   UNL     1      -8.411   8.719  70.032  1.00  0.00    -0.133 C  
HETATM   11  O   UNL     1      -7.228   7.914  63.943  1.00  0.00    -0.079 OA 
HETATM   12  C   UNL     1      -7.993  10.511  62.870  1.00  0.00    -0.125 C  
HETATM   13  C   UNL     1      -7.455   8.902  62.775  1.00  0.00    -0.105 C  
HETATM   14  N   UNL     1      -9.360   9.054  65.354  1.00  0.00    -0.192 N  
HETATM   15  O   UNL     1      -8.008   9.604  70.780  1.00  0.00    -0.288 OA 
HETATM   16  C   UNL     1      -9.843   9.308  66.625  1.00  0.00    -0.245 C  
HETATM   17  C   UNL     1      -9.128  10.437  64.400  1.00  0.00    -0.267 C  
HETATM   18  C   UNL     1      -8.772   8.989  63.190  1.00  0.00    -0.114 C  
HETATM   19  C   UNL     1      -7.823   9.993  64.585  1.00  0.00    -0.145 C  
HETATM   20  O   UNL     1     -10.618  10.245  66.834  1.00  0.00    -0.245 OA 
ENDROOT
BRANCH   9  21
HETATM   21  C   UNL     1      -7.208   6.516  71.085  1.00  0.00    -0.078 C  
HETATM   22  H   UNL     1      -7.164   4.703  72.070  1.00  0.00     0.000 HD 
HETATM   23  O   UNL     1      -6.129   6.857  71.572  1.00  0.00    -0.037 OA 
HETATM   24  N   UNL     1      -7.755   5.342  71.538  1.00  0.00    -0.102 N  
BRANCH  24  25
HETATM   25  C   UNL     1      -9.116   4.974  71.297  1.00  0.00    -0.143 C  
BRANCH  25  26
HETATM   26  C   UNL     1     -10.212   5.918  71.637  1.00  0.00    -0.249 A  
HETATM   27  C   UNL     1     -11.030   7.657  73.125  1.00  0.00    -0.411 A  
HETATM   28  C   UNL     1     -11.919   8.056  72.137  1.00  0.00    -0.348 A  
HETATM   29  C   UNL     1     -10.186   6.587  72.865  1.00  0.00    -0.193 A  
HETATM   30  F   UNL     1      -9.274   6.256  73.792  1.00  0.00    -0.126 F  
HETATM   31  F   UNL     1     -12.717   9.106  72.363  1.00  0.00    -0.424 F  
HETATM   32  C   UNL     1     -11.976   7.410  70.908  1.00  0.00    -0.308 A  
HETATM   33  C   UNL     1     -11.116   6.345  70.666  1.00  0.00    -0.317 A  
HETATM   34  F   UNL     1     -11.106   5.784  69.450  1.00  0.00    -0.389 F  
ENDBRANCH  25  26
ENDBRANCH  24  25
ENDBRANCH   9  21
TORSDOF 3
ENDMDL
MODEL      150
REMARK 921   NORMALIZED FREE ENERGY PREDICTED BY IDOCK:   -5.22 KCAL/MOL
REMARK 922        TOTAL FREE ENERGY PREDICTED BY IDOCK:   -6.88 KCAL/MOL
REMARK 923 INTER-LIGAND FREE ENERGY PREDICTED BY IDOCK:   -6.56 KCAL/MOL
REMARK 924 INTRA-LIGAND FREE ENERGY PREDICTED BY IDOCK:   -0.32 KCAL/MOL
REMARK 927      BINDING AFFINITY PREDICTED BY RF-SCORE:    0.00 PKD
ROOT
HETATM    1  O   UNL     1     -11.549  12.633  65.214  1.00  0.00    -0.321 OA 
HETATM    2  H   UNL     1     -12.132  11.911  65.007  1.00  0.00     0.000 HD 
HETATM    3  C   UNL     1     -10.713  12.750  66.310  1.00  0.00    -0.270 C  
HETATM    4  C   UNL     1      -9.883  13.778  66.605  1.00  0.00    -0.284 C  
HETATM    5  N   UNL     1      -9.106  13.778  67.781  1.00  0.00    -0.184 NA 
HETATM    6  C   UNL     1      -8.647  15.013  68.416  1.00  0.00    -0.162 C  
HETATM    7  C   UNL     1      -9.056  12.611  68.551  1.00  0.00    -0.052 C  
HETATM    8  C   UNL     1      -8.494  16.194  67.463  1.00  0.00    -0.177 C  
HETATM    9  C   UNL     1      -9.868  11.546  68.417  1.00  0.00    -0.204 C  
HETATM   10  C   UNL     1     -10.958  11.811  67.439  1.00  0.00    -0.262 C  
HETATM   11  O   UNL     1      -8.643  17.537  68.425  1.00  0.00    -0.260 OA 
HETATM   12  C   UNL     1     -10.432  19.158  66.798  1.00  0.00    -0.524 C  
HETATM   13  C   UNL     1      -9.101  18.883  67.818  1.00  0.00    -0.290 C  
HETATM   14  N   UNL     1      -9.510  16.181  66.135  1.00  0.00    -0.303 N  
HETATM   15  O   UNL     1     -12.112  11.415  67.583  1.00  0.00    -0.630 OA 
HETATM   16  C   UNL     1     -10.004  14.972  65.678  1.00  0.00    -0.355 C  
HETATM   17  C   UNL     1     -10.525  17.508  65.848  1.00  0.00    -0.251 C  
HETATM   18  C   UNL     1      -8.935  18.304  66.572  1.00  0.00    -0.285 C  
HETATM   19  C   UNL     1     -10.556  17.417  67.235  1.00  0.00    -0.284 C  
HETATM   20  O   UNL     1     -10.694  14.913  64.658  1.00  0.00    -0.371 OA 
ENDROOT
BRANCH   9  21
HETATM   21  C   UNL     1      -9.644  10.388  69.351  1.00  0.00    -0.192 C  
HETATM   22  H   UNL     1      -8.314   8.988  70.077  1.00  0.00     0.000 HD 
HETATM   23  O   UNL     1     -10.444  10.166  70.263  1.00  0.00    -0.281 OA 
HETATM   24  N   UNL     1      -8.542   9.576  69.275  1.00  0.00    -0.139 N  
BRANCH  24  25
HETATM   25  C   UNL     1      -7.698   9.514  68.122  1.00  0.00    -0.083 C  
BRANCH  25  26
HETATM   26  C   UNL     1      -6.922   8.281  67.833  1.00  0.00    -0.078 A  
HETATM   27  C   UNL     1      -5.716   6.366  68.719  1.00  0.00    -0.020 A  
HETATM   28  C   UNL     1      -5.883   5.722  67.501  1.00  0.00    -0.017 A  
HETATM   29  C   UNL     1      -6.236   7.642  68.872  1.00  0.00    -0.035 A  
HETATM   30  F   UNL     1      -6.141   8.229  70.075  1.00  0.00    -0.028 F  
HETATM   31  F   UNL     1      -5.413   4.478  67.351  1.00  0.00    -0.010 F  
HETATM   32  C   UNL     1      -6.554   6.329  66.447  1.00  0.00    -0.048 A  
HETATM   33  C   UNL     1      -7.073   7.606  66.623  1.00  0.00    -0.079 A  
HETATM   34  F   UNL     1      -7.800   8.152  65.640  1.00  0.00    -0.082 F  
ENDBRANCH  25  26
ENDBRANCH  24  25
ENDBRANCH   9  21
TORSDOF 3
ENDMDL
MODEL      151
REMARK 921   NORMALIZED FREE ENERGY PREDICTED BY IDOCK:   -5.22 KCAL/MOL
REMARK 922        TOTAL FREE ENERGY PREDICTED BY IDOCK:   -6.88 KCAL/MOL
REMARK 923 INTER-LIGAND FREE ENERGY PREDICTED BY IDOCK:   -6.24 KCAL/MOL
REMARK 924 INTRA-LIGAND FREE ENERGY PREDICTED BY IDOCK:   -0.64 KCAL/MOL
REMARK 927      BINDING AFFINITY PREDICTED BY RF-SCORE:    0.00 PKD
ROOT
HETATM    1  O   UNL     1      -6.788   8.696  69.923  1.00  0.00    -0.041 OA 
HETATM    2  H   UNL     1      -6.525   9.241  70.656  1.00  0.00     0.000 HD 
HETATM    3  C   UNL     1      -8.024   8.662  69.302  1.00  0.00    -0.103 C  
HETATM    4  C   UNL     1      -8.398   7.886  68.258  1.00  0.00    -0.124 C  
HETATM    5  N   UNL     1      -9.709   7.935  67.742  1.00  0.00    -0.150 NA 
HETATM    6  C   UNL     1     -10.317   6.805  67.040  1.00  0.00    -0.268 C  
HETATM    7  C   UNL     1     -10.571   8.938  68.196  1.00  0.00    -0.157 C  
HETATM    8  C   UNL     1      -9.319   5.874  66.359  1.00  0.00    -0.171 C  
HETATM    9  C   UNL     1     -10.360   9.731  69.263  1.00  0.00    -0.230 C  
HETATM   10  C   UNL     1      -9.151   9.312  70.024  1.00  0.00    -0.210 C  
HETATM   11  O   UNL     1     -10.104   4.418  66.248  1.00  0.00    -0.232 OA 
HETATM   12  C   UNL     1      -7.995   2.610  67.122  1.00  0.00    -0.074 C  
HETATM   13  C   UNL     1      -9.297   3.102  66.147  1.00  0.00    -0.095 C  
HETATM   14  N   UNL     1      -7.810   5.791  67.074  1.00  0.00    -0.101 N  
HETATM   15  O   UNL     1      -9.079   9.332  71.250  1.00  0.00    -0.264 OA 
HETATM   16  C   UNL     1      -7.366   6.860  67.832  1.00  0.00    -0.097 C  
HETATM   17  C   UNL     1      -7.196   4.286  67.556  1.00  0.00    -0.068 C  
HETATM   18  C   UNL     1      -8.172   3.884  65.951  1.00  0.00    -0.105 C  
HETATM   19  C   UNL     1      -8.546   4.156  67.859  1.00  0.00    -0.107 C  
HETATM   20  O   UNL     1      -6.231   6.869  68.314  1.00  0.00    -0.031 OA 
ENDROOT
BRANCH   9  21
HETATM   21  C   UNL     1     -11.419  10.751  69.582  1.00  0.00    -0.305 C  
HETATM   22  H   UNL     1     -12.293  12.549  69.072  1.00  0.00     0.000 HD 
HETATM   23  O   UNL     1     -12.353  10.459  70.332  1.00  0.00    -0.293 OA 
HETATM   24  N   UNL     1     -11.431  12.006  69.029  1.00  0.00    -0.276 N  
BRANCH  24  25
HETATM   25  C   UNL     1     -10.288  12.588  68.395  1.00  0.00    -0.230 C  
BRANCH  25  26
HETATM   26  C   UNL     1     -10.407  13.903  67.713  1.00  0.00    -0.240 A  
HETATM   27  C   UNL     1     -10.193  16.319  67.869  1.00  0.00    -0.261 A  
HETATM   28  C   UNL     1     -10.105  16.381  66.486  1.00  0.00    -0.295 A  
HETATM   29  C   UNL     1     -10.346  15.078  68.470  1.00  0.00    -0.230 A  
HETATM   30  F   UNL     1     -10.350  15.014  69.810  1.00  0.00    -0.231 F  
HETATM   31  F   UNL     1      -9.926  17.569  65.896  1.00  0.00    -0.289 F  
HETATM   32  C   UNL     1     -10.167  15.234  65.703  1.00  0.00    -0.398 A  
HETATM   33  C   UNL     1     -10.314  14.000  66.325  1.00  0.00    -0.293 A  
HETATM   34  F   UNL     1     -10.280  12.889  65.578  1.00  0.00    -0.272 F  
ENDBRANCH  25  26
ENDBRANCH  24  25
ENDBRANCH   9  21
TORSDOF 3
ENDMDL
MODEL      152
REMARK 921   NORMALIZED FREE ENERGY PREDICTED BY IDOCK:   -5.18 KCAL/MOL
REMARK 922        TOTAL FREE ENERGY PREDICTED BY IDOCK:   -6.84 KCAL/MOL
REMARK 923 INTER-LIGAND FREE ENERGY PREDICTED BY IDOCK:   -6.08 KCAL/MOL
REMARK 924 INTRA-LIGAND FREE ENERGY PREDICTED BY IDOCK:   -0.76 KCAL/MOL
REMARK 927      BINDING AFFINITY PREDICTED BY RF-SCORE:    0.00 PKD
ROOT
HETATM    1  O   UNL     1     -10.440  10.236  70.276  1.00  0.00    -0.388 OA 
HETATM    2  H   UNL     1     -10.157  10.046  71.164  1.00  0.00     0.000 HD 
HETATM    3  C   UNL     1      -9.778   9.932  69.100  1.00  0.00    -0.198 C  
HETATM    4  C   UNL     1     -10.181  10.202  67.836  1.00  0.00    -0.180 C  
HETATM    5  N   UNL     1      -9.386   9.859  66.724  1.00  0.00    -0.147 NA 
HETATM    6  C   UNL     1      -9.472  10.573  65.450  1.00  0.00    -0.223 C  
HETATM    7  C   UNL     1      -8.257   9.060  66.929  1.00  0.00    -0.116 C  
HETATM    8  C   UNL     1     -10.824  11.226  65.183  1.00  0.00    -0.268 C  
HETATM    9  C   UNL     1      -7.705   8.772  68.122  1.00  0.00    -0.101 C  
HETATM   10  C   UNL     1      -8.347   9.543  69.222  1.00  0.00    -0.129 C  
HETATM   11  O   UNL     1     -10.497  12.460  64.124  1.00  0.00    -0.335 OA 
HETATM   12  C   UNL     1     -12.054  14.611  65.318  1.00  0.00    -0.276 C  
HETATM   13  C   UNL     1     -11.441  13.682  64.034  1.00  0.00    -0.271 C  
HETATM   14  N   UNL     1     -11.678  11.693  66.543  1.00  0.00    -0.096 N  
HETATM   15  O   UNL     1      -7.729  10.015  70.172  1.00  0.00    -0.171 OA 
HETATM   16  C   UNL     1     -11.437  11.046  67.742  1.00  0.00    -0.261 C  
HETATM   17  C   UNL     1     -12.177  13.306  66.702  1.00  0.00    -0.359 C  
HETATM   18  C   UNL     1     -12.332  12.969  64.817  1.00  0.00    -0.490 C  
HETATM   19  C   UNL     1     -10.929  13.449  66.105  1.00  0.00    -0.285 C  
HETATM   20  O   UNL     1     -12.098  11.311  68.749  1.00  0.00    -0.508 OA 
ENDROOT
BRANCH   9  21
HETATM   21  C   UNL     1      -6.486   7.889  68.121  1.00  0.00    -0.055 C  
HETATM   22  H   UNL     1      -5.702   6.031  67.685  1.00  0.00     0.000 HD 
HETATM   23  O   UNL     1      -5.364   8.384  68.241  1.00  0.00    -0.033 OA 
HETATM   24  N   UNL     1      -6.554   6.531  67.937  1.00  0.00    -0.062 N  
BRANCH  24  25
HETATM   25  C   UNL     1      -7.766   5.786  68.082  1.00  0.00    -0.096 C  
BRANCH  25  26
HETATM   26  C   UNL     1      -8.112   4.730  67.094  1.00  0.00    -0.102 A  
HETATM   27  C   UNL     1      -8.759   2.420  66.708  1.00  0.00    -0.133 A  
HETATM   28  C   UNL     1      -9.239   2.783  65.458  1.00  0.00    -0.113 A  
HETATM   29  C   UNL     1      -8.196   3.398  67.514  1.00  0.00    -0.085 A  
HETATM   30  F   UNL     1      -7.806   3.058  68.752  1.00  0.00    -0.056 F  
HETATM   31  F   UNL     1      -9.812   1.855  64.684  1.00  0.00    -0.117 F  
HETATM   32  C   UNL     1      -9.166   4.096  65.007  1.00  0.00    -0.154 A  
HETATM   33  C   UNL     1      -8.604   5.062  65.834  1.00  0.00    -0.124 A  
HETATM   34  F   UNL     1      -8.620   6.342  65.438  1.00  0.00    -0.144 F  
ENDBRANCH  25  26
ENDBRANCH  24  25
ENDBRANCH   9  21
TORSDOF 3
ENDMDL
MODEL      153
REMARK 921   NORMALIZED FREE ENERGY PREDICTED BY IDOCK:   -5.16 KCAL/MOL
REMARK 922        TOTAL FREE ENERGY PREDICTED BY IDOCK:   -6.81 KCAL/MOL
REMARK 923 INTER-LIGAND FREE ENERGY PREDICTED BY IDOCK:   -5.58 KCAL/MOL
REMARK 924 INTRA-LIGAND FREE ENERGY PREDICTED BY IDOCK:   -1.24 KCAL/MOL
REMARK 927      BINDING AFFINITY PREDICTED BY RF-SCORE:    0.00 PKD
ROOT
HETATM    1  O   UNL     1      -6.961   5.564  65.145  1.00  0.00    -0.057 OA 
HETATM    2  H   UNL     1      -6.796   4.670  64.870  1.00  0.00     0.000 HD 
HETATM    3  C   UNL     1      -7.179   6.021  66.433  1.00  0.00    -0.076 C  
HETATM    4  C   UNL     1      -7.413   7.295  66.825  1.00  0.00    -0.092 C  
HETATM    5  N   UNL     1      -7.650   7.613  68.177  1.00  0.00    -0.111 NA 
HETATM    6  C   UNL     1      -8.421   8.789  68.581  1.00  0.00    -0.129 C  
HETATM    7  C   UNL     1      -7.450   6.623  69.144  1.00  0.00    -0.095 C  
HETATM    8  C   UNL     1      -8.399   9.935  67.575  1.00  0.00    -0.114 C  
HETATM    9  C   UNL     1      -7.280   5.310  68.900  1.00  0.00    -0.062 C  
HETATM   10  C   UNL     1      -7.490   4.991  67.461  1.00  0.00    -0.083 C  
HETATM   11  O   UNL     1      -9.784  10.794  67.880  1.00  0.00    -0.162 OA 
HETATM   12  C   UNL     1     -10.756  11.215  65.168  1.00  0.00    -0.279 C  
HETATM   13  C   UNL     1     -10.422  11.665  66.772  1.00  0.00    -0.230 C  
HETATM   14  N   UNL     1      -8.206   9.483  65.977  1.00  0.00    -0.114 N  
HETATM   15  O   UNL     1      -8.049   3.972  67.066  1.00  0.00    -0.095 OA 
HETATM   16  C   UNL     1      -7.577   8.285  65.688  1.00  0.00    -0.083 C  
HETATM   17  C   UNL     1      -9.356   9.967  64.828  1.00  0.00    -0.339 C  
HETATM   18  C   UNL     1      -9.269  11.457  66.036  1.00  0.00    -0.229 C  
HETATM   19  C   UNL     1     -10.151   9.706  65.938  1.00  0.00    -0.304 C  
HETATM   20  O   UNL     1      -7.350   7.952  64.522  1.00  0.00    -0.076 OA 
ENDROOT
BRANCH   9  21
HETATM   21  C   UNL     1      -7.079   4.410  70.088  1.00  0.00    -0.045 C  
HETATM   22  H   UNL     1      -7.796   2.819  71.190  1.00  0.00     0.000 HD 
HETATM   23  O   UNL     1      -5.980   4.358  70.646  1.00  0.00    -0.013 OA 
HETATM   24  N   UNL     1      -8.062   3.582  70.567  1.00  0.00    -0.053 N  
BRANCH  24  25
HETATM   25  C   UNL     1      -9.443   3.740  70.232  1.00  0.00    -0.187 C  
BRANCH  25  26
HETATM   26  C   UNL     1     -10.229   4.853  70.824  1.00  0.00    -0.276 A  
HETATM   27  C   UNL     1     -11.830   6.647  70.467  1.00  0.00    -0.430 A  
HETATM   28  C   UNL     1     -12.116   6.636  71.824  1.00  0.00    -0.353 A  
HETATM   29  C   UNL     1     -10.885   5.756  69.979  1.00  0.00    -0.333 A  
HETATM   30  F   UNL     1     -10.669   5.716  68.656  1.00  0.00    -0.271 F  
HETATM   31  F   UNL     1     -13.048   7.469  72.301  1.00  0.00    -0.239 F  
HETATM   32  C   UNL     1     -11.479   5.756  72.692  1.00  0.00    -0.337 A  
HETATM   33  C   UNL     1     -10.541   4.867  72.182  1.00  0.00    -0.164 A  
HETATM   34  F   UNL     1      -9.997   3.958  73.001  1.00  0.00    -0.147 F  
ENDBRANCH  25  26
ENDBRANCH  24  25
ENDBRANCH   9  21
TORSDOF 3
ENDMDL
MODEL      154
REMARK 921   NORMALIZED FREE ENERGY PREDICTED BY IDOCK:   -5.12 KCAL/MOL
REMARK 922        TOTAL FREE ENERGY PREDICTED BY IDOCK:   -6.76 KCAL/MOL
REMARK 923 INTER-LIGAND FREE ENERGY PREDICTED BY IDOCK:   -7.03 KCAL/MOL
REMARK 924 INTRA-LIGAND FREE ENERGY PREDICTED BY IDOCK:    0.28 KCAL/MOL
REMARK 927      BINDING AFFINITY PREDICTED BY RF-SCORE:    0.00 PKD
ROOT
HETATM    1  O   UNL     1     -10.883   8.933  71.232  1.00  0.00    -0.243 OA 
HETATM    2  H   UNL     1     -11.510   8.926  71.946  1.00  0.00     0.000 HD 
HETATM    3  C   UNL     1     -10.698   9.924  70.284  1.00  0.00    -0.310 C  
HETATM    4  C   UNL     1      -9.805   9.933  69.267  1.00  0.00    -0.207 C  
HETATM    5  N   UNL     1      -9.748  11.003  68.352  1.00  0.00    -0.173 NA 
HETATM    6  C   UNL     1      -9.240  10.842  66.990  1.00  0.00    -0.152 C  
HETATM    7  C   UNL     1     -10.498  12.153  68.618  1.00  0.00    -0.216 C  
HETATM    8  C   UNL     1      -8.234   9.708  66.821  1.00  0.00    -0.113 C  
HETATM    9  C   UNL     1     -11.467  12.261  69.545  1.00  0.00    -0.318 C  
HETATM   10  C   UNL     1     -11.775  10.946  70.170  1.00  0.00    -0.347 C  
HETATM   11  O   UNL     1      -8.330   9.291  65.219  1.00  0.00    -0.130 OA 
HETATM   12  C   UNL     1      -8.395   6.388  65.429  1.00  0.00    -0.141 C  
HETATM   13  C   UNL     1      -7.920   7.873  64.756  1.00  0.00    -0.140 C  
HETATM   14  N   UNL     1      -8.414   8.426  67.879  1.00  0.00    -0.130 N  
HETATM   15  O   UNL     1     -12.909  10.584  70.470  1.00  0.00    -0.345 OA 
HETATM   16  C   UNL     1      -9.026   8.643  69.101  1.00  0.00    -0.142 C  
HETATM   17  C   UNL     1      -8.609   6.858  67.264  1.00  0.00    -0.120 C  
HETATM   18  C   UNL     1      -7.397   7.682  66.023  1.00  0.00    -0.077 C  
HETATM   19  C   UNL     1      -9.332   7.616  66.351  1.00  0.00    -0.228 C  
HETATM   20  O   UNL     1      -9.110   7.741  69.938  1.00  0.00    -0.146 OA 
ENDROOT
BRANCH   9  21
HETATM   21  C   UNL     1     -12.155  13.594  69.670  1.00  0.00    -0.321 C  
HETATM   22  H   UNL     1     -12.710  15.345  68.729  1.00  0.00     0.000 HD 
HETATM   23  O   UNL     1     -12.905  13.816  70.622  1.00  0.00    -0.280 OA 
HETATM   24  N   UNL     1     -12.030  14.584  68.729  1.00  0.00    -0.304 N  
BRANCH  24  25
HETATM   25  C   UNL     1     -10.990  14.598  67.748  1.00  0.00    -0.286 C  
BRANCH  25  26
HETATM   26  C   UNL     1      -9.994  15.701  67.736  1.00  0.00    -0.223 A  
HETATM   27  C   UNL     1      -8.026  16.696  68.760  1.00  0.00    -0.239 A  
HETATM   28  C   UNL     1      -7.788  17.390  67.582  1.00  0.00    -0.191 A  
HETATM   29  C   UNL     1      -9.130  15.859  68.826  1.00  0.00    -0.219 A  
HETATM   30  F   UNL     1      -9.312  15.130  69.938  1.00  0.00    -0.208 F  
HETATM   31  F   UNL     1      -6.709  18.175  67.495  1.00  0.00    -0.180 F  
HETATM   32  C   UNL     1      -8.628  17.261  66.482  1.00  0.00    -0.298 A  
HETATM   33  C   UNL     1      -9.726  16.412  66.568  1.00  0.00    -0.269 A  
HETATM   34  F   UNL     1     -10.480  16.216  65.479  1.00  0.00    -0.333 F  
ENDBRANCH  25  26
ENDBRANCH  24  25
ENDBRANCH   9  21
TORSDOF 3
ENDMDL
MODEL      155
REMARK 921   NORMALIZED FREE ENERGY PREDICTED BY IDOCK:   -5.07 KCAL/MOL
REMARK 922        TOTAL FREE ENERGY PREDICTED BY IDOCK:   -6.70 KCAL/MOL
REMARK 923 INTER-LIGAND FREE ENERGY PREDICTED BY IDOCK:   -5.65 KCAL/MOL
REMARK 924 INTRA-LIGAND FREE ENERGY PREDICTED BY IDOCK:   -1.05 KCAL/MOL
REMARK 927      BINDING AFFINITY PREDICTED BY RF-SCORE:    0.00 PKD
ROOT
HETATM    1  O   UNL     1     -10.480  10.669  68.753  1.00  0.00    -0.173 OA 
HETATM    2  H   UNL     1     -10.685  11.334  69.401  1.00  0.00     0.000 HD 
HETATM    3  C   UNL     1     -10.678   9.304  68.857  1.00  0.00    -0.156 C  
HETATM    4  C   UNL     1     -10.386   8.358  67.934  1.00  0.00    -0.221 C  
HETATM    5  N   UNL     1     -10.615   6.991  68.189  1.00  0.00    -0.206 NA 
HETATM    6  C   UNL     1      -9.856   5.932  67.523  1.00  0.00    -0.125 C  
HETATM    7  C   UNL     1     -11.329   6.633  69.337  1.00  0.00    -0.271 C  
HETATM    8  C   UNL     1      -9.303   6.318  66.154  1.00  0.00    -0.117 C  
HETATM    9  C   UNL     1     -11.624   7.451  70.364  1.00  0.00    -0.210 C  
HETATM   10  C   UNL     1     -10.955   8.773  70.220  1.00  0.00    -0.235 C  
HETATM   11  O   UNL     1      -8.002   5.315  65.925  1.00  0.00    -0.101 OA 
HETATM   12  C   UNL     1      -6.037   7.216  64.922  1.00  0.00    -0.037 C  
HETATM   13  C   UNL     1      -6.857   5.728  64.971  1.00  0.00    -0.051 C  
HETATM   14  N   UNL     1      -8.966   7.942  65.948  1.00  0.00    -0.155 N  
HETATM   15  O   UNL     1     -10.477   9.400  71.160  1.00  0.00    -0.299 OA 
HETATM   16  C   UNL     1      -9.643   8.872  66.717  1.00  0.00    -0.202 C  
HETATM   17  C   UNL     1      -7.407   8.418  65.480  1.00  0.00    -0.083 C  
HETATM   18  C   UNL     1      -7.673   6.762  64.545  1.00  0.00    -0.113 C  
HETATM   19  C   UNL     1      -7.138   7.358  66.338  1.00  0.00    -0.074 C  
HETATM   20  O   UNL     1      -9.477  10.082  66.542  1.00  0.00    -0.162 OA 
ENDROOT
BRANCH   9  21
HETATM   21  C   UNL     1     -12.405   6.864  71.509  1.00  0.00    -0.376 C  
HETATM   22  H   UNL     1     -12.335   5.914  73.339  1.00  0.00     0.000 HD 
HETATM   23  O   UNL     1     -13.599   7.135  71.646  1.00  0.00    -0.377 OA 
HETATM   24  N   UNL     1     -11.833   6.062  72.464  1.00  0.00    -0.248 N  
BRANCH  24  25
HETATM   25  C   UNL     1     -10.565   5.424  72.287  1.00  0.00    -0.225 C  
BRANCH  25  26
HETATM   26  C   UNL     1      -9.313   6.162  72.597  1.00  0.00    -0.146 A  
HETATM   27  C   UNL     1      -7.212   7.069  71.778  1.00  0.00    -0.078 A  
HETATM   28  C   UNL     1      -7.173   7.918  72.874  1.00  0.00    -0.090 A  
HETATM   29  C   UNL     1      -8.282   6.195  71.651  1.00  0.00    -0.118 A  
HETATM   30  F   UNL     1      -8.356   5.432  70.550  1.00  0.00    -0.101 F  
HETATM   31  F   UNL     1      -6.163   8.788  72.990  1.00  0.00    -0.095 F  
HETATM   32  C   UNL     1      -8.178   7.908  73.835  1.00  0.00    -0.286 A  
HETATM   33  C   UNL     1      -9.244   7.029  73.686  1.00  0.00    -0.179 A  
HETATM   34  F   UNL     1     -10.257   7.085  74.561  1.00  0.00    -0.344 F  
ENDBRANCH  25  26
ENDBRANCH  24  25
ENDBRANCH   9  21
TORSDOF 3
ENDMDL
MODEL      156
REMARK 921   NORMALIZED FREE ENERGY PREDICTED BY IDOCK:   -5.07 KCAL/MOL
REMARK 922        TOTAL FREE ENERGY PREDICTED BY IDOCK:   -6.70 KCAL/MOL
REMARK 923 INTER-LIGAND FREE ENERGY PREDICTED BY IDOCK:   -5.97 KCAL/MOL
REMARK 924 INTRA-LIGAND FREE ENERGY PREDICTED BY IDOCK:   -0.73 KCAL/MOL
REMARK 927      BINDING AFFINITY PREDICTED BY RF-SCORE:    0.00 PKD
ROOT
HETATM    1  O   UNL     1     -12.536  14.636  64.116  1.00  0.00    -0.743 OA 
HETATM    2  H   UNL     1     -12.642  15.148  63.323  1.00  0.00     0.000 HD 
HETATM    3  C   UNL     1     -12.002  15.055  65.322  1.00  0.00    -0.086 C  
HETATM    4  C   UNL     1     -11.850  14.326  66.452  1.00  0.00    -0.411 C  
HETATM    5  N   UNL     1     -11.258  14.877  67.606  1.00  0.00    -0.312 NA 
HETATM    6  C   UNL     1     -10.584  14.054  68.610  1.00  0.00    -0.257 C  
HETATM    7  C   UNL     1     -11.001  16.251  67.636  1.00  0.00    -0.245 C  
HETATM    8  C   UNL     1     -11.085  12.615  68.686  1.00  0.00    -0.305 C  
HETATM    9  C   UNL     1     -11.041  17.081  66.577  1.00  0.00     0.362 C  
HETATM   10  C   UNL     1     -11.239  16.334  65.305  1.00  0.00    -0.033 C  
HETATM   11  O   UNL     1      -9.817  11.758  69.325  1.00  0.00     0.123 OA 
HETATM   12  C   UNL     1      -9.802   9.441  67.562  1.00  0.00    -0.220 C  
HETATM   13  C   UNL     1      -9.688  10.240  69.057  1.00  0.00    -0.205 C  
HETATM   14  N   UNL     1     -11.691  11.989  67.259  1.00  0.00    -0.308 N  
HETATM   15  O   UNL     1     -10.684  16.627  64.250  1.00  0.00    -0.461 OA 
HETATM   16  C   UNL     1     -12.193  12.856  66.305  1.00  0.00    -0.270 C  
HETATM   17  C   UNL     1     -11.037  10.556  66.632  1.00  0.00    -0.006 C  
HETATM   18  C   UNL     1     -10.968  10.290  68.532  1.00  0.00    -0.294 C  
HETATM   19  C   UNL     1      -9.909  11.187  67.144  1.00  0.00    -0.212 C  
HETATM   20  O   UNL     1     -12.717  12.430  65.273  1.00  0.00    -0.617 OA 
ENDROOT
BRANCH   9  21
HETATM   21  C   UNL     1     -10.730  18.532  66.827  1.00  0.00    -0.257 C  
HETATM   22  H   UNL     1      -9.311  20.029  66.765  1.00  0.00     0.000 HD 
HETATM   23  O   UNL     1     -11.646  19.345  66.969  1.00  0.00     0.279 OA 
HETATM   24  N   UNL     1      -9.450  19.022  66.855  1.00  0.00    -0.306 N  
BRANCH  24  25
HETATM   25  C   UNL     1      -8.299  18.185  67.004  1.00  0.00    -0.240 C  
BRANCH  25  26
HETATM   26  C   UNL     1      -7.352  18.418  68.125  1.00  0.00    -0.271 A  
HETATM   27  C   UNL     1      -6.027  20.015  69.390  1.00  0.00    -0.336 A  
HETATM   28  C   UNL     1      -5.980  19.113  70.443  1.00  0.00    -0.137 A  
HETATM   29  C   UNL     1      -6.712  19.657  68.238  1.00  0.00    -0.278 A  
HETATM   30  F   UNL     1      -6.823  20.563  67.255  1.00  0.00    -0.249 F  
HETATM   31  F   UNL     1      -5.350  19.460  71.571  1.00  0.00    -0.250 F  
HETATM   32  C   UNL     1      -6.600  17.872  70.362  1.00  0.00     0.951 A  
HETATM   33  C   UNL     1      -7.286  17.535  69.202  1.00  0.00    -0.161 A  
HETATM   34  F   UNL     1      -7.961  16.379  69.160  1.00  0.00    -0.217 F  
ENDBRANCH  25  26
ENDBRANCH  24  25
ENDBRANCH   9  21
TORSDOF 3
ENDMDL
MODEL      157
REMARK 921   NORMALIZED FREE ENERGY PREDICTED BY IDOCK:   -5.05 KCAL/MOL
REMARK 922        TOTAL FREE ENERGY PREDICTED BY IDOCK:   -6.68 KCAL/MOL
REMARK 923 INTER-LIGAND FREE ENERGY PREDICTED BY IDOCK:   -5.51 KCAL/MOL
REMARK 924 INTRA-LIGAND FREE ENERGY PREDICTED BY IDOCK:   -1.17 KCAL/MOL
REMARK 927      BINDING AFFINITY PREDICTED BY RF-SCORE:    0.00 PKD
ROOT
HETATM    1  O   UNL     1     -11.920  11.238  68.281  1.00  0.00    -0.582 OA 
HETATM    2  H   UNL     1     -12.450  11.804  68.831  1.00  0.00     0.000 HD 
HETATM    3  C   UNL     1     -11.406   9.995  68.602  1.00  0.00    -0.055 C  
HETATM    4  C   UNL     1     -10.651   9.189  67.819  1.00  0.00    -0.227 C  
HETATM    5  N   UNL     1     -10.167   7.953  68.290  1.00  0.00    -0.199 NA 
HETATM    6  C   UNL     1      -8.959   7.327  67.752  1.00  0.00    -0.126 C  
HETATM    7  C   UNL     1     -10.637   7.474  69.517  1.00  0.00    -0.236 C  
HETATM    8  C   UNL     1      -8.636   7.715  66.312  1.00  0.00    -0.153 C  
HETATM    9  C   UNL     1     -11.332   8.185  70.424  1.00  0.00    -0.181 C  
HETATM   10  C   UNL     1     -11.417   9.621  70.043  1.00  0.00    -0.145 C  
HETATM   11  O   UNL     1      -7.001   7.478  66.166  1.00  0.00    -0.062 OA 
HETATM   12  C   UNL     1      -6.233   9.920  64.778  1.00  0.00    -0.107 C  
HETATM   13  C   UNL     1      -6.193   8.252  65.098  1.00  0.00    -0.045 C  
HETATM   14  N   UNL     1      -9.158   9.232  65.843  1.00  0.00    -0.182 N  
HETATM   15  O   UNL     1     -11.347  10.544  70.849  1.00  0.00    -0.306 OA 
HETATM   16  C   UNL     1     -10.233   9.806  66.498  1.00  0.00    -0.219 C  
HETATM   17  C   UNL     1      -8.038  10.345  65.222  1.00  0.00    -0.152 C  
HETATM   18  C   UNL     1      -7.406   8.654  64.566  1.00  0.00    -0.099 C  
HETATM   19  C   UNL     1      -7.297   9.714  66.215  1.00  0.00    -0.094 C  
HETATM   20  O   UNL     1     -10.694  10.890  66.133  1.00  0.00    -0.235 OA 
ENDROOT
BRANCH   9  21
HETATM   21  C   UNL     1     -11.744   7.476  71.686  1.00  0.00    -0.282 C  
HETATM   22  H   UNL     1     -11.524   7.326  73.732  1.00  0.00     0.000 HD 
HETATM   23  O   UNL     1     -12.760   6.778  71.699  1.00  0.00    -0.366 OA 
HETATM   24  N   UNL     1     -11.061   7.608  72.868  1.00  0.00    -0.381 N  
BRANCH  24  25
HETATM   25  C   UNL     1      -9.730   8.125  72.944  1.00  0.00    -0.270 C  
BRANCH  25  26
HETATM   26  C   UNL     1      -8.586   7.304  72.467  1.00  0.00    -0.131 A  
HETATM   27  C   UNL     1      -7.602   5.093  72.248  1.00  0.00    -0.096 A  
HETATM   28  C   UNL     1      -6.793   5.574  71.230  1.00  0.00    -0.057 A  
HETATM   29  C   UNL     1      -8.491   5.965  72.860  1.00  0.00    -0.121 A  
HETATM   30  F   UNL     1      -9.326   5.476  73.789  1.00  0.00    -0.134 F  
HETATM   31  F   UNL     1      -5.954   4.735  70.611  1.00  0.00    -0.014 F  
HETATM   32  C   UNL     1      -6.858   6.900  70.818  1.00  0.00    -0.058 A  
HETATM   33  C   UNL     1      -7.760   7.756  71.440  1.00  0.00    -0.082 A  
HETATM   34  F   UNL     1      -7.889   9.007  70.980  1.00  0.00    -0.111 F  
ENDBRANCH  25  26
ENDBRANCH  24  25
ENDBRANCH   9  21
TORSDOF 3
ENDMDL
MODEL      158
REMARK 921   NORMALIZED FREE ENERGY PREDICTED BY IDOCK:   -5.04 KCAL/MOL
REMARK 922        TOTAL FREE ENERGY PREDICTED BY IDOCK:   -6.67 KCAL/MOL
REMARK 923 INTER-LIGAND FREE ENERGY PREDICTED BY IDOCK:   -6.41 KCAL/MOL
REMARK 924 INTRA-LIGAND FREE ENERGY PREDICTED BY IDOCK:   -0.26 KCAL/MOL
REMARK 927      BINDING AFFINITY PREDICTED BY RF-SCORE:    0.00 PKD
ROOT
HETATM    1  O   UNL     1     -11.301   9.729  71.333  1.00  0.00    -0.369 OA 
HETATM    2  H   UNL     1     -11.204   9.526  72.256  1.00  0.00     0.000 HD 
HETATM    3  C   UNL     1     -10.478   9.332  70.294  1.00  0.00    -0.228 C  
HETATM    4  C   UNL     1     -10.615   9.621  68.979  1.00  0.00    -0.218 C  
HETATM    5  N   UNL     1      -9.677   9.172  68.028  1.00  0.00    -0.151 NA 
HETATM    6  C   UNL     1      -9.454   9.866  66.760  1.00  0.00    -0.169 C  
HETATM    7  C   UNL     1      -8.700   8.257  68.432  1.00  0.00    -0.133 C  
HETATM    8  C   UNL     1     -10.654  10.660  66.254  1.00  0.00    -0.229 C  
HETATM    9  C   UNL     1      -8.406   7.932  69.704  1.00  0.00    -0.131 C  
HETATM   10  C   UNL     1      -9.143   8.790  70.671  1.00  0.00    -0.186 C  
HETATM   11  O   UNL     1     -10.007  11.829  65.273  1.00  0.00    -0.242 OA 
HETATM   12  C   UNL     1     -11.502  14.161  66.170  1.00  0.00    -0.350 C  
HETATM   13  C   UNL     1     -10.777  13.146  65.016  1.00  0.00    -0.323 C  
HETATM   14  N   UNL     1     -11.680  11.243  67.439  1.00  0.00    -0.145 N  
HETATM   15  O   UNL     1      -8.657   9.209  71.717  1.00  0.00    -0.340 OA 
HETATM   16  C   UNL     1     -11.732  10.597  68.661  1.00  0.00    -0.158 C  
HETATM   17  C   UNL     1     -12.016  12.904  67.508  1.00  0.00    -0.354 C  
HETATM   18  C   UNL     1     -11.867  12.551  65.626  1.00  0.00    -0.493 C  
HETATM   19  C   UNL     1     -10.673  12.897  67.145  1.00  0.00    -0.268 C  
HETATM   20  O   UNL     1     -12.529  10.951  69.533  1.00  0.00    -0.305 OA 
ENDROOT
BRANCH   9  21
HETATM   21  C   UNL     1      -7.313   6.920  69.921  1.00  0.00    -0.088 C  
HETATM   22  H   UNL     1      -6.680   4.976  69.640  1.00  0.00     0.000 HD 
HETATM   23  O   UNL     1      -6.180   7.291  70.232  1.00  0.00    -0.030 OA 
HETATM   24  N   UNL     1      -7.501   5.574  69.736  1.00  0.00    -0.069 N  
BRANCH  24  25
HETATM   25  C   UNL     1      -8.797   4.971  69.671  1.00  0.00    -0.094 C  
BRANCH  25  26
HETATM   26  C   UNL     1      -9.372   4.315  70.874  1.00  0.00    -0.220 A  
HETATM   27  C   UNL     1     -10.016   2.241  71.965  1.00  0.00    -0.231 A  
HETATM   28  C   UNL     1      -9.964   2.892  73.189  1.00  0.00    -0.116 A  
HETATM   29  C   UNL     1      -9.721   2.961  70.817  1.00  0.00    -0.051 A  
HETATM   30  F   UNL     1      -9.695   2.309  69.645  1.00  0.00    -0.182 F  
HETATM   31  F   UNL     1     -10.216   2.200  74.307  1.00  0.00    -0.123 F  
HETATM   32  C   UNL     1      -9.626   4.237  73.281  1.00  0.00    -0.139 A  
HETATM   33  C   UNL     1      -9.328   4.938  72.119  1.00  0.00    -0.136 A  
HETATM   34  F   UNL     1      -8.912   6.207  72.217  1.00  0.00    -0.137 F  
ENDBRANCH  25  26
ENDBRANCH  24  25
ENDBRANCH   9  21
TORSDOF 3
ENDMDL
MODEL      159
REMARK 921   NORMALIZED FREE ENERGY PREDICTED BY IDOCK:   -5.04 KCAL/MOL
REMARK 922        TOTAL FREE ENERGY PREDICTED BY IDOCK:   -6.66 KCAL/MOL
REMARK 923 INTER-LIGAND FREE ENERGY PREDICTED BY IDOCK:   -5.51 KCAL/MOL
REMARK 924 INTRA-LIGAND FREE ENERGY PREDICTED BY IDOCK:   -1.15 KCAL/MOL
REMARK 927      BINDING AFFINITY PREDICTED BY RF-SCORE:    0.00 PKD
ROOT
HETATM    1  O   UNL     1      -6.279   9.524  71.581  1.00  0.00    -0.239 OA 
HETATM    2  H   UNL     1      -6.007  10.434  71.540  1.00  0.00     0.000 HD 
HETATM    3  C   UNL     1      -6.973   8.810  70.621  1.00  0.00    -0.053 C  
HETATM    4  C   UNL     1      -7.361   7.515  70.679  1.00  0.00    -0.068 C  
HETATM    5  N   UNL     1      -8.093   6.921  69.632  1.00  0.00    -0.124 NA 
HETATM    6  C   UNL     1      -8.980   5.778  69.846  1.00  0.00    -0.131 C  
HETATM    7  C   UNL     1      -8.252   7.632  68.438  1.00  0.00    -0.125 C  
HETATM    8  C   UNL     1      -8.603   4.901  71.036  1.00  0.00    -0.131 C  
HETATM    9  C   UNL     1      -7.979   8.938  68.260  1.00  0.00    -0.105 C  
HETATM   10  C   UNL     1      -7.628   9.603  69.545  1.00  0.00    -0.104 C  
HETATM   11  O   UNL     1     -10.017   4.155  71.479  1.00  0.00    -0.182 OA 
HETATM   12  C   UNL     1      -9.908   4.485  74.370  1.00  0.00    -0.195 C  
HETATM   13  C   UNL     1     -10.208   3.642  72.925  1.00  0.00    -0.163 C  
HETATM   14  N   UNL     1      -7.817   5.686  72.286  1.00  0.00    -0.102 N  
HETATM   15  O   UNL     1      -7.980  10.742  69.839  1.00  0.00     0.057 OA 
HETATM   16  C   UNL     1      -7.103   6.839  72.012  1.00  0.00    -0.075 C  
HETATM   17  C   UNL     1      -8.460   5.612  73.853  1.00  0.00    -0.112 C  
HETATM   18  C   UNL     1      -8.860   3.883  73.120  1.00  0.00    -0.101 C  
HETATM   19  C   UNL     1      -9.609   5.697  73.074  1.00  0.00    -0.159 C  
HETATM   20  O   UNL     1      -6.450   7.405  72.892  1.00  0.00    -0.058 OA 
ENDROOT
BRANCH   9  21
HETATM   21  C   UNL     1      -8.222   9.511  66.890  1.00  0.00    -0.113 C  
HETATM   22  H   UNL     1      -9.506  10.556  65.659  1.00  0.00     0.000 HD 
HETATM   23  O   UNL     1      -7.284   9.649  66.102  1.00  0.00    -0.094 OA 
HETATM   24  N   UNL     1      -9.454   9.949  66.477  1.00  0.00    -0.172 N  
BRANCH  24  25
HETATM   25  C   UNL     1     -10.670   9.591  67.140  1.00  0.00    -0.182 C  
BRANCH  25  26
HETATM   26  C   UNL     1     -11.245  10.491  68.174  1.00  0.00    -0.357 A  
HETATM   27  C   UNL     1     -11.553  10.962  70.538  1.00  0.00    -0.397 A  
HETATM   28  C   UNL     1     -11.819  12.286  70.220  1.00  0.00    -0.240 A  
HETATM   29  C   UNL     1     -11.270  10.075  69.510  1.00  0.00    -0.208 A  
HETATM   30  F   UNL     1     -10.936   8.815  69.827  1.00  0.00    -0.235 F  
HETATM   31  F   UNL     1     -12.061  13.157  71.206  1.00  0.00    -0.371 F  
HETATM   32  C   UNL     1     -11.806  12.732  68.904  1.00  0.00    -0.351 A  
HETATM   33  C   UNL     1     -11.515  11.828  67.889  1.00  0.00    -0.317 A  
HETATM   34  F   UNL     1     -11.411  12.277  66.631  1.00  0.00    -0.305 F  
ENDBRANCH  25  26
ENDBRANCH  24  25
ENDBRANCH   9  21
TORSDOF 3
ENDMDL
MODEL      160
REMARK 921   NORMALIZED FREE ENERGY PREDICTED BY IDOCK:   -5.02 KCAL/MOL
REMARK 922        TOTAL FREE ENERGY PREDICTED BY IDOCK:   -6.64 KCAL/MOL
REMARK 923 INTER-LIGAND FREE ENERGY PREDICTED BY IDOCK:   -7.12 KCAL/MOL
REMARK 924 INTRA-LIGAND FREE ENERGY PREDICTED BY IDOCK:    0.47 KCAL/MOL
REMARK 927      BINDING AFFINITY PREDICTED BY RF-SCORE:    0.00 PKD
ROOT
HETATM    1  O   UNL     1     -12.730   8.222  72.941  1.00  0.00    -0.638 OA 
HETATM    2  H   UNL     1     -13.508   8.450  73.438  1.00  0.00     0.000 HD 
HETATM    3  C   UNL     1     -12.070   9.002  72.009  1.00  0.00    -0.370 C  
HETATM    4  C   UNL     1     -10.963   8.679  71.302  1.00  0.00    -0.267 C  
HETATM    5  N   UNL     1     -10.411   9.566  70.357  1.00  0.00    -0.256 NA 
HETATM    6  C   UNL     1      -9.612   9.104  69.222  1.00  0.00    -0.159 C  
HETATM    7  C   UNL     1     -10.909  10.871  70.293  1.00  0.00     0.135 C  
HETATM    8  C   UNL     1      -8.897   7.777  69.452  1.00  0.00    -0.139 C  
HETATM    9  C   UNL     1     -12.036  11.311  70.883  1.00  0.00    -0.406 C  
HETATM   10  C   UNL     1     -12.802  10.194  71.499  1.00  0.00    -0.443 C  
HETATM   11  O   UNL     1      -8.658   7.155  67.933  1.00  0.00    -0.123 OA 
HETATM   12  C   UNL     1      -9.466   4.390  68.360  1.00  0.00    -0.213 C  
HETATM   13  C   UNL     1      -8.489   5.630  67.733  1.00  0.00    -0.102 C  
HETATM   14  N   UNL     1      -9.651   6.730  70.516  1.00  0.00    -0.169 N  
HETATM   15  O   UNL     1     -14.028  10.119  71.483  1.00  0.00     0.006 OA 
HETATM   16  C   UNL     1     -10.497   7.247  71.481  1.00  0.00    -0.202 C  
HETATM   17  C   UNL     1     -10.042   5.161  70.006  1.00  0.00    -0.345 C  
HETATM   18  C   UNL     1      -8.384   5.527  69.109  1.00  0.00    -0.098 C  
HETATM   19  C   UNL     1     -10.294   5.907  68.859  1.00  0.00    -0.290 C  
HETATM   20  O   UNL     1     -11.013   6.515  72.330  1.00  0.00    -0.230 OA 
ENDROOT
BRANCH   9  21
HETATM   21  C   UNL     1     -12.395  12.760  70.687  1.00  0.00    -0.297 C  
HETATM   22  H   UNL     1     -12.570  14.330  69.361  1.00  0.00     0.000 HD 
HETATM   23  O   UNL     1     -13.036  13.360  71.552  1.00  0.00    -0.363 OA 
HETATM   24  N   UNL     1     -12.084  13.454  69.546  1.00  0.00    -0.304 N  
BRANCH  24  25
HETATM   25  C   UNL     1     -11.107  13.003  68.603  1.00  0.00    -0.269 C  
BRANCH  25  26
HETATM   26  C   UNL     1      -9.841  13.761  68.424  1.00  0.00    -0.227 A  
HETATM   27  C   UNL     1      -8.516  15.706  69.029  1.00  0.00    -0.231 A  
HETATM   28  C   UNL     1      -7.379  15.044  68.588  1.00  0.00    -0.118 A  
HETATM   29  C   UNL     1      -9.739  15.058  68.939  1.00  0.00    -0.224 A  
HETATM   30  F   UNL     1     -10.823  15.670  69.439  1.00  0.00    -0.207 F  
HETATM   31  F   UNL     1      -6.189  15.647  68.698  1.00  0.00    -0.095 F  
HETATM   32  C   UNL     1      -7.446  13.758  68.066  1.00  0.00    -0.139 A  
HETATM   33  C   UNL     1      -8.680  13.124  67.991  1.00  0.00    -0.190 A  
HETATM   34  F   UNL     1      -8.731  11.852  67.576  1.00  0.00    -0.144 F  
ENDBRANCH  25  26
ENDBRANCH  24  25
ENDBRANCH   9  21
TORSDOF 3
ENDMDL
MODEL      161
REMARK 921   NORMALIZED FREE ENERGY PREDICTED BY IDOCK:   -5.01 KCAL/MOL
REMARK 922        TOTAL FREE ENERGY PREDICTED BY IDOCK:   -6.63 KCAL/MOL
REMARK 923 INTER-LIGAND FREE ENERGY PREDICTED BY IDOCK:   -6.88 KCAL/MOL
REMARK 924 INTRA-LIGAND FREE ENERGY PREDICTED BY IDOCK:    0.25 KCAL/MOL
REMARK 927      BINDING AFFINITY PREDICTED BY RF-SCORE:    0.00 PKD
ROOT
HETATM    1  O   UNL     1      -6.694  14.079  70.353  1.00  0.00    -0.399 OA 
HETATM    2  H   UNL     1      -6.714  14.902  70.828  1.00  0.00     0.000 HD 
HETATM    3  C   UNL     1      -7.313  13.788  69.150  1.00  0.00     0.019 C  
HETATM    4  C   UNL     1      -7.284  12.616  68.473  1.00  0.00    -0.113 C  
HETATM    5  N   UNL     1      -7.991  12.450  67.265  1.00  0.00    -0.177 NA 
HETATM    6  C   UNL     1      -8.446  11.141  66.797  1.00  0.00    -0.153 C  
HETATM    7  C   UNL     1      -8.571  13.575  66.669  1.00  0.00     0.077 C  
HETATM    8  C   UNL     1      -7.613   9.967  67.301  1.00  0.00    -0.088 C  
HETATM    9  C   UNL     1      -8.733  14.777  67.251  1.00  0.00    -0.226 C  
HETATM   10  C   UNL     1      -8.361  14.741  68.692  1.00  0.00    -0.165 C  
HETATM   11  O   UNL     1      -8.637   8.663  67.238  1.00  0.00    -0.124 OA 
HETATM   12  C   UNL     1      -8.094   7.439  69.824  1.00  0.00    -0.127 C  
HETATM   13  C   UNL     1      -8.397   7.439  68.152  1.00  0.00    -0.124 C  
HETATM   14  N   UNL     1      -6.875  10.193  68.784  1.00  0.00    -0.060 N  
HETATM   15  O   UNL     1      -8.971  15.348  69.567  1.00  0.00    -0.263 OA 
HETATM   16  C   UNL     1      -6.597  11.481  69.206  1.00  0.00    -0.113 C  
HETATM   17  C   UNL     1      -7.165   9.089  70.038  1.00  0.00    -0.058 C  
HETATM   18  C   UNL     1      -7.167   7.993  68.461  1.00  0.00    -0.085 C  
HETATM   19  C   UNL     1      -8.411   9.164  69.427  1.00  0.00    -0.130 C  
HETATM   20  O   UNL     1      -5.987  11.686  70.258  1.00  0.00    -0.148 OA 
ENDROOT
BRANCH   9  21
HETATM   21  C   UNL     1      -9.384  15.857  66.430  1.00  0.00    -0.297 C  
HETATM   22  H   UNL     1     -11.134  16.590  65.618  1.00  0.00     0.000 HD 
HETATM   23  O   UNL     1      -8.791  16.918  66.221  1.00  0.00    -0.283 OA 
HETATM   24  N   UNL     1     -10.657  15.744  65.931  1.00  0.00    -0.329 N  
BRANCH  24  25
HETATM   25  C   UNL     1     -11.345  14.494  65.830  1.00  0.00    -0.341 C  
BRANCH  25  26
HETATM   26  C   UNL     1     -11.752  13.769  67.062  1.00  0.00    -0.420 A  
HETATM   27  C   UNL     1     -11.821  11.661  68.269  1.00  0.00    -0.335 A  
HETATM   28  C   UNL     1     -11.998  12.366  69.451  1.00  0.00    -0.260 A  
HETATM   29  C   UNL     1     -11.703  12.371  67.083  1.00  0.00    -0.345 A  
HETATM   30  F   UNL     1     -11.453  11.690  65.955  1.00  0.00    -0.371 F  
HETATM   31  F   UNL     1     -12.081  11.694  70.605  1.00  0.00    -0.408 F  
HETATM   32  C   UNL     1     -12.056  13.755  69.465  1.00  0.00    -0.386 A  
HETATM   33  C   UNL     1     -11.929  14.447  68.267  1.00  0.00    -0.288 A  
HETATM   34  F   UNL     1     -11.892  15.785  68.292  1.00  0.00    -0.358 F  
ENDBRANCH  25  26
ENDBRANCH  24  25
ENDBRANCH   9  21
TORSDOF 3
ENDMDL
MODEL      162
REMARK 921   NORMALIZED FREE ENERGY PREDICTED BY IDOCK:   -4.96 KCAL/MOL
REMARK 922        TOTAL FREE ENERGY PREDICTED BY IDOCK:   -6.57 KCAL/MOL
REMARK 923 INTER-LIGAND FREE ENERGY PREDICTED BY IDOCK:   -5.91 KCAL/MOL
REMARK 924 INTRA-LIGAND FREE ENERGY PREDICTED BY IDOCK:   -0.66 KCAL/MOL
REMARK 927      BINDING AFFINITY PREDICTED BY RF-SCORE:    0.00 PKD
ROOT
HETATM    1  O   UNL     1      -8.965  11.532  69.315  1.00  0.00    -0.369 OA 
HETATM    2  H   UNL     1      -8.341  11.492  70.031  1.00  0.00     0.000 HD 
HETATM    3  C   UNL     1      -8.935  10.816  68.132  1.00  0.00    -0.140 C  
HETATM    4  C   UNL     1      -9.823  10.874  67.112  1.00  0.00    -0.184 C  
HETATM    5  N   UNL     1      -9.650  10.104  65.945  1.00  0.00    -0.201 NA 
HETATM    6  C   UNL     1     -10.211  10.502  64.654  1.00  0.00    -0.294 C  
HETATM    7  C   UNL     1      -8.647   9.129  65.928  1.00  0.00    -0.151 C  
HETATM    8  C   UNL     1     -11.456  11.378  64.749  1.00  0.00    -0.056 C  
HETATM    9  C   UNL     1      -7.660   9.002  66.833  1.00  0.00    -0.094 C  
HETATM   10  C   UNL     1      -7.653  10.137  67.796  1.00  0.00    -0.090 C  
HETATM   11  O   UNL     1     -11.494  12.218  63.320  1.00  0.00    -0.417 OA 
HETATM   12  C   UNL     1     -12.100  14.894  64.295  1.00  0.00    -0.373 C  
HETATM   13  C   UNL     1     -12.232  13.574  63.232  1.00  0.00    -0.146 C  
HETATM   14  N   UNL     1     -11.556  12.336  66.116  1.00  0.00    -0.386 N  
HETATM   15  O   UNL     1      -6.628  10.656  68.229  1.00  0.00    -0.061 OA 
HETATM   16  C   UNL     1     -10.884  11.947  67.261  1.00  0.00    -0.247 C  
HETATM   17  C   UNL     1     -11.744  14.013  65.947  1.00  0.00    -0.373 C  
HETATM   18  C   UNL     1     -12.757  13.295  64.482  1.00  0.00    -0.229 C  
HETATM   19  C   UNL     1     -10.884  13.713  64.896  1.00  0.00    -0.382 C  
HETATM   20  O   UNL     1     -10.994  12.587  68.309  1.00  0.00    -0.217 OA 
ENDROOT
BRANCH   9  21
HETATM   21  C   UNL     1      -6.679   7.879  66.629  1.00  0.00    -0.063 C  
HETATM   22  H   UNL     1      -6.356   5.841  66.665  1.00  0.00     0.000 HD 
HETATM   23  O   UNL     1      -5.629   8.079  66.016  1.00  0.00    -0.035 OA 
HETATM   24  N   UNL     1      -6.920   6.597  67.054  1.00  0.00    -0.069 N  
BRANCH  24  25
HETATM   25  C   UNL     1      -7.925   6.273  68.019  1.00  0.00    -0.108 C  
BRANCH  25  26
HETATM   26  C   UNL     1      -8.099   7.124  69.225  1.00  0.00    -0.120 A  
HETATM   27  C   UNL     1      -9.636   8.149  70.804  1.00  0.00    -0.185 A  
HETATM   28  C   UNL     1      -8.592   8.272  71.710  1.00  0.00    -0.161 A  
HETATM   29  C   UNL     1      -9.378   7.577  69.567  1.00  0.00    -0.153 A  
HETATM   30  F   UNL     1     -10.405   7.387  68.726  1.00  0.00    -0.179 F  
HETATM   31  F   UNL     1      -8.835   8.793  72.918  1.00  0.00    -0.279 F  
HETATM   32  C   UNL     1      -7.309   7.838  71.401  1.00  0.00    -0.067 A  
HETATM   33  C   UNL     1      -7.073   7.262  70.158  1.00  0.00    -0.065 A  
HETATM   34  F   UNL     1      -5.860   6.758  69.896  1.00  0.00    -0.020 F  
ENDBRANCH  25  26
ENDBRANCH  24  25
ENDBRANCH   9  21
TORSDOF 3
ENDMDL
MODEL      163
REMARK 921   NORMALIZED FREE ENERGY PREDICTED BY IDOCK:   -4.94 KCAL/MOL
REMARK 922        TOTAL FREE ENERGY PREDICTED BY IDOCK:   -6.55 KCAL/MOL
REMARK 923 INTER-LIGAND FREE ENERGY PREDICTED BY IDOCK:   -5.86 KCAL/MOL
REMARK 924 INTRA-LIGAND FREE ENERGY PREDICTED BY IDOCK:   -0.70 KCAL/MOL
REMARK 927      BINDING AFFINITY PREDICTED BY RF-SCORE:    0.00 PKD
ROOT
HETATM    1  O   UNL     1     -12.226  14.995  67.868  1.00  0.00    -0.518 OA 
HETATM    2  H   UNL     1     -12.905  14.495  68.305  1.00  0.00     0.000 HD 
HETATM    3  C   UNL     1     -10.875  14.705  67.807  1.00  0.00    -0.267 C  
HETATM    4  C   UNL     1      -9.907  15.418  67.184  1.00  0.00    -0.221 C  
HETATM    5  N   UNL     1      -8.557  15.017  67.230  1.00  0.00    -0.192 NA 
HETATM    6  C   UNL     1      -7.453  15.965  67.079  1.00  0.00    -0.219 C  
HETATM    7  C   UNL     1      -8.248  13.763  67.767  1.00  0.00    -0.174 C  
HETATM    8  C   UNL     1      -7.798  17.211  66.270  1.00  0.00    -0.351 C  
HETATM    9  C   UNL     1      -9.088  12.983  68.472  1.00  0.00    -0.053 C  
HETATM   10  C   UNL     1     -10.369  13.682  68.763  1.00  0.00    -0.173 C  
HETATM   11  O   UNL     1      -6.722  18.363  66.786  1.00  0.00    -0.181 OA 
HETATM   12  C   UNL     1      -8.503  20.644  67.113  1.00  0.00    -0.292 C  
HETATM   13  C   UNL     1      -7.064  19.865  66.653  1.00  0.00    -0.231 C  
HETATM   14  N   UNL     1      -9.399  17.687  66.331  1.00  0.00    -0.267 N  
HETATM   15  O   UNL     1     -10.974  13.578  69.826  1.00  0.00     0.002 OA 
HETATM   16  C   UNL     1     -10.371  16.742  66.610  1.00  0.00    -0.297 C  
HETATM   17  C   UNL     1      -9.784  19.260  66.834  1.00  0.00    -0.406 C  
HETATM   18  C   UNL     1      -8.139  19.484  65.869  1.00  0.00    -0.204 C  
HETATM   19  C   UNL     1      -8.716  18.945  67.667  1.00  0.00    -0.312 C  
HETATM   20  O   UNL     1     -11.568  17.038  66.590  1.00  0.00     0.858 OA 
ENDROOT
BRANCH   9  21
HETATM   21  C   UNL     1      -8.553  11.664  68.963  1.00  0.00     0.186 C  
HETATM   22  H   UNL     1      -8.473   9.622  68.682  1.00  0.00     0.000 HD 
HETATM   23  O   UNL     1      -7.610  11.636  69.757  1.00  0.00     0.345 OA 
HETATM   24  N   UNL     1      -9.035  10.458  68.523  1.00  0.00    -0.133 N  
BRANCH  24  25
HETATM   25  C   UNL     1     -10.291  10.320  67.852  1.00  0.00    -0.196 C  
BRANCH  25  26
HETATM   26  C   UNL     1     -10.363  10.461  66.374  1.00  0.00    -0.278 A  
HETATM   27  C   UNL     1     -11.010  11.835  64.477  1.00  0.00    -0.382 A  
HETATM   28  C   UNL     1     -10.142  11.106  63.677  1.00  0.00    -0.379 A  
HETATM   29  C   UNL     1     -11.114  11.503  65.820  1.00  0.00    -0.210 A  
HETATM   30  F   UNL     1     -11.894  12.261  66.605  1.00  0.00    -0.416 F  
HETATM   31  F   UNL     1     -10.009  11.436  62.388  1.00  0.00    -0.165 F  
HETATM   32  C   UNL     1      -9.385  10.061  64.195  1.00  0.00    -0.335 A  
HETATM   33  C   UNL     1      -9.500   9.749  65.544  1.00  0.00    -0.262 A  
HETATM   34  F   UNL     1      -8.702   8.806  66.061  1.00  0.00    -0.134 F  
ENDBRANCH  25  26
ENDBRANCH  24  25
ENDBRANCH   9  21
TORSDOF 3
ENDMDL
MODEL      164
REMARK 921   NORMALIZED FREE ENERGY PREDICTED BY IDOCK:   -4.94 KCAL/MOL
REMARK 922        TOTAL FREE ENERGY PREDICTED BY IDOCK:   -6.55 KCAL/MOL
REMARK 923 INTER-LIGAND FREE ENERGY PREDICTED BY IDOCK:   -6.75 KCAL/MOL
REMARK 924 INTRA-LIGAND FREE ENERGY PREDICTED BY IDOCK:    0.21 KCAL/MOL
REMARK 927      BINDING AFFINITY PREDICTED BY RF-SCORE:    0.00 PKD
ROOT
HETATM    1  O   UNL     1     -11.730  16.901  69.855  1.00  0.00     0.037 OA 
HETATM    2  H   UNL     1     -12.292  16.535  70.528  1.00  0.00     0.000 HD 
HETATM    3  C   UNL     1     -11.146  16.235  68.793  1.00  0.00    -0.355 C  
HETATM    4  C   UNL     1     -10.345  16.757  67.835  1.00  0.00    -0.319 C  
HETATM    5  N   UNL     1      -9.792  15.949  66.822  1.00  0.00    -0.236 NA 
HETATM    6  C   UNL     1      -8.550  16.298  66.132  1.00  0.00    -0.307 C  
HETATM    7  C   UNL     1     -10.235  14.628  66.702  1.00  0.00    -0.274 C  
HETATM    8  C   UNL     1      -8.247  17.792  66.093  1.00  0.00    -0.193 C  
HETATM    9  C   UNL     1     -10.971  13.961  67.610  1.00  0.00    -0.278 C  
HETATM   10  C   UNL     1     -11.138  14.748  68.862  1.00  0.00    -0.252 C  
HETATM   11  O   UNL     1      -6.602  17.887  65.914  1.00  0.00    -0.252 OA 
HETATM   12  C   UNL     1      -5.974  19.947  67.875  1.00  0.00    -0.239 C  
HETATM   13  C   UNL     1      -5.838  19.149  66.380  1.00  0.00    -0.161 C  
HETATM   14  N   UNL     1      -8.855  18.681  67.373  1.00  0.00    -0.271 N  
HETATM   15  O   UNL     1     -11.121  14.252  69.985  1.00  0.00    -0.159 OA 
HETATM   16  C   UNL     1      -9.962  18.208  68.055  1.00  0.00    -0.345 C  
HETATM   17  C   UNL     1      -7.800  19.620  68.311  1.00  0.00    -0.355 C  
HETATM   18  C   UNL     1      -7.072  19.757  66.540  1.00  0.00    -0.247 C  
HETATM   19  C   UNL     1      -7.025  18.497  68.045  1.00  0.00    -0.236 C  
HETATM   20  O   UNL     1     -10.484  18.870  68.955  1.00  0.00    -0.177 OA 
ENDROOT
BRANCH   9  21
HETATM   21  C   UNL     1     -11.343  12.540  67.285  1.00  0.00    -0.315 C  
HETATM   22  H   UNL     1     -10.677  10.619  66.930  1.00  0.00     0.000 HD 
HETATM   23  O   UNL     1     -12.507  12.158  67.424  1.00  0.00    -0.087 OA 
HETATM   24  N   UNL     1     -10.423  11.606  66.881  1.00  0.00    -0.220 N  
BRANCH  24  25
HETATM   25  C   UNL     1      -9.124  11.953  66.394  1.00  0.00    -0.208 C  
BRANCH  25  26
HETATM   26  C   UNL     1      -8.322  10.955  65.640  1.00  0.00    -0.105 A  
HETATM   27  C   UNL     1      -8.186   9.452  63.735  1.00  0.00    -0.165 A  
HETATM   28  C   UNL     1      -6.804   9.455  63.856  1.00  0.00    -0.096 A  
HETATM   29  C   UNL     1      -8.933  10.202  64.632  1.00  0.00    -0.209 A  
HETATM   30  F   UNL     1     -10.262  10.260  64.463  1.00  0.00    -0.406 F  
HETATM   31  F   UNL     1      -6.071   8.761  62.977  1.00  0.00    -0.086 F  
HETATM   32  C   UNL     1      -6.165  10.187  64.849  1.00  0.00    -0.125 A  
HETATM   33  C   UNL     1      -6.931  10.936  65.734  1.00  0.00     0.014 A  
HETATM   34  F   UNL     1      -6.311  11.715  66.630  1.00  0.00    -0.128 F  
ENDBRANCH  25  26
ENDBRANCH  24  25
ENDBRANCH   9  21
TORSDOF 3
ENDMDL
MODEL      165
REMARK 921   NORMALIZED FREE ENERGY PREDICTED BY IDOCK:   -4.86 KCAL/MOL
REMARK 922        TOTAL FREE ENERGY PREDICTED BY IDOCK:   -6.46 KCAL/MOL
REMARK 923 INTER-LIGAND FREE ENERGY PREDICTED BY IDOCK:   -5.68 KCAL/MOL
REMARK 924 INTRA-LIGAND FREE ENERGY PREDICTED BY IDOCK:   -0.78 KCAL/MOL
REMARK 927      BINDING AFFINITY PREDICTED BY RF-SCORE:    0.00 PKD
ROOT
HETATM    1  O   UNL     1     -11.553   6.467  67.947  1.00  0.00    -0.623 OA 
HETATM    2  H   UNL     1     -12.178   5.764  68.085  1.00  0.00     0.000 HD 
HETATM    3  C   UNL     1     -10.774   7.100  68.900  1.00  0.00    -0.175 C  
HETATM    4  C   UNL     1      -9.885   8.101  68.703  1.00  0.00    -0.183 C  
HETATM    5  N   UNL     1      -9.178   8.675  69.779  1.00  0.00    -0.152 NA 
HETATM    6  C   UNL     1      -8.662  10.043  69.735  1.00  0.00    -0.179 C  
HETATM    7  C   UNL     1      -9.262   8.068  71.036  1.00  0.00    -0.149 C  
HETATM    8  C   UNL     1      -8.364  10.561  68.332  1.00  0.00    -0.126 C  
HETATM    9  C   UNL     1     -10.145   7.116  71.391  1.00  0.00    -0.196 C  
HETATM   10  C   UNL     1     -11.155   6.882  70.323  1.00  0.00    -0.297 C  
HETATM   11  O   UNL     1      -8.463  12.211  68.459  1.00  0.00    -0.151 OA 
HETATM   12  C   UNL     1     -10.027  12.834  66.083  1.00  0.00    -0.272 C  
HETATM   13  C   UNL     1      -8.781  13.072  67.214  1.00  0.00    -0.209 C  
HETATM   14  N   UNL     1      -9.301   9.906  67.111  1.00  0.00    -0.144 N  
HETATM   15  O   UNL     1     -12.341   6.660  70.545  1.00  0.00    -0.314 OA 
HETATM   16  C   UNL     1      -9.860   8.653  67.291  1.00  0.00    -0.197 C  
HETATM   17  C   UNL     1     -10.192  10.935  66.100  1.00  0.00    -0.304 C  
HETATM   18  C   UNL     1      -8.589  11.930  66.456  1.00  0.00    -0.126 C  
HETATM   19  C   UNL     1     -10.309  11.570  67.331  1.00  0.00    -0.235 C  
HETATM   20  O   UNL     1     -10.494   8.105  66.387  1.00  0.00    -0.154 OA 
ENDROOT
BRANCH   9  21
HETATM   21  C   UNL     1     -10.065   6.595  72.800  1.00  0.00    -0.177 C  
HETATM   22  H   UNL     1      -9.229   5.213  74.084  1.00  0.00     0.000 HD 
HETATM   23  O   UNL     1     -10.484   7.278  73.737  1.00  0.00    -0.370 OA 
HETATM   24  N   UNL     1      -9.488   5.391  73.114  1.00  0.00    -0.143 N  
BRANCH  24  25
HETATM   25  C   UNL     1      -9.234   4.373  72.142  1.00  0.00    -0.127 C  
BRANCH  25  26
HETATM   26  C   UNL     1      -8.341   4.654  70.988  1.00  0.00    -0.098 A  
HETATM   27  C   UNL     1      -6.077   5.054  70.200  1.00  0.00    -0.021 A  
HETATM   28  C   UNL     1      -6.479   4.698  68.921  1.00  0.00    -0.036 A  
HETATM   29  C   UNL     1      -7.014   5.031  71.223  1.00  0.00    -0.048 A  
HETATM   30  F   UNL     1      -6.602   5.299  72.471  1.00  0.00    -0.053 F  
HETATM   31  F   UNL     1      -5.577   4.685  67.933  1.00  0.00    -0.013 F  
HETATM   32  C   UNL     1      -7.790   4.323  68.652  1.00  0.00    -0.073 A  
HETATM   33  C   UNL     1      -8.712   4.301  69.692  1.00  0.00    -0.074 A  
HETATM   34  F   UNL     1      -9.950   3.850  69.451  1.00  0.00    -0.263 F  
ENDBRANCH  25  26
ENDBRANCH  24  25
ENDBRANCH   9  21
TORSDOF 3
ENDMDL
MODEL      166
REMARK 921   NORMALIZED FREE ENERGY PREDICTED BY IDOCK:   -4.86 KCAL/MOL
REMARK 922        TOTAL FREE ENERGY PREDICTED BY IDOCK:   -6.46 KCAL/MOL
REMARK 923 INTER-LIGAND FREE ENERGY PREDICTED BY IDOCK:   -6.02 KCAL/MOL
REMARK 924 INTRA-LIGAND FREE ENERGY PREDICTED BY IDOCK:   -0.44 KCAL/MOL
REMARK 927      BINDING AFFINITY PREDICTED BY RF-SCORE:    0.00 PKD
ROOT
HETATM    1  O   UNL     1     -10.962   6.702  70.627  1.00  0.00    -0.247 OA 
HETATM    2  H   UNL     1     -11.621   7.222  71.072  1.00  0.00     0.000 HD 
HETATM    3  C   UNL     1      -9.876   7.161  69.904  1.00  0.00    -0.174 C  
HETATM    4  C   UNL     1      -8.937   6.419  69.270  1.00  0.00    -0.133 C  
HETATM    5  N   UNL     1      -7.895   7.025  68.540  1.00  0.00    -0.120 NA 
HETATM    6  C   UNL     1      -7.219   6.349  67.433  1.00  0.00    -0.082 C  
HETATM    7  C   UNL     1      -7.728   8.410  68.635  1.00  0.00    -0.107 C  
HETATM    8  C   UNL     1      -7.234   4.826  67.520  1.00  0.00    -0.070 C  
HETATM    9  C   UNL     1      -8.611   9.273  69.169  1.00  0.00    -0.134 C  
HETATM   10  C   UNL     1      -9.891   8.598  69.518  1.00  0.00    -0.187 C  
HETATM   11  O   UNL     1      -7.058   4.310  65.954  1.00  0.00    -0.064 OA 
HETATM   12  C   UNL     1      -9.091   2.228  65.850  1.00  0.00    -0.072 C  
HETATM   13  C   UNL     1      -7.569   2.913  65.531  1.00  0.00    -0.077 C  
HETATM   14  N   UNL     1      -8.545   4.166  68.321  1.00  0.00    -0.093 N  
HETATM   15  O   UNL     1     -10.995   9.113  69.366  1.00  0.00    -0.197 OA 
HETATM   16  C   UNL     1      -9.209   4.928  69.265  1.00  0.00    -0.110 C  
HETATM   17  C   UNL     1      -9.516   3.023  67.530  1.00  0.00    -0.170 C  
HETATM   18  C   UNL     1      -7.751   2.644  66.877  1.00  0.00    -0.071 C  
HETATM   19  C   UNL     1      -9.209   3.902  66.498  1.00  0.00    -0.175 C  
HETATM   20  O   UNL     1     -10.133   4.451  69.929  1.00  0.00    -0.222 OA 
ENDROOT
BRANCH   9  21
HETATM   21  C   UNL     1      -8.235  10.730  69.172  1.00  0.00    -0.120 C  
HETATM   22  H   UNL     1      -8.785  12.656  68.676  1.00  0.00     0.000 HD 
HETATM   23  O   UNL     1      -7.317  11.130  69.890  1.00  0.00     0.010 OA 
HETATM   24  N   UNL     1      -8.909  11.672  68.437  1.00  0.00    -0.166 N  
BRANCH  24  25
HETATM   25  C   UNL     1      -9.779  11.337  67.352  1.00  0.00    -0.173 C  
BRANCH  25  26
HETATM   26  C   UNL     1     -10.372  12.412  66.516  1.00  0.00    -0.248 A  
HETATM   27  C   UNL     1     -10.776  13.284  64.283  1.00  0.00    -0.408 A  
HETATM   28  C   UNL     1     -11.815  14.050  64.791  1.00  0.00    -0.403 A  
HETATM   29  C   UNL     1     -10.062  12.472  65.153  1.00  0.00    -0.246 A  
HETATM   30  F   UNL     1      -9.112  11.674  64.644  1.00  0.00    -0.108 F  
HETATM   31  F   UNL     1     -12.532  14.812  63.957  1.00  0.00    -0.515 F  
HETATM   32  C   UNL     1     -12.146  14.018  66.141  1.00  0.00    -0.471 A  
HETATM   33  C   UNL     1     -11.422  13.194  66.994  1.00  0.00    -0.336 A  
HETATM   34  F   UNL     1     -11.802  13.093  68.274  1.00  0.00    -0.327 F  
ENDBRANCH  25  26
ENDBRANCH  24  25
ENDBRANCH   9  21
TORSDOF 3
ENDMDL
MODEL      167
REMARK 921   NORMALIZED FREE ENERGY PREDICTED BY IDOCK:   -4.86 KCAL/MOL
REMARK 922        TOTAL FREE ENERGY PREDICTED BY IDOCK:   -6.46 KCAL/MOL
REMARK 923 INTER-LIGAND FREE ENERGY PREDICTED BY IDOCK:   -5.62 KCAL/MOL
REMARK 924 INTRA-LIGAND FREE ENERGY PREDICTED BY IDOCK:   -0.84 KCAL/MOL
REMARK 927      BINDING AFFINITY PREDICTED BY RF-SCORE:    0.00 PKD
ROOT
HETATM    1  O   UNL     1      -6.032  11.951  66.891  1.00  0.00    -0.143 OA 
HETATM    2  H   UNL     1      -5.514  11.236  66.537  1.00  0.00     0.000 HD 
HETATM    3  C   UNL     1      -7.368  11.926  67.246  1.00  0.00    -0.146 C  
HETATM    4  C   UNL     1      -8.105  12.943  67.750  1.00  0.00    -0.166 C  
HETATM    5  N   UNL     1      -9.475  12.783  68.040  1.00  0.00    -0.208 NA 
HETATM    6  C   UNL     1     -10.410  13.907  68.048  1.00  0.00    -0.245 C  
HETATM    7  C   UNL     1     -10.026  11.499  67.982  1.00  0.00    -0.189 C  
HETATM    8  C   UNL     1      -9.772  15.258  68.357  1.00  0.00    -0.213 C  
HETATM    9  C   UNL     1      -9.438  10.415  67.442  1.00  0.00    -0.170 C  
HETATM   10  C   UNL     1      -8.167  10.770  66.753  1.00  0.00    -0.135 C  
HETATM   11  O   UNL     1     -10.788  16.374  67.671  1.00  0.00    -0.327 OA 
HETATM   12  C   UNL     1      -8.856  18.122  66.370  1.00  0.00    -0.255 C  
HETATM   13  C   UNL     1     -10.256  17.769  67.267  1.00  0.00    -0.350 C  
HETATM   14  N   UNL     1      -8.170  15.414  67.904  1.00  0.00    -0.140 N  
HETATM   15  O   UNL     1      -7.800  10.259  65.699  1.00  0.00    -0.139 OA 
HETATM   16  C   UNL     1      -7.387  14.278  67.796  1.00  0.00    -0.174 C  
HETATM   17  C   UNL     1      -7.713  16.683  66.875  1.00  0.00    -0.263 C  
HETATM   18  C   UNL     1      -9.098  17.455  67.958  1.00  0.00    -0.259 C  
HETATM   19  C   UNL     1      -8.954  16.326  66.359  1.00  0.00    -0.343 C  
HETATM   20  O   UNL     1      -6.184  14.358  67.537  1.00  0.00    -0.315 OA 
ENDROOT
BRANCH   9  21
HETATM   21  C   UNL     1     -10.207   9.123  67.483  1.00  0.00    -0.245 C  
HETATM   22  H   UNL     1     -11.013   7.630  68.658  1.00  0.00     0.000 HD 
HETATM   23  O   UNL     1     -10.846   8.752  66.497  1.00  0.00     0.010 OA 
HETATM   24  N   UNL     1     -10.281   8.338  68.606  1.00  0.00    -0.201 N  
BRANCH  24  25
HETATM   25  C   UNL     1      -9.377   8.469  69.707  1.00  0.00    -0.161 C  
BRANCH  25  26
HETATM   26  C   UNL     1      -8.434   7.366  70.029  1.00  0.00    -0.138 A  
HETATM   27  C   UNL     1      -8.036   5.304  71.252  1.00  0.00    -0.109 A  
HETATM   28  C   UNL     1      -7.011   5.000  70.368  1.00  0.00    -0.049 A  
HETATM   29  C   UNL     1      -8.737   6.487  71.076  1.00  0.00    -0.138 A  
HETATM   30  F   UNL     1      -9.778   6.738  71.884  1.00  0.00    -0.158 F  
HETATM   31  F   UNL     1      -6.348   3.846  70.509  1.00  0.00    -0.023 F  
HETATM   32  C   UNL     1      -6.680   5.853  69.321  1.00  0.00    -0.060 A  
HETATM   33  C   UNL     1      -7.400   7.030  69.158  1.00  0.00    -0.092 A  
HETATM   34  F   UNL     1      -7.144   7.804  68.096  1.00  0.00    -0.074 F  
ENDBRANCH  25  26
ENDBRANCH  24  25
ENDBRANCH   9  21
TORSDOF 3
ENDMDL
MODEL      168
REMARK 921   NORMALIZED FREE ENERGY PREDICTED BY IDOCK:   -4.81 KCAL/MOL
REMARK 922        TOTAL FREE ENERGY PREDICTED BY IDOCK:   -6.40 KCAL/MOL
REMARK 923 INTER-LIGAND FREE ENERGY PREDICTED BY IDOCK:   -6.20 KCAL/MOL
REMARK 924 INTRA-LIGAND FREE ENERGY PREDICTED BY IDOCK:   -0.19 KCAL/MOL
REMARK 927      BINDING AFFINITY PREDICTED BY RF-SCORE:    0.00 PKD
ROOT
HETATM    1  O   UNL     1     -11.812   9.652  71.974  1.00  0.00    -0.308 OA 
HETATM    2  H   UNL     1     -11.754   9.157  72.783  1.00  0.00     0.000 HD 
HETATM    3  C   UNL     1     -11.301   9.304  70.736  1.00  0.00    -0.287 C  
HETATM    4  C   UNL     1     -11.383  10.010  69.584  1.00  0.00    -0.202 C  
HETATM    5  N   UNL     1     -10.786   9.544  68.396  1.00  0.00    -0.211 NA 
HETATM    6  C   UNL     1     -10.366  10.448  67.324  1.00  0.00    -0.228 C  
HETATM    7  C   UNL     1     -10.268   8.246  68.370  1.00  0.00    -0.209 C  
HETATM    8  C   UNL     1     -11.144  11.759  67.263  1.00  0.00    -0.342 C  
HETATM    9  C   UNL     1     -10.062   7.461  69.444  1.00  0.00    -0.185 C  
HETATM   10  C   UNL     1     -10.304   8.199  70.714  1.00  0.00    -0.196 C  
HETATM   11  O   UNL     1     -10.122  12.823  66.506  1.00  0.00    -0.247 OA 
HETATM   12  C   UNL     1     -10.425  15.158  68.219  1.00  0.00    -0.241 C  
HETATM   13  C   UNL     1     -10.273  14.345  66.735  1.00  0.00    -0.270 C  
HETATM   14  N   UNL     1     -11.748  12.303  68.724  1.00  0.00    -0.324 N  
HETATM   15  O   UNL     1      -9.622   8.055  71.724  1.00  0.00    -0.157 OA 
HETATM   16  C   UNL     1     -11.996  11.389  69.732  1.00  0.00    -0.353 C  
HETATM   17  C   UNL     1     -11.341  13.857  69.268  1.00  0.00    -0.321 C  
HETATM   18  C   UNL     1     -11.473  14.066  67.364  1.00  0.00    -0.373 C  
HETATM   19  C   UNL     1     -10.155  13.439  68.676  1.00  0.00    -0.162 C  
HETATM   20  O   UNL     1     -12.511  11.741  70.796  1.00  0.00    -0.357 OA 
ENDROOT
BRANCH   9  21
HETATM   21  C   UNL     1      -9.493   6.090  69.195  1.00  0.00    -0.128 C  
HETATM   22  H   UNL     1      -7.825   4.975  68.713  1.00  0.00     0.000 HD 
HETATM   23  O   UNL     1     -10.112   5.088  69.560  1.00  0.00    -0.212 OA 
HETATM   24  N   UNL     1      -8.266   5.890  68.617  1.00  0.00    -0.108 N  
BRANCH  24  25
HETATM   25  C   UNL     1      -7.575   6.907  67.885  1.00  0.00    -0.107 C  
BRANCH  25  26
HETATM   26  C   UNL     1      -7.210   6.679  66.462  1.00  0.00    -0.073 A  
HETATM   27  C   UNL     1      -7.966   6.162  64.211  1.00  0.00    -0.118 A  
HETATM   28  C   UNL     1      -6.788   6.701  63.713  1.00  0.00    -0.053 A  
HETATM   29  C   UNL     1      -8.164   6.154  65.583  1.00  0.00    -0.141 A  
HETATM   30  F   UNL     1      -9.337   5.705  66.055  1.00  0.00    -0.156 F  
HETATM   31  F   UNL     1      -6.599   6.744  62.389  1.00  0.00    -0.040 F  
HETATM   32  C   UNL     1      -5.817   7.226  64.557  1.00  0.00    -0.037 A  
HETATM   33  C   UNL     1      -6.039   7.214  65.929  1.00  0.00    -0.037 A  
HETATM   34  F   UNL     1      -5.147   7.804  66.735  1.00  0.00    -0.021 F  
ENDBRANCH  25  26
ENDBRANCH  24  25
ENDBRANCH   9  21
TORSDOF 3
ENDMDL
MODEL      169
REMARK 921   NORMALIZED FREE ENERGY PREDICTED BY IDOCK:   -4.79 KCAL/MOL
REMARK 922        TOTAL FREE ENERGY PREDICTED BY IDOCK:   -6.37 KCAL/MOL
REMARK 923 INTER-LIGAND FREE ENERGY PREDICTED BY IDOCK:   -6.24 KCAL/MOL
REMARK 924 INTRA-LIGAND FREE ENERGY PREDICTED BY IDOCK:   -0.13 KCAL/MOL
REMARK 927      BINDING AFFINITY PREDICTED BY RF-SCORE:    0.00 PKD
ROOT
HETATM    1  O   UNL     1      -5.249  11.068  69.779  1.00  0.00    -0.041 OA 
HETATM    2  H   UNL     1      -4.637  11.735  70.069  1.00  0.00     0.000 HD 
HETATM    3  C   UNL     1      -6.445  11.259  69.110  1.00  0.00    -0.081 C  
HETATM    4  C   UNL     1      -7.317  10.311  68.697  1.00  0.00    -0.083 C  
HETATM    5  N   UNL     1      -8.520  10.653  68.048  1.00  0.00    -0.117 NA 
HETATM    6  C   UNL     1      -9.700   9.789  68.078  1.00  0.00    -0.145 C  
HETATM    7  C   UNL     1      -8.717  11.982  67.660  1.00  0.00    -0.166 C  
HETATM    8  C   UNL     1      -9.392   8.307  68.268  1.00  0.00    -0.138 C  
HETATM    9  C   UNL     1      -7.974  13.033  68.053  1.00  0.00    -0.155 C  
HETATM   10  C   UNL     1      -6.989  12.645  69.100  1.00  0.00    -0.019 C  
HETATM   11  O   UNL     1     -10.774   7.668  68.927  1.00  0.00    -0.188 OA 
HETATM   12  C   UNL     1      -9.638   6.021  71.043  1.00  0.00    -0.197 C  
HETATM   13  C   UNL     1     -10.708   6.374  69.771  1.00  0.00    -0.283 C  
HETATM   14  N   UNL     1      -7.998   7.968  69.126  1.00  0.00    -0.112 N  
HETATM   15  O   UNL     1      -6.700  13.355  70.058  1.00  0.00     0.058 OA 
HETATM   16  C   UNL     1      -6.979   8.903  69.150  1.00  0.00    -0.059 C  
HETATM   17  C   UNL     1      -8.086   6.989  70.508  1.00  0.00    -0.114 C  
HETATM   18  C   UNL     1      -9.403   6.232  69.334  1.00  0.00    -0.145 C  
HETATM   19  C   UNL     1      -9.262   7.724  70.601  1.00  0.00    -0.161 C  
HETATM   20  O   UNL     1      -5.907   8.660  69.709  1.00  0.00    -0.029 OA 
ENDROOT
BRANCH   9  21
HETATM   21  C   UNL     1      -8.357  14.386  67.516  1.00  0.00    -0.187 C  
HETATM   22  H   UNL     1      -9.792  15.866  67.431  1.00  0.00     0.000 HD 
HETATM   23  O   UNL     1      -7.493  15.134  67.054  1.00  0.00    -0.184 OA 
HETATM   24  N   UNL     1      -9.641  14.866  67.562  1.00  0.00    -0.203 N  
BRANCH  24  25
HETATM   25  C   UNL     1     -10.778  14.027  67.784  1.00  0.00    -0.243 C  
BRANCH  25  26
HETATM   26  C   UNL     1     -11.621  14.224  68.992  1.00  0.00    -0.342 A  
HETATM   27  C   UNL     1     -12.555  13.258  71.018  1.00  0.00    -0.408 A  
HETATM   28  C   UNL     1     -12.747  14.538  71.517  1.00  0.00    -0.339 A  
HETATM   29  C   UNL     1     -11.995  13.113  69.757  1.00  0.00    -0.314 A  
HETATM   30  F   UNL     1     -11.739  11.874  69.312  1.00  0.00    -0.282 F  
HETATM   31  F   UNL     1     -13.256  14.691  72.744  1.00  0.00    -0.409 F  
HETATM   32  C   UNL     1     -12.391  15.663  70.782  1.00  0.00    -0.466 A  
HETATM   33  C   UNL     1     -11.826  15.496  69.524  1.00  0.00    -0.372 A  
HETATM   34  F   UNL     1     -11.398  16.575  68.856  1.00  0.00    -0.319 F  
ENDBRANCH  25  26
ENDBRANCH  24  25
ENDBRANCH   9  21
TORSDOF 3
ENDMDL
MODEL      170
REMARK 921   NORMALIZED FREE ENERGY PREDICTED BY IDOCK:   -4.78 KCAL/MOL
REMARK 922        TOTAL FREE ENERGY PREDICTED BY IDOCK:   -6.37 KCAL/MOL
REMARK 923 INTER-LIGAND FREE ENERGY PREDICTED BY IDOCK:   -5.94 KCAL/MOL
REMARK 924 INTRA-LIGAND FREE ENERGY PREDICTED BY IDOCK:   -0.43 KCAL/MOL
REMARK 927      BINDING AFFINITY PREDICTED BY RF-SCORE:    0.00 PKD
ROOT
HETATM    1  O   UNL     1     -10.217   9.454  72.302  1.00  0.00     0.237 OA 
HETATM    2  H   UNL     1     -10.566  10.334  72.391  1.00  0.00     0.000 HD 
HETATM    3  C   UNL     1      -9.959   8.767  71.129  1.00  0.00    -0.248 C  
HETATM    4  C   UNL     1      -9.463   7.514  71.002  1.00  0.00    -0.160 C  
HETATM    5  N   UNL     1      -9.279   6.924  69.736  1.00  0.00    -0.147 NA 
HETATM    6  C   UNL     1      -9.286   5.474  69.539  1.00  0.00    -0.130 C  
HETATM    7  C   UNL     1      -9.434   7.720  68.597  1.00  0.00    -0.152 C  
HETATM    8  C   UNL     1      -8.872   4.668  70.766  1.00  0.00    -0.155 C  
HETATM    9  C   UNL     1      -9.979   8.950  68.567  1.00  0.00    -0.195 C  
HETATM   10  C   UNL     1     -10.560   9.323  69.885  1.00  0.00    -0.226 C  
HETATM   11  O   UNL     1      -9.576   3.182  70.554  1.00  0.00    -0.168 OA 
HETATM   12  C   UNL     1     -10.656   2.724  73.219  1.00  0.00    -0.262 C  
HETATM   13  C   UNL     1      -9.878   2.281  71.775  1.00  0.00    -0.152 C  
HETATM   14  N   UNL     1      -9.202   5.385  72.240  1.00  0.00    -0.142 N  
HETATM   15  O   UNL     1     -11.607   9.950  70.015  1.00  0.00    -0.238 OA 
HETATM   16  C   UNL     1      -9.306   6.763  72.310  1.00  0.00    -0.138 C  
HETATM   17  C   UNL     1     -10.137   4.551  73.382  1.00  0.00    -0.202 C  
HETATM   18  C   UNL     1      -9.121   3.162  72.529  1.00  0.00    -0.128 C  
HETATM   19  C   UNL     1     -10.756   4.195  72.189  1.00  0.00     0.069 C  
HETATM   20  O   UNL     1      -9.474   7.332  73.391  1.00  0.00    -0.167 OA 
ENDROOT
BRANCH   9  21
HETATM   21  C   UNL     1     -10.051   9.638  67.230  1.00  0.00    -0.211 C  
HETATM   22  H   UNL     1      -9.510  11.279  66.102  1.00  0.00     0.000 HD 
HETATM   23  O   UNL     1     -10.400   9.009  66.229  1.00  0.00    -0.247 OA 
HETATM   24  N   UNL     1      -9.691  10.949  67.050  1.00  0.00    -0.173 N  
BRANCH  24  25
HETATM   25  C   UNL     1      -9.556  11.875  68.132  1.00  0.00    -0.195 C  
BRANCH  25  26
HETATM   26  C   UNL     1     -10.066  13.264  67.990  1.00  0.00    -0.235 A  
HETATM   27  C   UNL     1     -11.766  14.894  68.591  1.00  0.00    -0.358 A  
HETATM   28  C   UNL     1     -10.892  15.909  68.230  1.00  0.00    -0.315 A  
HETATM   29  C   UNL     1     -11.344  13.578  68.465  1.00  0.00    -0.292 A  
HETATM   30  F   UNL     1     -12.162  12.603  68.889  1.00  0.00    -0.309 F  
HETATM   31  F   UNL     1     -11.275  17.183  68.378  1.00  0.00    -0.329 F  
HETATM   32  C   UNL     1      -9.617  15.632  67.750  1.00  0.00    -0.209 A  
HETATM   33  C   UNL     1      -9.213  14.307  67.637  1.00  0.00    -0.194 A  
HETATM   34  F   UNL     1      -7.954  14.044  67.264  1.00  0.00    -0.165 F  
ENDBRANCH  25  26
ENDBRANCH  24  25
ENDBRANCH   9  21
TORSDOF 3
ENDMDL
MODEL      171
REMARK 921   NORMALIZED FREE ENERGY PREDICTED BY IDOCK:   -4.77 KCAL/MOL
REMARK 922        TOTAL FREE ENERGY PREDICTED BY IDOCK:   -6.35 KCAL/MOL
REMARK 923 INTER-LIGAND FREE ENERGY PREDICTED BY IDOCK:   -7.07 KCAL/MOL
REMARK 924 INTRA-LIGAND FREE ENERGY PREDICTED BY IDOCK:    0.73 KCAL/MOL
REMARK 927      BINDING AFFINITY PREDICTED BY RF-SCORE:    0.00 PKD
ROOT
HETATM    1  O   UNL     1     -12.732   9.304  72.365  1.00  0.00    -0.370 OA 
HETATM    2  H   UNL     1     -12.554   8.423  72.675  1.00  0.00     0.000 HD 
HETATM    3  C   UNL     1     -12.268   9.896  71.204  1.00  0.00    -0.373 C  
HETATM    4  C   UNL     1     -12.521  11.150  70.762  1.00  0.00    -0.384 C  
HETATM    5  N   UNL     1     -11.953  11.634  69.567  1.00  0.00    -0.320 NA 
HETATM    6  C   UNL     1     -11.731  13.060  69.327  1.00  0.00    -0.320 C  
HETATM    7  C   UNL     1     -11.273  10.738  68.736  1.00  0.00    -0.272 C  
HETATM    8  C   UNL     1     -12.675  13.983  70.091  1.00  0.00    -0.207 C  
HETATM    9  C   UNL     1     -10.893   9.491  69.071  1.00  0.00    -0.184 C  
HETATM   10  C   UNL     1     -11.139   9.214  70.513  1.00  0.00    -0.260 C  
HETATM   11  O   UNL     1     -11.857  15.420  70.214  1.00  0.00    -0.286 OA 
HETATM   12  C   UNL     1     -12.341  16.069  73.011  1.00  0.00    -0.625 C  
HETATM   13  C   UNL     1     -12.188  16.412  71.354  1.00  0.00     0.164 C  
HETATM   14  N   UNL     1     -13.242  13.386  71.546  1.00  0.00    -0.342 N  
HETATM   15  O   UNL     1     -10.375   8.564  71.221  1.00  0.00    -0.199 OA 
HETATM   16  C   UNL     1     -13.297  12.016  71.735  1.00  0.00    -0.237 C  
HETATM   17  C   UNL     1     -13.004  14.282  72.966  1.00  0.00    -0.512 C  
HETATM   18  C   UNL     1     -13.295  15.627  71.626  1.00  0.00    -0.543 C  
HETATM   19  C   UNL     1     -11.817  14.511  72.278  1.00  0.00    -0.030 C  
HETATM   20  O   UNL     1     -13.778  11.536  72.764  1.00  0.00     0.441 OA 
ENDROOT
BRANCH   9  21
HETATM   21  C   UNL     1     -10.169   8.688  68.025  1.00  0.00    -0.210 C  
HETATM   22  H   UNL     1      -8.347   8.116  67.243  1.00  0.00     0.000 HD 
HETATM   23  O   UNL     1     -10.764   7.809  67.399  1.00  0.00    -0.278 OA 
HETATM   24  N   UNL     1      -8.833   8.849  67.759  1.00  0.00    -0.135 N  
BRANCH  24  25
HETATM   25  C   UNL     1      -8.090  10.000  68.172  1.00  0.00    -0.108 C  
BRANCH  25  26
HETATM   26  C   UNL     1      -8.543  11.358  67.775  1.00  0.00    -0.129 A  
HETATM   27  C   UNL     1      -8.220  13.760  67.958  1.00  0.00    -0.164 A  
HETATM   28  C   UNL     1      -8.932  13.926  66.778  1.00  0.00    -0.188 A  
HETATM   29  C   UNL     1      -8.035  12.476  68.447  1.00  0.00    -0.139 A  
HETATM   30  F   UNL     1      -7.280  12.314  69.544  1.00  0.00    -0.023 F  
HETATM   31  F   UNL     1      -9.090  15.158  66.280  1.00  0.00    -0.274 F  
HETATM   32  C   UNL     1      -9.455  12.839  66.088  1.00  0.00    -0.169 A  
HETATM   33  C   UNL     1      -9.252  11.560  66.592  1.00  0.00    -0.186 A  
HETATM   34  F   UNL     1      -9.675  10.508  65.879  1.00  0.00    -0.214 F  
ENDBRANCH  25  26
ENDBRANCH  24  25
ENDBRANCH   9  21
TORSDOF 3
ENDMDL
MODEL      172
REMARK 921   NORMALIZED FREE ENERGY PREDICTED BY IDOCK:   -4.76 KCAL/MOL
REMARK 922        TOTAL FREE ENERGY PREDICTED BY IDOCK:   -6.33 KCAL/MOL
REMARK 923 INTER-LIGAND FREE ENERGY PREDICTED BY IDOCK:   -5.78 KCAL/MOL
REMARK 924 INTRA-LIGAND FREE ENERGY PREDICTED BY IDOCK:   -0.55 KCAL/MOL
REMARK 927      BINDING AFFINITY PREDICTED BY RF-SCORE:    0.00 PKD
ROOT
HETATM    1  O   UNL     1      -5.832   9.743  71.560  1.00  0.00    -0.171 OA 
HETATM    2  H   UNL     1      -5.360  10.568  71.560  1.00  0.00     0.000 HD 
HETATM    3  C   UNL     1      -6.566   9.194  70.523  1.00  0.00    -0.061 C  
HETATM    4  C   UNL     1      -7.237   8.019  70.523  1.00  0.00    -0.052 C  
HETATM    5  N   UNL     1      -7.973   7.596  69.398  1.00  0.00    -0.123 NA 
HETATM    6  C   UNL     1      -9.111   6.682  69.505  1.00  0.00    -0.144 C  
HETATM    7  C   UNL     1      -7.846   8.315  68.205  1.00  0.00    -0.118 C  
HETATM    8  C   UNL     1      -9.063   5.753  70.713  1.00  0.00    -0.161 C  
HETATM    9  C   UNL     1      -7.272   9.525  68.075  1.00  0.00    -0.081 C  
HETATM   10  C   UNL     1      -6.914  10.105  69.399  1.00  0.00    -0.076 C  
HETATM   11  O   UNL     1     -10.645   5.347  70.999  1.00  0.00    -0.238 OA 
HETATM   12  C   UNL     1     -10.761   5.667  73.891  1.00  0.00    -0.228 C  
HETATM   13  C   UNL     1     -11.093   4.901  72.411  1.00  0.00    -0.041 C  
HETATM   14  N   UNL     1      -8.253   6.352  72.048  1.00  0.00    -0.109 N  
HETATM   15  O   UNL     1      -7.030  11.296  69.673  1.00  0.00    -0.122 OA 
HETATM   16  C   UNL     1      -7.275   7.314  71.865  1.00  0.00    -0.075 C  
HETATM   17  C   UNL     1      -9.052   6.437  73.541  1.00  0.00    -0.134 C  
HETATM   18  C   UNL     1      -9.752   4.836  72.745  1.00  0.00    -0.171 C  
HETATM   19  C   UNL     1     -10.068   6.771  72.651  1.00  0.00    -0.193 C  
HETATM   20  O   UNL     1      -6.605   7.726  72.815  1.00  0.00    -0.060 OA 
ENDROOT
BRANCH   9  21
HETATM   21  C   UNL     1      -7.239  10.127  66.696  1.00  0.00    -0.105 C  
HETATM   22  H   UNL     1      -7.781  11.712  65.491  1.00  0.00     0.000 HD 
HETATM   23  O   UNL     1      -6.447   9.700  65.854  1.00  0.00    -0.073 OA 
HETATM   24  N   UNL     1      -8.028  11.187  66.331  1.00  0.00    -0.161 N  
BRANCH  24  25
HETATM   25  C   UNL     1      -9.182  11.592  67.074  1.00  0.00    -0.176 C  
BRANCH  25  26
HETATM   26  C   UNL     1     -10.215  12.447  66.435  1.00  0.00    -0.253 A  
HETATM   27  C   UNL     1     -12.153  12.573  64.974  1.00  0.00    -0.504 A  
HETATM   28  C   UNL     1     -12.485  13.790  65.550  1.00  0.00    -0.512 A  
HETATM   29  C   UNL     1     -11.018  11.913  65.421  1.00  0.00    -0.301 A  
HETATM   30  F   UNL     1     -10.745  10.700  64.917  1.00  0.00    -0.368 F  
HETATM   31  F   UNL     1     -13.595  14.421  65.150  1.00  0.00    -0.094 F  
HETATM   32  C   UNL     1     -11.707  14.352  66.556  1.00  0.00    -0.404 A  
HETATM   33  C   UNL     1     -10.577  13.672  66.994  1.00  0.00    -0.274 A  
HETATM   34  F   UNL     1      -9.882  14.166  68.026  1.00  0.00    -0.202 F  
ENDBRANCH  25  26
ENDBRANCH  24  25
ENDBRANCH   9  21
TORSDOF 3
ENDMDL
MODEL      173
REMARK 921   NORMALIZED FREE ENERGY PREDICTED BY IDOCK:   -4.74 KCAL/MOL
REMARK 922        TOTAL FREE ENERGY PREDICTED BY IDOCK:   -6.32 KCAL/MOL
REMARK 923 INTER-LIGAND FREE ENERGY PREDICTED BY IDOCK:   -5.90 KCAL/MOL
REMARK 924 INTRA-LIGAND FREE ENERGY PREDICTED BY IDOCK:   -0.42 KCAL/MOL
REMARK 927      BINDING AFFINITY PREDICTED BY RF-SCORE:    0.00 PKD
ROOT
HETATM    1  O   UNL     1     -10.465  10.234  70.250  1.00  0.00    -0.388 OA 
HETATM    2  H   UNL     1     -10.214   9.857  71.085  1.00  0.00     0.000 HD 
HETATM    3  C   UNL     1      -9.868  10.026  69.020  1.00  0.00    -0.199 C  
HETATM    4  C   UNL     1     -10.226  10.563  67.830  1.00  0.00    -0.183 C  
HETATM    5  N   UNL     1      -9.503  10.285  66.653  1.00  0.00    -0.161 NA 
HETATM    6  C   UNL     1      -9.476  11.203  65.515  1.00  0.00    -0.221 C  
HETATM    7  C   UNL     1      -8.520   9.290  66.690  1.00  0.00    -0.126 C  
HETATM    8  C   UNL     1     -10.703  12.102  65.399  1.00  0.00    -0.323 C  
HETATM    9  C   UNL     1      -8.018   8.723  67.802  1.00  0.00    -0.106 C  
HETATM   10  C   UNL     1      -8.519   9.396  69.032  1.00  0.00    -0.129 C  
HETATM   11  O   UNL     1     -10.181  13.424  64.545  1.00  0.00    -0.388 OA 
HETATM   12  C   UNL     1     -11.358  15.572  66.121  1.00  0.00    -0.010 C  
HETATM   13  C   UNL     1     -10.911  14.781  64.685  1.00  0.00    -0.316 C  
HETATM   14  N   UNL     1     -11.462  12.470  66.843  1.00  0.00    -0.332 N  
HETATM   15  O   UNL     1      -7.828   9.598  70.026  1.00  0.00    -0.127 OA 
HETATM   16  C   UNL     1     -11.327  11.603  67.913  1.00  0.00    -0.299 C  
HETATM   17  C   UNL     1     -11.688  14.093  67.278  1.00  0.00    -0.421 C  
HETATM   18  C   UNL     1     -11.904  14.102  65.369  1.00  0.00    -0.362 C  
HETATM   19  C   UNL     1     -10.436  14.129  66.673  1.00  0.00    -0.278 C  
HETATM   20  O   UNL     1     -11.931  11.801  68.970  1.00  0.00    -0.308 OA 
ENDROOT
BRANCH   9  21
HETATM   21  C   UNL     1      -6.962   7.667  67.619  1.00  0.00    -0.081 C  
HETATM   22  H   UNL     1      -6.544   5.652  67.469  1.00  0.00     0.000 HD 
HETATM   23  O   UNL     1      -5.846   7.976  67.197  1.00  0.00    -0.039 OA 
HETATM   24  N   UNL     1      -7.195   6.336  67.854  1.00  0.00    -0.084 N  
BRANCH  24  25
HETATM   25  C   UNL     1      -8.312   5.864  68.613  1.00  0.00    -0.109 C  
BRANCH  25  26
HETATM   26  C   UNL     1      -8.095   5.255  69.952  1.00  0.00    -0.084 A  
HETATM   27  C   UNL     1      -7.465   5.588  72.275  1.00  0.00    -0.096 A  
HETATM   28  C   UNL     1      -8.108   4.403  72.600  1.00  0.00    -0.098 A  
HETATM   29  C   UNL     1      -7.462   6.002  70.951  1.00  0.00    -0.091 A  
HETATM   30  F   UNL     1      -6.908   7.187  70.655  1.00  0.00    -0.049 F  
HETATM   31  F   UNL     1      -8.145   4.009  73.878  1.00  0.00    -0.083 F  
HETATM   32  C   UNL     1      -8.743   3.634  71.631  1.00  0.00    -0.124 A  
HETATM   33  C   UNL     1      -8.734   4.070  70.311  1.00  0.00    -0.074 A  
HETATM   34  F   UNL     1      -9.424   3.379  69.395  1.00  0.00    -0.207 F  
ENDBRANCH  25  26
ENDBRANCH  24  25
ENDBRANCH   9  21
TORSDOF 3
ENDMDL
MODEL      174
REMARK 921   NORMALIZED FREE ENERGY PREDICTED BY IDOCK:   -4.72 KCAL/MOL
REMARK 922        TOTAL FREE ENERGY PREDICTED BY IDOCK:   -6.29 KCAL/MOL
REMARK 923 INTER-LIGAND FREE ENERGY PREDICTED BY IDOCK:   -6.44 KCAL/MOL
REMARK 924 INTRA-LIGAND FREE ENERGY PREDICTED BY IDOCK:    0.15 KCAL/MOL
REMARK 927      BINDING AFFINITY PREDICTED BY RF-SCORE:    0.00 PKD
ROOT
HETATM    1  O   UNL     1      -7.456   7.905  63.054  1.00  0.00    -0.103 OA 
HETATM    2  H   UNL     1      -7.079   7.170  62.583  1.00  0.00     0.000 HD 
HETATM    3  C   UNL     1      -8.121   7.875  64.267  1.00  0.00    -0.093 C  
HETATM    4  C   UNL     1      -8.658   8.922  64.936  1.00  0.00    -0.172 C  
HETATM    5  N   UNL     1      -9.338   8.739  66.157  1.00  0.00    -0.217 NA 
HETATM    6  C   UNL     1     -10.367   9.667  66.626  1.00  0.00    -0.208 C  
HETATM    7  C   UNL     1      -9.286   7.484  66.771  1.00  0.00    -0.165 C  
HETATM    8  C   UNL     1     -10.221  11.091  66.100  1.00  0.00    -0.298 C  
HETATM    9  C   UNL     1      -8.849   6.347  66.200  1.00  0.00    -0.158 C  
HETATM   10  C   UNL     1      -8.563   6.539  64.752  1.00  0.00     0.164 C  
HETATM   11  O   UNL     1     -11.750  11.729  66.175  1.00  0.00    -0.462 OA 
HETATM   12  C   UNL     1     -11.912  13.025  63.572  1.00  0.00    -0.615 C  
HETATM   13  C   UNL     1     -12.152  12.902  65.250  1.00  0.00    -0.453 C  
HETATM   14  N   UNL     1      -9.488  11.231  64.604  1.00  0.00    -0.216 N  
HETATM   15  O   UNL     1      -8.812   5.699  63.892  1.00  0.00     0.092 OA 
HETATM   16  C   UNL     1      -8.623  10.237  64.183  1.00  0.00    -0.192 C  
HETATM   17  C   UNL     1     -10.299  12.035  63.349  1.00  0.00    -0.468 C  
HETATM   18  C   UNL     1     -10.813  13.014  64.919  1.00  0.00    -0.343 C  
HETATM   19  C   UNL     1     -11.341  11.370  63.986  1.00  0.00    -0.291 C  
HETATM   20  O   UNL     1      -8.006  10.341  63.120  1.00  0.00    -0.151 OA 
ENDROOT
BRANCH   9  21
HETATM   21  C   UNL     1      -8.878   5.099  67.040  1.00  0.00    -0.109 C  
HETATM   22  H   UNL     1      -9.252   4.274  68.894  1.00  0.00     0.000 HD 
HETATM   23  O   UNL     1      -8.863   3.991  66.501  1.00  0.00    -0.114 OA 
HETATM   24  N   UNL     1      -8.975   5.127  68.407  1.00  0.00    -0.105 N  
BRANCH  24  25
HETATM   25  C   UNL     1      -8.706   6.299  69.183  1.00  0.00    -0.123 C  
BRANCH  25  26
HETATM   26  C   UNL     1      -9.334   6.466  70.519  1.00  0.00    -0.169 A  
HETATM   27  C   UNL     1      -9.063   6.401  72.933  1.00  0.00    -0.132 A  
HETATM   28  C   UNL     1     -10.193   7.196  73.062  1.00  0.00    -0.251 A  
HETATM   29  C   UNL     1      -8.646   6.041  71.660  1.00  0.00    -0.131 A  
HETATM   30  F   UNL     1      -7.509   5.340  71.537  1.00  0.00    -0.082 F  
HETATM   31  F   UNL     1     -10.588   7.576  74.283  1.00  0.00    -0.149 F  
HETATM   32  C   UNL     1     -10.904   7.631  71.950  1.00  0.00    -0.274 A  
HETATM   33  C   UNL     1     -10.465   7.264  70.683  1.00  0.00    -0.214 A  
HETATM   34  F   UNL     1     -11.094   7.760  69.610  1.00  0.00    -0.240 F  
ENDBRANCH  25  26
ENDBRANCH  24  25
ENDBRANCH   9  21
TORSDOF 3
ENDMDL
MODEL      175
REMARK 921   NORMALIZED FREE ENERGY PREDICTED BY IDOCK:   -4.69 KCAL/MOL
REMARK 922        TOTAL FREE ENERGY PREDICTED BY IDOCK:   -6.26 KCAL/MOL
REMARK 923 INTER-LIGAND FREE ENERGY PREDICTED BY IDOCK:   -5.88 KCAL/MOL
REMARK 924 INTRA-LIGAND FREE ENERGY PREDICTED BY IDOCK:   -0.38 KCAL/MOL
REMARK 927      BINDING AFFINITY PREDICTED BY RF-SCORE:    0.00 PKD
ROOT
HETATM    1  O   UNL     1     -11.158  17.834  64.620  1.00  0.00    -0.810 OA 
HETATM    2  H   UNL     1     -12.012  17.822  64.202  1.00  0.00     0.000 HD 
HETATM    3  C   UNL     1     -10.422  16.749  65.059  1.00  0.00     0.077 C  
HETATM    4  C   UNL     1      -9.207  16.766  65.655  1.00  0.00     0.238 C  
HETATM    5  N   UNL     1      -8.582  15.577  66.080  1.00  0.00    -0.183 NA 
HETATM    6  C   UNL     1      -7.601  15.552  67.166  1.00  0.00    -0.218 C  
HETATM    7  C   UNL     1      -9.146  14.353  65.706  1.00  0.00     0.391 C  
HETATM    8  C   UNL     1      -6.845  16.862  67.363  1.00  0.00    -0.181 C  
HETATM    9  C   UNL     1     -10.371  14.183  65.175  1.00  0.00    -0.429 C  
HETATM   10  C   UNL     1     -11.146  15.453  65.171  1.00  0.00    -0.394 C  
HETATM   11  O   UNL     1      -6.354  16.833  68.947  1.00  0.00    -0.154 OA 
HETATM   12  C   UNL     1      -7.041  19.542  69.764  1.00  0.00    -0.099 C  
HETATM   13  C   UNL     1      -6.063  18.154  69.697  1.00  0.00    -0.234 C  
HETATM   14  N   UNL     1      -7.677  18.244  66.924  1.00  0.00    -0.217 N  
HETATM   15  O   UNL     1     -12.349  15.516  65.406  1.00  0.00     0.489 OA 
HETATM   16  C   UNL     1      -8.683  18.152  65.978  1.00  0.00     0.030 C  
HETATM   17  C   UNL     1      -7.893  19.485  68.060  1.00  0.00    -0.340 C  
HETATM   18  C   UNL     1      -6.150  18.793  68.473  1.00  0.00    -0.225 C  
HETATM   19  C   UNL     1      -8.024  18.347  68.849  1.00  0.00    -0.213 C  
HETATM   20  O   UNL     1      -9.268  19.159  65.574  1.00  0.00    -0.143 OA 
ENDROOT
BRANCH   9  21
HETATM   21  C   UNL     1     -10.787  12.775  64.843  1.00  0.00    -0.299 C  
HETATM   22  H   UNL     1     -12.066  11.210  65.258  1.00  0.00     0.000 HD 
HETATM   23  O   UNL     1     -10.424  12.256  63.786  1.00  0.00    -0.382 OA 
HETATM   24  N   UNL     1     -11.614  12.036  65.650  1.00  0.00    -0.338 N  
BRANCH  24  25
HETATM   25  C   UNL     1     -11.871  12.372  67.017  1.00  0.00    -0.297 C  
BRANCH  25  26
HETATM   26  C   UNL     1     -11.461  11.441  68.100  1.00  0.00    -0.375 A  
HETATM   27  C   UNL     1      -9.768   9.931  68.971  1.00  0.00    -0.195 A  
HETATM   28  C   UNL     1     -10.329  10.061  70.234  1.00  0.00    -0.242 A  
HETATM   29  C   UNL     1     -10.343  10.621  67.914  1.00  0.00    -0.199 A  
HETATM   30  F   UNL     1      -9.750  10.555  66.713  1.00  0.00    -0.185 F  
HETATM   31  F   UNL     1      -9.765   9.426  71.267  1.00  0.00    -0.339 F  
HETATM   32  C   UNL     1     -11.443  10.863  70.452  1.00  0.00    -0.367 A  
HETATM   33  C   UNL     1     -12.000  11.551  69.381  1.00  0.00    -0.325 A  
HETATM   34  F   UNL     1     -13.014  12.395  69.609  1.00  0.00     0.282 F  
ENDBRANCH  25  26
ENDBRANCH  24  25
ENDBRANCH   9  21
TORSDOF 3
ENDMDL
MODEL      176
REMARK 921   NORMALIZED FREE ENERGY PREDICTED BY IDOCK:   -4.68 KCAL/MOL
REMARK 922        TOTAL FREE ENERGY PREDICTED BY IDOCK:   -6.24 KCAL/MOL
REMARK 923 INTER-LIGAND FREE ENERGY PREDICTED BY IDOCK:   -6.32 KCAL/MOL
REMARK 924 INTRA-LIGAND FREE ENERGY PREDICTED BY IDOCK:    0.08 KCAL/MOL
REMARK 927      BINDING AFFINITY PREDICTED BY RF-SCORE:    0.00 PKD
ROOT
HETATM    1  O   UNL     1     -11.439   6.305  66.391  1.00  0.00    -0.612 OA 
HETATM    2  H   UNL     1     -12.081   6.866  65.971  1.00  0.00     0.000 HD 
HETATM    3  C   UNL     1     -10.679   6.588  67.512  1.00  0.00    -0.321 C  
HETATM    4  C   UNL     1      -9.765   5.789  68.109  1.00  0.00    -0.125 C  
HETATM    5  N   UNL     1      -9.038   6.222  69.236  1.00  0.00    -0.134 NA 
HETATM    6  C   UNL     1      -7.721   5.682  69.573  1.00  0.00    -0.091 C  
HETATM    7  C   UNL     1      -9.408   7.422  69.852  1.00  0.00    -0.154 C  
HETATM    8  C   UNL     1      -7.472   4.264  69.069  1.00  0.00    -0.055 C  
HETATM    9  C   UNL     1     -10.246   8.342  69.339  1.00  0.00    -0.204 C  
HETATM   10  C   UNL     1     -10.626   8.014  67.938  1.00  0.00    -0.145 C  
HETATM   11  O   UNL     1      -5.822   4.139  68.953  1.00  0.00    -0.020 OA 
HETATM   12  C   UNL     1      -5.569   2.858  66.351  1.00  0.00    -0.021 C  
HETATM   13  C   UNL     1      -5.184   3.115  67.986  1.00  0.00    -0.012 C  
HETATM   14  N   UNL     1      -8.295   3.843  67.676  1.00  0.00    -0.093 N  
HETATM   15  O   UNL     1     -10.758   8.855  67.054  1.00  0.00    -0.248 OA 
HETATM   16  C   UNL     1      -9.473   4.500  67.366  1.00  0.00    -0.162 C  
HETATM   17  C   UNL     1      -7.427   3.285  66.330  1.00  0.00    -0.076 C  
HETATM   18  C   UNL     1      -6.449   2.577  67.824  1.00  0.00    -0.032 C  
HETATM   19  C   UNL     1      -6.579   4.266  66.832  1.00  0.00    -0.046 C  
HETATM   20  O   UNL     1     -10.146   4.167  66.388  1.00  0.00    -0.206 OA 
ENDROOT
BRANCH   9  21
HETATM   21  C   UNL     1     -10.513   9.569  70.169  1.00  0.00    -0.255 C  
HETATM   22  H   UNL     1     -10.758  11.617  70.192  1.00  0.00     0.000 HD 
HETATM   23  O   UNL     1     -10.968   9.457  71.309  1.00  0.00    -0.317 OA 
HETATM   24  N   UNL     1     -10.320  10.841  69.695  1.00  0.00    -0.161 N  
BRANCH  24  25
HETATM   25  C   UNL     1      -9.535  11.129  68.535  1.00  0.00    -0.193 C  
BRANCH  25  26
HETATM   26  C   UNL     1     -10.052  12.061  67.499  1.00  0.00    -0.205 A  
HETATM   27  C   UNL     1     -11.969  13.231  66.570  1.00  0.00    -0.448 A  
HETATM   28  C   UNL     1     -11.103  14.131  65.967  1.00  0.00    -0.314 A  
HETATM   29  C   UNL     1     -11.434  12.201  67.329  1.00  0.00    -0.345 A  
HETATM   30  F   UNL     1     -12.276  11.380  67.975  1.00  0.00    -0.284 F  
HETATM   31  F   UNL     1     -11.608  15.147  65.257  1.00  0.00    -0.344 F  
HETATM   32  C   UNL     1      -9.725  14.019  66.110  1.00  0.00    -0.300 A  
HETATM   33  C   UNL     1      -9.210  12.984  66.881  1.00  0.00    -0.236 A  
HETATM   34  F   UNL     1      -7.889  12.931  67.096  1.00  0.00    -0.164 F  
ENDBRANCH  25  26
ENDBRANCH  24  25
ENDBRANCH   9  21
TORSDOF 3
ENDMDL
MODEL      177
REMARK 921   NORMALIZED FREE ENERGY PREDICTED BY IDOCK:   -4.65 KCAL/MOL
REMARK 922        TOTAL FREE ENERGY PREDICTED BY IDOCK:   -6.21 KCAL/MOL
REMARK 923 INTER-LIGAND FREE ENERGY PREDICTED BY IDOCK:   -6.37 KCAL/MOL
REMARK 924 INTRA-LIGAND FREE ENERGY PREDICTED BY IDOCK:    0.16 KCAL/MOL
REMARK 927      BINDING AFFINITY PREDICTED BY RF-SCORE:    0.00 PKD
ROOT
HETATM    1  O   UNL     1     -10.721   9.684  71.526  1.00  0.00    -0.301 OA 
HETATM    2  H   UNL     1     -10.461   9.226  72.317  1.00  0.00     0.000 HD 
HETATM    3  C   UNL     1     -10.139   9.598  70.274  1.00  0.00    -0.275 C  
HETATM    4  C   UNL     1     -10.508  10.251  69.148  1.00  0.00    -0.224 C  
HETATM    5  N   UNL     1      -9.800  10.089  67.941  1.00  0.00    -0.143 NA 
HETATM    6  C   UNL     1      -9.783  11.116  66.899  1.00  0.00    -0.191 C  
HETATM    7  C   UNL     1      -8.820   9.094  67.867  1.00  0.00    -0.128 C  
HETATM    8  C   UNL     1     -11.008  12.024  66.888  1.00  0.00    -0.328 C  
HETATM    9  C   UNL     1      -8.307   8.418  68.912  1.00  0.00    -0.119 C  
HETATM   10  C   UNL     1      -8.792   8.967  70.208  1.00  0.00    -0.175 C  
HETATM   11  O   UNL     1     -10.492  13.423  66.162  1.00  0.00    -0.285 OA 
HETATM   12  C   UNL     1     -11.644  15.407  67.957  1.00  0.00    -0.303 C  
HETATM   13  C   UNL     1     -11.216  14.761  66.444  1.00  0.00    -0.342 C  
HETATM   14  N   UNL     1     -11.749  12.248  68.370  1.00  0.00    -0.323 N  
HETATM   15  O   UNL     1      -8.089   9.068  71.209  1.00  0.00    -0.217 OA 
HETATM   16  C   UNL     1     -11.604  11.280  69.347  1.00  0.00    -0.321 C  
HETATM   17  C   UNL     1     -11.965  13.821  68.965  1.00  0.00    -0.399 C  
HETATM   18  C   UNL     1     -12.203  14.019  67.070  1.00  0.00    -0.387 C  
HETATM   19  C   UNL     1     -10.721  13.914  68.352  1.00  0.00    -0.267 C  
HETATM   20  O   UNL     1     -12.196  11.373  70.425  1.00  0.00    -0.336 OA 
ENDROOT
BRANCH   9  21
HETATM   21  C   UNL     1      -7.256   7.383  68.613  1.00  0.00    -0.090 C  
HETATM   22  H   UNL     1      -6.399   6.153  67.196  1.00  0.00     0.000 HD 
HETATM   23  O   UNL     1      -6.318   7.212  69.394  1.00  0.00    -0.033 OA 
HETATM   24  N   UNL     1      -7.257   6.636  67.463  1.00  0.00    -0.087 N  
BRANCH  24  25
HETATM   25  C   UNL     1      -8.406   6.504  66.622  1.00  0.00    -0.113 C  
BRANCH  25  26
HETATM   26  C   UNL     1      -8.737   5.186  66.019  1.00  0.00    -0.130 A  
HETATM   27  C   UNL     1      -8.805   3.808  64.019  1.00  0.00    -0.106 A  
HETATM   28  C   UNL     1      -8.839   2.677  64.822  1.00  0.00    -0.118 A  
HETATM   29  C   UNL     1      -8.757   5.054  64.626  1.00  0.00    -0.141 A  
HETATM   30  F   UNL     1      -8.644   6.139  63.846  1.00  0.00    -0.039 F  
HETATM   31  F   UNL     1      -8.853   1.469  64.248  1.00  0.00    -0.083 F  
HETATM   32  C   UNL     1      -8.826   2.773  66.209  1.00  0.00    -0.146 A  
HETATM   33  C   UNL     1      -8.772   4.031  66.797  1.00  0.00    -0.116 A  
HETATM   34  F   UNL     1      -8.665   4.119  68.129  1.00  0.00    -0.095 F  
ENDBRANCH  25  26
ENDBRANCH  24  25
ENDBRANCH   9  21
TORSDOF 3
ENDMDL
MODEL      178
REMARK 921   NORMALIZED FREE ENERGY PREDICTED BY IDOCK:   -4.65 KCAL/MOL
REMARK 922        TOTAL FREE ENERGY PREDICTED BY IDOCK:   -6.21 KCAL/MOL
REMARK 923 INTER-LIGAND FREE ENERGY PREDICTED BY IDOCK:   -6.01 KCAL/MOL
REMARK 924 INTRA-LIGAND FREE ENERGY PREDICTED BY IDOCK:   -0.19 KCAL/MOL
REMARK 927      BINDING AFFINITY PREDICTED BY RF-SCORE:    0.00 PKD
ROOT
HETATM    1  O   UNL     1     -11.008  14.076  65.341  1.00  0.00    -0.302 OA 
HETATM    2  H   UNL     1     -10.540  14.020  64.516  1.00  0.00     0.000 HD 
HETATM    3  C   UNL     1     -10.957  15.101  66.268  1.00  0.00    -0.335 C  
HETATM    4  C   UNL     1     -11.623  15.182  67.443  1.00  0.00    -0.240 C  
HETATM    5  N   UNL     1     -11.450  16.279  68.310  1.00  0.00    -0.288 NA 
HETATM    6  C   UNL     1     -11.677  16.181  69.752  1.00  0.00    -0.189 C  
HETATM    7  C   UNL     1     -10.724  17.385  67.855  1.00  0.00    -0.351 C  
HETATM    8  C   UNL     1     -12.672  15.101  70.163  1.00  0.00    -0.273 C  
HETATM    9  C   UNL     1      -9.960  17.421  66.748  1.00  0.00    -0.307 C  
HETATM   10  C   UNL     1      -9.839  16.075  66.124  1.00  0.00    -0.325 C  
HETATM   11  O   UNL     1     -12.270  14.726  71.727  1.00  0.00    -0.325 OA 
HETATM   12  C   UNL     1     -12.366  11.818  71.617  1.00  0.00     0.065 C  
HETATM   13  C   UNL     1     -12.634  13.343  72.316  1.00  0.00     0.076 C  
HETATM   14  N   UNL     1     -12.763  13.782  69.139  1.00  0.00     0.357 N  
HETATM   15  O   UNL     1      -8.805  15.651  65.615  1.00  0.00    -0.059 OA 
HETATM   16  C   UNL     1     -12.404  13.935  67.812  1.00  0.00    -0.004 C  
HETATM   17  C   UNL     1     -12.511  12.225  69.760  1.00  0.00     0.063 C  
HETATM   18  C   UNL     1     -13.411  13.140  71.189  1.00  0.00    -0.013 C  
HETATM   19  C   UNL     1     -11.587  12.975  70.480  1.00  0.00     0.189 C  
HETATM   20  O   UNL     1     -12.528  13.007  67.010  1.00  0.00    -0.270 OA 
ENDROOT
BRANCH   9  21
HETATM   21  C   UNL     1      -9.259  18.715  66.438  1.00  0.00    -0.291 C  
HETATM   22  H   UNL     1      -7.462  19.661  66.071  1.00  0.00     0.000 HD 
HETATM   23  O   UNL     1      -9.903  19.684  66.029  1.00  0.00    -0.402 OA 
HETATM   24  N   UNL     1      -7.900  18.866  66.537  1.00  0.00    -0.257 N  
BRANCH  24  25
HETATM   25  C   UNL     1      -7.067  17.957  67.264  1.00  0.00    -0.183 C  
BRANCH  25  26
HETATM   26  C   UNL     1      -6.365  18.413  68.492  1.00  0.00    -0.219 A  
HETATM   27  C   UNL     1      -6.101  20.144  70.177  1.00  0.00    -0.387 A  
HETATM   28  C   UNL     1      -5.520  19.208  71.020  1.00  0.00    -0.226 A  
HETATM   29  C   UNL     1      -6.517  19.738  68.918  1.00  0.00    -0.303 A  
HETATM   30  F   UNL     1      -7.149  20.626  68.137  1.00  0.00    -0.318 F  
HETATM   31  F   UNL     1      -5.145  19.581  72.249  1.00  0.00    -0.303 F  
HETATM   32  C   UNL     1      -5.350  17.886  70.627  1.00  0.00    -0.266 A  
HETATM   33  C   UNL     1      -5.778  17.498  69.363  1.00  0.00    -0.212 A  
HETATM   34  F   UNL     1      -5.700  16.205  69.021  1.00  0.00    -0.112 F  
ENDBRANCH  25  26
ENDBRANCH  24  25
ENDBRANCH   9  21
TORSDOF 3
ENDMDL
MODEL      179
REMARK 921   NORMALIZED FREE ENERGY PREDICTED BY IDOCK:   -4.64 KCAL/MOL
REMARK 922        TOTAL FREE ENERGY PREDICTED BY IDOCK:   -6.20 KCAL/MOL
REMARK 923 INTER-LIGAND FREE ENERGY PREDICTED BY IDOCK:   -5.55 KCAL/MOL
REMARK 924 INTRA-LIGAND FREE ENERGY PREDICTED BY IDOCK:   -0.65 KCAL/MOL
REMARK 927      BINDING AFFINITY PREDICTED BY RF-SCORE:    0.00 PKD
ROOT
HETATM    1  O   UNL     1      -7.792  12.067  69.129  1.00  0.00    -0.338 OA 
HETATM    2  H   UNL     1      -8.167  12.800  69.605  1.00  0.00     0.000 HD 
HETATM    3  C   UNL     1      -8.273  11.483  67.971  1.00  0.00    -0.143 C  
HETATM    4  C   UNL     1      -7.740  10.440  67.293  1.00  0.00    -0.099 C  
HETATM    5  N   UNL     1      -8.358   9.925  66.136  1.00  0.00    -0.120 NA 
HETATM    6  C   UNL     1      -8.174   8.541  65.700  1.00  0.00    -0.130 C  
HETATM    7  C   UNL     1      -9.433  10.628  65.581  1.00  0.00    -0.212 C  
HETATM    8  C   UNL     1      -6.859   7.909  66.144  1.00  0.00    -0.058 C  
HETATM    9  C   UNL     1     -10.103  11.633  66.173  1.00  0.00    -0.259 C  
HETATM   10  C   UNL     1      -9.671  11.820  67.586  1.00  0.00    -0.182 C  
HETATM   11  O   UNL     1      -7.155   6.277  66.151  1.00  0.00    -0.064 OA 
HETATM   12  C   UNL     1      -5.946   5.530  68.693  1.00  0.00    -0.021 C  
HETATM   13  C   UNL     1      -6.313   5.336  67.045  1.00  0.00    -0.040 C  
HETATM   14  N   UNL     1      -6.225   8.501  67.574  1.00  0.00    -0.052 N  
HETATM   15  O   UNL     1     -10.441  12.099  68.501  1.00  0.00    -0.224 OA 
HETATM   16  C   UNL     1      -6.558   9.782  67.977  1.00  0.00    -0.061 C  
HETATM   17  C   UNL     1      -5.887   7.430  68.844  1.00  0.00    -0.023 C  
HETATM   18  C   UNL     1      -5.471   6.410  67.271  1.00  0.00    -0.012 C  
HETATM   19  C   UNL     1      -7.058   6.894  68.319  1.00  0.00    -0.086 C  
HETATM   20  O   UNL     1      -6.052  10.281  68.985  1.00  0.00    -0.037 OA 
ENDROOT
BRANCH   9  21
HETATM   21  C   UNL     1     -11.233  12.257  65.399  1.00  0.00    -0.328 C  
HETATM   22  H   UNL     1     -11.833  13.787  64.152  1.00  0.00     0.000 HD 
HETATM   23  O   UNL     1     -12.257  11.610  65.171  1.00  0.00    -0.129 OA 
HETATM   24  N   UNL     1     -11.163  13.522  64.874  1.00  0.00    -0.328 N  
BRANCH  24  25
HETATM   25  C   UNL     1     -10.194  14.486  65.294  1.00  0.00    -0.402 C  
BRANCH  25  26
HETATM   26  C   UNL     1     -10.263  15.062  66.662  1.00  0.00    -0.271 A  
HETATM   27  C   UNL     1     -11.592  15.436  68.663  1.00  0.00    -0.373 A  
HETATM   28  C   UNL     1     -10.421  15.640  69.379  1.00  0.00    -0.253 A  
HETATM   29  C   UNL     1     -11.501  15.151  67.308  1.00  0.00    -0.279 A  
HETATM   30  F   UNL     1     -12.630  14.877  66.638  1.00  0.00    -0.125 F  
HETATM   31  F   UNL     1     -10.494  15.883  70.692  1.00  0.00    -0.274 F  
HETATM   32  C   UNL     1      -9.175  15.564  68.767  1.00  0.00    -0.210 A  
HETATM   33  C   UNL     1      -9.106  15.272  67.411  1.00  0.00    -0.192 A  
HETATM   34  F   UNL     1      -7.905  15.106  66.843  1.00  0.00    -0.224 F  
ENDBRANCH  25  26
ENDBRANCH  24  25
ENDBRANCH   9  21
TORSDOF 3
ENDMDL
MODEL      180
REMARK 921   NORMALIZED FREE ENERGY PREDICTED BY IDOCK:   -4.59 KCAL/MOL
REMARK 922        TOTAL FREE ENERGY PREDICTED BY IDOCK:   -6.14 KCAL/MOL
REMARK 923 INTER-LIGAND FREE ENERGY PREDICTED BY IDOCK:   -5.40 KCAL/MOL
REMARK 924 INTRA-LIGAND FREE ENERGY PREDICTED BY IDOCK:   -0.74 KCAL/MOL
REMARK 927      BINDING AFFINITY PREDICTED BY RF-SCORE:    0.00 PKD
ROOT
HETATM    1  O   UNL     1     -10.289  10.351  68.114  1.00  0.00    -0.157 OA 
HETATM    2  H   UNL     1     -10.419  11.144  68.621  1.00  0.00     0.000 HD 
HETATM    3  C   UNL     1     -10.529   9.049  68.514  1.00  0.00    -0.196 C  
HETATM    4  C   UNL     1     -10.343   7.919  67.792  1.00  0.00    -0.226 C  
HETATM    5  N   UNL     1     -10.603   6.647  68.341  1.00  0.00    -0.219 NA 
HETATM    6  C   UNL     1      -9.936   5.436  67.862  1.00  0.00    -0.160 C  
HETATM    7  C   UNL     1     -11.241   6.572  69.583  1.00  0.00    -0.384 C  
HETATM    8  C   UNL     1      -9.474   5.502  66.410  1.00  0.00    -0.167 C  
HETATM    9  C   UNL     1     -11.426   7.597  70.435  1.00  0.00    -0.192 C  
HETATM   10  C   UNL     1     -10.722   8.824  69.973  1.00  0.00    -0.228 C  
HETATM   11  O   UNL     1      -8.233   4.408  66.310  1.00  0.00    -0.102 OA 
HETATM   12  C   UNL     1      -6.280   5.956  64.804  1.00  0.00    -0.030 C  
HETATM   13  C   UNL     1      -7.149   4.555  65.216  1.00  0.00    -0.063 C  
HETATM   14  N   UNL     1      -9.094   7.030  65.847  1.00  0.00    -0.072 N  
HETATM   15  O   UNL     1     -10.150   9.606  70.728  1.00  0.00    -0.278 OA 
HETATM   16  C   UNL     1      -9.676   8.132  66.447  1.00  0.00    -0.205 C  
HETATM   17  C   UNL     1      -7.558   7.318  65.187  1.00  0.00    -0.105 C  
HETATM   18  C   UNL     1      -7.956   5.520  64.639  1.00  0.00    -0.115 C  
HETATM   19  C   UNL     1      -7.265   6.444  66.228  1.00  0.00    -0.072 C  
HETATM   20  O   UNL     1      -9.478   9.270  66.013  1.00  0.00    -0.206 OA 
ENDROOT
BRANCH   9  21
HETATM   21  C   UNL     1     -12.140   7.300  71.726  1.00  0.00    -0.319 C  
HETATM   22  H   UNL     1     -12.050   7.299  73.787  1.00  0.00     0.000 HD 
HETATM   23  O   UNL     1     -13.363   7.145  71.735  1.00  0.00    -0.353 OA 
HETATM   24  N   UNL     1     -11.494   7.241  72.934  1.00  0.00    -0.235 N  
BRANCH  24  25
HETATM   25  C   UNL     1     -10.075   7.102  73.052  1.00  0.00    -0.228 C  
BRANCH  25  26
HETATM   26  C   UNL     1      -9.455   5.752  73.019  1.00  0.00    -0.153 A  
HETATM   27  C   UNL     1      -7.448   4.428  72.670  1.00  0.00    -0.079 A  
HETATM   28  C   UNL     1      -8.032   3.390  73.381  1.00  0.00    -0.074 A  
HETATM   29  C   UNL     1      -8.168   5.600  72.493  1.00  0.00    -0.114 A  
HETATM   30  F   UNL     1      -7.569   6.628  71.874  1.00  0.00    -0.090 F  
HETATM   31  F   UNL     1      -7.335   2.266  73.586  1.00  0.00    -0.032 F  
HETATM   32  C   UNL     1      -9.311   3.505  73.913  1.00  0.00    -0.108 A  
HETATM   33  C   UNL     1     -10.013   4.691  73.730  1.00  0.00    -0.156 A  
HETATM   34  F   UNL     1     -11.205   4.836  74.321  1.00  0.00    -0.279 F  
ENDBRANCH  25  26
ENDBRANCH  24  25
ENDBRANCH   9  21
TORSDOF 3
ENDMDL
MODEL      181
REMARK 921   NORMALIZED FREE ENERGY PREDICTED BY IDOCK:   -4.58 KCAL/MOL
REMARK 922        TOTAL FREE ENERGY PREDICTED BY IDOCK:   -6.12 KCAL/MOL
REMARK 923 INTER-LIGAND FREE ENERGY PREDICTED BY IDOCK:   -5.68 KCAL/MOL
REMARK 924 INTRA-LIGAND FREE ENERGY PREDICTED BY IDOCK:   -0.45 KCAL/MOL
REMARK 927      BINDING AFFINITY PREDICTED BY RF-SCORE:    0.00 PKD
ROOT
HETATM    1  O   UNL     1      -9.975   3.489  66.426  1.00  0.00    -0.416 OA 
HETATM    2  H   UNL     1     -10.134   3.309  65.506  1.00  0.00     0.000 HD 
HETATM    3  C   UNL     1      -9.538   4.675  66.987  1.00  0.00    -0.180 C  
HETATM    4  C   UNL     1      -9.310   4.930  68.297  1.00  0.00    -0.130 C  
HETATM    5  N   UNL     1      -8.833   6.184  68.727  1.00  0.00    -0.121 NA 
HETATM    6  C   UNL     1      -8.073   6.350  69.966  1.00  0.00    -0.121 C  
HETATM    7  C   UNL     1      -8.778   7.233  67.803  1.00  0.00    -0.126 C  
HETATM    8  C   UNL     1      -8.363   5.297  71.030  1.00  0.00    -0.121 C  
HETATM    9  C   UNL     1      -8.911   7.112  66.469  1.00  0.00    -0.154 C  
HETATM   10  C   UNL     1      -8.967   5.684  66.053  1.00  0.00    -0.154 C  
HETATM   11  O   UNL     1      -7.002   5.264  71.976  1.00  0.00    -0.072 OA 
HETATM   12  C   UNL     1      -6.608   2.391  72.239  1.00  0.00    -0.015 C  
HETATM   13  C   UNL     1      -6.649   3.998  72.791  1.00  0.00    -0.040 C  
HETATM   14  N   UNL     1      -8.837   3.802  70.451  1.00  0.00    -0.079 N  
HETATM   15  O   UNL     1      -8.434   5.250  65.036  1.00  0.00    -0.140 OA 
HETATM   16  C   UNL     1      -9.435   3.722  69.205  1.00  0.00    -0.182 C  
HETATM   17  C   UNL     1      -7.967   2.418  70.903  1.00  0.00    -0.055 C  
HETATM   18  C   UNL     1      -7.909   3.521  72.473  1.00  0.00    -0.068 C  
HETATM   19  C   UNL     1      -6.955   3.361  70.765  1.00  0.00    -0.033 C  
HETATM   20  O   UNL     1      -9.865   2.649  68.775  1.00  0.00     0.052 OA 
ENDROOT
BRANCH   9  21
HETATM   21  C   UNL     1      -8.819   8.372  65.652  1.00  0.00    -0.156 C  
HETATM   22  H   UNL     1      -9.297  10.374  65.506  1.00  0.00     0.000 HD 
HETATM   23  O   UNL     1      -7.998   8.456  64.736  1.00  0.00    -0.123 OA 
HETATM   24  N   UNL     1      -9.582   9.482  65.910  1.00  0.00    -0.242 N  
BRANCH  24  25
HETATM   25  C   UNL     1     -10.760   9.445  66.721  1.00  0.00    -0.059 C  
BRANCH  25  26
HETATM   26  C   UNL     1     -10.977  10.482  67.763  1.00  0.00    -0.372 A  
HETATM   27  C   UNL     1     -11.885  12.666  68.320  1.00  0.00    -0.354 A  
HETATM   28  C   UNL     1     -11.893  12.300  69.659  1.00  0.00    -0.324 A  
HETATM   29  C   UNL     1     -11.424  11.753  67.384  1.00  0.00    -0.305 A  
HETATM   30  F   UNL     1     -11.493  12.081  66.085  1.00  0.00    -0.348 F  
HETATM   31  F   UNL     1     -12.365  13.161  70.568  1.00  0.00    -0.386 F  
HETATM   32  C   UNL     1     -11.451  11.048  70.070  1.00  0.00    -0.398 A  
HETATM   33  C   UNL     1     -10.999  10.146  69.115  1.00  0.00    -0.230 A  
HETATM   34  F   UNL     1     -10.662   8.908  69.501  1.00  0.00    -0.223 F  
ENDBRANCH  25  26
ENDBRANCH  24  25
ENDBRANCH   9  21
TORSDOF 3
ENDMDL
MODEL      182
REMARK 921   NORMALIZED FREE ENERGY PREDICTED BY IDOCK:   -4.58 KCAL/MOL
REMARK 922        TOTAL FREE ENERGY PREDICTED BY IDOCK:   -6.12 KCAL/MOL
REMARK 923 INTER-LIGAND FREE ENERGY PREDICTED BY IDOCK:   -5.54 KCAL/MOL
REMARK 924 INTRA-LIGAND FREE ENERGY PREDICTED BY IDOCK:   -0.58 KCAL/MOL
REMARK 927      BINDING AFFINITY PREDICTED BY RF-SCORE:    0.00 PKD
ROOT
HETATM    1  O   UNL     1     -11.633   6.436  66.582  1.00  0.00    -0.671 OA 
HETATM    2  H   UNL     1     -12.470   6.858  66.741  1.00  0.00     0.000 HD 
HETATM    3  C   UNL     1     -10.385   6.861  67.000  1.00  0.00    -0.278 C  
HETATM    4  C   UNL     1      -9.193   6.260  66.774  1.00  0.00    -0.137 C  
HETATM    5  N   UNL     1      -7.988   6.826  67.237  1.00  0.00    -0.112 NA 
HETATM    6  C   UNL     1      -6.701   6.562  66.594  1.00  0.00    -0.056 C  
HETATM    7  C   UNL     1      -8.052   7.922  68.103  1.00  0.00    -0.123 C  
HETATM    8  C   UNL     1      -6.624   5.227  65.860  1.00  0.00    -0.048 C  
HETATM    9  C   UNL     1      -9.150   8.656  68.362  1.00  0.00    -0.138 C  
HETATM   10  C   UNL     1     -10.287   8.265  67.484  1.00  0.00    -0.265 C  
HETATM   11  O   UNL     1      -5.442   5.438  64.717  1.00  0.00    -0.012 OA 
HETATM   12  C   UNL     1      -6.733   4.250  62.393  1.00  0.00    -0.030 C  
HETATM   13  C   UNL     1      -5.431   4.570  63.437  1.00  0.00    -0.013 C  
HETATM   14  N   UNL     1      -8.074   4.655  65.256  1.00  0.00    -0.102 N  
HETATM   15  O   UNL     1     -11.082   9.068  67.005  1.00  0.00     0.053 OA 
HETATM   16  C   UNL     1      -9.257   5.061  65.848  1.00  0.00    -0.157 C  
HETATM   17  C   UNL     1      -8.205   4.291  63.605  1.00  0.00    -0.096 C  
HETATM   18  C   UNL     1      -6.402   3.789  64.037  1.00  0.00    -0.030 C  
HETATM   19  C   UNL     1      -7.395   5.421  63.587  1.00  0.00    -0.053 C  
HETATM   20  O   UNL     1     -10.341   4.605  65.479  1.00  0.00    -0.235 OA 
ENDROOT
BRANCH   9  21
HETATM   21  C   UNL     1      -9.001   9.799  69.330  1.00  0.00    -0.173 C  
HETATM   22  H   UNL     1      -9.237  11.821  69.661  1.00  0.00     0.000 HD 
HETATM   23  O   UNL     1      -8.847   9.574  70.532  1.00  0.00    -0.233 OA 
HETATM   24  N   UNL     1      -9.083  11.112  68.945  1.00  0.00    -0.135 N  
BRANCH  24  25
HETATM   25  C   UNL     1      -8.960  11.533  67.583  1.00  0.00    -0.160 C  
BRANCH  25  26
HETATM   26  C   UNL     1      -9.364  12.908  67.191  1.00  0.00    -0.229 A  
HETATM   27  C   UNL     1      -8.708  15.229  66.890  1.00  0.00    -0.288 A  
HETATM   28  C   UNL     1      -9.798  15.408  66.050  1.00  0.00    -0.326 A  
HETATM   29  C   UNL     1      -8.503  13.979  67.456  1.00  0.00    -0.195 A  
HETATM   30  F   UNL     1      -7.406  13.790  68.203  1.00  0.00    -0.085 F  
HETATM   31  F   UNL     1      -9.988  16.600  65.473  1.00  0.00    -0.301 F  
HETATM   32  C   UNL     1     -10.676  14.367  65.770  1.00  0.00    -0.312 A  
HETATM   33  C   UNL     1     -10.449  13.122  66.342  1.00  0.00    -0.282 A  
HETATM   34  F   UNL     1     -11.239  12.097  65.998  1.00  0.00    -0.316 F  
ENDBRANCH  25  26
ENDBRANCH  24  25
ENDBRANCH   9  21
TORSDOF 3
ENDMDL
MODEL      183
REMARK 921   NORMALIZED FREE ENERGY PREDICTED BY IDOCK:   -4.56 KCAL/MOL
REMARK 922        TOTAL FREE ENERGY PREDICTED BY IDOCK:   -6.10 KCAL/MOL
REMARK 923 INTER-LIGAND FREE ENERGY PREDICTED BY IDOCK:   -6.07 KCAL/MOL
REMARK 924 INTRA-LIGAND FREE ENERGY PREDICTED BY IDOCK:   -0.03 KCAL/MOL
REMARK 927      BINDING AFFINITY PREDICTED BY RF-SCORE:    0.00 PKD
ROOT
HETATM    1  O   UNL     1     -11.307   6.979  67.083  1.00  0.00    -0.603 OA 
HETATM    2  H   UNL     1     -11.920   7.302  66.432  1.00  0.00     0.000 HD 
HETATM    3  C   UNL     1     -10.852   7.639  68.210  1.00  0.00     0.037 C  
HETATM    4  C   UNL     1      -9.979   7.178  69.136  1.00  0.00    -0.168 C  
HETATM    5  N   UNL     1      -9.578   7.976  70.226  1.00  0.00    -0.171 NA 
HETATM    6  C   UNL     1      -8.298   7.783  70.909  1.00  0.00    -0.111 C  
HETATM    7  C   UNL     1     -10.239   9.188  70.448  1.00  0.00    -0.222 C  
HETATM    8  C   UNL     1      -7.747   6.363  70.827  1.00  0.00    -0.102 C  
HETATM    9  C   UNL     1     -11.073   9.798  69.585  1.00  0.00    -0.251 C  
HETATM   10  C   UNL     1     -11.095   9.106  68.267  1.00  0.00     0.167 C  
HETATM   11  O   UNL     1      -6.110   6.532  71.031  1.00  0.00    -0.030 OA 
HETATM   12  C   UNL     1      -5.129   4.787  68.916  1.00  0.00     0.000 C  
HETATM   13  C   UNL     1      -5.141   5.462  70.475  1.00  0.00    -0.004 C  
HETATM   14  N   UNL     1      -8.187   5.500  69.464  1.00  0.00    -0.100 N  
HETATM   15  O   UNL     1     -11.157   9.694  67.191  1.00  0.00    -0.106 OA 
HETATM   16  C   UNL     1      -9.354   5.837  68.802  1.00  0.00    -0.119 C  
HETATM   17  C   UNL     1      -6.982   4.838  68.471  1.00  0.00    -0.056 C  
HETATM   18  C   UNL     1      -6.252   4.672  70.239  1.00  0.00    -0.022 C  
HETATM   19  C   UNL     1      -6.410   6.048  68.848  1.00  0.00    -0.041 C  
HETATM   20  O   UNL     1      -9.750   5.178  67.838  1.00  0.00    -0.133 OA 
ENDROOT
BRANCH   9  21
HETATM   21  C   UNL     1     -11.683  11.102  70.022  1.00  0.00    -0.356 C  
HETATM   22  H   UNL     1     -12.044  13.080  69.559  1.00  0.00     0.000 HD 
HETATM   23  O   UNL     1     -12.496  11.125  70.948  1.00  0.00    -0.362 OA 
HETATM   24  N   UNL     1     -11.416  12.293  69.396  1.00  0.00    -0.282 N  
BRANCH  24  25
HETATM   25  C   UNL     1     -10.297  12.480  68.525  1.00  0.00    -0.222 C  
BRANCH  25  26
HETATM   26  C   UNL     1     -10.515  12.697  67.071  1.00  0.00    -0.244 A  
HETATM   27  C   UNL     1      -9.932  12.072  64.796  1.00  0.00    -0.241 A  
HETATM   28  C   UNL     1     -11.129  12.619  64.359  1.00  0.00    -0.345 A  
HETATM   29  C   UNL     1      -9.635  12.119  66.150  1.00  0.00    -0.240 A  
HETATM   30  F   UNL     1      -8.514  11.518  66.578  1.00  0.00    -0.159 F  
HETATM   31  F   UNL     1     -11.442  12.552  63.060  1.00  0.00    -0.480 F  
HETATM   32  C   UNL     1     -12.024  13.207  65.246  1.00  0.00    -0.437 A  
HETATM   33  C   UNL     1     -11.710  13.238  66.599  1.00  0.00    -0.377 A  
HETATM   34  F   UNL     1     -12.613  13.718  67.463  1.00  0.00    -0.287 F  
ENDBRANCH  25  26
ENDBRANCH  24  25
ENDBRANCH   9  21
TORSDOF 3
ENDMDL
MODEL      184
REMARK 921   NORMALIZED FREE ENERGY PREDICTED BY IDOCK:   -4.52 KCAL/MOL
REMARK 922        TOTAL FREE ENERGY PREDICTED BY IDOCK:   -6.06 KCAL/MOL
REMARK 923 INTER-LIGAND FREE ENERGY PREDICTED BY IDOCK:   -4.93 KCAL/MOL
REMARK 924 INTRA-LIGAND FREE ENERGY PREDICTED BY IDOCK:   -1.13 KCAL/MOL
REMARK 927      BINDING AFFINITY PREDICTED BY RF-SCORE:    0.00 PKD
ROOT
HETATM    1  O   UNL     1     -11.405   9.718  70.717  1.00  0.00    -0.287 OA 
HETATM    2  H   UNL     1     -12.095   9.590  71.357  1.00  0.00     0.000 HD 
HETATM    3  C   UNL     1     -10.214   9.022  70.614  1.00  0.00    -0.229 C  
HETATM    4  C   UNL     1      -9.231   9.203  69.702  1.00  0.00    -0.168 C  
HETATM    5  N   UNL     1      -8.049   8.436  69.735  1.00  0.00    -0.114 NA 
HETATM    6  C   UNL     1      -6.786   8.920  69.179  1.00  0.00    -0.051 C  
HETATM    7  C   UNL     1      -7.983   7.346  70.608  1.00  0.00    -0.098 C  
HETATM    8  C   UNL     1      -6.939   9.940  68.055  1.00  0.00    -0.077 C  
HETATM    9  C   UNL     1      -8.847   7.086  71.606  1.00  0.00    -0.130 C  
HETATM   10  C   UNL     1      -9.821   8.196  71.789  1.00  0.00    -0.194 C  
HETATM   11  O   UNL     1      -5.522  10.800  68.066  1.00  0.00    -0.037 OA 
HETATM   12  C   UNL     1      -6.548  13.515  67.830  1.00  0.00    -0.154 C  
HETATM   13  C   UNL     1      -5.478  12.238  67.497  1.00  0.00    -0.118 C  
HETATM   14  N   UNL     1      -8.319  10.882  68.125  1.00  0.00    -0.118 N  
HETATM   15  O   UNL     1     -10.219   8.579  72.886  1.00  0.00    -0.197 OA 
HETATM   16  C   UNL     1      -9.432  10.396  68.787  1.00  0.00    -0.175 C  
HETATM   17  C   UNL     1      -8.176  12.571  68.138  1.00  0.00    -0.170 C  
HETATM   18  C   UNL     1      -6.744  12.006  66.990  1.00  0.00    -0.099 C  
HETATM   19  C   UNL     1      -7.089  12.185  68.914  1.00  0.00    -0.098 C  
HETATM   20  O   UNL     1     -10.491  11.028  68.796  1.00  0.00    -0.181 OA 
ENDROOT
BRANCH   9  21
HETATM   21  C   UNL     1      -8.593   5.855  72.433  1.00  0.00    -0.120 C  
HETATM   22  H   UNL     1      -8.812   3.809  72.597  1.00  0.00     0.000 HD 
HETATM   23  O   UNL     1      -7.765   5.883  73.347  1.00  0.00    -0.100 OA 
HETATM   24  N   UNL     1      -9.209   4.655  72.187  1.00  0.00    -0.126 N  
BRANCH  24  25
HETATM   25  C   UNL     1     -10.385   4.535  71.380  1.00  0.00    -0.047 C  
BRANCH  25  26
HETATM   26  C   UNL     1     -10.284   4.638  69.901  1.00  0.00    -0.156 A  
HETATM   27  C   UNL     1     -10.713   5.959  67.906  1.00  0.00    -0.336 A  
HETATM   28  C   UNL     1      -9.753   5.217  67.233  1.00  0.00    -0.149 A  
HETATM   29  C   UNL     1     -10.972   5.660  69.236  1.00  0.00    -0.154 A  
HETATM   30  F   UNL     1     -11.842   6.430  69.905  1.00  0.00    -0.474 F  
HETATM   31  F   UNL     1      -9.473   5.517  65.959  1.00  0.00    -0.157 F  
HETATM   32  C   UNL     1      -9.056   4.192  67.862  1.00  0.00    -0.168 A  
HETATM   33  C   UNL     1      -9.326   3.913  69.196  1.00  0.00    -0.170 A  
HETATM   34  F   UNL     1      -8.589   2.990  69.827  1.00  0.00    -0.076 F  
ENDBRANCH  25  26
ENDBRANCH  24  25
ENDBRANCH   9  21
TORSDOF 3
ENDMDL
MODEL      185
REMARK 921   NORMALIZED FREE ENERGY PREDICTED BY IDOCK:   -4.52 KCAL/MOL
REMARK 922        TOTAL FREE ENERGY PREDICTED BY IDOCK:   -6.06 KCAL/MOL
REMARK 923 INTER-LIGAND FREE ENERGY PREDICTED BY IDOCK:   -6.48 KCAL/MOL
REMARK 924 INTRA-LIGAND FREE ENERGY PREDICTED BY IDOCK:    0.42 KCAL/MOL
REMARK 927      BINDING AFFINITY PREDICTED BY RF-SCORE:    0.00 PKD
ROOT
HETATM    1  O   UNL     1     -10.980   9.745  70.520  1.00  0.00    -0.271 OA 
HETATM    2  H   UNL     1     -10.720   8.939  70.951  1.00  0.00     0.000 HD 
HETATM    3  C   UNL     1     -10.732  10.116  69.211  1.00  0.00    -0.231 C  
HETATM    4  C   UNL     1     -11.102  11.264  68.597  1.00  0.00    -0.232 C  
HETATM    5  N   UNL     1     -10.752  11.524  67.257  1.00  0.00    -0.231 NA 
HETATM    6  C   UNL     1     -10.627  12.883  66.730  1.00  0.00    -0.257 C  
HETATM    7  C   UNL     1     -10.178  10.496  66.502  1.00  0.00    -0.231 C  
HETATM    8  C   UNL     1     -11.473  13.923  67.458  1.00  0.00    -0.368 C  
HETATM    9  C   UNL     1      -9.700   9.337  66.990  1.00  0.00    -0.241 C  
HETATM   10  C   UNL     1      -9.701   9.329  68.479  1.00  0.00    -0.150 C  
HETATM   11  O   UNL     1     -10.703  15.365  67.183  1.00  0.00    -0.303 OA 
HETATM   12  C   UNL     1     -10.759  16.516  69.857  1.00  0.00    -0.269 C  
HETATM   13  C   UNL     1     -10.887  16.547  68.163  1.00  0.00    -0.345 C  
HETATM   14  N   UNL     1     -11.776  13.600  69.071  1.00  0.00    -0.310 N  
HETATM   15  O   UNL     1      -8.809   8.828  69.157  1.00  0.00    -0.134 OA 
HETATM   16  C   UNL     1     -11.745  12.288  69.511  1.00  0.00    -0.332 C  
HETATM   17  C   UNL     1     -11.350  14.745  70.246  1.00  0.00    -0.277 C  
HETATM   18  C   UNL     1     -11.904  15.816  68.751  1.00  0.00    -0.321 C  
HETATM   19  C   UNL     1     -10.298  14.855  69.343  1.00  0.00    -0.217 C  
HETATM   20  O   UNL     1     -12.036  12.003  70.675  1.00  0.00    -0.373 OA 
ENDROOT
BRANCH   9  21
HETATM   21  C   UNL     1      -9.121   8.361  66.002  1.00  0.00    -0.183 C  
HETATM   22  H   UNL     1      -8.959   6.389  65.416  1.00  0.00     0.000 HD 
HETATM   23  O   UNL     1      -8.667   8.763  64.929  1.00  0.00    -0.183 OA 
HETATM   24  N   UNL     1      -9.117   7.005  66.213  1.00  0.00    -0.162 N  
BRANCH  24  25
HETATM   25  C   UNL     1      -9.325   6.417  67.500  1.00  0.00    -0.118 C  
BRANCH  25  26
HETATM   26  C   UNL     1      -8.566   5.202  67.893  1.00  0.00    -0.103 A  
HETATM   27  C   UNL     1      -8.630   2.961  68.831  1.00  0.00    -0.114 A  
HETATM   28  C   UNL     1      -7.405   2.697  68.234  1.00  0.00    -0.048 A  
HETATM   29  C   UNL     1      -9.198   4.214  68.656  1.00  0.00    -0.145 A  
HETATM   30  F   UNL     1     -10.417   4.438  69.168  1.00  0.00    -0.120 F  
HETATM   31  F   UNL     1      -6.862   1.481  68.368  1.00  0.00    -0.031 F  
HETATM   32  C   UNL     1      -6.748   3.657  67.474  1.00  0.00    -0.042 A  
HETATM   33  C   UNL     1      -7.337   4.904  67.306  1.00  0.00    -0.082 A  
HETATM   34  F   UNL     1      -6.750   5.795  66.498  1.00  0.00    -0.050 F  
ENDBRANCH  25  26
ENDBRANCH  24  25
ENDBRANCH   9  21
TORSDOF 3
ENDMDL
MODEL      186
REMARK 921   NORMALIZED FREE ENERGY PREDICTED BY IDOCK:   -4.51 KCAL/MOL
REMARK 922        TOTAL FREE ENERGY PREDICTED BY IDOCK:   -6.04 KCAL/MOL
REMARK 923 INTER-LIGAND FREE ENERGY PREDICTED BY IDOCK:   -5.16 KCAL/MOL
REMARK 924 INTRA-LIGAND FREE ENERGY PREDICTED BY IDOCK:   -0.88 KCAL/MOL
REMARK 927      BINDING AFFINITY PREDICTED BY RF-SCORE:    0.00 PKD
ROOT
HETATM    1  O   UNL     1     -11.047   5.592  66.100  1.00  0.00    -0.747 OA 
HETATM    2  H   UNL     1     -11.573   6.264  65.682  1.00  0.00     0.000 HD 
HETATM    3  C   UNL     1     -10.765   5.463  67.448  1.00  0.00    -0.077 C  
HETATM    4  C   UNL     1     -10.016   4.506  68.044  1.00  0.00    -0.037 C  
HETATM    5  N   UNL     1      -9.785   4.516  69.434  1.00  0.00    -0.195 NA 
HETATM    6  C   UNL     1      -8.606   3.894  70.037  1.00  0.00    -0.065 C  
HETATM    7  C   UNL     1     -10.499   5.422  70.226  1.00  0.00    -0.285 C  
HETATM    8  C   UNL     1      -8.015   2.744  69.226  1.00  0.00    -0.056 C  
HETATM    9  C   UNL     1     -11.221   6.462  69.771  1.00  0.00    -0.484 C  
HETATM   10  C   UNL     1     -11.048   6.648  68.305  1.00  0.00    -0.198 C  
HETATM   11  O   UNL     1      -6.426   2.670  69.693  1.00  0.00    -0.028 OA 
HETATM   12  C   UNL     1      -5.126   2.387  67.102  1.00  0.00    -0.005 C  
HETATM   13  C   UNL     1      -5.365   2.053  68.751  1.00  0.00    -0.013 C  
HETATM   14  N   UNL     1      -8.245   2.839  67.573  1.00  0.00    -0.079 N  
HETATM   15  O   UNL     1     -10.977   7.747  67.762  1.00  0.00    -0.088 OA 
HETATM   16  C   UNL     1      -9.319   3.562  67.084  1.00  0.00    -0.200 C  
HETATM   17  C   UNL     1      -6.902   2.792  66.539  1.00  0.00    -0.044 C  
HETATM   18  C   UNL     1      -6.415   1.605  67.969  1.00  0.00    -0.028 C  
HETATM   19  C   UNL     1      -6.415   3.535  67.609  1.00  0.00    -0.037 C  
HETATM   20  O   UNL     1      -9.565   3.594  65.876  1.00  0.00    -0.178 OA 
ENDROOT
BRANCH   9  21
HETATM   21  C   UNL     1     -11.915   7.318  70.796  1.00  0.00    -0.272 C  
HETATM   22  H   UNL     1     -11.879   9.061  71.900  1.00  0.00     0.000 HD 
HETATM   23  O   UNL     1     -13.102   7.119  71.066  1.00  0.00    -0.305 OA 
HETATM   24  N   UNL     1     -11.299   8.369  71.426  1.00  0.00    -0.252 N  
BRANCH  24  25
HETATM   25  C   UNL     1      -9.879   8.538  71.448  1.00  0.00    -0.228 C  
BRANCH  25  26
HETATM   26  C   UNL     1      -9.159   8.938  70.211  1.00  0.00    -0.201 A  
HETATM   27  C   UNL     1      -8.696  10.683  68.583  1.00  0.00    -0.148 A  
HETATM   28  C   UNL     1      -7.542  10.005  68.214  1.00  0.00    -0.084 A  
HETATM   29  C   UNL     1      -9.495  10.140  69.578  1.00  0.00    -0.214 A  
HETATM   30  F   UNL     1     -10.566  10.837  69.987  1.00  0.00    -0.283 F  
HETATM   31  F   UNL     1      -6.746  10.535  67.278  1.00  0.00    -0.070 F  
HETATM   32  C   UNL     1      -7.181   8.807  68.818  1.00  0.00    -0.075 A  
HETATM   33  C   UNL     1      -7.993   8.283  69.817  1.00  0.00    -0.106 A  
HETATM   34  F   UNL     1      -7.597   7.179  70.462  1.00  0.00    -0.081 F  
ENDBRANCH  25  26
ENDBRANCH  24  25
ENDBRANCH   9  21
TORSDOF 3
ENDMDL
MODEL      187
REMARK 921   NORMALIZED FREE ENERGY PREDICTED BY IDOCK:   -4.49 KCAL/MOL
REMARK 922        TOTAL FREE ENERGY PREDICTED BY IDOCK:   -6.02 KCAL/MOL
REMARK 923 INTER-LIGAND FREE ENERGY PREDICTED BY IDOCK:   -5.31 KCAL/MOL
REMARK 924 INTRA-LIGAND FREE ENERGY PREDICTED BY IDOCK:   -0.71 KCAL/MOL
REMARK 927      BINDING AFFINITY PREDICTED BY RF-SCORE:    0.00 PKD
ROOT
HETATM    1  O   UNL     1      -7.338  11.223  67.750  1.00  0.00    -0.088 OA 
HETATM    2  H   UNL     1      -6.511  10.910  68.099  1.00  0.00     0.000 HD 
HETATM    3  C   UNL     1      -7.996  10.776  66.618  1.00  0.00    -0.139 C  
HETATM    4  C   UNL     1      -9.174  11.221  66.121  1.00  0.00    -0.206 C  
HETATM    5  N   UNL     1      -9.716  10.691  64.933  1.00  0.00    -0.257 NA 
HETATM    6  C   UNL     1     -10.629  11.452  64.081  1.00  0.00    -0.369 C  
HETATM    7  C   UNL     1      -9.116   9.560  64.371  1.00  0.00    -0.182 C  
HETATM    8  C   UNL     1     -11.433  12.521  64.814  1.00  0.00    -0.369 C  
HETATM    9  C   UNL     1      -7.918   9.052  64.714  1.00  0.00    -0.129 C  
HETATM   10  C   UNL     1      -7.206   9.938  65.675  1.00  0.00    -0.113 C  
HETATM   11  O   UNL     1     -11.829  13.630  63.645  1.00  0.00    -0.380 OA 
HETATM   12  C   UNL     1     -11.226  16.112  65.043  1.00  0.00    -0.225 C  
HETATM   13  C   UNL     1     -12.138  15.095  64.033  1.00  0.00    -0.049 C  
HETATM   14  N   UNL     1     -10.695  13.176  66.164  1.00  0.00    -0.276 N  
HETATM   15  O   UNL     1      -5.995  10.139  65.645  1.00  0.00    -0.074 OA 
HETATM   16  C   UNL     1      -9.743  12.431  66.837  1.00  0.00    -0.215 C  
HETATM   17  C   UNL     1     -10.472  14.854  66.262  1.00  0.00    -0.306 C  
HETATM   18  C   UNL     1     -12.154  14.674  65.351  1.00  0.00    -0.250 C  
HETATM   19  C   UNL     1     -10.241  14.612  64.912  1.00  0.00    -0.322 C  
HETATM   20  O   UNL     1      -9.231  12.848  67.878  1.00  0.00    -0.192 OA 
ENDROOT
BRANCH   9  21
HETATM   21  C   UNL     1      -7.456   7.823  63.981  1.00  0.00    -0.103 C  
HETATM   22  H   UNL     1      -7.822   5.843  63.528  1.00  0.00     0.000 HD 
HETATM   23  O   UNL     1      -6.609   7.916  63.090  1.00  0.00    -0.077 OA 
HETATM   24  N   UNL     1      -7.977   6.576  64.219  1.00  0.00    -0.114 N  
BRANCH  24  25
HETATM   25  C   UNL     1      -8.727   6.259  65.395  1.00  0.00    -0.045 C  
BRANCH  25  26
HETATM   26  C   UNL     1      -8.275   5.163  66.291  1.00  0.00    -0.109 A  
HETATM   27  C   UNL     1      -6.858   4.487  68.146  1.00  0.00    -0.055 A  
HETATM   28  C   UNL     1      -7.677   3.385  68.345  1.00  0.00    -0.056 A  
HETATM   29  C   UNL     1      -7.164   5.365  67.117  1.00  0.00    -0.075 A  
HETATM   30  F   UNL     1      -6.417   6.471  66.979  1.00  0.00    -0.036 F  
HETATM   31  F   UNL     1      -7.410   2.547  69.354  1.00  0.00    -0.043 F  
HETATM   32  C   UNL     1      -8.785   3.151  67.540  1.00  0.00    -0.140 A  
HETATM   33  C   UNL     1      -9.078   4.047  66.519  1.00  0.00    -0.140 A  
HETATM   34  F   UNL     1     -10.198   3.872  65.805  1.00  0.00    -0.175 F  
ENDBRANCH  25  26
ENDBRANCH  24  25
ENDBRANCH   9  21
TORSDOF 3
ENDMDL
MODEL      188
REMARK 921   NORMALIZED FREE ENERGY PREDICTED BY IDOCK:   -4.33 KCAL/MOL
REMARK 922        TOTAL FREE ENERGY PREDICTED BY IDOCK:   -5.84 KCAL/MOL
REMARK 923 INTER-LIGAND FREE ENERGY PREDICTED BY IDOCK:   -5.45 KCAL/MOL
REMARK 924 INTRA-LIGAND FREE ENERGY PREDICTED BY IDOCK:   -0.38 KCAL/MOL
REMARK 927      BINDING AFFINITY PREDICTED BY RF-SCORE:    0.00 PKD
ROOT
HETATM    1  O   UNL     1      -9.639   3.600  66.692  1.00  0.00    -0.271 OA 
HETATM    2  H   UNL     1      -9.608   3.237  65.814  1.00  0.00     0.000 HD 
HETATM    3  C   UNL     1      -9.169   4.832  67.109  1.00  0.00    -0.127 C  
HETATM    4  C   UNL     1      -9.213   5.349  68.359  1.00  0.00    -0.111 C  
HETATM    5  N   UNL     1      -8.664   6.614  68.648  1.00  0.00    -0.124 NA 
HETATM    6  C   UNL     1      -8.193   6.976  69.985  1.00  0.00    -0.133 C  
HETATM    7  C   UNL     1      -8.242   7.420  67.586  1.00  0.00    -0.118 C  
HETATM    8  C   UNL     1      -8.875   6.220  71.121  1.00  0.00    -0.142 C  
HETATM    9  C   UNL     1      -8.081   7.019  66.312  1.00  0.00    -0.115 C  
HETATM   10  C   UNL     1      -8.254   5.547  66.177  1.00  0.00    -0.112 C  
HETATM   11  O   UNL     1      -7.787   6.264  72.373  1.00  0.00    -0.102 OA 
HETATM   12  C   UNL     1      -7.902   3.497  73.272  1.00  0.00    -0.070 C  
HETATM   13  C   UNL     1      -7.825   5.183  73.477  1.00  0.00    -0.106 C  
HETATM   14  N   UNL     1      -9.422   4.688  70.737  1.00  0.00    -0.154 N  
HETATM   15  O   UNL     1      -7.573   4.847  65.433  1.00  0.00    -0.083 OA 
HETATM   16  C   UNL     1      -9.723   4.392  69.419  1.00  0.00    -0.197 C  
HETATM   17  C   UNL     1      -8.897   3.360  71.653  1.00  0.00    -0.136 C  
HETATM   18  C   UNL     1      -9.036   4.774  72.945  1.00  0.00    -0.124 C  
HETATM   19  C   UNL     1      -7.751   4.145  71.601  1.00  0.00    -0.070 C  
HETATM   20  O   UNL     1     -10.199   3.298  69.107  1.00  0.00     0.620 OA 
ENDROOT
BRANCH   9  21
HETATM   21  C   UNL     1      -7.615   8.050  65.320  1.00  0.00    -0.085 C  
HETATM   22  H   UNL     1      -7.842   9.965  64.585  1.00  0.00     0.000 HD 
HETATM   23  O   UNL     1      -6.535   7.908  64.742  1.00  0.00    -0.048 OA 
HETATM   24  N   UNL     1      -8.320   9.196  65.054  1.00  0.00    -0.149 N  
BRANCH  24  25
HETATM   25  C   UNL     1      -9.698   9.360  65.403  1.00  0.00    -0.178 C  
BRANCH  25  26
HETATM   26  C   UNL     1     -10.329  10.703  65.323  1.00  0.00    -0.321 A  
HETATM   27  C   UNL     1     -11.446  12.362  63.941  1.00  0.00    -0.509 A  
HETATM   28  C   UNL     1     -11.956  12.948  65.091  1.00  0.00    -0.414 A  
HETATM   29  C   UNL     1     -10.634  11.245  64.069  1.00  0.00    -0.386 A  
HETATM   30  F   UNL     1     -10.209  10.634  62.952  1.00  0.00    -0.341 F  
HETATM   31  F   UNL     1     -12.766  14.007  64.980  1.00  0.00    -0.423 F  
HETATM   32  C   UNL     1     -11.668  12.439  66.352  1.00  0.00    -0.453 A  
HETATM   33  C   UNL     1     -10.858  11.315  66.457  1.00  0.00    -0.265 A  
HETATM   34  F   UNL     1     -10.658  10.771  67.664  1.00  0.00    -0.209 F  
ENDBRANCH  25  26
ENDBRANCH  24  25
ENDBRANCH   9  21
TORSDOF 3
ENDMDL
MODEL      189
REMARK 921   NORMALIZED FREE ENERGY PREDICTED BY IDOCK:   -4.32 KCAL/MOL
REMARK 922        TOTAL FREE ENERGY PREDICTED BY IDOCK:   -5.83 KCAL/MOL
REMARK 923 INTER-LIGAND FREE ENERGY PREDICTED BY IDOCK:   -5.70 KCAL/MOL
REMARK 924 INTRA-LIGAND FREE ENERGY PREDICTED BY IDOCK:   -0.12 KCAL/MOL
REMARK 927      BINDING AFFINITY PREDICTED BY RF-SCORE:    0.00 PKD
ROOT
HETATM    1  O   UNL     1     -10.624   9.105  68.989  1.00  0.00    -0.222 OA 
HETATM    2  H   UNL     1     -10.317   8.243  69.248  1.00  0.00     0.000 HD 
HETATM    3  C   UNL     1     -10.244   9.833  67.876  1.00  0.00    -0.194 C  
HETATM    4  C   UNL     1     -10.680  11.060  67.508  1.00  0.00    -0.244 C  
HETATM    5  N   UNL     1     -10.181  11.701  66.356  1.00  0.00    -0.215 NA 
HETATM    6  C   UNL     1     -10.175  13.156  66.210  1.00  0.00    -0.293 C  
HETATM    7  C   UNL     1      -9.366  10.971  65.485  1.00  0.00    -0.215 C  
HETATM    8  C   UNL     1     -11.255  13.876  67.011  1.00  0.00    -0.327 C  
HETATM    9  C   UNL     1      -8.804   9.777  65.749  1.00  0.00    -0.180 C  
HETATM   10  C   UNL     1      -9.019   9.374  67.166  1.00  0.00    -0.130 C  
HETATM   11  O   UNL     1     -10.664  15.409  67.238  1.00  0.00    -0.295 OA 
HETATM   12  C   UNL     1     -11.267  15.796  70.061  1.00  0.00    -0.346 C  
HETATM   13  C   UNL     1     -11.152  16.264  68.431  1.00  0.00    -0.362 C  
HETATM   14  N   UNL     1     -11.738  13.108  68.416  1.00  0.00    -0.331 N  
HETATM   15  O   UNL     1      -8.172   8.803  67.846  1.00  0.00    -0.110 OA 
HETATM   16  C   UNL     1     -11.587  11.736  68.518  1.00  0.00    -0.321 C  
HETATM   17  C   UNL     1     -11.651  13.937  69.892  1.00  0.00    -0.310 C  
HETATM   18  C   UNL     1     -12.130  15.306  68.633  1.00  0.00    -0.160 C  
HETATM   19  C   UNL     1     -10.507  14.385  69.243  1.00  0.00    -0.154 C  
HETATM   20  O   UNL     1     -11.999  11.125  69.507  1.00  0.00    -0.311 OA 
ENDROOT
BRANCH   9  21
HETATM   21  C   UNL     1      -7.957   9.161  64.669  1.00  0.00    -0.125 C  
HETATM   22  H   UNL     1      -7.654   7.543  63.425  1.00  0.00     0.000 HD 
HETATM   23  O   UNL     1      -7.174   9.861  64.022  1.00  0.00    -0.125 OA 
HETATM   24  N   UNL     1      -8.048   7.838  64.318  1.00  0.00    -0.116 N  
BRANCH  24  25
HETATM   25  C   UNL     1      -8.671   6.854  65.149  1.00  0.00     0.152 C  
BRANCH  25  26
HETATM   26  C   UNL     1      -8.149   5.463  65.171  1.00  0.00    -0.121 A  
HETATM   27  C   UNL     1      -6.242   3.996  65.512  1.00  0.00    -0.028 A  
HETATM   28  C   UNL     1      -7.117   2.941  65.730  1.00  0.00    -0.061 A  
HETATM   29  C   UNL     1      -6.768   5.249  65.232  1.00  0.00    -0.048 A  
HETATM   30  F   UNL     1      -5.921   6.281  65.101  1.00  0.00    -0.023 F  
HETATM   31  F   UNL     1      -6.622   1.735  66.033  1.00  0.00    -0.022 F  
HETATM   32  C   UNL     1      -8.494   3.118  65.672  1.00  0.00    -0.108 A  
HETATM   33  C   UNL     1      -9.001   4.383  65.396  1.00  0.00    -0.137 A  
HETATM   34  F   UNL     1     -10.326   4.573  65.433  1.00  0.00    -0.221 F  
ENDBRANCH  25  26
ENDBRANCH  24  25
ENDBRANCH   9  21
TORSDOF 3
ENDMDL
MODEL      190
REMARK 921   NORMALIZED FREE ENERGY PREDICTED BY IDOCK:   -4.32 KCAL/MOL
REMARK 922        TOTAL FREE ENERGY PREDICTED BY IDOCK:   -5.82 KCAL/MOL
REMARK 923 INTER-LIGAND FREE ENERGY PREDICTED BY IDOCK:   -5.23 KCAL/MOL
REMARK 924 INTRA-LIGAND FREE ENERGY PREDICTED BY IDOCK:   -0.59 KCAL/MOL
REMARK 927      BINDING AFFINITY PREDICTED BY RF-SCORE:    0.00 PKD
ROOT
HETATM    1  O   UNL     1      -9.358   8.850  65.654  1.00  0.00    -0.303 OA 
HETATM    2  H   UNL     1      -9.381   9.052  64.725  1.00  0.00     0.000 HD 
HETATM    3  C   UNL     1      -8.887   9.652  66.678  1.00  0.00    -0.138 C  
HETATM    4  C   UNL     1      -8.855   9.364  68.000  1.00  0.00    -0.124 C  
HETATM    5  N   UNL     1      -8.315  10.271  68.934  1.00  0.00    -0.127 NA 
HETATM    6  C   UNL     1      -7.759   9.837  70.216  1.00  0.00    -0.172 C  
HETATM    7  C   UNL     1      -7.985  11.560  68.503  1.00  0.00    -0.143 C  
HETATM    8  C   UNL     1      -8.343   8.532  70.747  1.00  0.00    -0.154 C  
HETATM    9  C   UNL     1      -7.905  11.963  67.222  1.00  0.00    -0.168 C  
HETATM   10  C   UNL     1      -8.056  10.821  66.279  1.00  0.00    -0.159 C  
HETATM   11  O   UNL     1      -7.172   7.921  71.750  1.00  0.00    -0.063 OA 
HETATM   12  C   UNL     1      -7.163   5.131  70.916  1.00  0.00    -0.064 C  
HETATM   13  C   UNL     1      -7.109   6.403  72.041  1.00  0.00    -0.082 C  
HETATM   14  N   UNL     1      -8.882   7.460  69.583  1.00  0.00    -0.141 N  
HETATM   15  O   UNL     1      -7.413  10.708  65.239  1.00  0.00    -0.103 OA 
HETATM   16  C   UNL     1      -9.268   7.948  68.347  1.00  0.00    -0.134 C  
HETATM   17  C   UNL     1      -8.267   5.880  69.554  1.00  0.00    -0.113 C  
HETATM   18  C   UNL     1      -8.345   6.300  71.426  1.00  0.00    -0.123 C  
HETATM   19  C   UNL     1      -7.144   6.620  69.907  1.00  0.00    -0.068 C  
HETATM   20  O   UNL     1      -9.741   7.199  67.489  1.00  0.00    -0.134 OA 
ENDROOT
BRANCH   9  21
HETATM   21  C   UNL     1      -7.533  13.400  66.974  1.00  0.00     0.254 C  
HETATM   22  H   UNL     1      -8.174  15.359  66.886  1.00  0.00     0.000 HD 
HETATM   23  O   UNL     1      -6.348  13.742  66.983  1.00  0.00    -0.041 OA 
HETATM   24  N   UNL     1      -8.466  14.387  66.786  1.00  0.00    -0.124 N  
BRANCH  24  25
HETATM   25  C   UNL     1      -9.831  14.115  66.456  1.00  0.00    -0.290 C  
BRANCH  25  26
HETATM   26  C   UNL     1     -10.797  13.757  67.527  1.00  0.00    -0.274 A  
HETATM   27  C   UNL     1     -11.931  11.996  68.759  1.00  0.00    -0.299 A  
HETATM   28  C   UNL     1     -12.184  12.900  69.781  1.00  0.00    -0.162 A  
HETATM   29  C   UNL     1     -11.241  12.435  67.639  1.00  0.00    -0.288 A  
HETATM   30  F   UNL     1     -10.929  11.539  66.691  1.00  0.00    -0.284 F  
HETATM   31  F   UNL     1     -12.821  12.480  70.880  1.00  0.00    -0.362 F  
HETATM   32  C   UNL     1     -11.763  14.222  69.700  1.00  0.00    -0.362 A  
HETATM   33  C   UNL     1     -11.067  14.640  68.572  1.00  0.00    -0.260 A  
HETATM   34  F   UNL     1     -10.580  15.887  68.535  1.00  0.00    -0.231 F  
ENDBRANCH  25  26
ENDBRANCH  24  25
ENDBRANCH   9  21
TORSDOF 3
ENDMDL
MODEL      191
REMARK 921   NORMALIZED FREE ENERGY PREDICTED BY IDOCK:   -4.32 KCAL/MOL
REMARK 922        TOTAL FREE ENERGY PREDICTED BY IDOCK:   -5.82 KCAL/MOL
REMARK 923 INTER-LIGAND FREE ENERGY PREDICTED BY IDOCK:   -5.36 KCAL/MOL
REMARK 924 INTRA-LIGAND FREE ENERGY PREDICTED BY IDOCK:   -0.46 KCAL/MOL
REMARK 927      BINDING AFFINITY PREDICTED BY RF-SCORE:    0.00 PKD
ROOT
HETATM    1  O   UNL     1     -12.620   6.821  69.968  1.00  0.00    -0.414 OA 
HETATM    2  H   UNL     1     -13.244   7.023  69.280  1.00  0.00     0.000 HD 
HETATM    3  C   UNL     1     -11.240   6.887  69.899  1.00  0.00    -0.285 C  
HETATM    4  C   UNL     1     -10.352   6.599  70.878  1.00  0.00    -0.208 C  
HETATM    5  N   UNL     1      -8.963   6.682  70.657  1.00  0.00    -0.151 NA 
HETATM    6  C   UNL     1      -7.999   5.896  71.427  1.00  0.00    -0.113 C  
HETATM    7  C   UNL     1      -8.508   7.253  69.464  1.00  0.00    -0.133 C  
HETATM    8  C   UNL     1      -8.473   5.507  72.823  1.00  0.00    -0.120 C  
HETATM    9  C   UNL     1      -9.265   7.523  68.384  1.00  0.00    -0.139 C  
HETATM   10  C   UNL     1     -10.646   6.990  68.537  1.00  0.00    -0.202 C  
HETATM   11  O   UNL     1      -7.601   4.150  73.205  1.00  0.00    -0.076 OA 
HETATM   12  C   UNL     1      -9.702   2.461  74.306  1.00  0.00    -0.124 C  
HETATM   13  C   UNL     1      -8.145   3.138  74.241  1.00  0.00    -0.069 C  
HETATM   14  N   UNL     1     -10.127   5.336  72.997  1.00  0.00    -0.171 N  
HETATM   15  O   UNL     1     -11.286   6.484  67.620  1.00  0.00    -0.324 OA 
HETATM   16  C   UNL     1     -10.968   6.019  72.137  1.00  0.00    -0.267 C  
HETATM   17  C   UNL     1     -10.758   3.875  73.584  1.00  0.00    -0.310 C  
HETATM   18  C   UNL     1      -9.112   4.078  74.553  1.00  0.00    -0.111 C  
HETATM   19  C   UNL     1      -9.701   3.436  72.794  1.00  0.00    -0.189 C  
HETATM   20  O   UNL     1     -12.193   5.977  72.280  1.00  0.00    -0.281 OA 
ENDROOT
BRANCH   9  21
HETATM   21  C   UNL     1      -8.575   8.141  67.198  1.00  0.00    -0.124 C  
HETATM   22  H   UNL     1      -7.344   9.646  66.508  1.00  0.00     0.000 HD 
HETATM   23  O   UNL     1      -8.453   7.501  66.151  1.00  0.00    -0.129 OA 
HETATM   24  N   UNL     1      -8.013   9.391  67.235  1.00  0.00    -0.106 N  
BRANCH  24  25
HETATM   25  C   UNL     1      -8.322  10.354  68.246  1.00  0.00    -0.119 C  
BRANCH  25  26
HETATM   26  C   UNL     1      -7.585  11.643  68.296  1.00  0.00    -0.120 A  
HETATM   27  C   UNL     1      -7.486  13.974  67.616  1.00  0.00    -0.186 A  
HETATM   28  C   UNL     1      -6.616  14.224  68.668  1.00  0.00    -0.090 A  
HETATM   29  C   UNL     1      -7.960  12.683  67.438  1.00  0.00    -0.177 A  
HETATM   30  F   UNL     1      -8.862  12.463  66.470  1.00  0.00    -0.205 F  
HETATM   31  F   UNL     1      -6.176  15.472  68.868  1.00  0.00    -0.098 F  
HETATM   32  C   UNL     1      -6.218  13.213  69.535  1.00  0.00    -0.116 A  
HETATM   33  C   UNL     1      -6.710  11.928  69.343  1.00  0.00    -0.081 A  
HETATM   34  F   UNL     1      -6.401  10.976  70.233  1.00  0.00    -0.119 F  
ENDBRANCH  25  26
ENDBRANCH  24  25
ENDBRANCH   9  21
TORSDOF 3
ENDMDL
MODEL      192
REMARK 921   NORMALIZED FREE ENERGY PREDICTED BY IDOCK:   -4.30 KCAL/MOL
REMARK 922        TOTAL FREE ENERGY PREDICTED BY IDOCK:   -5.79 KCAL/MOL
REMARK 923 INTER-LIGAND FREE ENERGY PREDICTED BY IDOCK:   -5.30 KCAL/MOL
REMARK 924 INTRA-LIGAND FREE ENERGY PREDICTED BY IDOCK:   -0.50 KCAL/MOL
REMARK 927      BINDING AFFINITY PREDICTED BY RF-SCORE:    0.00 PKD
ROOT
HETATM    1  O   UNL     1     -10.571  11.385  69.851  1.00  0.00    -0.415 OA 
HETATM    2  H   UNL     1     -10.732  11.786  70.697  1.00  0.00     0.000 HD 
HETATM    3  C   UNL     1     -10.685  10.048  69.518  1.00  0.00    -0.244 C  
HETATM    4  C   UNL     1     -10.455   9.477  68.313  1.00  0.00    -0.223 C  
HETATM    5  N   UNL     1     -10.583   8.086  68.124  1.00  0.00    -0.162 NA 
HETATM    6  C   UNL     1      -9.854   7.367  67.080  1.00  0.00    -0.209 C  
HETATM    7  C   UNL     1     -11.140   7.319  69.152  1.00  0.00     0.008 C  
HETATM    8  C   UNL     1      -9.483   8.218  65.869  1.00  0.00    -0.125 C  
HETATM    9  C   UNL     1     -11.355   7.734  70.414  1.00  0.00    -0.219 C  
HETATM   10  C   UNL     1     -10.776   9.085  70.650  1.00  0.00    -0.239 C  
HETATM   11  O   UNL     1      -8.168   7.457  65.203  1.00  0.00    -0.131 OA 
HETATM   12  C   UNL     1      -6.432   9.741  64.703  1.00  0.00    -0.111 C  
HETATM   13  C   UNL     1      -7.164   8.252  64.335  1.00  0.00    -0.088 C  
HETATM   14  N   UNL     1      -9.255   9.845  66.178  1.00  0.00    -0.160 N  
HETATM   15  O   UNL     1     -10.223   9.415  71.696  1.00  0.00    -0.283 OA 
HETATM   16  C   UNL     1      -9.885  10.417  67.269  1.00  0.00    -0.178 C  
HETATM   17  C   UNL     1      -7.787  10.578  65.749  1.00  0.00    -0.154 C  
HETATM   18  C   UNL     1      -8.075   9.294  64.351  1.00  0.00    -0.142 C  
HETATM   19  C   UNL     1      -7.367   9.326  66.182  1.00  0.00    -0.095 C  
HETATM   20  O   UNL     1      -9.802  11.628  67.487  1.00  0.00    -0.185 OA 
ENDROOT
BRANCH   9  21
HETATM   21  C   UNL     1     -11.967   6.746  71.369  1.00  0.00    -0.355 C  
HETATM   22  H   UNL     1     -11.641   5.352  72.855  1.00  0.00     0.000 HD 
HETATM   23  O   UNL     1     -13.175   6.788  71.612  1.00  0.00    -0.314 OA 
HETATM   24  N   UNL     1     -11.227   5.808  72.043  1.00  0.00    -0.265 N  
BRANCH  24  25
HETATM   25  C   UNL     1      -9.899   5.441  71.657  1.00  0.00    -0.172 C  
BRANCH  25  26
HETATM   26  C   UNL     1      -9.064   4.612  72.564  1.00  0.00    -0.139 A  
HETATM   27  C   UNL     1      -8.480   2.388  73.350  1.00  0.00    -0.067 A  
HETATM   28  C   UNL     1      -7.275   2.890  73.820  1.00  0.00    -0.045 A  
HETATM   29  C   UNL     1      -9.365   3.256  72.728  1.00  0.00    -0.097 A  
HETATM   30  F   UNL     1     -10.493   2.750  72.205  1.00  0.00    -0.231 F  
HETATM   31  F   UNL     1      -6.400   2.057  74.393  1.00  0.00    -0.009 F  
HETATM   32  C   UNL     1      -6.946   4.233  73.678  1.00  0.00    -0.061 A  
HETATM   33  C   UNL     1      -7.845   5.085  73.046  1.00  0.00    -0.097 A  
HETATM   34  F   UNL     1      -7.487   6.357  72.827  1.00  0.00    -0.090 F  
ENDBRANCH  25  26
ENDBRANCH  24  25
ENDBRANCH   9  21
TORSDOF 3
ENDMDL
MODEL      193
REMARK 921   NORMALIZED FREE ENERGY PREDICTED BY IDOCK:   -4.24 KCAL/MOL
REMARK 922        TOTAL FREE ENERGY PREDICTED BY IDOCK:   -5.73 KCAL/MOL
REMARK 923 INTER-LIGAND FREE ENERGY PREDICTED BY IDOCK:   -4.78 KCAL/MOL
REMARK 924 INTRA-LIGAND FREE ENERGY PREDICTED BY IDOCK:   -0.95 KCAL/MOL
REMARK 927      BINDING AFFINITY PREDICTED BY RF-SCORE:    0.00 PKD
ROOT
HETATM    1  O   UNL     1      -9.664   7.987  72.197  1.00  0.00    -0.184 OA 
HETATM    2  H   UNL     1      -9.229   7.535  72.911  1.00  0.00     0.000 HD 
HETATM    3  C   UNL     1      -9.253   8.068  70.879  1.00  0.00    -0.149 C  
HETATM    4  C   UNL     1      -9.872   8.712  69.862  1.00  0.00    -0.183 C  
HETATM    5  N   UNL     1      -9.320   8.737  68.566  1.00  0.00    -0.141 NA 
HETATM    6  C   UNL     1      -9.609   9.808  67.612  1.00  0.00    -0.145 C  
HETATM    7  C   UNL     1      -8.214   7.925  68.293  1.00  0.00    -0.124 C  
HETATM    8  C   UNL     1     -10.952  10.499  67.826  1.00  0.00    -0.372 C  
HETATM    9  C   UNL     1      -7.462   7.288  69.209  1.00  0.00    -0.096 C  
HETATM   10  C   UNL     1      -7.845   7.676  70.594  1.00  0.00    -0.097 C  
HETATM   11  O   UNL     1     -10.768  12.002  67.151  1.00  0.00    -0.225 OA 
HETATM   12  C   UNL     1     -11.962  13.663  69.224  1.00  0.00    -0.384 C  
HETATM   13  C   UNL     1     -11.649  13.182  67.624  1.00  0.00    -0.349 C  
HETATM   14  N   UNL     1     -11.509  10.513  69.402  1.00  0.00    -0.260 N  
HETATM   15  O   UNL     1      -7.036   7.838  71.504  1.00  0.00    -0.059 OA 
HETATM   16  C   UNL     1     -11.080   9.530  70.276  1.00  0.00    -0.271 C  
HETATM   17  C   UNL     1     -11.887  11.993  70.140  1.00  0.00    -0.383 C  
HETATM   18  C   UNL     1     -12.411  12.253  68.311  1.00  0.00     0.445 C  
HETATM   19  C   UNL     1     -10.769  12.326  69.384  1.00  0.00     0.085 C  
HETATM   20  O   UNL     1     -11.525   9.464  71.425  1.00  0.00    -0.323 OA 
ENDROOT
BRANCH   9  21
HETATM   21  C   UNL     1      -6.312   6.461  68.701  1.00  0.00    -0.038 C  
HETATM   22  H   UNL     1      -5.722   4.776  67.667  1.00  0.00     0.000 HD 
HETATM   23  O   UNL     1      -5.179   6.944  68.649  1.00  0.00    -0.015 OA 
HETATM   24  N   UNL     1      -6.469   5.182  68.232  1.00  0.00    -0.039 N  
BRANCH  24  25
HETATM   25  C   UNL     1      -7.631   4.392  68.497  1.00  0.00    -0.064 C  
BRANCH  25  26
HETATM   26  C   UNL     1      -8.581   4.076  67.400  1.00  0.00    -0.107 A  
HETATM   27  C   UNL     1     -10.574   4.718  66.166  1.00  0.00    -0.282 A  
HETATM   28  C   UNL     1     -10.161   3.912  65.115  1.00  0.00    -0.141 A  
HETATM   29  C   UNL     1      -9.780   4.790  67.301  1.00  0.00    -0.182 A  
HETATM   30  F   UNL     1     -10.143   5.631  68.281  1.00  0.00    -0.150 F  
HETATM   31  F   UNL     1     -10.902   3.859  64.003  1.00  0.00    -0.265 F  
HETATM   32  C   UNL     1      -8.978   3.185  65.182  1.00  0.00    -0.142 A  
HETATM   33  C   UNL     1      -8.194   3.276  66.326  1.00  0.00    -0.097 A  
HETATM   34  F   UNL     1      -7.010   2.651  66.351  1.00  0.00    -0.044 F  
ENDBRANCH  25  26
ENDBRANCH  24  25
ENDBRANCH   9  21
TORSDOF 3
ENDMDL
MODEL      194
REMARK 921   NORMALIZED FREE ENERGY PREDICTED BY IDOCK:   -4.24 KCAL/MOL
REMARK 922        TOTAL FREE ENERGY PREDICTED BY IDOCK:   -5.72 KCAL/MOL
REMARK 923 INTER-LIGAND FREE ENERGY PREDICTED BY IDOCK:   -4.85 KCAL/MOL
REMARK 924 INTRA-LIGAND FREE ENERGY PREDICTED BY IDOCK:   -0.88 KCAL/MOL
REMARK 927      BINDING AFFINITY PREDICTED BY RF-SCORE:    0.00 PKD
ROOT
HETATM    1  O   UNL     1     -11.372   6.254  67.560  1.00  0.00    -0.600 OA 
HETATM    2  H   UNL     1     -12.162   6.692  67.855  1.00  0.00     0.000 HD 
HETATM    3  C   UNL     1     -10.063   6.594  67.849  1.00  0.00    -0.150 C  
HETATM    4  C   UNL     1      -8.939   5.969  67.429  1.00  0.00    -0.108 C  
HETATM    5  N   UNL     1      -7.660   6.447  67.779  1.00  0.00    -0.100 NA 
HETATM    6  C   UNL     1      -6.476   6.188  66.960  1.00  0.00    -0.053 C  
HETATM    7  C   UNL     1      -7.564   7.468  68.730  1.00  0.00    -0.106 C  
HETATM    8  C   UNL     1      -6.554   4.917  66.120  1.00  0.00    -0.049 C  
HETATM    9  C   UNL     1      -8.585   8.219  69.181  1.00  0.00    -0.138 C  
HETATM   10  C   UNL     1      -9.839   7.948  68.426  1.00  0.00    -0.173 C  
HETATM   11  O   UNL     1      -5.512   5.179  64.857  1.00  0.00    -0.013 OA 
HETATM   12  C   UNL     1      -7.134   4.239  62.629  1.00  0.00    -0.039 C  
HETATM   13  C   UNL     1      -5.700   4.421  63.522  1.00  0.00    -0.017 C  
HETATM   14  N   UNL     1      -8.094   4.455  65.660  1.00  0.00    -0.104 N  
HETATM   15  O   UNL     1     -10.647   8.818  68.114  1.00  0.00    -0.212 OA 
HETATM   16  C   UNL     1      -9.174   4.855  66.427  1.00  0.00    -0.138 C  
HETATM   17  C   UNL     1      -8.443   4.236  64.015  1.00  0.00    -0.111 C  
HETATM   18  C   UNL     1      -6.627   3.630  64.177  1.00  0.00    -0.042 C  
HETATM   19  C   UNL     1      -7.587   5.331  63.985  1.00  0.00    -0.071 C  
HETATM   20  O   UNL     1     -10.316   4.473  66.163  1.00  0.00    -0.266 OA 
ENDROOT
BRANCH   9  21
HETATM   21  C   UNL     1      -8.264   9.270  70.209  1.00  0.00    -0.172 C  
HETATM   22  H   UNL     1      -7.833  11.255  70.572  1.00  0.00     0.000 HD 
HETATM   23  O   UNL     1      -8.478   9.053  71.404  1.00  0.00    -0.267 OA 
HETATM   24  N   UNL     1      -7.782  10.511  69.877  1.00  0.00    -0.089 N  
BRANCH  24  25
HETATM   25  C   UNL     1      -7.211  10.807  68.599  1.00  0.00    -0.089 C  
BRANCH  25  26
HETATM   26  C   UNL     1      -8.070  11.325  67.503  1.00  0.00    -0.124 A  
HETATM   27  C   UNL     1      -9.399  10.825  65.531  1.00  0.00    -0.242 A  
HETATM   28  C   UNL     1     -10.063  12.032  65.695  1.00  0.00    -0.243 A  
HETATM   29  C   UNL     1      -8.405  10.484  66.437  1.00  0.00    -0.145 A  
HETATM   30  F   UNL     1      -7.821   9.282  66.320  1.00  0.00    -0.099 F  
HETATM   31  F   UNL     1     -11.045  12.357  64.847  1.00  0.00    -0.308 F  
HETATM   32  C   UNL     1      -9.752  12.893  66.741  1.00  0.00    -0.246 A  
HETATM   33  C   UNL     1      -8.757  12.530  67.641  1.00  0.00    -0.177 A  
HETATM   34  F   UNL     1      -8.523  13.315  68.700  1.00  0.00    -0.156 F  
ENDBRANCH  25  26
ENDBRANCH  24  25
ENDBRANCH   9  21
TORSDOF 3
ENDMDL
MODEL      195
REMARK 921   NORMALIZED FREE ENERGY PREDICTED BY IDOCK:   -4.17 KCAL/MOL
REMARK 922        TOTAL FREE ENERGY PREDICTED BY IDOCK:   -5.64 KCAL/MOL
REMARK 923 INTER-LIGAND FREE ENERGY PREDICTED BY IDOCK:   -5.19 KCAL/MOL
REMARK 924 INTRA-LIGAND FREE ENERGY PREDICTED BY IDOCK:   -0.45 KCAL/MOL
REMARK 927      BINDING AFFINITY PREDICTED BY RF-SCORE:    0.00 PKD
ROOT
HETATM    1  O   UNL     1     -11.450  10.591  69.128  1.00  0.00    -0.274 OA 
HETATM    2  H   UNL     1     -11.895  11.163  68.514  1.00  0.00     0.000 HD 
HETATM    3  C   UNL     1     -10.345   9.795  68.887  1.00  0.00    -0.210 C  
HETATM    4  C   UNL     1      -9.712   8.979  69.763  1.00  0.00    -0.175 C  
HETATM    5  N   UNL     1      -8.608   8.197  69.369  1.00  0.00    -0.134 NA 
HETATM    6  C   UNL     1      -8.248   6.952  70.048  1.00  0.00    -0.134 C  
HETATM    7  C   UNL     1      -8.048   8.416  68.106  1.00  0.00    -0.120 C  
HETATM    8  C   UNL     1      -8.686   6.880  71.507  1.00  0.00    -0.122 C  
HETATM    9  C   UNL     1      -8.602   9.140  67.116  1.00  0.00    -0.122 C  
HETATM   10  C   UNL     1      -9.986   9.567  67.461  1.00  0.00    -0.186 C  
HETATM   11  O   UNL     1      -8.798   5.259  71.837  1.00  0.00    -0.133 OA 
HETATM   12  C   UNL     1     -11.338   5.180  73.258  1.00  0.00    -0.361 C  
HETATM   13  C   UNL     1      -9.717   4.755  72.974  1.00  0.00    -0.140 C  
HETATM   14  N   UNL     1     -10.056   7.758  71.890  1.00  0.00    -0.177 N  
HETATM   15  O   UNL     1     -10.908   9.602  66.651  1.00  0.00    -0.088 OA 
HETATM   16  C   UNL     1     -10.395   8.850  71.111  1.00  0.00    -0.268 C  
HETATM   17  C   UNL     1     -11.376   6.973  72.611  1.00  0.00    -0.290 C  
HETATM   18  C   UNL     1      -9.852   6.077  73.361  1.00  0.00    -0.166 C  
HETATM   19  C   UNL     1     -10.922   6.010  71.717  1.00  0.00    -0.323 C  
HETATM   20  O   UNL     1     -11.355   9.566  71.404  1.00  0.00    -0.350 OA 
ENDROOT
BRANCH   9  21
HETATM   21  C   UNL     1      -7.830   9.251  65.829  1.00  0.00    -0.098 C  
HETATM   22  H   UNL     1      -7.045   8.262  64.198  1.00  0.00     0.000 HD 
HETATM   23  O   UNL     1      -7.675  10.350  65.294  1.00  0.00    -0.145 OA 
HETATM   24  N   UNL     1      -7.320   8.159  65.174  1.00  0.00    -0.075 N  
BRANCH  24  25
HETATM   25  C   UNL     1      -7.156   6.883  65.799  1.00  0.00    -0.072 C  
BRANCH  25  26
HETATM   26  C   UNL     1      -7.889   5.700  65.276  1.00  0.00    -0.100 A  
HETATM   27  C   UNL     1      -7.766   3.430  64.418  1.00  0.00    -0.077 A  
HETATM   28  C   UNL     1      -9.104   3.256  64.742  1.00  0.00    -0.138 A  
HETATM   29  C   UNL     1      -7.171   4.653  64.687  1.00  0.00    -0.063 A  
HETATM   30  F   UNL     1      -5.859   4.791  64.445  1.00  0.00    -0.016 F  
HETATM   31  F   UNL     1      -9.681   2.069  64.518  1.00  0.00    -0.138 F  
HETATM   32  C   UNL     1      -9.848   4.276  65.323  1.00  0.00    -0.214 A  
HETATM   33  C   UNL     1      -9.231   5.493  65.589  1.00  0.00    -0.087 A  
HETATM   34  F   UNL     1      -9.920   6.442  66.234  1.00  0.00    -0.198 F  
ENDBRANCH  25  26
ENDBRANCH  24  25
ENDBRANCH   9  21
TORSDOF 3
ENDMDL
MODEL      196
REMARK 921   NORMALIZED FREE ENERGY PREDICTED BY IDOCK:   -4.09 KCAL/MOL
REMARK 922        TOTAL FREE ENERGY PREDICTED BY IDOCK:   -5.56 KCAL/MOL
REMARK 923 INTER-LIGAND FREE ENERGY PREDICTED BY IDOCK:   -4.42 KCAL/MOL
REMARK 924 INTRA-LIGAND FREE ENERGY PREDICTED BY IDOCK:   -1.14 KCAL/MOL
REMARK 927      BINDING AFFINITY PREDICTED BY RF-SCORE:    0.00 PKD
ROOT
HETATM    1  O   UNL     1     -11.688   9.294  70.980  1.00  0.00    -0.280 OA 
HETATM    2  H   UNL     1     -12.106   8.827  71.695  1.00  0.00     0.000 HD 
HETATM    3  C   UNL     1     -10.334   9.371  70.704  1.00  0.00    -0.284 C  
HETATM    4  C   UNL     1      -9.739  10.035  69.687  1.00  0.00    -0.229 C  
HETATM    5  N   UNL     1      -8.337  10.053  69.544  1.00  0.00    -0.159 NA 
HETATM    6  C   UNL     1      -7.634  11.136  68.857  1.00  0.00    -0.133 C  
HETATM    7  C   UNL     1      -7.570   9.213  70.358  1.00  0.00    -0.115 C  
HETATM    8  C   UNL     1      -8.465  11.860  67.803  1.00  0.00    -0.154 C  
HETATM    9  C   UNL     1      -8.014   8.552  71.443  1.00  0.00    -0.168 C  
HETATM   10  C   UNL     1      -9.408   8.942  71.788  1.00  0.00    -0.234 C  
HETATM   11  O   UNL     1      -7.773  13.362  67.675  1.00  0.00    -0.148 OA 
HETATM   12  C   UNL     1     -10.150  15.043  67.677  1.00  0.00    -0.231 C  
HETATM   13  C   UNL     1      -8.603  14.562  67.164  1.00  0.00    -0.222 C  
HETATM   14  N   UNL     1     -10.114  11.882  68.079  1.00  0.00    -0.189 N  
HETATM   15  O   UNL     1      -9.811   9.078  72.940  1.00  0.00     0.237 OA 
HETATM   16  C   UNL     1     -10.679  10.884  68.852  1.00  0.00    -0.215 C  
HETATM   17  C   UNL     1     -10.930  13.367  68.143  1.00  0.00    -0.277 C  
HETATM   18  C   UNL     1      -9.581  13.650  66.806  1.00  0.00    -0.277 C  
HETATM   19  C   UNL     1      -9.724  13.675  68.764  1.00  0.00    -0.040 C  
HETATM   20  O   UNL     1     -11.900  10.823  69.017  1.00  0.00    -0.304 OA 
ENDROOT
BRANCH   9  21
HETATM   21  C   UNL     1      -7.020   7.698  72.182  1.00  0.00    -0.065 C  
HETATM   22  H   UNL     1      -5.955   5.931  72.221  1.00  0.00     0.000 HD 
HETATM   23  O   UNL     1      -6.321   8.190  73.070  1.00  0.00    -0.071 OA 
HETATM   24  N   UNL     1      -6.804   6.378  71.877  1.00  0.00    -0.067 N  
BRANCH  24  25
HETATM   25  C   UNL     1      -7.719   5.600  71.100  1.00  0.00    -0.104 C  
BRANCH  25  26
HETATM   26  C   UNL     1      -7.575   5.543  69.622  1.00  0.00    -0.071 A  
HETATM   27  C   UNL     1      -6.482   4.520  67.707  1.00  0.00    -0.045 A  
HETATM   28  C   UNL     1      -7.523   4.959  66.902  1.00  0.00    -0.087 A  
HETATM   29  C   UNL     1      -6.517   4.819  69.061  1.00  0.00    -0.036 A  
HETATM   30  F   UNL     1      -5.550   4.325  69.849  1.00  0.00    -0.010 F  
HETATM   31  F   UNL     1      -7.516   4.650  65.600  1.00  0.00    -0.075 F  
HETATM   32  C   UNL     1      -8.586   5.685  67.425  1.00  0.00    -0.109 A  
HETATM   33  C   UNL     1      -8.606   5.969  68.785  1.00  0.00    -0.112 A  
HETATM   34  F   UNL     1      -9.675   6.585  69.304  1.00  0.00    -0.143 F  
ENDBRANCH  25  26
ENDBRANCH  24  25
ENDBRANCH   9  21
TORSDOF 3
ENDMDL
MODEL      197
REMARK 921   NORMALIZED FREE ENERGY PREDICTED BY IDOCK:   -3.97 KCAL/MOL
REMARK 922        TOTAL FREE ENERGY PREDICTED BY IDOCK:   -5.41 KCAL/MOL
REMARK 923 INTER-LIGAND FREE ENERGY PREDICTED BY IDOCK:   -5.35 KCAL/MOL
REMARK 924 INTRA-LIGAND FREE ENERGY PREDICTED BY IDOCK:   -0.06 KCAL/MOL
REMARK 927      BINDING AFFINITY PREDICTED BY RF-SCORE:    0.00 PKD
ROOT
HETATM    1  O   UNL     1      -8.313   4.496  64.632  1.00  0.00    -0.107 OA 
HETATM    2  H   UNL     1      -7.866   4.410  63.797  1.00  0.00     0.000 HD 
HETATM    3  C   UNL     1      -8.685   5.666  65.270  1.00  0.00    -0.118 C  
HETATM    4  C   UNL     1      -9.321   5.789  66.458  1.00  0.00    -0.152 C  
HETATM    5  N   UNL     1      -9.613   7.053  67.006  1.00  0.00    -0.149 NA 
HETATM    6  C   UNL     1      -9.774   7.265  68.445  1.00  0.00    -0.148 C  
HETATM    7  C   UNL     1      -9.408   8.189  66.216  1.00  0.00    -0.196 C  
HETATM    8  C   UNL     1     -10.235   6.033  69.216  1.00  0.00    -0.263 C  
HETATM    9  C   UNL     1      -8.730   8.226  65.054  1.00  0.00    -0.048 C  
HETATM   10  C   UNL     1      -8.068   6.924  64.767  1.00  0.00    -0.095 C  
HETATM   11  O   UNL     1      -9.708   6.283  70.769  1.00  0.00    -0.177 OA 
HETATM   12  C   UNL     1      -8.599   3.661  71.381  1.00  0.00    -0.107 C  
HETATM   13  C   UNL     1      -9.469   5.082  71.714  1.00  0.00    -0.150 C  
HETATM   14  N   UNL     1      -9.778   4.564  68.561  1.00  0.00    -0.151 N  
HETATM   15  O   UNL     1      -6.953   6.825  64.263  1.00  0.00    -0.047 OA 
HETATM   16  C   UNL     1      -9.518   4.484  67.205  1.00  0.00    -0.162 C  
HETATM   17  C   UNL     1      -8.905   3.463  69.510  1.00  0.00    -0.150 C  
HETATM   18  C   UNL     1     -10.097   4.294  70.765  1.00  0.00    -0.154 C  
HETATM   19  C   UNL     1      -8.369   4.680  69.916  1.00  0.00    -0.074 C  
HETATM   20  O   UNL     1      -9.252   3.404  66.672  1.00  0.00    -0.155 OA 
ENDROOT
BRANCH   9  21
HETATM   21  C   UNL     1      -8.625   9.557  64.361  1.00  0.00    -0.195 C  
HETATM   22  H   UNL     1      -8.053  11.535  64.497  1.00  0.00     0.000 HD 
HETATM   23  O   UNL     1      -8.722   9.624  63.133  1.00  0.00    -0.199 OA 
HETATM   24  N   UNL     1      -8.370  10.726  65.031  1.00  0.00    -0.105 N  
BRANCH  24  25
HETATM   25  C   UNL     1      -8.528  10.861  66.447  1.00  0.00    -0.163 C  
BRANCH  25  26
HETATM   26  C   UNL     1      -9.306  11.999  67.002  1.00  0.00    -0.191 A  
HETATM   27  C   UNL     1     -11.277  12.732  68.220  1.00  0.00    -0.308 A  
HETATM   28  C   UNL     1     -10.631  13.925  68.509  1.00  0.00    -0.252 A  
HETATM   29  C   UNL     1     -10.607  11.779  67.466  1.00  0.00    -0.214 A  
HETATM   30  F   UNL     1     -11.205  10.597  67.257  1.00  0.00    -0.342 F  
HETATM   31  F   UNL     1     -11.254  14.838  69.262  1.00  0.00    -0.237 F  
HETATM   32  C   UNL     1      -9.340  14.178  68.060  1.00  0.00    -0.203 A  
HETATM   33  C   UNL     1      -8.685  13.208  67.311  1.00  0.00    -0.210 A  
HETATM   34  F   UNL     1      -7.409  13.413  66.959  1.00  0.00    -0.126 F  
ENDBRANCH  25  26
ENDBRANCH  24  25
ENDBRANCH   9  21
TORSDOF 3
ENDMDL
MODEL      198
REMARK 921   NORMALIZED FREE ENERGY PREDICTED BY IDOCK:   -3.88 KCAL/MOL
REMARK 922        TOTAL FREE ENERGY PREDICTED BY IDOCK:   -5.30 KCAL/MOL
REMARK 923 INTER-LIGAND FREE ENERGY PREDICTED BY IDOCK:   -5.20 KCAL/MOL
REMARK 924 INTRA-LIGAND FREE ENERGY PREDICTED BY IDOCK:   -0.10 KCAL/MOL
REMARK 927      BINDING AFFINITY PREDICTED BY RF-SCORE:    0.00 PKD
ROOT
HETATM    1  O   UNL     1     -11.241  12.063  68.480  1.00  0.00    -0.216 OA 
HETATM    2  H   UNL     1     -11.390  12.652  67.749  1.00  0.00     0.000 HD 
HETATM    3  C   UNL     1     -10.146  11.244  68.691  1.00  0.00    -0.208 C  
HETATM    4  C   UNL     1      -9.934  10.405  69.732  1.00  0.00    -0.124 C  
HETATM    5  N   UNL     1      -8.778   9.602  69.802  1.00  0.00    -0.191 NA 
HETATM    6  C   UNL     1      -8.744   8.343  70.546  1.00  0.00    -0.147 C  
HETATM    7  C   UNL     1      -7.752   9.822  68.877  1.00  0.00    -0.082 C  
HETATM    8  C   UNL     1      -9.735   8.265  71.702  1.00  0.00    -0.261 C  
HETATM    9  C   UNL     1      -7.847  10.569  67.762  1.00  0.00    -0.104 C  
HETATM   10  C   UNL     1      -9.245  11.023  67.526  1.00  0.00    -0.145 C  
HETATM   11  O   UNL     1      -9.997   6.643  71.928  1.00  0.00    -0.178 OA 
HETATM   12  C   UNL     1     -12.896   6.608  72.201  1.00  0.00    -0.078 C  
HETATM   13  C   UNL     1     -11.306   6.149  72.587  1.00  0.00    -0.259 C  
HETATM   14  N   UNL     1     -11.128   9.170  71.516  1.00  0.00    -0.341 N  
HETATM   15  O   UNL     1      -9.761  11.088  66.414  1.00  0.00    -0.191 OA 
HETATM   16  C   UNL     1     -11.105  10.277  70.687  1.00  0.00    -0.280 C  
HETATM   17  C   UNL     1     -12.639   8.408  71.628  1.00  0.00    -0.362 C  
HETATM   18  C   UNL     1     -11.564   7.470  72.912  1.00  0.00    -0.240 C  
HETATM   19  C   UNL     1     -11.879   7.444  70.975  1.00  0.00    -0.336 C  
HETATM   20  O   UNL     1     -12.090  11.012  70.581  1.00  0.00    -0.322 OA 
ENDROOT
BRANCH   9  21
HETATM   21  C   UNL     1      -6.620  10.675  66.898  1.00  0.00    -0.086 C  
HETATM   22  H   UNL     1      -5.257   9.686  65.706  1.00  0.00     0.000 HD 
HETATM   23  O   UNL     1      -6.245  11.776  66.490  1.00  0.00    -0.094 OA 
HETATM   24  N   UNL     1      -5.905   9.579  66.487  1.00  0.00    -0.054 N  
BRANCH  24  25
HETATM   25  C   UNL     1      -6.027   8.294  67.102  1.00  0.00    -0.053 C  
BRANCH  25  26
HETATM   26  C   UNL     1      -6.728   7.193  66.392  1.00  0.00    -0.053 A  
HETATM   27  C   UNL     1      -8.520   5.552  66.418  1.00  0.00    -0.119 A  
HETATM   28  C   UNL     1      -8.442   5.472  65.036  1.00  0.00    -0.147 A  
HETATM   29  C   UNL     1      -7.659   6.412  67.084  1.00  0.00    -0.096 A  
HETATM   30  F   UNL     1      -7.792   6.545  68.413  1.00  0.00    -0.098 F  
HETATM   31  F   UNL     1      -9.288   4.670  64.379  1.00  0.00    -0.157 F  
HETATM   32  C   UNL     1      -7.525   6.230  64.317  1.00  0.00    -0.086 A  
HETATM   33  C   UNL     1      -6.676   7.090  65.003  1.00  0.00    -0.047 A  
HETATM   34  F   UNL     1      -5.859   7.889  64.304  1.00  0.00    -0.048 F  
ENDBRANCH  25  26
ENDBRANCH  24  25
ENDBRANCH   9  21
TORSDOF 3
ENDMDL
MODEL      199
REMARK 921   NORMALIZED FREE ENERGY PREDICTED BY IDOCK:   -3.66 KCAL/MOL
REMARK 922        TOTAL FREE ENERGY PREDICTED BY IDOCK:   -5.04 KCAL/MOL
REMARK 923 INTER-LIGAND FREE ENERGY PREDICTED BY IDOCK:   -4.72 KCAL/MOL
REMARK 924 INTRA-LIGAND FREE ENERGY PREDICTED BY IDOCK:   -0.32 KCAL/MOL
REMARK 927      BINDING AFFINITY PREDICTED BY RF-SCORE:    0.00 PKD
ROOT
HETATM    1  O   UNL     1      -9.094   8.936  72.901  1.00  0.00    -0.235 OA 
HETATM    2  H   UNL     1      -9.200   9.865  73.075  1.00  0.00     0.000 HD 
HETATM    3  C   UNL     1      -9.402   8.260  71.734  1.00  0.00    -0.202 C  
HETATM    4  C   UNL     1      -9.251   6.938  71.486  1.00  0.00    -0.151 C  
HETATM    5  N   UNL     1      -9.638   6.375  70.253  1.00  0.00    -0.164 NA 
HETATM    6  C   UNL     1     -10.014   4.967  70.118  1.00  0.00    -0.258 C  
HETATM    7  C   UNL     1     -10.005   7.232  69.211  1.00  0.00    -0.170 C  
HETATM    8  C   UNL     1      -9.381   4.043  71.154  1.00  0.00    -0.216 C  
HETATM    9  C   UNL     1     -10.259   8.549  69.329  1.00  0.00    -0.211 C  
HETATM   10  C   UNL     1     -10.262   8.978  70.755  1.00  0.00    -0.244 C  
HETATM   11  O   UNL     1     -10.408   2.744  71.247  1.00  0.00     0.248 OA 
HETATM   12  C   UNL     1     -10.580   2.409  74.134  1.00  0.00    -0.225 C  
HETATM   13  C   UNL     1     -10.453   1.876  72.526  1.00  0.00    -0.148 C  
HETATM   14  N   UNL     1      -9.030   4.751  72.628  1.00  0.00    -0.123 N  
HETATM   15  O   UNL     1     -11.048   9.802  71.215  1.00  0.00    -0.355 OA 
HETATM   16  C   UNL     1      -8.815   6.117  72.684  1.00  0.00    -0.123 C  
HETATM   17  C   UNL     1      -9.669   4.081  74.049  1.00  0.00    -0.144 C  
HETATM   18  C   UNL     1      -9.319   2.549  72.945  1.00  0.00    -0.126 C  
HETATM   19  C   UNL     1     -10.719   3.911  73.153  1.00  0.00    -0.270 C  
HETATM   20  O   UNL     1      -8.481   6.664  73.737  1.00  0.00    -0.119 OA 
ENDROOT
BRANCH   9  21
HETATM   21  C   UNL     1     -10.640   9.291  68.077  1.00  0.00    -0.208 C  
HETATM   22  H   UNL     1     -10.406   9.465  66.035  1.00  0.00     0.000 HD 
HETATM   23  O   UNL     1     -11.631  10.024  68.070  1.00  0.00    -0.166 OA 
HETATM   24  N   UNL     1      -9.957   9.153  66.896  1.00  0.00    -0.216 N  
BRANCH  24  25
HETATM   25  C   UNL     1      -8.643   8.592  66.817  1.00  0.00    -0.120 C  
BRANCH  25  26
HETATM   26  C   UNL     1      -8.228   7.841  65.605  1.00  0.00    -0.135 A  
HETATM   27  C   UNL     1      -6.676   7.652  63.744  1.00  0.00    -0.057 A  
HETATM   28  C   UNL     1      -7.022   6.315  63.616  1.00  0.00    -0.043 A  
HETATM   29  C   UNL     1      -7.285   8.404  64.737  1.00  0.00    -0.082 A  
HETATM   30  F   UNL     1      -6.889   9.674  64.908  1.00  0.00    -0.089 F  
HETATM   31  F   UNL     1      -6.418   5.571  62.682  1.00  0.00    -0.023 F  
HETATM   32  C   UNL     1      -7.959   5.725  64.457  1.00  0.00    -0.126 A  
HETATM   33  C   UNL     1      -8.553   6.495  65.450  1.00  0.00    -0.068 A  
HETATM   34  F   UNL     1      -9.383   5.904  66.318  1.00  0.00    -0.150 F  
ENDBRANCH  25  26
ENDBRANCH  24  25
ENDBRANCH   9  21
TORSDOF 3
ENDMDL
MODEL      200
REMARK 921   NORMALIZED FREE ENERGY PREDICTED BY IDOCK:   -3.59 KCAL/MOL
REMARK 922        TOTAL FREE ENERGY PREDICTED BY IDOCK:   -4.97 KCAL/MOL
REMARK 923 INTER-LIGAND FREE ENERGY PREDICTED BY IDOCK:   -4.74 KCAL/MOL
REMARK 924 INTRA-LIGAND FREE ENERGY PREDICTED BY IDOCK:   -0.22 KCAL/MOL
REMARK 927      BINDING AFFINITY PREDICTED BY RF-SCORE:    0.00 PKD
ROOT
HETATM    1  O   UNL     1      -6.726   6.531  65.028  1.00  0.00    -0.041 OA 
HETATM    2  H   UNL     1      -6.452   5.625  64.936  1.00  0.00     0.000 HD 
HETATM    3  C   UNL     1      -7.090   7.185  66.191  1.00  0.00    -0.073 C  
HETATM    4  C   UNL     1      -7.481   8.475  66.321  1.00  0.00    -0.090 C  
HETATM    5  N   UNL     1      -7.855   9.004  67.572  1.00  0.00    -0.100 NA 
HETATM    6  C   UNL     1      -8.768  10.140  67.701  1.00  0.00    -0.121 C  
HETATM    7  C   UNL     1      -7.634   8.234  68.719  1.00  0.00    -0.101 C  
HETATM    8  C   UNL     1      -8.780  11.079  66.499  1.00  0.00    -0.169 C  
HETATM    9  C   UNL     1      -7.316   6.927  68.737  1.00  0.00    -0.094 C  
HETATM   10  C   UNL     1      -7.378   6.330  67.375  1.00  0.00    -0.084 C  
HETATM   11  O   UNL     1     -10.263  11.819  66.554  1.00  0.00    -0.202 OA 
HETATM   12  C   UNL     1     -11.053  11.629  63.757  1.00  0.00    -0.499 C  
HETATM   13  C   UNL     1     -10.894  12.397  65.265  1.00  0.00    -0.289 C  
HETATM   14  N   UNL     1      -8.417  10.369  65.029  1.00  0.00    -0.174 N  
HETATM   15  O   UNL     1      -7.801   5.200  67.146  1.00  0.00    -0.095 OA 
HETATM   16  C   UNL     1      -7.651   9.217  65.010  1.00  0.00    -0.107 C  
HETATM   17  C   UNL     1      -9.514  10.505  63.743  1.00  0.00    -0.342 C  
HETATM   18  C   UNL     1      -9.671  12.190  64.651  1.00  0.00    -0.059 C  
HETATM   19  C   UNL     1     -10.365  10.363  64.833  1.00  0.00    -0.238 C  
HETATM   20  O   UNL     1      -7.300   8.706  63.944  1.00  0.00    -0.094 OA 
ENDROOT
BRANCH   9  21
HETATM   21  C   UNL     1      -7.122   6.285  70.084  1.00  0.00    -0.074 C  
HETATM   22  H   UNL     1      -7.956   5.827  71.915  1.00  0.00     0.000 HD 
HETATM   23  O   UNL     1      -6.180   5.511  70.270  1.00  0.00    -0.024 OA 
HETATM   24  N   UNL     1      -7.988   6.478  71.130  1.00  0.00    -0.110 N  
BRANCH  24  25
HETATM   25  C   UNL     1      -8.933   7.551  71.170  1.00  0.00    -0.142 C  
BRANCH  25  26
HETATM   26  C   UNL     1     -10.348   7.281  71.532  1.00  0.00    -0.217 A  
HETATM   27  C   UNL     1     -12.133   7.548  73.161  1.00  0.00     0.614 A  
HETATM   28  C   UNL     1     -13.059   7.296  72.159  1.00  0.00    -0.018 A  
HETATM   29  C   UNL     1     -10.784   7.536  72.837  1.00  0.00    -0.358 A  
HETATM   30  F   UNL     1      -9.897   7.858  73.791  1.00  0.00    -0.346 F  
HETATM   31  F   UNL     1     -14.364   7.336  72.451  1.00  0.00    -0.272 F  
HETATM   32  C   UNL     1     -12.660   7.034  70.853  1.00  0.00    -0.273 A  
HETATM   33  C   UNL     1     -11.304   7.033  70.549  1.00  0.00    -0.312 A  
HETATM   34  F   UNL     1     -10.926   6.874  69.274  1.00  0.00    -0.238 F  
ENDBRANCH  25  26
ENDBRANCH  24  25
ENDBRANCH   9  21
TORSDOF 3
ENDMDL
MODEL      201
REMARK 921   NORMALIZED FREE ENERGY PREDICTED BY IDOCK:   -3.51 KCAL/MOL
REMARK 922        TOTAL FREE ENERGY PREDICTED BY IDOCK:   -4.87 KCAL/MOL
REMARK 923 INTER-LIGAND FREE ENERGY PREDICTED BY IDOCK:   -3.90 KCAL/MOL
REMARK 924 INTRA-LIGAND FREE ENERGY PREDICTED BY IDOCK:   -0.97 KCAL/MOL
REMARK 927      BINDING AFFINITY PREDICTED BY RF-SCORE:    0.00 PKD
ROOT
HETATM    1  O   UNL     1      -8.696   7.840  69.384  1.00  0.00    -0.134 OA 
HETATM    2  H   UNL     1      -8.648   7.868  70.333  1.00  0.00     0.000 HD 
HETATM    3  C   UNL     1      -8.305   6.805  68.552  1.00  0.00    -0.120 C  
HETATM    4  C   UNL     1      -8.372   6.766  67.201  1.00  0.00    -0.121 C  
HETATM    5  N   UNL     1      -7.906   5.651  66.477  1.00  0.00    -0.100 NA 
HETATM    6  C   UNL     1      -7.449   5.753  65.091  1.00  0.00    -0.078 C  
HETATM    7  C   UNL     1      -7.546   4.497  67.181  1.00  0.00    -0.086 C  
HETATM    8  C   UNL     1      -8.071   6.903  64.304  1.00  0.00    -0.040 C  
HETATM    9  C   UNL     1      -7.369   4.413  68.512  1.00  0.00    -0.060 C  
HETATM   10  C   UNL     1      -7.446   5.751  69.159  1.00  0.00    -0.084 C  
HETATM   11  O   UNL     1      -6.979   7.232  63.100  1.00  0.00    -0.055 OA 
HETATM   12  C   UNL     1      -6.904  10.140  63.233  1.00  0.00    -0.128 C  
HETATM   13  C   UNL     1      -6.937   8.633  62.447  1.00  0.00    -0.094 C  
HETATM   14  N   UNL     1      -8.519   8.233  65.212  1.00  0.00    -0.172 N  
HETATM   15  O   UNL     1      -6.726   6.099  70.091  1.00  0.00    -0.046 OA 
HETATM   16  C   UNL     1      -8.810   8.065  66.554  1.00  0.00    -0.151 C  
HETATM   17  C   UNL     1      -7.901   9.762  64.813  1.00  0.00    -0.134 C  
HETATM   18  C   UNL     1      -8.122   8.905  63.108  1.00  0.00    -0.173 C  
HETATM   19  C   UNL     1      -6.809   8.937  64.567  1.00  0.00    -0.081 C  
HETATM   20  O   UNL     1      -9.216   9.007  67.238  1.00  0.00    -0.132 OA 
ENDROOT
BRANCH   9  21
HETATM   21  C   UNL     1      -6.980   3.071  69.071  1.00  0.00    -0.044 C  
HETATM   22  H   UNL     1      -7.612   1.197  69.660  1.00  0.00     0.000 HD 
HETATM   23  O   UNL     1      -5.797   2.721  69.072  1.00  0.00    -0.022 OA 
HETATM   24  N   UNL     1      -7.898   2.169  69.543  1.00  0.00    -0.042 N  
BRANCH  24  25
HETATM   25  C   UNL     1      -9.241   2.530  69.881  1.00  0.00    -0.125 C  
BRANCH  25  26
HETATM   26  C   UNL     1      -9.507   3.357  71.086  1.00  0.00    -0.224 A  
HETATM   27  C   UNL     1     -10.747   5.200  72.074  1.00  0.00    -0.236 A  
HETATM   28  C   UNL     1     -10.480   4.680  73.332  1.00  0.00    -0.207 A  
HETATM   29  C   UNL     1     -10.254   4.534  70.961  1.00  0.00    -0.097 A  
HETATM   30  F   UNL     1     -10.581   4.995  69.745  1.00  0.00    -0.344 F  
HETATM   31  F   UNL     1     -10.976   5.296  74.411  1.00  0.00    -0.270 F  
HETATM   32  C   UNL     1      -9.737   3.516  73.493  1.00  0.00    -0.146 A  
HETATM   33  C   UNL     1      -9.258   2.861  72.365  1.00  0.00    -0.098 A  
HETATM   34  F   UNL     1      -8.623   1.691  72.515  1.00  0.00    -0.054 F  
ENDBRANCH  25  26
ENDBRANCH  24  25
ENDBRANCH   9  21
TORSDOF 3
ENDMDL
MODEL      202
REMARK 921   NORMALIZED FREE ENERGY PREDICTED BY IDOCK:   -3.35 KCAL/MOL
REMARK 922        TOTAL FREE ENERGY PREDICTED BY IDOCK:   -4.68 KCAL/MOL
REMARK 923 INTER-LIGAND FREE ENERGY PREDICTED BY IDOCK:   -4.55 KCAL/MOL
REMARK 924 INTRA-LIGAND FREE ENERGY PREDICTED BY IDOCK:   -0.13 KCAL/MOL
REMARK 927      BINDING AFFINITY PREDICTED BY RF-SCORE:    0.00 PKD
ROOT
HETATM    1  O   UNL     1      -6.968  10.125  68.437  1.00  0.00    -0.065 OA 
HETATM    2  H   UNL     1      -6.288   9.462  68.425  1.00  0.00     0.000 HD 
HETATM    3  C   UNL     1      -8.325   9.942  68.244  1.00  0.00    -0.110 C  
HETATM    4  C   UNL     1      -9.294  10.886  68.260  1.00  0.00    -0.168 C  
HETATM    5  N   UNL     1     -10.642  10.558  68.015  1.00  0.00    -0.197 NA 
HETATM    6  C   UNL     1     -11.601  11.529  67.488  1.00  0.00    -0.246 C  
HETATM    7  C   UNL     1     -11.001   9.209  67.943  1.00  0.00     0.031 C  
HETATM    8  C   UNL     1     -11.271  12.983  67.813  1.00  0.00    -0.313 C  
HETATM    9  C   UNL     1     -10.147   8.173  67.846  1.00  0.00    -0.246 C  
HETATM   10  C   UNL     1      -8.745   8.638  67.660  1.00  0.00    -0.136 C  
HETATM   11  O   UNL     1     -12.022  13.863  66.625  1.00  0.00    -0.396 OA 
HETATM   12  C   UNL     1      -9.901  15.733  65.930  1.00  0.00    -0.381 C  
HETATM   13  C   UNL     1     -11.504  15.273  66.254  1.00  0.00    -0.079 C  
HETATM   14  N   UNL     1      -9.645  13.325  68.001  1.00  0.00    -0.214 N  
HETATM   15  O   UNL     1      -7.936   8.081  66.922  1.00  0.00    -0.101 OA 
HETATM   16  C   UNL     1      -8.784  12.310  68.379  1.00  0.00    -0.139 C  
HETATM   17  C   UNL     1      -8.932  14.535  67.052  1.00  0.00    -0.258 C  
HETATM   18  C   UNL     1     -10.702  15.203  67.379  1.00  0.00    -0.286 C  
HETATM   19  C   UNL     1      -9.818  13.950  66.154  1.00  0.00    -0.316 C  
HETATM   20  O   UNL     1      -7.593  12.538  68.601  1.00  0.00    -0.119 OA 
ENDROOT
BRANCH   9  21
HETATM   21  C   UNL     1     -10.743   6.793  67.780  1.00  0.00    -0.268 C  
HETATM   22  H   UNL     1     -10.793   4.894  68.585  1.00  0.00     0.000 HD 
HETATM   23  O   UNL     1     -11.777   6.597  67.139  1.00  0.00     0.244 OA 
HETATM   24  N   UNL     1     -10.213   5.723  68.454  1.00  0.00    -0.174 N  
BRANCH  24  25
HETATM   25  C   UNL     1      -8.884   5.717  68.983  1.00  0.00    -0.106 C  
BRANCH  25  26
HETATM   26  C   UNL     1      -7.898   4.714  68.502  1.00  0.00    -0.080 A  
HETATM   27  C   UNL     1      -6.836   2.556  68.848  1.00  0.00    -0.036 A  
HETATM   28  C   UNL     1      -6.475   2.540  67.509  1.00  0.00    -0.035 A  
HETATM   29  C   UNL     1      -7.543   3.646  69.333  1.00  0.00    -0.052 A  
HETATM   30  F   UNL     1      -7.959   3.620  70.609  1.00  0.00    -0.051 F  
HETATM   31  F   UNL     1      -5.821   1.479  67.022  1.00  0.00    -0.016 F  
HETATM   32  C   UNL     1      -6.806   3.587  66.657  1.00  0.00    -0.054 A  
HETATM   33  C   UNL     1      -7.520   4.667  67.161  1.00  0.00    -0.085 A  
HETATM   34  F   UNL     1      -7.920   5.629  66.320  1.00  0.00    -0.097 F  
ENDBRANCH  25  26
ENDBRANCH  24  25
ENDBRANCH   9  21
TORSDOF 3
ENDMDL
MODEL      203
REMARK 921   NORMALIZED FREE ENERGY PREDICTED BY IDOCK:   -3.13 KCAL/MOL
REMARK 922        TOTAL FREE ENERGY PREDICTED BY IDOCK:   -4.42 KCAL/MOL
REMARK 923 INTER-LIGAND FREE ENERGY PREDICTED BY IDOCK:   -5.92 KCAL/MOL
REMARK 924 INTRA-LIGAND FREE ENERGY PREDICTED BY IDOCK:    1.50 KCAL/MOL
REMARK 927      BINDING AFFINITY PREDICTED BY RF-SCORE:    0.00 PKD
ROOT
HETATM    1  O   UNL     1     -10.990   9.604  67.253  1.00  0.00    -0.312 OA 
HETATM    2  H   UNL     1     -11.380   8.777  67.511  1.00  0.00     0.000 HD 
HETATM    3  C   UNL     1      -9.872  10.212  67.796  1.00  0.00    -0.163 C  
HETATM    4  C   UNL     1      -9.316  11.390  67.430  1.00  0.00    -0.167 C  
HETATM    5  N   UNL     1      -8.187  11.907  68.096  1.00  0.00    -0.151 NA 
HETATM    6  C   UNL     1      -7.889  13.339  68.137  1.00  0.00    -0.145 C  
HETATM    7  C   UNL     1      -7.525  11.094  69.021  1.00  0.00    -0.124 C  
HETATM    8  C   UNL     1      -8.445  14.133  66.960  1.00  0.00    -0.178 C  
HETATM    9  C   UNL     1      -7.993   9.938  69.528  1.00  0.00    -0.149 C  
HETATM   10  C   UNL     1      -9.399   9.687  69.107  1.00  0.00    -0.172 C  
HETATM   11  O   UNL     1      -8.591  15.685  67.526  1.00  0.00    -0.162 OA 
HETATM   12  C   UNL     1     -11.239  16.368  66.527  1.00  0.00     0.328 C  
HETATM   13  C   UNL     1      -9.603  16.660  66.879  1.00  0.00    -0.249 C  
HETATM   14  N   UNL     1      -9.839  13.517  66.272  1.00  0.00    -0.295 N  
HETATM   15  O   UNL     1     -10.251   9.196  69.841  1.00  0.00    -0.188 OA 
HETATM   16  C   UNL     1     -10.107  12.165  66.393  1.00  0.00    -0.220 C  
HETATM   17  C   UNL     1     -11.216  14.499  66.153  1.00  0.00    -0.339 C  
HETATM   18  C   UNL     1      -9.763  15.723  65.873  1.00  0.00    -0.389 C  
HETATM   19  C   UNL     1     -10.695  14.882  67.383  1.00  0.00    -0.292 C  
HETATM   20  O   UNL     1     -11.085  11.660  65.837  1.00  0.00    -0.303 OA 
ENDROOT
BRANCH   9  21
HETATM   21  C   UNL     1      -7.118   9.215  70.515  1.00  0.00    -0.088 C  
HETATM   22  H   UNL     1      -7.019   7.843  72.053  1.00  0.00     0.000 HD 
HETATM   23  O   UNL     1      -5.896   9.193  70.358  1.00  0.00    -0.032 OA 
HETATM   24  N   UNL     1      -7.623   8.516  71.582  1.00  0.00    -0.104 N  
BRANCH  24  25
HETATM   25  C   UNL     1      -8.959   8.689  72.063  1.00  0.00    -0.216 C  
BRANCH  25  26
HETATM   26  C   UNL     1      -9.870   7.520  72.164  1.00  0.00    -0.209 A  
HETATM   27  C   UNL     1     -10.103   5.133  72.557  1.00  0.00    -0.226 A  
HETATM   28  C   UNL     1     -11.442   5.333  72.861  1.00  0.00    -0.270 A  
HETATM   29  C   UNL     1      -9.329   6.230  72.208  1.00  0.00    -0.145 A  
HETATM   30  F   UNL     1      -8.019   6.043  71.993  1.00  0.00    -0.102 F  
HETATM   31  F   UNL     1     -12.191   4.287  73.229  1.00  0.00    -0.255 F  
HETATM   32  C   UNL     1     -12.012   6.600  72.821  1.00  0.00     0.161 A  
HETATM   33  C   UNL     1     -11.218   7.686  72.475  1.00  0.00    -0.346 A  
HETATM   34  F   UNL     1     -11.744   8.917  72.529  1.00  0.00    -0.414 F  
ENDBRANCH  25  26
ENDBRANCH  24  25
ENDBRANCH   9  21
TORSDOF 3
ENDMDL
MODEL      204
REMARK 921   NORMALIZED FREE ENERGY PREDICTED BY IDOCK:   -3.06 KCAL/MOL
REMARK 922        TOTAL FREE ENERGY PREDICTED BY IDOCK:   -4.34 KCAL/MOL
REMARK 923 INTER-LIGAND FREE ENERGY PREDICTED BY IDOCK:   -4.35 KCAL/MOL
REMARK 924 INTRA-LIGAND FREE ENERGY PREDICTED BY IDOCK:    0.01 KCAL/MOL
REMARK 927      BINDING AFFINITY PREDICTED BY RF-SCORE:    0.00 PKD
ROOT
HETATM    1  O   UNL     1     -11.010   9.628  67.361  1.00  0.00    -0.363 OA 
HETATM    2  H   UNL     1     -11.564   8.876  67.536  1.00  0.00     0.000 HD 
HETATM    3  C   UNL     1      -9.647   9.735  67.573  1.00  0.00    -0.150 C  
HETATM    4  C   UNL     1      -8.858  10.806  67.325  1.00  0.00    -0.133 C  
HETATM    5  N   UNL     1      -7.480  10.786  67.620  1.00  0.00    -0.094 NA 
HETATM    6  C   UNL     1      -6.720  12.005  67.895  1.00  0.00    -0.080 C  
HETATM    7  C   UNL     1      -6.894   9.573  67.997  1.00  0.00    -0.074 C  
HETATM    8  C   UNL     1      -7.289  13.264  67.248  1.00  0.00    -0.050 C  
HETATM    9  C   UNL     1      -7.557   8.455  68.343  1.00  0.00    -0.097 C  
HETATM   10  C   UNL     1      -9.023   8.695  68.436  1.00  0.00    -0.142 C  
HETATM   11  O   UNL     1      -6.736  14.512  68.189  1.00  0.00    -0.099 OA 
HETATM   12  C   UNL     1      -9.169  16.088  68.464  1.00  0.00    -0.206 C  
HETATM   13  C   UNL     1      -7.502  15.855  68.233  1.00  0.00    -0.127 C  
HETATM   14  N   UNL     1      -8.944  13.262  67.009  1.00  0.00    -0.227 N  
HETATM   15  O   UNL     1      -9.742   8.190  69.293  1.00  0.00    -0.166 OA 
HETATM   16  C   UNL     1      -9.605  12.052  66.888  1.00  0.00    -0.203 C  
HETATM   17  C   UNL     1      -9.884  14.513  67.663  1.00  0.00    -0.223 C  
HETATM   18  C   UNL     1      -8.249  15.389  67.165  1.00  0.00    -0.250 C  
HETATM   19  C   UNL     1      -8.934  14.315  68.659  1.00  0.00    -0.154 C  
HETATM   20  O   UNL     1     -10.811  12.010  66.637  1.00  0.00    -0.249 OA 
ENDROOT
BRANCH   9  21
HETATM   21  C   UNL     1      -6.731   7.254  68.717  1.00  0.00    -0.067 C  
HETATM   22  H   UNL     1      -6.245   5.293  68.295  1.00  0.00     0.000 HD 
HETATM   23  O   UNL     1      -5.758   7.380  69.463  1.00  0.00    -0.022 OA 
HETATM   24  N   UNL     1      -6.977   5.999  68.219  1.00  0.00    -0.073 N  
BRANCH  24  25
HETATM   25  C   UNL     1      -8.215   5.637  67.599  1.00  0.00    -0.101 C  
BRANCH  25  26
HETATM   26  C   UNL     1      -8.213   4.799  66.372  1.00  0.00    -0.107 A  
HETATM   27  C   UNL     1      -9.428   4.037  64.410  1.00  0.00    -0.164 A  
HETATM   28  C   UNL     1      -8.221   3.690  63.821  1.00  0.00    -0.090 A  
HETATM   29  C   UNL     1      -9.412   4.587  65.683  1.00  0.00    -0.173 A  
HETATM   30  F   UNL     1     -10.574   4.994  66.216  1.00  0.00    -0.268 F  
HETATM   31  F   UNL     1      -8.221   3.188  62.581  1.00  0.00    -0.069 F  
HETATM   32  C   UNL     1      -7.012   3.882  64.479  1.00  0.00    -0.050 A  
HETATM   33  C   UNL     1      -7.018   4.440  65.751  1.00  0.00    -0.059 A  
HETATM   34  F   UNL     1      -5.849   4.711  66.346  1.00  0.00    -0.019 F  
ENDBRANCH  25  26
ENDBRANCH  24  25
ENDBRANCH   9  21
TORSDOF 3
ENDMDL
MODEL      205
REMARK 921   NORMALIZED FREE ENERGY PREDICTED BY IDOCK:   -2.80 KCAL/MOL
REMARK 922        TOTAL FREE ENERGY PREDICTED BY IDOCK:   -4.04 KCAL/MOL
REMARK 923 INTER-LIGAND FREE ENERGY PREDICTED BY IDOCK:   -4.25 KCAL/MOL
REMARK 924 INTRA-LIGAND FREE ENERGY PREDICTED BY IDOCK:    0.21 KCAL/MOL
REMARK 927      BINDING AFFINITY PREDICTED BY RF-SCORE:    0.00 PKD
ROOT
HETATM    1  O   UNL     1     -10.956   9.637  67.347  1.00  0.00    -0.363 OA 
HETATM    2  H   UNL     1     -11.508   8.874  67.478  1.00  0.00     0.000 HD 
HETATM    3  C   UNL     1      -9.590   9.730  67.543  1.00  0.00    -0.150 C  
HETATM    4  C   UNL     1      -8.805  10.817  67.357  1.00  0.00    -0.129 C  
HETATM    5  N   UNL     1      -7.422  10.776  67.628  1.00  0.00    -0.094 NA 
HETATM    6  C   UNL     1      -6.657  11.974  67.974  1.00  0.00    -0.069 C  
HETATM    7  C   UNL     1      -6.831   9.541  67.910  1.00  0.00    -0.074 C  
HETATM    8  C   UNL     1      -7.236  13.274  67.426  1.00  0.00    -0.119 C  
HETATM    9  C   UNL     1      -7.489   8.400  68.188  1.00  0.00    -0.097 C  
HETATM   10  C   UNL     1      -8.953   8.633  68.322  1.00  0.00    -0.142 C  
HETATM   11  O   UNL     1      -6.667  14.454  68.442  1.00  0.00    -0.088 OA 
HETATM   12  C   UNL     1      -9.094  16.006  68.865  1.00  0.00    -0.235 C  
HETATM   13  C   UNL     1      -7.431  15.790  68.591  1.00  0.00    -0.151 C  
HETATM   14  N   UNL     1      -8.895  13.288  67.214  1.00  0.00    -0.207 N  
HETATM   15  O   UNL     1      -9.658   8.069  69.154  1.00  0.00    -0.155 OA 
HETATM   16  C   UNL     1      -9.558  12.089  67.020  1.00  0.00    -0.195 C  
HETATM   17  C   UNL     1      -9.822  14.490  67.969  1.00  0.00    -0.222 C  
HETATM   18  C   UNL     1      -8.195  15.399  67.506  1.00  0.00    -0.187 C  
HETATM   19  C   UNL     1      -8.857  14.224  68.933  1.00  0.00    -0.022 C  
HETATM   20  O   UNL     1     -10.768  12.064  66.786  1.00  0.00    -0.227 OA 
ENDROOT
BRANCH   9  21
HETATM   21  C   UNL     1      -6.658   7.177  68.465  1.00  0.00    -0.048 C  
HETATM   22  H   UNL     1      -6.384   5.507  69.646  1.00  0.00     0.000 HD 
HETATM   23  O   UNL     1      -5.872   6.757  67.613  1.00  0.00    -0.018 OA 
HETATM   24  N   UNL     1      -6.767   6.452  69.624  1.00  0.00    -0.051 N  
BRANCH  24  25
HETATM   25  C   UNL     1      -7.395   6.962  70.805  1.00  0.00    -0.077 C  
BRANCH  25  26
HETATM   26  C   UNL     1      -8.288   6.088  71.608  1.00  0.00    -0.127 A  
HETATM   27  C   UNL     1      -8.787   3.847  72.403  1.00  0.00    -0.123 A  
HETATM   28  C   UNL     1      -9.543   4.399  73.427  1.00  0.00    -0.120 A  
HETATM   29  C   UNL     1      -8.168   4.698  71.501  1.00  0.00    -0.103 A  
HETATM   30  F   UNL     1      -7.373   4.164  70.561  1.00  0.00    -0.039 F  
HETATM   31  F   UNL     1     -10.119   3.589  74.323  1.00  0.00    -0.137 F  
HETATM   32  C   UNL     1      -9.688   5.775  73.560  1.00  0.00    -0.159 A  
HETATM   33  C   UNL     1      -9.055   6.611  72.648  1.00  0.00    -0.133 A  
HETATM   34  F   UNL     1      -9.117   7.936  72.832  1.00  0.00    -0.188 F  
ENDBRANCH  25  26
ENDBRANCH  24  25
ENDBRANCH   9  21
TORSDOF 3
ENDMDL
MODEL      206
REMARK 921   NORMALIZED FREE ENERGY PREDICTED BY IDOCK:   -2.66 KCAL/MOL
REMARK 922        TOTAL FREE ENERGY PREDICTED BY IDOCK:   -3.87 KCAL/MOL
REMARK 923 INTER-LIGAND FREE ENERGY PREDICTED BY IDOCK:   -3.32 KCAL/MOL
REMARK 924 INTRA-LIGAND FREE ENERGY PREDICTED BY IDOCK:   -0.55 KCAL/MOL
REMARK 927      BINDING AFFINITY PREDICTED BY RF-SCORE:    0.00 PKD
ROOT
HETATM    1  O   UNL     1      -7.840  10.299  64.155  1.00  0.00    -0.165 OA 
HETATM    2  H   UNL     1      -7.631  11.127  63.738  1.00  0.00     0.000 HD 
HETATM    3  C   UNL     1      -7.852  10.019  65.510  1.00  0.00    -0.134 C  
HETATM    4  C   UNL     1      -8.150   8.840  66.103  1.00  0.00    -0.107 C  
HETATM    5  N   UNL     1      -8.092   8.689  67.503  1.00  0.00    -0.106 NA 
HETATM    6  C   UNL     1      -7.860   7.393  68.142  1.00  0.00    -0.122 C  
HETATM    7  C   UNL     1      -7.907   9.828  68.293  1.00  0.00    -0.089 C  
HETATM    8  C   UNL     1      -8.310   6.193  67.316  1.00  0.00    -0.105 C  
HETATM    9  C   UNL     1      -7.537  11.042  67.845  1.00  0.00    -0.095 C  
HETATM   10  C   UNL     1      -7.183  11.007  66.400  1.00  0.00    -0.127 C  
HETATM   11  O   UNL     1      -7.386   4.930  67.866  1.00  0.00    -0.069 OA 
HETATM   12  C   UNL     1      -6.596   3.713  65.341  1.00  0.00    -0.037 C  
HETATM   13  C   UNL     1      -7.119   3.706  66.958  1.00  0.00    -0.063 C  
HETATM   14  N   UNL     1      -8.269   6.406  65.658  1.00  0.00    -0.134 N  
HETATM   15  O   UNL     1      -6.256  11.647  65.911  1.00  0.00     0.106 OA 
HETATM   16  C   UNL     1      -8.365   7.687  65.142  1.00  0.00    -0.093 C  
HETATM   17  C   UNL     1      -7.378   5.328  64.699  1.00  0.00    -0.067 C  
HETATM   18  C   UNL     1      -8.077   4.215  66.100  1.00  0.00    -0.098 C  
HETATM   19  C   UNL     1      -6.572   5.445  65.826  1.00  0.00    -0.044 C  
HETATM   20  O   UNL     1      -8.414   7.879  63.925  1.00  0.00     0.016 OA 
ENDROOT
BRANCH   9  21
HETATM   21  C   UNL     1      -7.393  12.138  68.867  1.00  0.00    -0.054 C  
HETATM   22  H   UNL     1      -8.217  13.832  69.708  1.00  0.00     0.000 HD 
HETATM   23  O   UNL     1      -6.579  12.024  69.785  1.00  0.00    -0.097 OA 
HETATM   24  N   UNL     1      -8.177  13.264  68.862  1.00  0.00     0.104 N  
BRANCH  24  25
HETATM   25  C   UNL     1      -8.939  13.677  67.725  1.00  0.00    -0.196 C  
BRANCH  25  26
HETATM   26  C   UNL     1      -9.362  15.095  67.590  1.00  0.00    -0.189 A  
HETATM   27  C   UNL     1      -9.386  17.105  66.223  1.00  0.00    -0.260 A  
HETATM   28  C   UNL     1     -10.469  17.567  66.956  1.00  0.00    -0.293 A  
HETATM   29  C   UNL     1      -8.840  15.872  66.550  1.00  0.00    -0.305 A  
HETATM   30  F   UNL     1      -7.844  15.394  65.788  1.00  0.00     0.672 F  
HETATM   31  F   UNL     1     -11.024  18.741  66.630  1.00  0.00    -0.401 F  
HETATM   32  C   UNL     1     -11.009  16.824  67.999  1.00  0.00    -0.296 A  
HETATM   33  C   UNL     1     -10.452  15.588  68.305  1.00  0.00    -0.242 A  
HETATM   34  F   UNL     1     -11.031  14.831  69.246  1.00  0.00    -0.226 F  
ENDBRANCH  25  26
ENDBRANCH  24  25
ENDBRANCH   9  21
TORSDOF 3
ENDMDL
MODEL      207
REMARK 921   NORMALIZED FREE ENERGY PREDICTED BY IDOCK:   -2.56 KCAL/MOL
REMARK 922        TOTAL FREE ENERGY PREDICTED BY IDOCK:   -3.76 KCAL/MOL
REMARK 923 INTER-LIGAND FREE ENERGY PREDICTED BY IDOCK:   -2.85 KCAL/MOL
REMARK 924 INTRA-LIGAND FREE ENERGY PREDICTED BY IDOCK:   -0.91 KCAL/MOL
REMARK 927      BINDING AFFINITY PREDICTED BY RF-SCORE:    0.00 PKD
ROOT
HETATM    1  O   UNL     1     -11.609  18.064  66.136  1.00  0.00     1.379 OA 
HETATM    2  H   UNL     1     -12.541  17.935  65.999  1.00  0.00     0.000 HD 
HETATM    3  C   UNL     1     -10.599  17.131  65.984  1.00  0.00    -0.204 C  
HETATM    4  C   UNL     1      -9.273  17.315  66.180  1.00  0.00    -0.162 C  
HETATM    5  N   UNL     1      -8.354  16.260  66.016  1.00  0.00    -0.261 NA 
HETATM    6  C   UNL     1      -7.067  16.227  66.710  1.00  0.00    -0.165 C  
HETATM    7  C   UNL     1      -8.805  15.059  65.458  1.00  0.00     1.188 C  
HETATM    8  C   UNL     1      -6.513  17.599  67.081  1.00  0.00    -0.188 C  
HETATM    9  C   UNL     1     -10.093  14.714  65.275  1.00  0.00    -0.393 C  
HETATM   10  C   UNL     1     -11.017  15.706  65.890  1.00  0.00    -0.231 C  
HETATM   11  O   UNL     1      -5.503  17.317  68.365  1.00  0.00    -0.133 OA 
HETATM   12  C   UNL     1      -6.294  19.481  70.146  1.00  0.00    -0.224 C  
HETATM   13  C   UNL     1      -5.189  18.447  69.373  1.00  0.00    -0.197 C  
HETATM   14  N   UNL     1      -7.660  18.786  67.352  1.00  0.00    -0.227 N  
HETATM   15  O   UNL     1     -12.056  15.400  66.468  1.00  0.00     0.266 OA 
HETATM   16  C   UNL     1      -8.902  18.669  66.755  1.00  0.00    -0.297 C  
HETATM   17  C   UNL     1      -7.665  19.618  68.829  1.00  0.00    -0.337 C  
HETATM   18  C   UNL     1      -5.800  19.318  68.487  1.00  0.00    -0.230 C  
HETATM   19  C   UNL     1      -7.326  18.330  69.227  1.00  0.00    -0.051 C  
HETATM   20  O   UNL     1      -9.748  19.560  66.870  1.00  0.00    -0.319 OA 
ENDROOT
BRANCH   9  21
HETATM   21  C   UNL     1     -10.364  13.370  64.656  1.00  0.00    -0.381 C  
HETATM   22  H   UNL     1     -11.202  11.499  64.890  1.00  0.00     0.000 HD 
HETATM   23  O   UNL     1     -10.253  13.216  63.438  1.00  0.00     0.090 OA 
HETATM   24  N   UNL     1     -10.789  12.289  65.385  1.00  0.00    -0.277 N  
BRANCH  24  25
HETATM   25  C   UNL     1     -10.679  12.219  66.810  1.00  0.00    -0.240 C  
BRANCH  25  26
HETATM   26  C   UNL     1      -9.696  11.297  67.435  1.00  0.00    -0.190 A  
HETATM   27  C   UNL     1      -9.015   9.000  67.846  1.00  0.00    -0.135 A  
HETATM   28  C   UNL     1      -7.729   9.449  68.110  1.00  0.00    -0.083 A  
HETATM   29  C   UNL     1      -9.988   9.931  67.513  1.00  0.00    -0.185 A  
HETATM   30  F   UNL     1     -11.210   9.486  67.182  1.00  0.00    -0.240 F  
HETATM   31  F   UNL     1      -6.774   8.558  68.401  1.00  0.00    -0.058 F  
HETATM   32  C   UNL     1      -7.405  10.799  68.046  1.00  0.00    -0.088 A  
HETATM   33  C   UNL     1      -8.393  11.714  67.705  1.00  0.00    -0.142 A  
HETATM   34  F   UNL     1      -8.059  13.002  67.552  1.00  0.00    -0.135 F  
ENDBRANCH  25  26
ENDBRANCH  24  25
ENDBRANCH   9  21
TORSDOF 3
ENDMDL
MODEL      208
REMARK 921   NORMALIZED FREE ENERGY PREDICTED BY IDOCK:   -2.32 KCAL/MOL
REMARK 922        TOTAL FREE ENERGY PREDICTED BY IDOCK:   -3.47 KCAL/MOL
REMARK 923 INTER-LIGAND FREE ENERGY PREDICTED BY IDOCK:   -4.06 KCAL/MOL
REMARK 924 INTRA-LIGAND FREE ENERGY PREDICTED BY IDOCK:    0.59 KCAL/MOL
REMARK 927      BINDING AFFINITY PREDICTED BY RF-SCORE:    0.00 PKD
ROOT
HETATM    1  O   UNL     1     -10.095  16.886  67.538  1.00  0.00    -0.266 OA 
HETATM    2  H   UNL     1      -9.935  17.426  66.772  1.00  0.00     0.000 HD 
HETATM    3  C   UNL     1     -10.088  15.504  67.609  1.00  0.00    -0.243 C  
HETATM    4  C   UNL     1     -10.316  14.736  68.700  1.00  0.00    -0.245 C  
HETATM    5  N   UNL     1     -10.308  13.329  68.620  1.00  0.00    -0.227 NA 
HETATM    6  C   UNL     1     -11.053  12.487  69.556  1.00  0.00    -0.006 C  
HETATM    7  C   UNL     1      -9.870  12.728  67.435  1.00  0.00    -0.210 C  
HETATM    8  C   UNL     1     -11.290  13.120  70.923  1.00  0.00     1.398 C  
HETATM    9  C   UNL     1      -9.675  13.356  66.261  1.00  0.00    -0.280 C  
HETATM   10  C   UNL     1     -10.138  14.770  66.315  1.00  0.00    -0.285 C  
HETATM   11  O   UNL     1     -12.638  12.357  71.516  1.00  0.00    -0.263 OA 
HETATM   12  C   UNL     1     -14.132  14.638  72.536  1.00  0.00    -0.442 C  
HETATM   13  C   UNL     1     -13.524  13.052  72.576  1.00  0.00    -0.419 C  
HETATM   14  N   UNL     1     -11.380  14.789  70.936  1.00  0.00    -0.216 N  
HETATM   15  O   UNL     1     -10.703  15.336  65.384  1.00  0.00    -0.337 OA 
HETATM   16  C   UNL     1     -10.750  15.505  69.933  1.00  0.00    -0.311 C  
HETATM   17  C   UNL     1     -12.754  15.546  71.581  1.00  0.00    -0.502 C  
HETATM   18  C   UNL     1     -12.523  14.000  72.697  1.00  0.00    -0.100 C  
HETATM   19  C   UNL     1     -13.306  14.436  70.951  1.00  0.00    -0.294 C  
HETATM   20  O   UNL     1     -10.732  16.738  69.948  1.00  0.00    -0.292 OA 
ENDROOT
BRANCH   9  21
HETATM   21  C   UNL     1      -9.199  12.520  65.104  1.00  0.00     0.509 C  
HETATM   22  H   UNL     1      -8.493  10.687  64.475  1.00  0.00     0.000 HD 
HETATM   23  O   UNL     1      -9.427  12.879  63.947  1.00  0.00     0.151 OA 
HETATM   24  N   UNL     1      -8.554  11.322  65.271  1.00  0.00     0.025 N  
BRANCH  24  25
HETATM   25  C   UNL     1      -7.962  10.922  66.510  1.00  0.00    -0.152 C  
BRANCH  25  26
HETATM   26  C   UNL     1      -7.830   9.479  66.840  1.00  0.00    -0.101 A  
HETATM   27  C   UNL     1      -7.079   7.801  68.429  1.00  0.00    -0.077 A  
HETATM   28  C   UNL     1      -7.933   6.883  67.834  1.00  0.00    -0.114 A  
HETATM   29  C   UNL     1      -7.034   9.092  67.923  1.00  0.00    -0.078 A  
HETATM   30  F   UNL     1      -6.268   9.996  68.551  1.00  0.00    -0.045 F  
HETATM   31  F   UNL     1      -8.008   5.644  68.333  1.00  0.00    -0.094 F  
HETATM   32  C   UNL     1      -8.733   7.233  66.753  1.00  0.00    -0.132 A  
HETATM   33  C   UNL     1      -8.677   8.533  66.265  1.00  0.00    -0.142 A  
HETATM   34  F   UNL     1      -9.516   8.895  65.286  1.00  0.00    -0.267 F  
ENDBRANCH  25  26
ENDBRANCH  24  25
ENDBRANCH   9  21
TORSDOF 3
ENDMDL
MODEL      209
REMARK 921   NORMALIZED FREE ENERGY PREDICTED BY IDOCK:   -1.52 KCAL/MOL
REMARK 922        TOTAL FREE ENERGY PREDICTED BY IDOCK:   -2.53 KCAL/MOL
REMARK 923 INTER-LIGAND FREE ENERGY PREDICTED BY IDOCK:   -3.17 KCAL/MOL
REMARK 924 INTRA-LIGAND FREE ENERGY PREDICTED BY IDOCK:    0.63 KCAL/MOL
REMARK 927      BINDING AFFINITY PREDICTED BY RF-SCORE:    0.00 PKD
ROOT
HETATM    1  O   UNL     1     -10.485  19.585  70.329  1.00  0.00    -0.104 OA 
HETATM    2  H   UNL     1     -10.370  20.459  69.974  1.00  0.00     0.000 HD 
HETATM    3  C   UNL     1     -10.269  18.381  69.683  1.00  0.00     0.540 C  
HETATM    4  C   UNL     1     -10.433  17.136  70.187  1.00  0.00     0.468 C  
HETATM    5  N   UNL     1     -10.204  15.990  69.400  1.00  0.00    -0.252 NA 
HETATM    6  C   UNL     1     -10.859  14.710  69.670  1.00  0.00    -0.186 C  
HETATM    7  C   UNL     1      -9.616  16.149  68.141  1.00  0.00    -0.217 C  
HETATM    8  C   UNL     1     -11.262  14.502  71.127  1.00  0.00     0.187 C  
HETATM    9  C   UNL     1      -9.459  17.316  67.489  1.00  0.00    -0.245 C  
HETATM   10  C   UNL     1     -10.136  18.434  68.201  1.00  0.00    -0.382 C  
HETATM   11  O   UNL     1     -12.506  13.407  71.070  1.00  0.00    -0.362 OA 
HETATM   12  C   UNL     1     -14.387  14.644  72.917  1.00  0.00     0.664 C  
HETATM   13  C   UNL     1     -13.544  13.346  72.215  1.00  0.00    -0.605 C  
HETATM   14  N   UNL     1     -11.610  15.897  71.981  1.00  0.00    -0.441 N  
HETATM   15  O   UNL     1     -10.732  19.342  67.629  1.00  0.00    -0.452 OA 
HETATM   16  C   UNL     1     -11.045  17.093  71.574  1.00  0.00     1.285 C  
HETATM   17  C   UNL     1     -13.116  16.055  72.744  1.00  0.00    -0.515 C  
HETATM   18  C   UNL     1     -12.709  14.187  72.929  1.00  0.00    -0.347 C  
HETATM   19  C   UNL     1     -13.456  15.391  71.570  1.00  0.00    -0.601 C  
HETATM   20  O   UNL     1     -11.218  18.129  72.221  1.00  0.00     1.669 OA 
ENDROOT
BRANCH   9  21
HETATM   21  C   UNL     1      -8.799  17.266  66.138  1.00  0.00    -0.160 C  
HETATM   22  H   UNL     1      -8.594  16.250  64.354  1.00  0.00     0.000 HD 
HETATM   23  O   UNL     1      -8.252  18.271  65.680  1.00  0.00    -0.440 OA 
HETATM   24  N   UNL     1      -8.819  16.148  65.343  1.00  0.00     0.635 N  
BRANCH  24  25
HETATM   25  C   UNL     1      -9.141  14.846  65.840  1.00  0.00     0.057 C  
BRANCH  25  26
HETATM   26  C   UNL     1     -10.301  14.103  65.283  1.00  0.00    -0.409 A  
HETATM   27  C   UNL     1     -12.157  14.082  63.713  1.00  0.00    -0.265 A  
HETATM   28  C   UNL     1     -12.187  12.698  63.798  1.00  0.00    -0.514 A  
HETATM   29  C   UNL     1     -11.214  14.773  64.460  1.00  0.00    -0.274 A  
HETATM   30  F   UNL     1     -11.135  16.104  64.314  1.00  0.00    -0.443 F  
HETATM   31  F   UNL     1     -13.072  12.019  63.058  1.00  0.00    -0.567 F  
HETATM   32  C   UNL     1     -11.299  12.002  64.609  1.00  0.00    -0.377 A  
HETATM   33  C   UNL     1     -10.358  12.712  65.344  1.00  0.00    -0.291 A  
HETATM   34  F   UNL     1      -9.443  12.037  66.051  1.00  0.00    -0.223 F  
ENDBRANCH  25  26
ENDBRANCH  24  25
ENDBRANCH   9  21
TORSDOF 3
ENDMDL
MODEL      210
REMARK 921   NORMALIZED FREE ENERGY PREDICTED BY IDOCK:   -1.31 KCAL/MOL
REMARK 922        TOTAL FREE ENERGY PREDICTED BY IDOCK:   -2.28 KCAL/MOL
REMARK 923 INTER-LIGAND FREE ENERGY PREDICTED BY IDOCK:   -2.06 KCAL/MOL
REMARK 924 INTRA-LIGAND FREE ENERGY PREDICTED BY IDOCK:   -0.22 KCAL/MOL
REMARK 927      BINDING AFFINITY PREDICTED BY RF-SCORE:    0.00 PKD
ROOT
HETATM    1  O   UNL     1      -9.859   8.049  66.835  1.00  0.00    -0.203 OA 
HETATM    2  H   UNL     1     -10.039   8.214  65.916  1.00  0.00     0.000 HD 
HETATM    3  C   UNL     1      -8.916   8.673  67.632  1.00  0.00    -0.135 C  
HETATM    4  C   UNL     1      -8.659   8.437  68.940  1.00  0.00    -0.135 C  
HETATM    5  N   UNL     1      -7.642   9.132  69.624  1.00  0.00    -0.075 NA 
HETATM    6  C   UNL     1      -6.965   8.577  70.796  1.00  0.00    -0.050 C  
HETATM    7  C   UNL     1      -7.023  10.212  68.986  1.00  0.00    -0.058 C  
HETATM    8  C   UNL     1      -7.797   7.573  71.588  1.00  0.00    -0.086 C  
HETATM    9  C   UNL     1      -7.129  10.519  67.680  1.00  0.00    -0.084 C  
HETATM   10  C   UNL     1      -7.871   9.468  66.931  1.00  0.00    -0.101 C  
HETATM   11  O   UNL     1      -6.685   6.629  72.377  1.00  0.00    -0.062 OA 
HETATM   12  C   UNL     1      -7.795   3.982  71.888  1.00  0.00    -0.075 C  
HETATM   13  C   UNL     1      -7.055   5.195  72.820  1.00  0.00    -0.087 C  
HETATM   14  N   UNL     1      -8.924   6.715  70.700  1.00  0.00    -0.151 N  
HETATM   15  O   UNL     1      -7.574   9.104  65.796  1.00  0.00    -0.089 OA 
HETATM   16  C   UNL     1      -9.417   7.264  69.530  1.00  0.00    -0.155 C  
HETATM   17  C   UNL     1      -8.888   5.020  70.721  1.00  0.00    -0.156 C  
HETATM   18  C   UNL     1      -8.366   5.505  72.504  1.00  0.00    -0.114 C  
HETATM   19  C   UNL     1      -7.534   5.337  70.734  1.00  0.00    -0.075 C  
HETATM   20  O   UNL     1     -10.304   6.696  68.887  1.00  0.00    -0.170 OA 
ENDROOT
BRANCH   9  21
HETATM   21  C   UNL     1      -6.378  11.728  67.193  1.00  0.00    -0.145 C  
HETATM   22  H   UNL     1      -5.701  13.629  67.626  1.00  0.00     0.000 HD 
HETATM   23  O   UNL     1      -5.649  11.646  66.202  1.00  0.00    -0.252 OA 
HETATM   24  N   UNL     1      -6.419  12.937  67.840  1.00  0.00    -0.109 N  
BRANCH  24  25
HETATM   25  C   UNL     1      -7.423  13.271  68.802  1.00  0.00    -0.053 C  
BRANCH  25  26
HETATM   26  C   UNL     1      -8.005  14.638  68.824  1.00  0.00    -0.151 A  
HETATM   27  C   UNL     1      -9.731  16.144  68.010  1.00  0.00    -0.229 A  
HETATM   28  C   UNL     1      -9.502  16.966  69.104  1.00  0.00    -0.135 A  
HETATM   29  C   UNL     1      -8.977  14.987  67.880  1.00  0.00    -0.175 A  
HETATM   30  F   UNL     1      -9.256  14.155  66.865  1.00  0.00    -0.215 F  
HETATM   31  F   UNL     1     -10.245  18.069  69.258  1.00  0.00    -0.361 F  
HETATM   32  C   UNL     1      -8.541  16.653  70.058  1.00  0.00     1.531 A  
HETATM   33  C   UNL     1      -7.801  15.486  69.912  1.00  0.00     0.112 A  
HETATM   34  F   UNL     1      -6.943  15.137  70.879  1.00  0.00     0.185 F  
ENDBRANCH  25  26
ENDBRANCH  24  25
ENDBRANCH   9  21
TORSDOF 3
ENDMDL
MODEL      211
REMARK 921   NORMALIZED FREE ENERGY PREDICTED BY IDOCK:   -1.30 KCAL/MOL
REMARK 922        TOTAL FREE ENERGY PREDICTED BY IDOCK:   -2.28 KCAL/MOL
REMARK 923 INTER-LIGAND FREE ENERGY PREDICTED BY IDOCK:   -2.69 KCAL/MOL
REMARK 924 INTRA-LIGAND FREE ENERGY PREDICTED BY IDOCK:    0.41 KCAL/MOL
REMARK 927      BINDING AFFINITY PREDICTED BY RF-SCORE:    0.00 PKD
ROOT
HETATM    1  O   UNL     1     -10.898  14.044  64.911  1.00  0.00    -0.364 OA 
HETATM    2  H   UNL     1     -10.492  14.153  64.058  1.00  0.00     0.000 HD 
HETATM    3  C   UNL     1     -10.742  14.848  66.025  1.00  0.00    -0.323 C  
HETATM    4  C   UNL     1     -11.319  14.693  67.239  1.00  0.00    -0.353 C  
HETATM    5  N   UNL     1     -11.045  15.579  68.300  1.00  0.00    -0.307 NA 
HETATM    6  C   UNL     1     -11.171  15.184  69.703  1.00  0.00    -0.272 C  
HETATM    7  C   UNL     1     -10.312  16.740  68.031  1.00  0.00    -0.317 C  
HETATM    8  C   UNL     1     -12.174  14.062  69.955  1.00  0.00    -0.414 C  
HETATM    9  C   UNL     1      -9.629  16.993  66.900  1.00  0.00    -0.263 C  
HETATM   10  C   UNL     1      -9.603  15.806  66.001  1.00  0.00    -0.353 C  
HETATM   11  O   UNL     1     -11.674  13.357  71.371  1.00  0.00     0.459 OA 
HETATM   12  C   UNL     1     -11.885  10.541  70.664  1.00  0.00    -0.458 C  
HETATM   13  C   UNL     1     -12.046  11.889  71.685  1.00  0.00     0.785 C  
HETATM   14  N   UNL     1     -12.386  12.992  68.689  1.00  0.00     0.035 N  
HETATM   15  O   UNL     1      -8.624  15.478  65.336  1.00  0.00     0.924 OA 
HETATM   16  C   UNL     1     -12.117  13.414  67.399  1.00  0.00    -0.293 C  
HETATM   17  C   UNL     1     -12.147  11.333  68.950  1.00  0.00    -0.292 C  
HETATM   18  C   UNL     1     -12.908  11.945  70.603  1.00  0.00    -0.058 C  
HETATM   19  C   UNL     1     -11.148  11.894  69.736  1.00  0.00    -0.025 C  
HETATM   20  O   UNL     1     -12.333  12.678  66.433  1.00  0.00    -0.521 OA 
ENDROOT
BRANCH   9  21
HETATM   21  C   UNL     1      -8.905  18.309  66.813  1.00  0.00    -0.276 C  
HETATM   22  H   UNL     1      -7.214  19.310  66.184  1.00  0.00     0.000 HD 
HETATM   23  O   UNL     1      -9.516  19.364  66.996  1.00  0.00    -0.304 OA 
HETATM   24  N   UNL     1      -7.577  18.405  66.481  1.00  0.00    -0.229 N  
BRANCH  24  25
HETATM   25  C   UNL     1      -6.680  17.293  66.533  1.00  0.00    -0.251 C  
BRANCH  25  26
HETATM   26  C   UNL     1      -6.445  16.586  67.820  1.00  0.00    -0.162 A  
HETATM   27  C   UNL     1      -6.863  16.495  70.212  1.00  0.00     0.847 A  
HETATM   28  C   UNL     1      -6.519  15.151  70.202  1.00  0.00    -0.115 A  
HETATM   29  C   UNL     1      -6.820  17.202  69.019  1.00  0.00    -0.231 A  
HETATM   30  F   UNL     1      -7.230  18.479  69.020  1.00  0.00    -0.284 F  
HETATM   31  F   UNL     1      -6.588  14.451  71.340  1.00  0.00    -0.038 F  
HETATM   32  C   UNL     1      -6.137  14.510  69.029  1.00  0.00    -0.090 A  
HETATM   33  C   UNL     1      -6.107  15.235  67.844  1.00  0.00    -0.153 A  
HETATM   34  F   UNL     1      -5.830  14.595  66.700  1.00  0.00     1.009 F  
ENDBRANCH  25  26
ENDBRANCH  24  25
ENDBRANCH   9  21
TORSDOF 3
ENDMDL
MODEL      212
REMARK 921   NORMALIZED FREE ENERGY PREDICTED BY IDOCK:   -1.03 KCAL/MOL
REMARK 922        TOTAL FREE ENERGY PREDICTED BY IDOCK:   -1.95 KCAL/MOL
REMARK 923 INTER-LIGAND FREE ENERGY PREDICTED BY IDOCK:   -1.99 KCAL/MOL
REMARK 924 INTRA-LIGAND FREE ENERGY PREDICTED BY IDOCK:    0.04 KCAL/MOL
REMARK 927      BINDING AFFINITY PREDICTED BY RF-SCORE:    0.00 PKD
ROOT
HETATM    1  O   UNL     1     -12.949  10.807  69.738  1.00  0.00    -0.426 OA 
HETATM    2  H   UNL     1     -13.854  11.098  69.720  1.00  0.00     0.000 HD 
HETATM    3  C   UNL     1     -11.813  11.587  69.625  1.00  0.00    -0.354 C  
HETATM    4  C   UNL     1     -10.525  11.173  69.649  1.00  0.00     0.050 C  
HETATM    5  N   UNL     1      -9.459  12.082  69.491  1.00  0.00     0.983 NA 
HETATM    6  C   UNL     1      -8.154  11.675  68.971  1.00  0.00     0.083 C  
HETATM    7  C   UNL     1      -9.741  13.452  69.499  1.00  0.00     1.090 C  
HETATM    8  C   UNL     1      -7.807  10.209  69.211  1.00  0.00    -0.134 C  
HETATM    9  C   UNL     1     -10.965  14.003  69.405  1.00  0.00    -0.194 C  
HETATM   10  C   UNL     1     -12.005  12.976  69.124  1.00  0.00    -0.271 C  
HETATM   11  O   UNL     1      -6.710   9.833  68.025  1.00  0.00    -0.061 OA 
HETATM   12  C   UNL     1      -7.752   7.264  67.134  1.00  0.00    -0.112 C  
HETATM   13  C   UNL     1      -6.534   8.368  67.563  1.00  0.00    -0.058 C  
HETATM   14  N   UNL     1      -9.113   9.168  69.297  1.00  0.00    -0.143 N  
HETATM   15  O   UNL     1     -12.957  13.161  68.371  1.00  0.00     1.205 OA 
HETATM   16  C   UNL     1     -10.347   9.667  69.675  1.00  0.00    -0.227 C  
HETATM   17  C   UNL     1      -9.185   7.831  68.257  1.00  0.00    -0.139 C  
HETATM   18  C   UNL     1      -7.312   8.000  68.646  1.00  0.00    -0.089 C  
HETATM   19  C   UNL     1      -8.630   8.805  67.435  1.00  0.00    -0.126 C  
HETATM   20  O   UNL     1     -11.316   8.919  69.823  1.00  0.00    -0.090 OA 
ENDROOT
BRANCH   9  21
HETATM   21  C   UNL     1     -11.047  15.505  69.434  1.00  0.00    -0.291 C  
HETATM   22  H   UNL     1     -10.655  17.274  68.448  1.00  0.00     0.000 HD 
HETATM   23  O   UNL     1     -11.790  16.068  70.241  1.00  0.00    -0.337 OA 
HETATM   24  N   UNL     1     -10.363  16.303  68.553  1.00  0.00    -0.248 N  
BRANCH  24  25
HETATM   25  C   UNL     1      -9.258  15.833  67.774  1.00  0.00    -0.197 C  
BRANCH  25  26
HETATM   26  C   UNL     1      -8.181  16.774  67.371  1.00  0.00    -0.195 A  
HETATM   27  C   UNL     1      -5.869  17.065  66.679  1.00  0.00    -0.200 A  
HETATM   28  C   UNL     1      -6.205  18.301  66.146  1.00  0.00    -0.207 A  
HETATM   29  C   UNL     1      -6.862  16.313  67.290  1.00  0.00    -0.195 A  
HETATM   30  F   UNL     1      -6.551  15.086  67.733  1.00  0.00    -0.119 F  
HETATM   31  F   UNL     1      -5.263  19.022  65.527  1.00  0.00    -0.159 F  
HETATM   32  C   UNL     1      -7.504  18.791  66.214  1.00  0.00    -0.288 A  
HETATM   33  C   UNL     1      -8.485  18.019  66.824  1.00  0.00    -0.257 A  
HETATM   34  F   UNL     1      -9.753  18.449  66.806  1.00  0.00    -0.279 F  
ENDBRANCH  25  26
ENDBRANCH  24  25
ENDBRANCH   9  21
TORSDOF 3
ENDMDL
MODEL      213
REMARK 921   NORMALIZED FREE ENERGY PREDICTED BY IDOCK:   -0.66 KCAL/MOL
REMARK 922        TOTAL FREE ENERGY PREDICTED BY IDOCK:   -1.52 KCAL/MOL
REMARK 923 INTER-LIGAND FREE ENERGY PREDICTED BY IDOCK:   -2.09 KCAL/MOL
REMARK 924 INTRA-LIGAND FREE ENERGY PREDICTED BY IDOCK:    0.57 KCAL/MOL
REMARK 927      BINDING AFFINITY PREDICTED BY RF-SCORE:    0.00 PKD
ROOT
HETATM    1  O   UNL     1     -11.308   9.870  66.974  1.00  0.00    -0.157 OA 
HETATM    2  H   UNL     1     -11.508   9.101  67.497  1.00  0.00     0.000 HD 
HETATM    3  C   UNL     1     -10.271  10.766  67.160  1.00  0.00    -0.213 C  
HETATM    4  C   UNL     1      -9.986  11.860  66.416  1.00  0.00    -0.213 C  
HETATM    5  N   UNL     1      -8.908  12.708  66.740  1.00  0.00    -0.199 NA 
HETATM    6  C   UNL     1      -8.879  14.119  66.358  1.00  0.00     0.064 C  
HETATM    7  C   UNL     1      -8.012  12.300  67.733  1.00  0.00    -0.154 C  
HETATM    8  C   UNL     1      -9.695  14.453  65.114  1.00  0.00     0.024 C  
HETATM    9  C   UNL     1      -8.200  11.280  68.591  1.00  0.00    -0.146 C  
HETATM   10  C   UNL     1      -9.571  10.713  68.473  1.00  0.00    -0.175 C  
HETATM   11  O   UNL     1     -10.065  16.062  65.269  1.00  0.00    -0.475 OA 
HETATM   12  C   UNL     1     -12.886  16.030  64.546  1.00  0.00     1.553 C  
HETATM   13  C   UNL     1     -11.304  16.650  64.553  1.00  0.00     0.114 C  
HETATM   14  N   UNL     1     -11.016  13.466  64.835  1.00  0.00    -0.325 N  
HETATM   15  O   UNL     1     -10.234  10.331  69.433  1.00  0.00    -0.210 OA 
HETATM   16  C   UNL     1     -11.014  12.181  65.347  1.00  0.00    -0.302 C  
HETATM   17  C   UNL     1     -12.556  14.157  64.676  1.00  0.00    -0.285 C  
HETATM   18  C   UNL     1     -11.394  15.453  63.865  1.00  0.00     0.544 C  
HETATM   19  C   UNL     1     -11.986  14.948  65.667  1.00  0.00    -0.068 C  
HETATM   20  O   UNL     1     -11.935  11.398  65.101  1.00  0.00     0.054 OA 
ENDROOT
BRANCH   9  21
HETATM   21  C   UNL     1      -7.105  11.008  69.587  1.00  0.00    -0.087 C  
HETATM   22  H   UNL     1      -5.623  11.801  70.783  1.00  0.00     0.000 HD 
HETATM   23  O   UNL     1      -7.055   9.922  70.168  1.00  0.00    -0.112 OA 
HETATM   24  N   UNL     1      -6.165  11.945  69.931  1.00  0.00    -0.149 N  
BRANCH  24  25
HETATM   25  C   UNL     1      -5.910  13.115  69.149  1.00  0.00    -0.080 C  
BRANCH  25  26
HETATM   26  C   UNL     1      -5.919  14.455  69.792  1.00  0.00    -0.119 A  
HETATM   27  C   UNL     1      -5.251  15.822  71.687  1.00  0.00     0.048 A  
HETATM   28  C   UNL     1      -5.418  16.955  70.904  1.00  0.00    -0.024 A  
HETATM   29  C   UNL     1      -5.506  14.581  71.123  1.00  0.00    -0.162 A  
HETATM   30  F   UNL     1      -5.267  13.485  71.859  1.00  0.00    -0.136 F  
HETATM   31  F   UNL     1      -5.144  18.156  71.428  1.00  0.00    -0.265 F  
HETATM   32  C   UNL     1      -5.832  16.866  69.580  1.00  0.00    -0.210 A  
HETATM   33  C   UNL     1      -6.076  15.613  69.033  1.00  0.00    -0.107 A  
HETATM   34  F   UNL     1      -6.383  15.522  67.732  1.00  0.00    -0.118 F  
ENDBRANCH  25  26
ENDBRANCH  24  25
ENDBRANCH   9  21
TORSDOF 3
ENDMDL
MODEL      214
REMARK 921   NORMALIZED FREE ENERGY PREDICTED BY IDOCK:   -0.49 KCAL/MOL
REMARK 922        TOTAL FREE ENERGY PREDICTED BY IDOCK:   -1.32 KCAL/MOL
REMARK 923 INTER-LIGAND FREE ENERGY PREDICTED BY IDOCK:   -2.58 KCAL/MOL
REMARK 924 INTRA-LIGAND FREE ENERGY PREDICTED BY IDOCK:    1.26 KCAL/MOL
REMARK 927      BINDING AFFINITY PREDICTED BY RF-SCORE:    0.00 PKD
ROOT
HETATM    1  O   UNL     1      -6.698  11.637  67.638  1.00  0.00    -0.073 OA 
HETATM    2  H   UNL     1      -6.306  12.458  67.913  1.00  0.00     0.000 HD 
HETATM    3  C   UNL     1      -8.014  11.240  67.795  1.00  0.00    -0.117 C  
HETATM    4  C   UNL     1      -8.573  10.071  67.404  1.00  0.00    -0.125 C  
HETATM    5  N   UNL     1      -9.930   9.786  67.658  1.00  0.00    -0.165 NA 
HETATM    6  C   UNL     1     -10.435   8.418  67.772  1.00  0.00    -0.220 C  
HETATM    7  C   UNL     1     -10.748  10.808  68.151  1.00  0.00    -0.214 C  
HETATM    8  C   UNL     1      -9.622   7.380  67.005  1.00  0.00    -0.221 C  
HETATM    9  C   UNL     1     -10.323  11.988  68.640  1.00  0.00    -0.211 C  
HETATM   10  C   UNL     1      -8.839  12.030  68.750  1.00  0.00     0.086 C  
HETATM   11  O   UNL     1      -9.924   5.947  67.783  1.00  0.00    -0.118 OA 
HETATM   12  C   UNL     1      -7.229   4.858  67.953  1.00  0.00    -0.070 C  
HETATM   13  C   UNL     1      -8.907   4.784  67.699  1.00  0.00    -0.104 C  
HETATM   14  N   UNL     1      -7.999   7.734  66.818  1.00  0.00    -0.106 N  
HETATM   15  O   UNL     1      -8.241  12.564  69.680  1.00  0.00     1.105 OA 
HETATM   16  C   UNL     1      -7.591   9.056  66.853  1.00  0.00    -0.094 C  
HETATM   17  C   UNL     1      -6.835   6.625  67.356  1.00  0.00    -0.073 C  
HETATM   18  C   UNL     1      -8.260   5.509  66.713  1.00  0.00    -0.105 C  
HETATM   19  C   UNL     1      -7.812   6.515  68.338  1.00  0.00    -0.106 C  
HETATM   20  O   UNL     1      -6.415   9.363  66.645  1.00  0.00    -0.065 OA 
ENDROOT
BRANCH   9  21
HETATM   21  C   UNL     1     -11.373  12.951  69.122  1.00  0.00    -0.273 C  
HETATM   22  H   UNL     1     -12.740  14.410  68.613  1.00  0.00     0.000 HD 
HETATM   23  O   UNL     1     -11.865  12.819  70.245  1.00  0.00    -0.307 OA 
HETATM   24  N   UNL     1     -11.864  13.965  68.340  1.00  0.00    -0.360 N  
BRANCH  24  25
HETATM   25  C   UNL     1     -11.203  14.427  67.158  1.00  0.00    -0.328 C  
BRANCH  25  26
HETATM   26  C   UNL     1     -11.589  13.882  65.831  1.00  0.00    -0.348 A  
HETATM   27  C   UNL     1     -12.883  12.245  64.585  1.00  0.00    -0.144 A  
HETATM   28  C   UNL     1     -12.787  13.052  63.461  1.00  0.00     0.219 A  
HETATM   29  C   UNL     1     -12.280  12.667  65.761  1.00  0.00    -0.361 A  
HETATM   30  F   UNL     1     -12.443  11.923  66.865  1.00  0.00     0.063 F  
HETATM   31  F   UNL     1     -13.392  12.671  62.330  1.00  0.00     0.811 F  
HETATM   32  C   UNL     1     -12.104  14.262  63.494  1.00  0.00     0.235 A  
HETATM   33  C   UNL     1     -11.512  14.670  64.683  1.00  0.00    -0.388 A  
HETATM   34  F   UNL     1     -10.935  15.877  64.740  1.00  0.00    -0.407 F  
ENDBRANCH  25  26
ENDBRANCH  24  25
ENDBRANCH   9  21
TORSDOF 3
ENDMDL
MODEL      215
REMARK 921   NORMALIZED FREE ENERGY PREDICTED BY IDOCK:   -0.18 KCAL/MOL
REMARK 922        TOTAL FREE ENERGY PREDICTED BY IDOCK:   -0.95 KCAL/MOL
REMARK 923 INTER-LIGAND FREE ENERGY PREDICTED BY IDOCK:   -0.83 KCAL/MOL
REMARK 924 INTRA-LIGAND FREE ENERGY PREDICTED BY IDOCK:   -0.12 KCAL/MOL
REMARK 927      BINDING AFFINITY PREDICTED BY RF-SCORE:    0.00 PKD
ROOT
HETATM    1  O   UNL     1      -8.037   6.680  70.843  1.00  0.00    -0.115 OA 
HETATM    2  H   UNL     1      -7.313   6.186  71.210  1.00  0.00     0.000 HD 
HETATM    3  C   UNL     1      -8.147   7.183  69.559  1.00  0.00    -0.130 C  
HETATM    4  C   UNL     1      -9.178   7.886  69.036  1.00  0.00    -0.147 C  
HETATM    5  N   UNL     1      -9.141   8.366  67.712  1.00  0.00    -0.135 NA 
HETATM    6  C   UNL     1      -9.907   9.536  67.282  1.00  0.00    -0.177 C  
HETATM    7  C   UNL     1      -8.104   7.943  66.875  1.00  0.00    -0.115 C  
HETATM    8  C   UNL     1     -11.167   9.802  68.099  1.00  0.00    -0.073 C  
HETATM    9  C   UNL     1      -6.988   7.303  67.269  1.00  0.00    -0.079 C  
HETATM   10  C   UNL     1      -6.896   7.229  68.753  1.00  0.00    -0.073 C  
HETATM   11  O   UNL     1     -11.459  11.424  67.913  1.00  0.00    -0.309 OA 
HETATM   12  C   UNL     1     -12.049  12.176  70.663  1.00  0.00    -0.344 C  
HETATM   13  C   UNL     1     -12.270  12.197  68.979  1.00  0.00    -0.002 C  
HETATM   14  N   UNL     1     -11.112   9.289  69.690  1.00  0.00    -0.172 N  
HETATM   15  O   UNL     1      -5.846   7.354  69.376  1.00  0.00    -0.025 OA 
HETATM   16  C   UNL     1     -10.258   8.256  70.034  1.00  0.00    -0.202 C  
HETATM   17  C   UNL     1     -11.407  10.401  70.935  1.00  0.00    -0.307 C  
HETATM   18  C   UNL     1     -12.589  10.970  69.533  1.00  0.00    -0.002 C  
HETATM   19  C   UNL     1     -10.699  11.174  70.022  1.00  0.00     0.158 C  
HETATM   20  O   UNL     1     -10.243   7.801  71.180  1.00  0.00    -0.195 OA 
ENDROOT
BRANCH   9  21
HETATM   21  C   UNL     1      -5.993   6.934  66.202  1.00  0.00    -0.035 C  
HETATM   22  H   UNL     1      -5.418   5.554  64.780  1.00  0.00     0.000 HD 
HETATM   23  O   UNL     1      -5.236   7.791  65.740  1.00  0.00    -0.027 OA 
HETATM   24  N   UNL     1      -5.915   5.676  65.663  1.00  0.00    -0.024 N  
BRANCH  24  25
HETATM   25  C   UNL     1      -6.499   4.526  66.282  1.00  0.00    -0.041 C  
BRANCH  25  26
HETATM   26  C   UNL     1      -7.973   4.441  66.451  1.00  0.00    -0.099 A  
HETATM   27  C   UNL     1      -9.879   4.650  67.944  1.00  0.00    -0.177 A  
HETATM   28  C   UNL     1     -10.704   4.803  66.838  1.00  0.00     0.240 A  
HETATM   29  C   UNL     1      -8.520   4.468  67.739  1.00  0.00    -0.102 A  
HETATM   30  F   UNL     1      -7.716   4.401  68.811  1.00  0.00    -0.064 F  
HETATM   31  F   UNL     1     -12.012   5.011  67.024  1.00  0.00     2.342 F  
HETATM   32  C   UNL     1     -10.195   4.776  65.545  1.00  0.00    -0.162 A  
HETATM   33  C   UNL     1      -8.829   4.599  65.362  1.00  0.00    -0.141 A  
HETATM   34  F   UNL     1      -8.327   4.667  64.122  1.00  0.00    -0.097 F  
ENDBRANCH  25  26
ENDBRANCH  24  25
ENDBRANCH   9  21
TORSDOF 3
ENDMDL
MODEL      216
REMARK 921   NORMALIZED FREE ENERGY PREDICTED BY IDOCK:    0.11 KCAL/MOL
REMARK 922        TOTAL FREE ENERGY PREDICTED BY IDOCK:   -0.61 KCAL/MOL
REMARK 923 INTER-LIGAND FREE ENERGY PREDICTED BY IDOCK:   -1.21 KCAL/MOL
REMARK 924 INTRA-LIGAND FREE ENERGY PREDICTED BY IDOCK:    0.60 KCAL/MOL
REMARK 927      BINDING AFFINITY PREDICTED BY RF-SCORE:    0.00 PKD
ROOT
HETATM    1  O   UNL     1     -13.510  13.436  70.066  1.00  0.00     0.718 OA 
HETATM    2  H   UNL     1     -14.082  13.173  70.778  1.00  0.00     0.000 HD 
HETATM    3  C   UNL     1     -12.304  12.866  69.701  1.00  0.00    -0.023 C  
HETATM    4  C   UNL     1     -11.490  13.242  68.687  1.00  0.00    -0.304 C  
HETATM    5  N   UNL     1     -10.266  12.584  68.448  1.00  0.00    -0.230 NA 
HETATM    6  C   UNL     1      -9.142  13.241  67.781  1.00  0.00    -0.202 C  
HETATM    7  C   UNL     1      -9.988  11.409  69.153  1.00  0.00     0.019 C  
HETATM    8  C   UNL     1      -9.540  14.369  66.834  1.00  0.00    -0.263 C  
HETATM    9  C   UNL     1     -10.666  10.957  70.224  1.00  0.00     0.193 C  
HETATM   10  C   UNL     1     -11.675  11.947  70.689  1.00  0.00     0.144 C  
HETATM   11  O   UNL     1      -8.202  15.345  66.751  1.00  0.00    -0.232 OA 
HETATM   12  C   UNL     1      -9.442  17.966  67.022  1.00  0.00    -0.272 C  
HETATM   13  C   UNL     1      -8.349  16.838  66.374  1.00  0.00    -0.309 C  
HETATM   14  N   UNL     1     -10.955  15.169  67.226  1.00  0.00    -0.321 N  
HETATM   15  O   UNL     1     -11.923  12.160  71.872  1.00  0.00     0.964 OA 
HETATM   16  C   UNL     1     -11.915  14.511  67.974  1.00  0.00    -0.270 C  
HETATM   17  C   UNL     1     -10.931  16.851  67.438  1.00  0.00    -0.073 C  
HETATM   18  C   UNL     1      -9.659  16.555  66.030  1.00  0.00    -0.323 C  
HETATM   19  C   UNL     1      -9.712  16.474  67.991  1.00  0.00    -0.236 C  
HETATM   20  O   UNL     1     -13.001  15.040  68.220  1.00  0.00     1.120 OA 
ENDROOT
BRANCH   9  21
HETATM   21  C   UNL     1     -10.199   9.665  70.838  1.00  0.00    -0.232 C  
HETATM   22  H   UNL     1      -9.133   7.917  70.580  1.00  0.00     0.000 HD 
HETATM   23  O   UNL     1     -10.245   9.509  72.060  1.00  0.00     0.130 OA 
HETATM   24  N   UNL     1      -9.663   8.642  70.097  1.00  0.00    -0.169 N  
BRANCH  24  25
HETATM   25  C   UNL     1      -9.815   8.547  68.678  1.00  0.00    -0.170 C  
BRANCH  25  26
HETATM   26  C   UNL     1      -8.872   7.717  67.884  1.00  0.00    -0.126 A  
HETATM   27  C   UNL     1      -7.097   6.057  67.894  1.00  0.00    -0.074 A  
HETATM   28  C   UNL     1      -7.394   5.759  66.572  1.00  0.00    -0.079 A  
HETATM   29  C   UNL     1      -7.838   7.037  68.537  1.00  0.00    -0.122 A  
HETATM   30  F   UNL     1      -7.600   7.265  69.838  1.00  0.00    -0.084 F  
HETATM   31  F   UNL     1      -6.707   4.794  65.950  1.00  0.00    -0.047 F  
HETATM   32  C   UNL     1      -8.411   6.419  65.891  1.00  0.00    -0.143 A  
HETATM   33  C   UNL     1      -9.145   7.393  66.556  1.00  0.00    -0.162 A  
HETATM   34  F   UNL     1     -10.184   7.962  65.931  1.00  0.00    -0.035 F  
ENDBRANCH  25  26
ENDBRANCH  24  25
ENDBRANCH   9  21
TORSDOF 3
ENDMDL
MODEL      217
REMARK 921   NORMALIZED FREE ENERGY PREDICTED BY IDOCK:    0.30 KCAL/MOL
REMARK 922        TOTAL FREE ENERGY PREDICTED BY IDOCK:   -0.39 KCAL/MOL
REMARK 923 INTER-LIGAND FREE ENERGY PREDICTED BY IDOCK:   -0.31 KCAL/MOL
REMARK 924 INTRA-LIGAND FREE ENERGY PREDICTED BY IDOCK:   -0.08 KCAL/MOL
REMARK 927      BINDING AFFINITY PREDICTED BY RF-SCORE:    0.00 PKD
ROOT
HETATM    1  O   UNL     1      -5.495  10.460  70.079  1.00  0.00    -0.041 OA 
HETATM    2  H   UNL     1      -5.391  10.571  71.017  1.00  0.00     0.000 HD 
HETATM    3  C   UNL     1      -5.767  11.439  69.140  1.00  0.00    -0.045 C  
HETATM    4  C   UNL     1      -5.916  11.280  67.805  1.00  0.00    -0.048 C  
HETATM    5  N   UNL     1      -6.223  12.370  66.966  1.00  0.00    -0.218 NA 
HETATM    6  C   UNL     1      -6.913  12.204  65.687  1.00  0.00     2.565 C  
HETATM    7  C   UNL     1      -6.186  13.660  67.505  1.00  0.00    -0.036 C  
HETATM    8  C   UNL     1      -6.713  10.840  65.034  1.00  0.00     0.190 C  
HETATM    9  C   UNL     1      -6.117  13.964  68.814  1.00  0.00    -0.086 C  
HETATM   10  C   UNL     1      -6.246  12.748  69.663  1.00  0.00    -0.120 C  
HETATM   11  O   UNL     1      -8.035  10.642  64.052  1.00  0.00    -0.051 OA 
HETATM   12  C   UNL     1      -8.759   7.893  64.684  1.00  0.00     0.240 C  
HETATM   13  C   UNL     1      -8.507   9.223  63.657  1.00  0.00    -0.195 C  
HETATM   14  N   UNL     1      -6.443   9.572  66.090  1.00  0.00    -0.068 N  
HETATM   15  O   UNL     1      -6.863  12.722  70.724  1.00  0.00     0.879 OA 
HETATM   16  C   UNL     1      -5.904   9.838  67.336  1.00  0.00    -0.050 C  
HETATM   17  C   UNL     1      -7.455   8.212  66.038  1.00  0.00    -0.080 C  
HETATM   18  C   UNL     1      -7.325   8.750  64.199  1.00  0.00    -0.101 C  
HETATM   19  C   UNL     1      -8.351   9.247  65.797  1.00  0.00    -0.128 C  
HETATM   20  O   UNL     1      -5.620   8.923  68.113  1.00  0.00    -0.038 OA 
ENDROOT
BRANCH   9  21
HETATM   21  C   UNL     1      -6.087  15.422  69.182  1.00  0.00    -0.108 C  
HETATM   22  H   UNL     1      -7.112  17.212  69.227  1.00  0.00     0.000 HD 
HETATM   23  O   UNL     1      -5.218  15.850  69.944  1.00  0.00    -0.111 OA 
HETATM   24  N   UNL     1      -7.030  16.317  68.745  1.00  0.00    -0.149 N  
BRANCH  24  25
HETATM   25  C   UNL     1      -7.905  16.051  67.645  1.00  0.00    -0.142 C  
BRANCH  25  26
HETATM   26  C   UNL     1      -8.829  17.108  67.159  1.00  0.00    -0.232 A  
HETATM   27  C   UNL     1     -10.842  18.410  67.557  1.00  0.00    -0.304 A  
HETATM   28  C   UNL     1     -10.382  19.362  66.659  1.00  0.00    -0.457 A  
HETATM   29  C   UNL     1     -10.062  17.289  67.796  1.00  0.00    -0.311 A  
HETATM   30  F   UNL     1     -10.473  16.412  68.724  1.00  0.00    -0.237 F  
HETATM   31  F   UNL     1     -11.111  20.463  66.443  1.00  0.00    -0.217 F  
HETATM   32  C   UNL     1      -9.165  19.211  66.004  1.00  0.00    -0.109 A  
HETATM   33  C   UNL     1      -8.395  18.083  66.263  1.00  0.00    -0.197 A  
HETATM   34  F   UNL     1      -7.182  17.984  65.704  1.00  0.00    -0.304 F  
ENDBRANCH  25  26
ENDBRANCH  24  25
ENDBRANCH   9  21
TORSDOF 3
ENDMDL
MODEL      218
REMARK 921   NORMALIZED FREE ENERGY PREDICTED BY IDOCK:    0.34 KCAL/MOL
REMARK 922        TOTAL FREE ENERGY PREDICTED BY IDOCK:   -0.35 KCAL/MOL
REMARK 923 INTER-LIGAND FREE ENERGY PREDICTED BY IDOCK:   -0.58 KCAL/MOL
REMARK 924 INTRA-LIGAND FREE ENERGY PREDICTED BY IDOCK:    0.23 KCAL/MOL
REMARK 927      BINDING AFFINITY PREDICTED BY RF-SCORE:    0.00 PKD
ROOT
HETATM    1  O   UNL     1     -10.707  17.105  69.933  1.00  0.00    -0.333 OA 
HETATM    2  H   UNL     1     -10.586  18.001  69.640  1.00  0.00     0.000 HD 
HETATM    3  C   UNL     1     -10.771  15.965  69.151  1.00  0.00    -0.259 C  
HETATM    4  C   UNL     1     -10.944  14.690  69.568  1.00  0.00    -0.245 C  
HETATM    5  N   UNL     1     -11.020  13.623  68.651  1.00  0.00    -0.258 NA 
HETATM    6  C   UNL     1     -11.725  12.377  68.956  1.00  0.00    -0.323 C  
HETATM    7  C   UNL     1     -10.722  13.871  67.308  1.00  0.00    -0.284 C  
HETATM    8  C   UNL     1     -11.805  12.044  70.442  1.00  0.00    -0.302 C  
HETATM    9  C   UNL     1     -10.597  15.086  66.743  1.00  0.00    -0.301 C  
HETATM   10  C   UNL     1     -10.974  16.171  67.691  1.00  0.00    -0.268 C  
HETATM   11  O   UNL     1     -13.135  11.065  70.586  1.00  0.00    -0.204 OA 
HETATM   12  C   UNL     1     -14.407  12.238  72.928  1.00  0.00     1.756 C  
HETATM   13  C   UNL     1     -13.886  10.962  71.934  1.00  0.00     0.333 C  
HETATM   14  N   UNL     1     -11.802  13.360  71.474  1.00  0.00     0.627 N  
HETATM   15  O   UNL     1     -11.587  17.181  67.359  1.00  0.00     0.433 OA 
HETATM   16  C   UNL     1     -11.224  14.544  71.052  1.00  0.00     0.158 C  
HETATM   17  C   UNL     1     -13.070  13.553  72.583  1.00  0.00    -0.399 C  
HETATM   18  C   UNL     1     -12.827  11.650  72.501  1.00  0.00     1.081 C  
HETATM   19  C   UNL     1     -13.736  13.051  71.470  1.00  0.00     0.126 C  
HETATM   20  O   UNL     1     -11.136  15.513  71.810  1.00  0.00    -0.346 OA 
ENDROOT
BRANCH   9  21
HETATM   21  C   UNL     1     -10.271  15.133  65.275  1.00  0.00    -0.368 C  
HETATM   22  H   UNL     1     -10.514  14.252  63.424  1.00  0.00     0.000 HD 
HETATM   23  O   UNL     1      -9.820  16.164  64.774  1.00  0.00    -0.002 OA 
HETATM   24  N   UNL     1     -10.505  14.078  64.429  1.00  0.00    -0.263 N  
BRANCH  24  25
HETATM   25  C   UNL     1     -10.736  12.745  64.894  1.00  0.00    -0.305 C  
BRANCH  25  26
HETATM   26  C   UNL     1      -9.787  11.659  64.537  1.00  0.00    -0.254 A  
HETATM   27  C   UNL     1      -9.011  10.088  62.853  1.00  0.00    -0.270 A  
HETATM   28  C   UNL     1      -7.808   9.979  63.535  1.00  0.00    -0.156 A  
HETATM   29  C   UNL     1      -9.992  10.926  63.362  1.00  0.00    -0.361 A  
HETATM   30  F   UNL     1     -11.121  11.089  62.657  1.00  0.00     0.072 F  
HETATM   31  F   UNL     1      -6.843   9.198  63.036  1.00  0.00    -0.094 F  
HETATM   32  C   UNL     1      -7.574  10.688  64.707  1.00  0.00     0.115 A  
HETATM   33  C   UNL     1      -8.567  11.528  65.198  1.00  0.00     0.389 A  
HETATM   34  F   UNL     1      -8.306  12.282  66.273  1.00  0.00    -0.077 F  
ENDBRANCH  25  26
ENDBRANCH  24  25
ENDBRANCH   9  21
TORSDOF 3
ENDMDL
MODEL      219
REMARK 921   NORMALIZED FREE ENERGY PREDICTED BY IDOCK:    0.49 KCAL/MOL
REMARK 922        TOTAL FREE ENERGY PREDICTED BY IDOCK:   -0.17 KCAL/MOL
REMARK 923 INTER-LIGAND FREE ENERGY PREDICTED BY IDOCK:   -2.68 KCAL/MOL
REMARK 924 INTRA-LIGAND FREE ENERGY PREDICTED BY IDOCK:    2.51 KCAL/MOL
REMARK 927      BINDING AFFINITY PREDICTED BY RF-SCORE:    0.00 PKD
ROOT
HETATM    1  O   UNL     1      -7.121   4.035  62.811  1.00  0.00    -0.038 OA 
HETATM    2  H   UNL     1      -6.842   4.050  61.902  1.00  0.00     0.000 HD 
HETATM    3  C   UNL     1      -7.130   5.090  63.706  1.00  0.00    -0.049 C  
HETATM    4  C   UNL     1      -7.528   5.068  64.999  1.00  0.00    -0.076 C  
HETATM    5  N   UNL     1      -7.452   6.219  65.808  1.00  0.00    -0.080 NA 
HETATM    6  C   UNL     1      -7.333   6.146  67.265  1.00  0.00    -0.077 C  
HETATM    7  C   UNL     1      -7.139   7.442  65.206  1.00  0.00    -0.064 C  
HETATM    8  C   UNL     1      -7.916   4.879  67.883  1.00  0.00    -0.093 C  
HETATM    9  C   UNL     1      -6.663   7.604  63.958  1.00  0.00    -0.053 C  
HETATM   10  C   UNL     1      -6.347   6.296  63.320  1.00  0.00    -0.029 C  
HETATM   11  O   UNL     1      -7.108   4.698  69.319  1.00  0.00    -0.050 OA 
HETATM   12  C   UNL     1      -6.497   1.852  69.228  1.00  0.00    -0.029 C  
HETATM   13  C   UNL     1      -6.982   3.301  69.972  1.00  0.00    -0.034 C  
HETATM   14  N   UNL     1      -7.893   3.525  66.902  1.00  0.00    -0.080 N  
HETATM   15  O   UNL     1      -5.374   6.111  62.595  1.00  0.00    -0.020 OA 
HETATM   16  C   UNL     1      -7.876   3.690  65.528  1.00  0.00    -0.089 C  
HETATM   17  C   UNL     1      -7.133   2.112  67.449  1.00  0.00    -0.047 C  
HETATM   18  C   UNL     1      -7.905   2.855  69.043  1.00  0.00    -0.051 C  
HETATM   19  C   UNL     1      -6.294   3.101  67.949  1.00  0.00    -0.033 C  
HETATM   20  O   UNL     1      -7.933   2.718  64.772  1.00  0.00    -0.080 OA 
ENDROOT
BRANCH   9  21
HETATM   21  C   UNL     1      -6.391   9.012  63.503  1.00  0.00    -0.089 C  
HETATM   22  H   UNL     1      -5.450  10.804  63.904  1.00  0.00     0.000 HD 
HETATM   23  O   UNL     1      -6.607   9.336  62.333  1.00  0.00    -0.094 OA 
HETATM   24  N   UNL     1      -5.850   9.966  64.326  1.00  0.00    -0.104 N  
BRANCH  24  25
HETATM   25  C   UNL     1      -5.824   9.841  65.751  1.00  0.00    -0.061 C  
BRANCH  25  26
HETATM   26  C   UNL     1      -6.896  10.461  66.572  1.00  0.00    -0.107 A  
HETATM   27  C   UNL     1      -7.716  12.445  67.710  1.00  0.00    -0.139 A  
HETATM   28  C   UNL     1      -8.996  11.911  67.679  1.00  0.00    -0.169 A  
HETATM   29  C   UNL     1      -6.676  11.712  67.157  1.00  0.00    -0.142 A  
HETATM   30  F   UNL     1      -5.455  12.267  67.118  1.00  0.00    -0.105 F  
HETATM   31  F   UNL     1     -10.012  12.622  68.181  1.00  0.00    -0.198 F  
HETATM   32  C   UNL     1      -9.249  10.668  67.111  1.00  0.00    -0.161 A  
HETATM   33  C   UNL     1      -8.194   9.953  66.557  1.00  0.00    -0.121 A  
HETATM   34  F   UNL     1      -8.453   8.800  65.926  1.00  0.00    -0.116 F  
ENDBRANCH  25  26
ENDBRANCH  24  25
ENDBRANCH   9  21
TORSDOF 3
ENDMDL
MODEL      220
REMARK 921   NORMALIZED FREE ENERGY PREDICTED BY IDOCK:    0.53 KCAL/MOL
REMARK 922        TOTAL FREE ENERGY PREDICTED BY IDOCK:   -0.12 KCAL/MOL
REMARK 923 INTER-LIGAND FREE ENERGY PREDICTED BY IDOCK:   -1.49 KCAL/MOL
REMARK 924 INTRA-LIGAND FREE ENERGY PREDICTED BY IDOCK:    1.37 KCAL/MOL
REMARK 927      BINDING AFFINITY PREDICTED BY RF-SCORE:    0.00 PKD
ROOT
HETATM    1  O   UNL     1      -5.551  10.677  69.397  1.00  0.00    -0.038 OA 
HETATM    2  H   UNL     1      -4.937  11.216  69.883  1.00  0.00     0.000 HD 
HETATM    3  C   UNL     1      -6.488  11.096  68.470  1.00  0.00    -0.058 C  
HETATM    4  C   UNL     1      -7.362  10.329  67.779  1.00  0.00    -0.087 C  
HETATM    5  N   UNL     1      -8.289  10.898  66.883  1.00  0.00    -0.129 NA 
HETATM    6  C   UNL     1      -9.556  10.249  66.549  1.00  0.00    -0.181 C  
HETATM    7  C   UNL     1      -8.169  12.256  66.568  1.00  0.00     0.116 C  
HETATM    8  C   UNL     1      -9.543   8.730  66.687  1.00  0.00    -0.283 C  
HETATM    9  C   UNL     1      -7.398  13.147  67.218  1.00  0.00    -0.057 C  
HETATM   10  C   UNL     1      -6.788  12.554  68.440  1.00  0.00    -0.085 C  
HETATM   11  O   UNL     1     -11.130   8.312  66.929  1.00  0.00     0.075 OA 
HETATM   12  C   UNL     1     -10.849   6.412  69.118  1.00  0.00    -0.382 C  
HETATM   13  C   UNL     1     -11.487   6.993  67.654  1.00  0.00     0.425 C  
HETATM   14  N   UNL     1      -8.487   8.123  67.832  1.00  0.00    -0.131 N  
HETATM   15  O   UNL     1      -6.649  13.165  69.495  1.00  0.00    -0.104 OA 
HETATM   16  C   UNL     1      -7.376   8.867  68.184  1.00  0.00    -0.084 C  
HETATM   17  C   UNL     1      -9.080   7.119  69.064  1.00  0.00    -0.132 C  
HETATM   18  C   UNL     1     -10.152   6.647  67.542  1.00  0.00    -0.202 C  
HETATM   19  C   UNL     1     -10.111   8.041  68.924  1.00  0.00    -0.209 C  
HETATM   20  O   UNL     1      -6.535   8.421  68.969  1.00  0.00    -0.046 OA 
ENDROOT
BRANCH   9  21
HETATM   21  C   UNL     1      -7.413  14.566  66.716  1.00  0.00     0.761 C  
HETATM   22  H   UNL     1      -8.558  16.152  66.060  1.00  0.00     0.000 HD 
HETATM   23  O   UNL     1      -6.422  15.283  66.860  1.00  0.00    -0.153 OA 
HETATM   24  N   UNL     1      -8.518  15.136  66.137  1.00  0.00     0.136 N  
BRANCH  24  25
HETATM   25  C   UNL     1      -9.618  14.369  65.637  1.00  0.00    -0.131 C  
BRANCH  25  26
HETATM   26  C   UNL     1     -10.686  13.910  66.563  1.00  0.00    -0.277 A  
HETATM   27  C   UNL     1     -12.245  12.151  67.179  1.00  0.00     0.336 A  
HETATM   28  C   UNL     1     -12.328  12.697  68.452  1.00  0.00     0.355 A  
HETATM   29  C   UNL     1     -11.425  12.766  66.245  1.00  0.00    -0.354 A  
HETATM   30  F   UNL     1     -11.287  12.189  65.041  1.00  0.00    -0.339 F  
HETATM   31  F   UNL     1     -13.091  12.096  69.372  1.00  0.00     0.593 F  
HETATM   32  C   UNL     1     -11.611  13.836  68.800  1.00  0.00    -0.363 A  
HETATM   33  C   UNL     1     -10.791  14.433  67.850  1.00  0.00    -0.251 A  
HETATM   34  F   UNL     1     -10.029  15.473  68.213  1.00  0.00    -0.207 F  
ENDBRANCH  25  26
ENDBRANCH  24  25
ENDBRANCH   9  21
TORSDOF 3
ENDMDL
MODEL      221
REMARK 921   NORMALIZED FREE ENERGY PREDICTED BY IDOCK:    0.62 KCAL/MOL
REMARK 922        TOTAL FREE ENERGY PREDICTED BY IDOCK:   -0.01 KCAL/MOL
REMARK 923 INTER-LIGAND FREE ENERGY PREDICTED BY IDOCK:   -1.39 KCAL/MOL
REMARK 924 INTRA-LIGAND FREE ENERGY PREDICTED BY IDOCK:    1.38 KCAL/MOL
REMARK 927      BINDING AFFINITY PREDICTED BY RF-SCORE:    0.00 PKD
ROOT
HETATM    1  O   UNL     1     -10.359  19.945  70.814  1.00  0.00    -0.304 OA 
HETATM    2  H   UNL     1     -10.221  20.869  70.638  1.00  0.00     0.000 HD 
HETATM    3  C   UNL     1     -10.149  18.884  69.951  1.00  0.00     0.774 C  
HETATM    4  C   UNL     1     -10.345  17.569  70.202  1.00  0.00     0.851 C  
HETATM    5  N   UNL     1     -10.118  16.592  69.213  1.00  0.00    -0.276 NA 
HETATM    6  C   UNL     1     -10.800  15.297  69.218  1.00  0.00    -0.257 C  
HETATM    7  C   UNL     1      -9.501  16.978  68.019  1.00  0.00    -0.256 C  
HETATM    8  C   UNL     1     -11.239  14.821  70.599  1.00  0.00    -0.173 C  
HETATM    9  C   UNL     1      -9.309  18.246  67.609  1.00  0.00    -0.271 C  
HETATM   10  C   UNL     1      -9.983  19.219  68.510  1.00  0.00    -0.433 C  
HETATM   11  O   UNL     1     -12.499  13.783  70.309  1.00  0.00    -0.326 OA 
HETATM   12  C   UNL     1     -14.399  14.679  72.326  1.00  0.00    -0.503 C  
HETATM   13  C   UNL     1     -13.563  13.524  71.402  1.00  0.00    -0.092 C  
HETATM   14  N   UNL     1     -11.582  16.032  71.701  1.00  0.00    -0.465 N  
HETATM   15  O   UNL     1     -10.551  20.233  68.114  1.00  0.00    -0.253 OA 
HETATM   16  C   UNL     1     -10.988  17.272  71.543  1.00  0.00     1.676 C  
HETATM   17  C   UNL     1     -13.101  16.070  72.452  1.00  0.00    -0.399 C  
HETATM   18  C   UNL     1     -12.730  14.194  72.280  1.00  0.00    -0.362 C  
HETATM   19  C   UNL     1     -13.427  15.652  71.167  1.00  0.00    -0.373 C  
HETATM   20  O   UNL     1     -11.158  18.166  72.375  1.00  0.00     1.577 OA 
ENDROOT
BRANCH   9  21
HETATM   21  C   UNL     1      -8.621  18.444  66.285  1.00  0.00    -0.194 C  
HETATM   22  H   UNL     1      -7.363  17.646  64.857  1.00  0.00     0.000 HD 
HETATM   23  O   UNL     1      -8.996  19.335  65.521  1.00  0.00    -0.161 OA 
HETATM   24  N   UNL     1      -7.606  17.632  65.848  1.00  0.00    -0.209 N  
BRANCH  24  25
HETATM   25  C   UNL     1      -6.872  16.766  66.718  1.00  0.00    -0.230 C  
BRANCH  25  26
HETATM   26  C   UNL     1      -7.288  15.349  66.880  1.00  0.00     0.016 A  
HETATM   27  C   UNL     1      -7.171  13.318  68.211  1.00  0.00    -0.108 A  
HETATM   28  C   UNL     1      -8.335  12.873  67.599  1.00  0.00    -0.176 A  
HETATM   29  C   UNL     1      -6.657  14.553  67.843  1.00  0.00    -0.166 A  
HETATM   30  F   UNL     1      -5.578  15.014  68.493  1.00  0.00    -0.083 F  
HETATM   31  F   UNL     1      -8.858  11.699  67.969  1.00  0.00    -0.137 F  
HETATM   32  C   UNL     1      -8.984  13.636  66.635  1.00  0.00    -0.138 A  
HETATM   33  C   UNL     1      -8.456  14.873  66.285  1.00  0.00     0.308 A  
HETATM   34  F   UNL     1      -9.131  15.647  65.427  1.00  0.00    -0.248 F  
ENDBRANCH  25  26
ENDBRANCH  24  25
ENDBRANCH   9  21
TORSDOF 3
ENDMDL
MODEL      222
REMARK 921   NORMALIZED FREE ENERGY PREDICTED BY IDOCK:    1.72 KCAL/MOL
REMARK 922        TOTAL FREE ENERGY PREDICTED BY IDOCK:    1.28 KCAL/MOL
REMARK 923 INTER-LIGAND FREE ENERGY PREDICTED BY IDOCK:    0.18 KCAL/MOL
REMARK 924 INTRA-LIGAND FREE ENERGY PREDICTED BY IDOCK:    1.11 KCAL/MOL
REMARK 927      BINDING AFFINITY PREDICTED BY RF-SCORE:    0.00 PKD
ROOT
HETATM    1  O   UNL     1     -12.447  12.850  70.200  1.00  0.00    -0.199 OA 
HETATM    2  H   UNL     1     -12.610  13.636  69.691  1.00  0.00     0.000 HD 
HETATM    3  C   UNL     1     -11.315  12.055  70.181  1.00  0.00     0.144 C  
HETATM    4  C   UNL     1     -11.083  10.937  70.906  1.00  0.00     0.713 C  
HETATM    5  N   UNL     1      -9.888  10.204  70.761  1.00  0.00     0.332 NA 
HETATM    6  C   UNL     1      -9.804   8.775  71.064  1.00  0.00    -0.230 C  
HETATM    7  C   UNL     1      -8.855  10.752  69.995  1.00  0.00     0.906 C  
HETATM    8  C   UNL     1     -10.815   8.288  72.097  1.00  0.00    -0.390 C  
HETATM    9  C   UNL     1      -8.964  11.813  69.173  1.00  0.00     0.405 C  
HETATM   10  C   UNL     1     -10.378  12.258  69.042  1.00  0.00     0.038 C  
HETATM   11  O   UNL     1     -10.997   6.670  71.782  1.00  0.00    -0.228 OA 
HETATM   12  C   UNL     1     -13.895   6.425  71.919  1.00  0.00     0.265 C  
HETATM   13  C   UNL     1     -12.292   5.935  72.199  1.00  0.00     0.140 C  
HETATM   14  N   UNL     1     -12.250   9.144  72.155  1.00  0.00    -0.360 N  
HETATM   15  O   UNL     1     -10.871  12.655  67.990  1.00  0.00    -0.212 OA 
HETATM   16  C   UNL     1     -12.267  10.459  71.725  1.00  0.00    -0.126 C  
HETATM   17  C   UNL     1     -13.721   8.323  71.961  1.00  0.00    -0.381 C  
HETATM   18  C   UNL     1     -12.626   7.069  72.919  1.00  0.00     0.949 C  
HETATM   19  C   UNL     1     -12.896   7.653  71.064  1.00  0.00    -0.132 C  
HETATM   20  O   UNL     1     -13.286  11.146  71.822  1.00  0.00    -0.384 OA 
ENDROOT
BRANCH   9  21
HETATM   21  C   UNL     1      -7.724  12.243  68.437  1.00  0.00    -0.141 C  
HETATM   22  H   UNL     1      -6.518  11.975  66.784  1.00  0.00     0.000 HD 
HETATM   23  O   UNL     1      -7.178  13.312  68.717  1.00  0.00    -0.102 OA 
HETATM   24  N   UNL     1      -7.184  11.516  67.406  1.00  0.00    -0.111 N  
BRANCH  24  25
HETATM   25  C   UNL     1      -7.512  10.145  67.165  1.00  0.00    -0.091 C  
BRANCH  25  26
HETATM   26  C   UNL     1      -7.127   9.104  68.154  1.00  0.00    -0.078 A  
HETATM   27  C   UNL     1      -5.898   8.555  70.177  1.00  0.00    -0.027 A  
HETATM   28  C   UNL     1      -6.702   7.436  70.339  1.00  0.00    -0.047 A  
HETATM   29  C   UNL     1      -6.117   9.378  69.082  1.00  0.00    -0.041 A  
HETATM   30  F   UNL     1      -5.391  10.501  68.973  1.00  0.00    -0.042 F  
HETATM   31  F   UNL     1      -6.521   6.652  71.408  1.00  0.00    -0.042 F  
HETATM   32  C   UNL     1      -7.711   7.131  69.433  1.00  0.00    -0.107 A  
HETATM   33  C   UNL     1      -7.918   7.973  68.346  1.00  0.00    -0.120 A  
HETATM   34  F   UNL     1      -8.949   7.731  67.526  1.00  0.00    -0.122 F  
ENDBRANCH  25  26
ENDBRANCH  24  25
ENDBRANCH   9  21
TORSDOF 3
ENDMDL
MODEL      223
REMARK 921   NORMALIZED FREE ENERGY PREDICTED BY IDOCK:    1.84 KCAL/MOL
REMARK 922        TOTAL FREE ENERGY PREDICTED BY IDOCK:    1.42 KCAL/MOL
REMARK 923 INTER-LIGAND FREE ENERGY PREDICTED BY IDOCK:   -0.64 KCAL/MOL
REMARK 924 INTRA-LIGAND FREE ENERGY PREDICTED BY IDOCK:    2.06 KCAL/MOL
REMARK 927      BINDING AFFINITY PREDICTED BY RF-SCORE:    0.00 PKD
ROOT
HETATM    1  O   UNL     1     -10.541   9.331  68.749  1.00  0.00    -0.217 OA 
HETATM    2  H   UNL     1     -10.530   8.752  69.503  1.00  0.00     0.000 HD 
HETATM    3  C   UNL     1      -9.579  10.256  68.385  1.00  0.00    -0.149 C  
HETATM    4  C   UNL     1      -9.595  11.080  67.312  1.00  0.00    -0.165 C  
HETATM    5  N   UNL     1      -8.554  12.001  67.080  1.00  0.00    -0.181 NA 
HETATM    6  C   UNL     1      -8.753  13.233  66.317  1.00  0.00     0.367 C  
HETATM    7  C   UNL     1      -7.402  11.922  67.869  1.00  0.00    -0.104 C  
HETATM    8  C   UNL     1      -9.885  13.167  65.296  1.00  0.00    -0.096 C  
HETATM    9  C   UNL     1      -7.272  11.205  69.000  1.00  0.00    -0.118 C  
HETATM   10  C   UNL     1      -8.570  10.609  69.421  1.00  0.00    -0.030 C  
HETATM   11  O   UNL     1     -10.352  14.744  65.079  1.00  0.00    -0.400 OA 
HETATM   12  C   UNL     1     -13.248  14.456  65.180  1.00  0.00     0.331 C  
HETATM   13  C   UNL     1     -11.780  15.072  64.584  1.00  0.00    -0.382 C  
HETATM   14  N   UNL     1     -11.134  12.123  65.676  1.00  0.00    -0.306 N  
HETATM   15  O   UNL     1      -8.930  10.523  70.591  1.00  0.00     0.838 OA 
HETATM   16  C   UNL     1     -10.884  11.051  66.513  1.00  0.00    -0.209 C  
HETATM   17  C   UNL     1     -12.722  12.714  65.746  1.00  0.00     0.297 C  
HETATM   18  C   UNL     1     -11.928  13.723  64.318  1.00  0.00    -0.481 C  
HETATM   19  C   UNL     1     -11.998  13.774  66.279  1.00  0.00    -0.462 C  
HETATM   20  O   UNL     1     -11.760  10.218  66.757  1.00  0.00     0.437 OA 
ENDROOT
BRANCH   9  21
HETATM   21  C   UNL     1      -5.941  11.258  69.700  1.00  0.00    -0.090 C  
HETATM   22  H   UNL     1      -4.385  12.442  70.362  1.00  0.00     0.000 HD 
HETATM   23  O   UNL     1      -5.558  10.301  70.375  1.00  0.00    -0.052 OA 
HETATM   24  N   UNL     1      -5.131  12.365  69.670  1.00  0.00    -0.071 N  
BRANCH  24  25
HETATM   25  C   UNL     1      -5.285  13.417  68.713  1.00  0.00    -0.072 C  
BRANCH  25  26
HETATM   26  C   UNL     1      -6.363  14.425  68.883  1.00  0.00    -0.091 A  
HETATM   27  C   UNL     1      -7.961  15.915  67.819  1.00  0.00    -0.154 A  
HETATM   28  C   UNL     1      -8.693  15.941  68.998  1.00  0.00    -0.236 A  
HETATM   29  C   UNL     1      -6.800  15.158  67.775  1.00  0.00    -0.170 A  
HETATM   30  F   UNL     1      -6.138  15.073  66.610  1.00  0.00     0.682 F  
HETATM   31  F   UNL     1      -9.832  16.642  69.043  1.00  0.00    -0.233 F  
HETATM   32  C   UNL     1      -8.286  15.228  70.119  1.00  0.00     0.546 A  
HETATM   33  C   UNL     1      -7.123  14.471  70.051  1.00  0.00     0.047 A  
HETATM   34  F   UNL     1      -6.781  13.711  71.100  1.00  0.00     0.283 F  
ENDBRANCH  25  26
ENDBRANCH  24  25
ENDBRANCH   9  21
TORSDOF 3
ENDMDL
MODEL      224
REMARK 921   NORMALIZED FREE ENERGY PREDICTED BY IDOCK:    2.25 KCAL/MOL
REMARK 922        TOTAL FREE ENERGY PREDICTED BY IDOCK:    1.90 KCAL/MOL
REMARK 923 INTER-LIGAND FREE ENERGY PREDICTED BY IDOCK:    0.79 KCAL/MOL
REMARK 924 INTRA-LIGAND FREE ENERGY PREDICTED BY IDOCK:    1.10 KCAL/MOL
REMARK 927      BINDING AFFINITY PREDICTED BY RF-SCORE:    0.00 PKD
ROOT
HETATM    1  O   UNL     1     -11.611  19.073  66.897  1.00  0.00     0.571 OA 
HETATM    2  H   UNL     1     -12.537  18.910  66.762  1.00  0.00     0.000 HD 
HETATM    3  C   UNL     1     -10.565  18.186  66.714  1.00  0.00    -0.291 C  
HETATM    4  C   UNL     1      -9.246  18.419  66.906  1.00  0.00    -0.287 C  
HETATM    5  N   UNL     1      -8.286  17.406  66.709  1.00  0.00    -0.234 NA 
HETATM    6  C   UNL     1      -6.993  17.408  67.393  1.00  0.00    -0.164 C  
HETATM    7  C   UNL     1      -8.693  16.203  66.124  1.00  0.00    -0.323 C  
HETATM    8  C   UNL     1      -6.493  18.792  67.794  1.00  0.00    -0.217 C  
HETATM    9  C   UNL     1      -9.967  15.810  65.941  1.00  0.00    -0.380 C  
HETATM   10  C   UNL     1     -10.926  16.748  66.587  1.00  0.00     0.133 C  
HETATM   11  O   UNL     1      -5.463  18.519  69.064  1.00  0.00    -0.193 OA 
HETATM   12  C   UNL     1      -6.326  20.604  70.905  1.00  0.00     0.377 C  
HETATM   13  C   UNL     1      -5.186  19.636  70.098  1.00  0.00    -0.202 C  
HETATM   14  N   UNL     1      -7.684  19.924  68.103  1.00  0.00    -0.299 N  
HETATM   15  O   UNL     1     -11.947  16.386  67.164  1.00  0.00     0.845 OA 
HETATM   16  C   UNL     1      -8.926  19.772  67.512  1.00  0.00    -0.326 C  
HETATM   17  C   UNL     1      -7.712  20.719  69.601  1.00  0.00     1.808 C  
HETATM   18  C   UNL     1      -5.839  20.503  69.239  1.00  0.00    -0.398 C  
HETATM   19  C   UNL     1      -7.318  19.435  69.963  1.00  0.00     0.335 C  
HETATM   20  O   UNL     1      -9.806  20.624  67.655  1.00  0.00    -0.413 OA 
ENDROOT
BRANCH   9  21
HETATM   21  C   UNL     1     -10.188  14.472  65.290  1.00  0.00    -0.402 C  
HETATM   22  H   UNL     1     -11.523  12.956  64.869  1.00  0.00     0.000 HD 
HETATM   23  O   UNL     1      -9.372  14.039  64.474  1.00  0.00     0.811 OA 
HETATM   24  N   UNL     1     -11.304  13.709  65.521  1.00  0.00    -0.296 N  
BRANCH  24  25
HETATM   25  C   UNL     1     -12.174  13.921  66.637  1.00  0.00    -0.424 C  
BRANCH  25  26
HETATM   26  C   UNL     1     -12.013  13.108  67.870  1.00  0.00    -0.347 A  
HETATM   27  C   UNL     1     -11.767  10.897  68.849  1.00  0.00    -0.376 A  
HETATM   28  C   UNL     1     -11.233  11.482  69.988  1.00  0.00    -0.026 A  
HETATM   29  C   UNL     1     -12.155  11.718  67.800  1.00  0.00     0.138 A  
HETATM   30  F   UNL     1     -12.597  11.144  66.671  1.00  0.00     1.469 F  
HETATM   31  F   UNL     1     -10.825  10.699  70.994  1.00  0.00    -0.146 F  
HETATM   32  C   UNL     1     -11.082  12.860  70.093  1.00  0.00     0.583 A  
HETATM   33  C   UNL     1     -11.472  13.664  69.028  1.00  0.00    -0.301 A  
HETATM   34  F   UNL     1     -11.240  14.981  69.092  1.00  0.00    -0.234 F  
ENDBRANCH  25  26
ENDBRANCH  24  25
ENDBRANCH   9  21
TORSDOF 3
ENDMDL
MODEL      225
REMARK 921   NORMALIZED FREE ENERGY PREDICTED BY IDOCK:    2.26 KCAL/MOL
REMARK 922        TOTAL FREE ENERGY PREDICTED BY IDOCK:    1.91 KCAL/MOL
REMARK 923 INTER-LIGAND FREE ENERGY PREDICTED BY IDOCK:    1.36 KCAL/MOL
REMARK 924 INTRA-LIGAND FREE ENERGY PREDICTED BY IDOCK:    0.55 KCAL/MOL
REMARK 927      BINDING AFFINITY PREDICTED BY RF-SCORE:    0.00 PKD
ROOT
HETATM    1  O   UNL     1      -7.895  12.166  65.488  1.00  0.00     0.628 OA 
HETATM    2  H   UNL     1      -7.508  12.902  65.026  1.00  0.00     0.000 HD 
HETATM    3  C   UNL     1      -7.832  11.897  66.843  1.00  0.00    -0.120 C  
HETATM    4  C   UNL     1      -8.383  10.850  67.500  1.00  0.00    -0.117 C  
HETATM    5  N   UNL     1      -8.212  10.684  68.889  1.00  0.00    -0.137 NA 
HETATM    6  C   UNL     1      -8.287   9.374  69.536  1.00  0.00    -0.127 C  
HETATM    7  C   UNL     1      -7.624  11.721  69.620  1.00  0.00     0.614 C  
HETATM    8  C   UNL     1      -9.148   8.353  68.799  1.00  0.00    -0.143 C  
HETATM    9  C   UNL     1      -6.979  12.781  69.100  1.00  0.00    -0.015 C  
HETATM   10  C   UNL     1      -6.815  12.651  67.626  1.00  0.00    -0.144 C  
HETATM   11  O   UNL     1      -8.564   6.878  69.281  1.00  0.00    -0.131 OA 
HETATM   12  C   UNL     1      -8.440   5.494  66.722  1.00  0.00    -0.111 C  
HETATM   13  C   UNL     1      -8.758   5.632  68.386  1.00  0.00    -0.109 C  
HETATM   14  N   UNL     1      -9.236   8.552  67.141  1.00  0.00    -0.139 N  
HETATM   15  O   UNL     1      -5.806  13.002  67.020  1.00  0.00    -0.281 OA 
HETATM   16  C   UNL     1      -9.023   9.808  66.602  1.00  0.00    -0.142 C  
HETATM   17  C   UNL     1      -8.801   7.268  66.123  1.00  0.00    -0.181 C  
HETATM   18  C   UNL     1      -9.624   6.396  67.623  1.00  0.00    -0.126 C  
HETATM   19  C   UNL     1      -7.872   7.147  67.151  1.00  0.00    -0.110 C  
HETATM   20  O   UNL     1      -9.152  10.010  65.392  1.00  0.00    -0.167 OA 
ENDROOT
BRANCH   9  21
HETATM   21  C   UNL     1      -6.417  13.787  70.067  1.00  0.00    -0.027 C  
HETATM   22  H   UNL     1      -6.732  14.904  71.773  1.00  0.00     0.000 HD 
HETATM   23  O   UNL     1      -5.206  14.014  70.089  1.00  0.00    -0.090 OA 
HETATM   24  N   UNL     1      -7.192  14.445  70.987  1.00  0.00     1.197 N  
BRANCH  24  25
HETATM   25  C   UNL     1      -8.618  14.518  70.894  1.00  0.00     3.236 C  
BRANCH  25  26
HETATM   26  C   UNL     1      -9.256  15.581  70.075  1.00  0.00     0.227 A  
HETATM   27  C   UNL     1      -9.123  17.017  68.119  1.00  0.00    -0.237 A  
HETATM   28  C   UNL     1     -10.498  17.194  68.180  1.00  0.00    -0.366 A  
HETATM   29  C   UNL     1      -8.514  16.213  69.071  1.00  0.00    -0.251 A  
HETATM   30  F   UNL     1      -7.198  15.980  68.962  1.00  0.00    -0.136 F  
HETATM   31  F   UNL     1     -11.101  17.942  67.248  1.00  0.00    -0.291 F  
HETATM   32  C   UNL     1     -11.264  16.586  69.167  1.00  0.00    -0.221 A  
HETATM   33  C   UNL     1     -10.635  15.779  70.107  1.00  0.00    -0.324 A  
HETATM   34  F   UNL     1     -11.384  15.119  71.000  1.00  0.00    -0.301 F  
ENDBRANCH  25  26
ENDBRANCH  24  25
ENDBRANCH   9  21
TORSDOF 3
ENDMDL
MODEL      226
REMARK 921   NORMALIZED FREE ENERGY PREDICTED BY IDOCK:    4.05 KCAL/MOL
REMARK 922        TOTAL FREE ENERGY PREDICTED BY IDOCK:    4.02 KCAL/MOL
REMARK 923 INTER-LIGAND FREE ENERGY PREDICTED BY IDOCK:    2.31 KCAL/MOL
REMARK 924 INTRA-LIGAND FREE ENERGY PREDICTED BY IDOCK:    1.71 KCAL/MOL
REMARK 927      BINDING AFFINITY PREDICTED BY RF-SCORE:    0.00 PKD
ROOT
HETATM    1  O   UNL     1     -12.643  12.500  69.874  1.00  0.00     0.019 OA 
HETATM    2  H   UNL     1     -13.518  12.862  69.787  1.00  0.00     0.000 HD 
HETATM    3  C   UNL     1     -11.443  13.122  69.580  1.00  0.00    -0.226 C  
HETATM    4  C   UNL     1     -10.198  12.606  69.704  1.00  0.00     1.092 C  
HETATM    5  N   UNL     1      -9.058  13.347  69.334  1.00  0.00     0.850 NA 
HETATM    6  C   UNL     1      -7.806  12.709  68.928  1.00  0.00     0.137 C  
HETATM    7  C   UNL     1      -9.212  14.700  69.016  1.00  0.00    -0.108 C  
HETATM    8  C   UNL     1      -7.590  11.315  69.510  1.00  0.00     0.126 C  
HETATM    9  C   UNL     1     -10.383  15.325  68.792  1.00  0.00    -0.232 C  
HETATM   10  C   UNL     1     -11.519  14.364  68.762  1.00  0.00    -0.289 C  
HETATM   11  O   UNL     1      -6.557  10.568  68.450  1.00  0.00    -0.055 OA 
HETATM   12  C   UNL     1      -7.848   7.970  68.195  1.00  0.00    -0.126 C  
HETATM   13  C   UNL     1      -6.525   9.025  68.350  1.00  0.00    -0.055 C  
HETATM   14  N   UNL     1      -8.983  10.452  69.841  1.00  0.00     0.037 N  
HETATM   15  O   UNL     1     -12.466  14.453  67.986  1.00  0.00    -0.084 OA 
HETATM   16  C   UNL     1     -10.158  11.140  70.088  1.00  0.00     1.151 C  
HETATM   17  C   UNL     1      -9.198   8.919  69.150  1.00  0.00    -0.144 C  
HETATM   18  C   UNL     1      -7.310   9.000  69.489  1.00  0.00    -0.071 C  
HETATM   19  C   UNL     1      -8.575   9.614  68.120  1.00  0.00    -0.119 C  
HETATM   20  O   UNL     1     -11.188  10.542  70.409  1.00  0.00    -0.304 OA 
ENDROOT
BRANCH   9  21
HETATM   21  C   UNL     1     -10.327  16.792  68.461  1.00  0.00    -0.316 C  
HETATM   22  H   UNL     1      -9.797  18.232  67.082  1.00  0.00     0.000 HD 
HETATM   23  O   UNL     1     -10.997  17.598  69.111  1.00  0.00     0.164 OA 
HETATM   24  N   UNL     1      -9.593  17.290  67.415  1.00  0.00    -0.249 N  
BRANCH  24  25
HETATM   25  C   UNL     1      -8.554  16.548  66.771  1.00  0.00    -0.230 C  
BRANCH  25  26
HETATM   26  C   UNL     1      -8.875  15.282  66.062  1.00  0.00    -0.029 A  
HETATM   27  C   UNL     1      -8.431  12.906  65.809  1.00  0.00     1.354 A  
HETATM   28  C   UNL     1      -9.668  12.759  65.199  1.00  0.00     0.025 A  
HETATM   29  C   UNL     1      -8.044  14.169  66.233  1.00  0.00     1.303 A  
HETATM   30  F   UNL     1      -6.883  14.293  66.893  1.00  0.00     0.058 F  
HETATM   31  F   UNL     1     -10.066  11.541  64.814  1.00  0.00    -0.251 F  
HETATM   32  C   UNL     1     -10.516  13.845  65.009  1.00  0.00    -0.428 A  
HETATM   33  C   UNL     1     -10.112  15.100  65.446  1.00  0.00    -0.350 A  
HETATM   34  F   UNL     1     -10.967  16.127  65.348  1.00  0.00    -0.336 F  
ENDBRANCH  25  26
ENDBRANCH  24  25
ENDBRANCH   9  21
TORSDOF 3
ENDMDL
MODEL      227
REMARK 921   NORMALIZED FREE ENERGY PREDICTED BY IDOCK:    4.99 KCAL/MOL
REMARK 922        TOTAL FREE ENERGY PREDICTED BY IDOCK:    5.13 KCAL/MOL
REMARK 923 INTER-LIGAND FREE ENERGY PREDICTED BY IDOCK:    2.63 KCAL/MOL
REMARK 924 INTRA-LIGAND FREE ENERGY PREDICTED BY IDOCK:    2.49 KCAL/MOL
REMARK 927      BINDING AFFINITY PREDICTED BY RF-SCORE:    0.00 PKD
ROOT
HETATM    1  O   UNL     1      -9.201  17.926  68.772  1.00  0.00    -0.286 OA 
HETATM    2  H   UNL     1      -8.849  18.570  68.167  1.00  0.00     0.000 HD 
HETATM    3  C   UNL     1     -10.051  16.875  68.480  1.00  0.00    -0.297 C  
HETATM    4  C   UNL     1     -10.553  15.959  69.341  1.00  0.00    -0.263 C  
HETATM    5  N   UNL     1     -11.438  14.952  68.906  1.00  0.00    -0.283 NA 
HETATM    6  C   UNL     1     -12.405  14.319  69.804  1.00  0.00    -0.292 C  
HETATM    7  C   UNL     1     -11.646  14.790  67.533  1.00  0.00    -0.361 C  
HETATM    8  C   UNL     1     -11.997  14.321  71.273  1.00  0.00    -0.315 C  
HETATM    9  C   UNL     1     -11.269  15.656  66.574  1.00  0.00    -0.048 C  
HETATM   10  C   UNL     1     -10.731  16.916  67.156  1.00  0.00    -0.180 C  
HETATM   11  O   UNL     1     -13.425  14.208  72.110  1.00  0.00    -0.373 OA 
HETATM   12  C   UNL     1     -12.999  16.231  74.161  1.00  0.00    -0.230 C  
HETATM   13  C   UNL     1     -13.520  14.727  73.563  1.00  0.00     0.483 C  
HETATM   14  N   UNL     1     -11.020  15.593  71.746  1.00  0.00    -0.080 N  
HETATM   15  O   UNL     1     -10.942  18.028  66.682  1.00  0.00    -0.088 OA 
HETATM   16  C   UNL     1     -10.231  16.222  70.799  1.00  0.00     1.101 C  
HETATM   17  C   UNL     1     -11.509  16.590  73.027  1.00  0.00     0.338 C  
HETATM   18  C   UNL     1     -12.142  14.851  73.541  1.00  0.00    -0.436 C  
HETATM   19  C   UNL     1     -12.716  16.332  72.387  1.00  0.00    -0.229 C  
HETATM   20  O   UNL     1      -9.442  17.114  71.121  1.00  0.00     4.460 OA 
ENDROOT
BRANCH   9  21
HETATM   21  C   UNL     1     -11.591  15.289  65.151  1.00  0.00    -0.192 C  
HETATM   22  H   UNL     1     -12.862  14.285  63.872  1.00  0.00     0.000 HD 
HETATM   23  O   UNL     1     -11.073  15.909  64.220  1.00  0.00    -0.437 OA 
HETATM   24  N   UNL     1     -12.493  14.309  64.823  1.00  0.00    -0.412 N  
BRANCH  24  25
HETATM   25  C   UNL     1     -12.941  13.320  65.754  1.00  0.00     0.135 C  
BRANCH  25  26
HETATM   26  C   UNL     1     -12.093  12.134  66.043  1.00  0.00    -0.101 A  
HETATM   27  C   UNL     1     -11.408  10.450  67.656  1.00  0.00    -0.162 A  
HETATM   28  C   UNL     1     -10.963   9.656  66.609  1.00  0.00     0.217 A  
HETATM   29  C   UNL     1     -11.968  11.684  67.362  1.00  0.00     0.085 A  
HETATM   30  F   UNL     1     -12.469  12.413  68.371  1.00  0.00    -0.164 F  
HETATM   31  F   UNL     1     -10.450   8.449  66.877  1.00  0.00    -0.337 F  
HETATM   32  C   UNL     1     -11.067  10.074  65.287  1.00  0.00     1.586 A  
HETATM   33  C   UNL     1     -11.636  11.312  65.015  1.00  0.00     0.274 A  
HETATM   34  F   UNL     1     -11.822  11.673  63.739  1.00  0.00    -0.479 F  
ENDBRANCH  25  26
ENDBRANCH  24  25
ENDBRANCH   9  21
TORSDOF 3
ENDMDL
MODEL      228
REMARK 921   NORMALIZED FREE ENERGY PREDICTED BY IDOCK:    5.11 KCAL/MOL
REMARK 922        TOTAL FREE ENERGY PREDICTED BY IDOCK:    5.27 KCAL/MOL
REMARK 923 INTER-LIGAND FREE ENERGY PREDICTED BY IDOCK:   -3.04 KCAL/MOL
REMARK 924 INTRA-LIGAND FREE ENERGY PREDICTED BY IDOCK:    8.31 KCAL/MOL
REMARK 927      BINDING AFFINITY PREDICTED BY RF-SCORE:    0.00 PKD
ROOT
HETATM    1  O   UNL     1      -8.909   6.202  70.287  1.00  0.00    -0.145 OA 
HETATM    2  H   UNL     1      -8.974   5.327  70.650  1.00  0.00     0.000 HD 
HETATM    3  C   UNL     1      -8.968   6.566  68.953  1.00  0.00    -0.128 C  
HETATM    4  C   UNL     1      -8.874   7.813  68.436  1.00  0.00    -0.130 C  
HETATM    5  N   UNL     1      -8.921   8.035  67.045  1.00  0.00    -0.134 NA 
HETATM    6  C   UNL     1      -8.300   9.201  66.417  1.00  0.00    -0.122 C  
HETATM    7  C   UNL     1      -9.259   6.967  66.208  1.00  0.00    -0.126 C  
HETATM    8  C   UNL     1      -8.178  10.419  67.327  1.00  0.00    -0.121 C  
HETATM    9  C   UNL     1      -9.317   5.673  66.570  1.00  0.00    -0.159 C  
HETATM   10  C   UNL     1      -8.815   5.471  67.957  1.00  0.00    -0.105 C  
HETATM   11  O   UNL     1      -6.921  11.297  66.695  1.00  0.00    -0.138 OA 
HETATM   12  C   UNL     1      -5.459  11.955  69.126  1.00  0.00    -0.052 C  
HETATM   13  C   UNL     1      -6.120  12.269  67.593  1.00  0.00    -0.120 C  
HETATM   14  N   UNL     1      -8.034  10.084  68.959  1.00  0.00    -0.099 N  
HETATM   15  O   UNL     1      -8.142   4.504  68.302  1.00  0.00    -0.083 OA 
HETATM   16  C   UNL     1      -8.538   8.892  69.448  1.00  0.00    -0.133 C  
HETATM   17  C   UNL     1      -6.706  10.691  69.821  1.00  0.00    -0.130 C  
HETATM   18  C   UNL     1      -7.097  12.082  68.555  1.00  0.00    -0.098 C  
HETATM   19  C   UNL     1      -6.132  10.373  68.596  1.00  0.00    -0.043 C  
HETATM   20  O   UNL     1      -8.518   8.642  70.655  1.00  0.00    -0.130 OA 
ENDROOT
BRANCH   9  21
HETATM   21  C   UNL     1      -9.704   4.678  65.509  1.00  0.00    -0.181 C  
HETATM   22  H   UNL     1      -9.055   3.352  64.067  1.00  0.00     0.000 HD 
HETATM   23  O   UNL     1     -10.848   4.220  65.479  1.00  0.00    -0.158 OA 
HETATM   24  N   UNL     1      -8.815   4.201  64.580  1.00  0.00    -0.130 N  
BRANCH  24  25
HETATM   25  C   UNL     1      -7.566   4.839  64.298  1.00  0.00    -0.073 C  
BRANCH  25  26
HETATM   26  C   UNL     1      -6.761   5.417  65.405  1.00  0.00    -0.041 A  
HETATM   27  C   UNL     1      -6.124   7.401  66.656  1.00  0.00    -0.043 A  
HETATM   28  C   UNL     1      -5.719   6.587  67.703  1.00  0.00    -0.012 A  
HETATM   29  C   UNL     1      -6.640   6.806  65.513  1.00  0.00    -0.051 A  
HETATM   30  F   UNL     1      -7.104   7.600  64.536  1.00  0.00    -0.057 F  
HETATM   31  F   UNL     1      -5.249   7.150  68.823  1.00  0.00    -0.014 F  
HETATM   32  C   UNL     1      -5.820   5.203  67.627  1.00  0.00    -0.018 A  
HETATM   33  C   UNL     1      -6.345   4.628  66.476  1.00  0.00    -0.036 A  
HETATM   34  F   UNL     1      -6.529   3.302  66.440  1.00  0.00    -0.032 F  
ENDBRANCH  25  26
ENDBRANCH  24  25
ENDBRANCH   9  21
TORSDOF 3
ENDMDL
MODEL      229
REMARK 921   NORMALIZED FREE ENERGY PREDICTED BY IDOCK:    6.33 KCAL/MOL
REMARK 922        TOTAL FREE ENERGY PREDICTED BY IDOCK:    6.70 KCAL/MOL
REMARK 923 INTER-LIGAND FREE ENERGY PREDICTED BY IDOCK:    6.28 KCAL/MOL
REMARK 924 INTRA-LIGAND FREE ENERGY PREDICTED BY IDOCK:    0.42 KCAL/MOL
REMARK 927      BINDING AFFINITY PREDICTED BY RF-SCORE:    0.00 PKD
ROOT
HETATM    1  O   UNL     1      -9.490   5.959  70.176  1.00  0.00    -0.156 OA 
HETATM    2  H   UNL     1     -10.068   6.366  70.812  1.00  0.00     0.000 HD 
HETATM    3  C   UNL     1      -8.853   6.566  69.109  1.00  0.00    -0.128 C  
HETATM    4  C   UNL     1      -8.030   5.986  68.204  1.00  0.00    -0.110 C  
HETATM    5  N   UNL     1      -7.471   6.725  67.143  1.00  0.00    -0.089 NA 
HETATM    6  C   UNL     1      -7.060   6.100  65.885  1.00  0.00    -0.070 C  
HETATM    7  C   UNL     1      -7.622   8.115  67.142  1.00  0.00    -0.096 C  
HETATM    8  C   UNL     1      -6.677   4.629  66.006  1.00  0.00    -0.053 C  
HETATM    9  C   UNL     1      -8.457   8.815  67.932  1.00  0.00    -0.126 C  
HETATM   10  C   UNL     1      -9.344   7.917  68.720  1.00  0.00    -0.146 C  
HETATM   11  O   UNL     1      -6.915   4.002  64.489  1.00  0.00    -0.048 OA 
HETATM   12  C   UNL     1      -8.299   1.527  65.149  1.00  0.00    -0.080 C  
HETATM   13  C   UNL     1      -7.184   2.491  64.303  1.00  0.00    -0.054 C  
HETATM   14  N   UNL     1      -7.445   3.786  67.229  1.00  0.00    -0.071 N  
HETATM   15  O   UNL     1     -10.525   8.159  68.952  1.00  0.00    -0.215 OA 
HETATM   16  C   UNL     1      -7.919   4.478  68.328  1.00  0.00    -0.080 C  
HETATM   17  C   UNL     1      -8.318   2.381  66.853  1.00  0.00    -0.090 C  
HETATM   18  C   UNL     1      -6.836   2.332  65.633  1.00  0.00    -0.039 C  
HETATM   19  C   UNL     1      -8.595   3.193  65.759  1.00  0.00    -0.118 C  
HETATM   20  O   UNL     1      -8.424   3.884  69.284  1.00  0.00    -0.067 OA 
ENDROOT
BRANCH   9  21
HETATM   21  C   UNL     1      -8.465  10.311  67.770  1.00  0.00    -0.114 C  
HETATM   22  H   UNL     1      -7.591  12.108  68.285  1.00  0.00     0.000 HD 
HETATM   23  O   UNL     1      -9.084  10.828  66.837  1.00  0.00    -0.147 OA 
HETATM   24  N   UNL     1      -7.760  11.150  68.594  1.00  0.00    -0.127 N  
BRANCH  24  25
HETATM   25  C   UNL     1      -7.251  10.744  69.867  1.00  0.00    -0.050 C  
BRANCH  25  26
HETATM   26  C   UNL     1      -8.058   9.853  70.741  1.00  0.00     0.426 A  
HETATM   27  C   UNL     1      -8.108   7.908  72.197  1.00  0.00    -0.154 A  
HETATM   28  C   UNL     1      -9.280   8.387  72.765  1.00  0.00    -0.241 A  
HETATM   29  C   UNL     1      -7.509   8.646  71.186  1.00  0.00    -0.095 A  
HETATM   30  F   UNL     1      -6.336   8.220  70.695  1.00  0.00    -0.035 F  
HETATM   31  F   UNL     1      -9.849   7.701  73.762  1.00  0.00    -0.319 F  
HETATM   32  C   UNL     1      -9.855   9.580  72.342  1.00  0.00     1.962 A  
HETATM   33  C   UNL     1      -9.235  10.307  71.333  1.00  0.00     3.314 A  
HETATM   34  F   UNL     1      -9.738  11.501  70.992  1.00  0.00     3.692 F  
ENDBRANCH  25  26
ENDBRANCH  24  25
ENDBRANCH   9  21
TORSDOF 3
ENDMDL
MODEL      230
REMARK 921   NORMALIZED FREE ENERGY PREDICTED BY IDOCK:    6.67 KCAL/MOL
REMARK 922        TOTAL FREE ENERGY PREDICTED BY IDOCK:    7.10 KCAL/MOL
REMARK 923 INTER-LIGAND FREE ENERGY PREDICTED BY IDOCK:    3.98 KCAL/MOL
REMARK 924 INTRA-LIGAND FREE ENERGY PREDICTED BY IDOCK:    3.12 KCAL/MOL
REMARK 927      BINDING AFFINITY PREDICTED BY RF-SCORE:    0.00 PKD
ROOT
HETATM    1  O   UNL     1     -10.226  19.419  70.089  1.00  0.00    -0.178 OA 
HETATM    2  H   UNL     1     -10.065  20.280  69.721  1.00  0.00     0.000 HD 
HETATM    3  C   UNL     1      -9.724  18.208  69.647  1.00  0.00     0.508 C  
HETATM    4  C   UNL     1      -9.953  16.982  70.171  1.00  0.00     0.943 C  
HETATM    5  N   UNL     1      -9.395  15.822  69.595  1.00  0.00    -0.245 NA 
HETATM    6  C   UNL     1     -10.008  14.502  69.744  1.00  0.00     0.335 C  
HETATM    7  C   UNL     1      -8.441  15.970  68.583  1.00  0.00    -0.208 C  
HETATM    8  C   UNL     1     -10.849  14.335  71.005  1.00  0.00     1.135 C  
HETATM    9  C   UNL     1      -8.165  17.110  67.925  1.00  0.00    -0.202 C  
HETATM   10  C   UNL     1      -9.117  18.195  68.287  1.00  0.00    -0.300 C  
HETATM   11  O   UNL     1     -11.923  13.124  70.641  1.00  0.00    -0.308 OA 
HETATM   12  C   UNL     1     -14.389  14.273  71.678  1.00  0.00    -0.458 C  
HETATM   13  C   UNL     1     -13.271  13.026  71.392  1.00  0.00    -0.192 C  
HETATM   14  N   UNL     1     -11.558  15.734  71.585  1.00  0.00    -0.425 N  
HETATM   15  O   UNL     1      -9.557  19.010  67.482  1.00  0.00    -0.297 OA 
HETATM   16  C   UNL     1     -10.980  16.954  71.286  1.00  0.00     0.943 C  
HETATM   17  C   UNL     1     -13.238  15.787  71.808  1.00  0.00    -0.474 C  
HETATM   18  C   UNL     1     -12.779  13.979  72.266  1.00  0.00    -0.338 C  
HETATM   19  C   UNL     1     -13.126  15.033  70.646  1.00  0.00    -0.365 C  
HETATM   20  O   UNL     1     -11.430  18.002  71.757  1.00  0.00     2.217 OA 
ENDROOT
BRANCH   9  21
HETATM   21  C   UNL     1      -7.097  17.051  66.866  1.00  0.00    -0.216 C  
HETATM   22  H   UNL     1      -6.268  15.982  65.308  1.00  0.00     0.000 HD 
HETATM   23  O   UNL     1      -6.481  18.072  66.552  1.00  0.00    -0.177 OA 
HETATM   24  N   UNL     1      -6.799  15.905  66.175  1.00  0.00     1.450 N  
BRANCH  24  25
HETATM   25  C   UNL     1      -7.200  14.604  66.616  1.00  0.00     1.370 C  
BRANCH  25  26
HETATM   26  C   UNL     1      -6.665  14.053  67.888  1.00  0.00    -0.171 A  
HETATM   27  C   UNL     1      -5.351  14.440  69.895  1.00  0.00    -0.095 A  
HETATM   28  C   UNL     1      -5.989  13.364  70.497  1.00  0.00    -0.121 A  
HETATM   29  C   UNL     1      -5.694  14.772  68.593  1.00  0.00    -0.091 A  
HETATM   30  F   UNL     1      -5.133  15.860  68.044  1.00  0.00    -0.090 F  
HETATM   31  F   UNL     1      -5.689  13.053  71.763  1.00  0.00    -0.113 F  
HETATM   32  C   UNL     1      -6.954  12.625  69.823  1.00  0.00     0.385 A  
HETATM   33  C   UNL     1      -7.288  12.979  68.521  1.00  0.00    -0.115 A  
HETATM   34  F   UNL     1      -8.283  12.327  67.907  1.00  0.00    -0.126 F  
ENDBRANCH  25  26
ENDBRANCH  24  25
ENDBRANCH   9  21
TORSDOF 3
ENDMDL
MODEL      231
REMARK 921   NORMALIZED FREE ENERGY PREDICTED BY IDOCK:    8.18 KCAL/MOL
REMARK 922        TOTAL FREE ENERGY PREDICTED BY IDOCK:    8.87 KCAL/MOL
REMARK 923 INTER-LIGAND FREE ENERGY PREDICTED BY IDOCK:    8.61 KCAL/MOL
REMARK 924 INTRA-LIGAND FREE ENERGY PREDICTED BY IDOCK:    0.26 KCAL/MOL
REMARK 927      BINDING AFFINITY PREDICTED BY RF-SCORE:    0.00 PKD
ROOT
HETATM    1  O   UNL     1     -12.583   9.919  65.844  1.00  0.00     7.055 OA 
HETATM    2  H   UNL     1     -13.064   9.165  66.167  1.00  0.00     0.000 HD 
HETATM    3  C   UNL     1     -11.281  10.277  66.142  1.00  0.00     0.660 C  
HETATM    4  C   UNL     1     -10.597  11.350  65.683  1.00  0.00    -0.258 C  
HETATM    5  N   UNL     1      -9.275  11.609  66.096  1.00  0.00    -0.219 NA 
HETATM    6  C   UNL     1      -8.703  12.956  66.095  1.00  0.00     0.410 C  
HETATM    7  C   UNL     1      -8.604  10.635  66.843  1.00  0.00    -0.126 C  
HETATM    8  C   UNL     1      -9.329  13.906  65.079  1.00  0.00     0.924 C  
HETATM    9  C   UNL     1      -9.170   9.559  67.420  1.00  0.00    -0.152 C  
HETATM   10  C   UNL     1     -10.654   9.599  67.310  1.00  0.00    -0.247 C  
HETATM   11  O   UNL     1      -9.049  15.423  65.689  1.00  0.00    -0.181 OA 
HETATM   12  C   UNL     1     -11.664  16.642  65.299  1.00  0.00     1.050 C  
HETATM   13  C   UNL     1      -9.965  16.604  65.293  1.00  0.00     0.279 C  
HETATM   14  N   UNL     1     -10.928  13.600  64.700  1.00  0.00    -0.377 N  
HETATM   15  O   UNL     1     -11.412   9.233  68.204  1.00  0.00     0.310 OA 
HETATM   16  C   UNL     1     -11.422  12.317  64.855  1.00  0.00    -0.332 C  
HETATM   17  C   UNL     1     -12.082  14.826  64.898  1.00  0.00    -0.335 C  
HETATM   18  C   UNL     1     -10.511  15.772  64.330  1.00  0.00     0.783 C  
HETATM   19  C   UNL     1     -11.250  15.034  65.992  1.00  0.00    -0.310 C  
HETATM   20  O   UNL     1     -12.574  12.035  64.516  1.00  0.00    -0.359 OA 
ENDROOT
BRANCH   9  21
HETATM   21  C   UNL     1      -8.264   8.631  68.183  1.00  0.00    -0.115 C  
HETATM   22  H   UNL     1      -6.436   7.678  68.257  1.00  0.00     0.000 HD 
HETATM   23  O   UNL     1      -8.493   8.379  69.368  1.00  0.00    -0.122 OA 
HETATM   24  N   UNL     1      -7.138   8.075  67.632  1.00  0.00    -0.081 N  
BRANCH  24  25
HETATM   25  C   UNL     1      -6.904   8.027  66.222  1.00  0.00    -0.058 C  
BRANCH  25  26
HETATM   26  C   UNL     1      -7.614   7.025  65.385  1.00  0.00    -0.097 A  
HETATM   27  C   UNL     1      -9.263   5.243  65.279  1.00  0.00    -0.054 A  
HETATM   28  C   UNL     1      -9.368   5.447  63.911  1.00  0.00     0.634 A  
HETATM   29  C   UNL     1      -8.383   6.034  66.003  1.00  0.00    -0.134 A  
HETATM   30  F   UNL     1      -8.342   5.886  67.336  1.00  0.00    -0.105 F  
HETATM   31  F   UNL     1     -10.237   4.713  63.207  1.00  0.00     0.003 F  
HETATM   32  C   UNL     1      -8.616   6.420  63.264  1.00  0.00     0.371 A  
HETATM   33  C   UNL     1      -7.745   7.206  64.009  1.00  0.00    -0.123 A  
HETATM   34  F   UNL     1      -7.091   8.204  63.401  1.00  0.00    -0.079 F  
ENDBRANCH  25  26
ENDBRANCH  24  25
ENDBRANCH   9  21
TORSDOF 3
ENDMDL
MODEL      232
REMARK 921   NORMALIZED FREE ENERGY PREDICTED BY IDOCK:    8.95 KCAL/MOL
REMARK 922        TOTAL FREE ENERGY PREDICTED BY IDOCK:    9.78 KCAL/MOL
REMARK 923 INTER-LIGAND FREE ENERGY PREDICTED BY IDOCK:    7.44 KCAL/MOL
REMARK 924 INTRA-LIGAND FREE ENERGY PREDICTED BY IDOCK:    2.34 KCAL/MOL
REMARK 927      BINDING AFFINITY PREDICTED BY RF-SCORE:    0.00 PKD
ROOT
HETATM    1  O   UNL     1     -10.158  18.839  70.242  1.00  0.00     0.437 OA 
HETATM    2  H   UNL     1      -9.994  19.693  69.860  1.00  0.00     0.000 HD 
HETATM    3  C   UNL     1      -9.690  17.615  69.798  1.00  0.00     0.685 C  
HETATM    4  C   UNL     1      -9.925  16.398  70.341  1.00  0.00     0.945 C  
HETATM    5  N   UNL     1      -9.405  15.224  69.762  1.00  0.00    -0.164 NA 
HETATM    6  C   UNL     1     -10.035  13.916  69.942  1.00  0.00     1.193 C  
HETATM    7  C   UNL     1      -8.479  15.344  68.721  1.00  0.00    -0.188 C  
HETATM    8  C   UNL     1     -10.842  13.776  71.229  1.00  0.00     2.915 C  
HETATM    9  C   UNL     1      -8.202  16.473  68.042  1.00  0.00    -0.172 C  
HETATM   10  C   UNL     1      -9.124  17.578  68.421  1.00  0.00    -0.276 C  
HETATM   11  O   UNL     1     -11.946  12.581  70.909  1.00  0.00    -0.184 OA 
HETATM   12  C   UNL     1     -14.361  13.783  72.006  1.00  0.00    -0.392 C  
HETATM   13  C   UNL     1     -13.274  12.514  71.700  1.00  0.00    -0.284 C  
HETATM   14  N   UNL     1     -11.509  15.193  71.815  1.00  0.00    -0.403 N  
HETATM   15  O   UNL     1      -9.574  18.393  67.621  1.00  0.00    -0.272 OA 
HETATM   16  C   UNL     1     -10.920  16.400  71.486  1.00  0.00     0.601 C  
HETATM   17  C   UNL     1     -13.181  15.278  72.087  1.00  0.00    -0.489 C  
HETATM   18  C   UNL     1     -12.740  13.467  72.550  1.00  0.00    -0.122 C  
HETATM   19  C   UNL     1     -13.116  14.510  70.929  1.00  0.00    -0.405 C  
HETATM   20  O   UNL     1     -11.337  17.460  71.959  1.00  0.00     0.627 OA 
ENDROOT
BRANCH   9  21
HETATM   21  C   UNL     1      -7.167  16.385  66.953  1.00  0.00    -0.231 C  
HETATM   22  H   UNL     1      -6.789  16.031  64.956  1.00  0.00     0.000 HD 
HETATM   23  O   UNL     1      -6.045  16.866  67.126  1.00  0.00    -0.141 OA 
HETATM   24  N   UNL     1      -7.427  15.830  65.726  1.00  0.00     2.236 N  
BRANCH  24  25
HETATM   25  C   UNL     1      -8.551  14.982  65.478  1.00  0.00     1.926 C  
BRANCH  25  26
HETATM   26  C   UNL     1      -8.657  13.668  66.165  1.00  0.00     0.740 A  
HETATM   27  C   UNL     1      -9.659  11.454  66.209  1.00  0.00    -0.237 A  
HETATM   28  C   UNL     1      -8.620  11.022  67.022  1.00  0.00    -0.140 A  
HETATM   29  C   UNL     1      -9.668  12.776  65.791  1.00  0.00    -0.159 A  
HETATM   30  F   UNL     1     -10.630  13.169  64.942  1.00  0.00    -0.289 F  
HETATM   31  F   UNL     1      -8.582   9.741  67.406  1.00  0.00    -0.124 F  
HETATM   32  C   UNL     1      -7.603  11.883  67.417  1.00  0.00    -0.151 A  
HETATM   33  C   UNL     1      -7.628  13.202  66.981  1.00  0.00     0.140 A  
HETATM   34  F   UNL     1      -6.600  14.005  67.284  1.00  0.00    -0.186 F  
ENDBRANCH  25  26
ENDBRANCH  24  25
ENDBRANCH   9  21
TORSDOF 3
ENDMDL
MODEL      233
REMARK 921   NORMALIZED FREE ENERGY PREDICTED BY IDOCK:   16.02 KCAL/MOL
REMARK 922        TOTAL FREE ENERGY PREDICTED BY IDOCK:   18.09 KCAL/MOL
REMARK 923 INTER-LIGAND FREE ENERGY PREDICTED BY IDOCK:   18.23 KCAL/MOL
REMARK 924 INTRA-LIGAND FREE ENERGY PREDICTED BY IDOCK:   -0.14 KCAL/MOL
REMARK 927      BINDING AFFINITY PREDICTED BY RF-SCORE:    0.00 PKD
ROOT
HETATM    1  O   UNL     1     -12.629  17.857  65.456  1.00  0.00     6.139 OA 
HETATM    2  H   UNL     1     -13.406  17.515  65.028  1.00  0.00     0.000 HD 
HETATM    3  C   UNL     1     -11.519  17.146  65.877  1.00  0.00     1.233 C  
HETATM    4  C   UNL     1     -10.413  17.632  66.486  1.00  0.00    -0.283 C  
HETATM    5  N   UNL     1      -9.364  16.781  66.890  1.00  0.00    -0.229 NA 
HETATM    6  C   UNL     1      -8.457  17.122  67.985  1.00  0.00    -0.219 C  
HETATM    7  C   UNL     1      -9.391  15.444  66.480  1.00  0.00    -0.282 C  
HETATM    8  C   UNL     1      -8.288  18.620  68.223  1.00  0.00    -0.350 C  
HETATM    9  C   UNL     1     -10.445  14.812  65.932  1.00  0.00    -0.324 C  
HETATM   10  C   UNL     1     -11.664  15.666  65.950  1.00  0.00     0.443 C  
HETATM   11  O   UNL     1      -7.828  18.748  69.811  1.00  0.00     0.387 OA 
HETATM   12  C   UNL     1      -9.542  20.933  70.685  1.00  0.00     2.213 C  
HETATM   13  C   UNL     1      -8.090  20.054  70.595  1.00  0.00     1.558 C  
HETATM   14  N   UNL     1      -9.604  19.564  67.808  1.00  0.00    -0.331 N  
HETATM   15  O   UNL     1     -12.792  15.236  66.173  1.00  0.00     0.943 OA 
HETATM   16  C   UNL     1     -10.488  19.102  66.849  1.00  0.00    -0.437 C  
HETATM   17  C   UNL     1     -10.299  20.584  68.971  1.00  0.00     0.170 C  
HETATM   18  C   UNL     1      -8.425  20.637  69.386  1.00  0.00     1.542 C  
HETATM   19  C   UNL     1      -9.964  19.469  69.730  1.00  0.00     0.146 C  
HETATM   20  O   UNL     1     -11.427  19.802  66.462  1.00  0.00     0.160 OA 
ENDROOT
BRANCH   9  21
HETATM   21  C   UNL     1     -10.263  13.365  65.562  1.00  0.00    -0.290 C  
HETATM   22  H   UNL     1     -10.519  11.395  66.120  1.00  0.00     0.000 HD 
HETATM   23  O   UNL     1     -10.035  13.050  64.392  1.00  0.00    -0.259 OA 
HETATM   24  N   UNL     1     -10.392  12.345  66.469  1.00  0.00    -0.226 N  
BRANCH  24  25
HETATM   25  C   UNL     1     -10.357  12.553  67.884  1.00  0.00    -0.216 C  
BRANCH  25  26
HETATM   26  C   UNL     1     -10.943  11.540  68.799  1.00  0.00    -0.271 A  
HETATM   27  C   UNL     1     -11.411  10.874  71.089  1.00  0.00     0.587 A  
HETATM   28  C   UNL     1     -12.395  10.017  70.619  1.00  0.00    -0.253 A  
HETATM   29  C   UNL     1     -10.691  11.627  70.173  1.00  0.00     0.903 A  
HETATM   30  F   UNL     1      -9.797  12.512  70.637  1.00  0.00     3.515 F  
HETATM   31  F   UNL     1     -13.117   9.310  71.496  1.00  0.00    -0.339 F  
HETATM   32  C   UNL     1     -12.668   9.902  69.261  1.00  0.00     1.633 A  
HETATM   33  C   UNL     1     -11.940  10.670  68.360  1.00  0.00     0.187 A  
HETATM   34  F   UNL     1     -12.266  10.629  67.062  1.00  0.00     0.780 F  
ENDBRANCH  25  26
ENDBRANCH  24  25
ENDBRANCH   9  21
TORSDOF 3
ENDMDL
MODEL      234
REMARK 921   NORMALIZED FREE ENERGY PREDICTED BY IDOCK:   50.53 KCAL/MOL
REMARK 922        TOTAL FREE ENERGY PREDICTED BY IDOCK:   58.65 KCAL/MOL
REMARK 923 INTER-LIGAND FREE ENERGY PREDICTED BY IDOCK:   58.32 KCAL/MOL
REMARK 924 INTRA-LIGAND FREE ENERGY PREDICTED BY IDOCK:    0.33 KCAL/MOL
REMARK 927      BINDING AFFINITY PREDICTED BY RF-SCORE:    0.00 PKD
ROOT
HETATM    1  O   UNL     1      -7.954  14.418  69.859  1.00  0.00    -0.285 OA 
HETATM    2  H   UNL     1      -7.569  15.126  69.353  1.00  0.00     0.000 HD 
HETATM    3  C   UNL     1      -8.016  13.079  69.518  1.00  0.00     1.066 C  
HETATM    4  C   UNL     1      -8.564  12.072  70.237  1.00  0.00     4.367 C  
HETATM    5  N   UNL     1      -8.583  10.750  69.751  1.00  0.00     0.252 NA 
HETATM    6  C   UNL     1      -9.588   9.774  70.174  1.00  0.00    -0.237 C  
HETATM    7  C   UNL     1      -7.856  10.451  68.594  1.00  0.00    -0.108 C  
HETATM    8  C   UNL     1     -10.172  10.030  71.560  1.00  0.00     1.270 C  
HETATM    9  C   UNL     1      -7.321  11.351  67.749  1.00  0.00    -0.098 C  
HETATM   10  C   UNL     1      -7.730  12.739  68.097  1.00  0.00    -0.137 C  
HETATM   11  O   UNL     1     -11.657   9.293  71.537  1.00  0.00    -0.329 OA 
HETATM   12  C   UNL     1     -13.295  11.362  72.768  1.00  0.00     1.548 C  
HETATM   13  C   UNL     1     -12.778   9.767  72.491  1.00  0.00     0.038 C  
HETATM   14  N   UNL     1     -10.204  11.631  72.041  1.00  0.00    10.855 N  
HETATM   15  O   UNL     1      -7.996  13.599  67.263  1.00  0.00    -0.166 OA 
HETATM   16  C   UNL     1      -9.296  12.517  71.489  1.00  0.00    16.053 C  
HETATM   17  C   UNL     1     -11.675  12.333  72.508  1.00  0.00     5.189 C  
HETATM   18  C   UNL     1     -11.817  10.524  73.138  1.00  0.00     6.550 C  
HETATM   19  C   UNL     1     -12.069  11.510  71.459  1.00  0.00     0.277 C  
HETATM   20  O   UNL     1      -9.238  13.688  71.872  1.00  0.00     9.185 OA 
ENDROOT
BRANCH   9  21
HETATM   21  C   UNL     1      -6.573  10.816  66.558  1.00  0.00    -0.119 C  
HETATM   22  H   UNL     1      -6.604   9.559  64.922  1.00  0.00     0.000 HD 
HETATM   23  O   UNL     1      -5.567  11.398  66.146  1.00  0.00    -0.176 OA 
HETATM   24  N   UNL     1      -6.989   9.715  65.853  1.00  0.00    -0.094 N  
BRANCH  24  25
HETATM   25  C   UNL     1      -7.938   8.776  66.366  1.00  0.00    -0.103 C  
BRANCH  25  26
HETATM   26  C   UNL     1      -8.546   7.764  65.463  1.00  0.00    -0.126 A  
HETATM   27  C   UNL     1      -9.294   7.209  63.218  1.00  0.00     2.463 A  
HETATM   28  C   UNL     1      -9.209   5.863  63.544  1.00  0.00     1.025 A  
HETATM   29  C   UNL     1      -8.963   8.148  64.184  1.00  0.00     0.778 A  
HETATM   30  F   UNL     1      -8.971   9.445  63.841  1.00  0.00    -0.229 F  
HETATM   31  F   UNL     1      -9.495   4.947  62.611  1.00  0.00    -0.124 F  
HETATM   32  C   UNL     1      -8.803   5.447  64.806  1.00  0.00    -0.025 A  
HETATM   33  C   UNL     1      -8.470   6.404  65.757  1.00  0.00    -0.148 A  
HETATM   34  F   UNL     1      -7.989   6.002  66.941  1.00  0.00    -0.098 F  
ENDBRANCH  25  26
ENDBRANCH  24  25
ENDBRANCH   9  21
TORSDOF 3
ENDMDL
MODEL      235
REMARK 921   NORMALIZED FREE ENERGY PREDICTED BY IDOCK:   52.51 KCAL/MOL
REMARK 922        TOTAL FREE ENERGY PREDICTED BY IDOCK:   60.97 KCAL/MOL
REMARK 923 INTER-LIGAND FREE ENERGY PREDICTED BY IDOCK:   60.85 KCAL/MOL
REMARK 924 INTRA-LIGAND FREE ENERGY PREDICTED BY IDOCK:    0.12 KCAL/MOL
REMARK 927      BINDING AFFINITY PREDICTED BY RF-SCORE:    0.00 PKD
ROOT
HETATM    1  O   UNL     1      -7.838  13.437  63.958  1.00  0.00     7.889 OA 
HETATM    2  H   UNL     1      -7.215  14.139  64.112  1.00  0.00     0.000 HD 
HETATM    3  C   UNL     1      -8.860  13.023  64.793  1.00  0.00     2.235 C  
HETATM    4  C   UNL     1      -9.747  12.025  64.575  1.00  0.00    -0.076 C  
HETATM    5  N   UNL     1     -10.724  11.689  65.533  1.00  0.00    -0.276 NA 
HETATM    6  C   UNL     1     -11.311  10.352  65.618  1.00  0.00     1.146 C  
HETATM    7  C   UNL     1     -10.892  12.528  66.640  1.00  0.00    -0.246 C  
HETATM    8  C   UNL     1     -11.309   9.577  64.304  1.00  0.00     7.297 C  
HETATM    9  C   UNL     1     -10.052  13.509  67.017  1.00  0.00    -0.244 C  
HETATM   10  C   UNL     1      -8.807  13.505  66.201  1.00  0.00     0.402 C  
HETATM   11  O   UNL     1     -11.360   7.981  64.753  1.00  0.00     9.654 OA 
HETATM   12  C   UNL     1      -9.333   6.869  62.983  1.00  0.00     2.172 C  
HETATM   13  C   UNL     1     -10.822   6.887  63.802  1.00  0.00    12.664 C  
HETATM   14  N   UNL     1     -10.070   9.958  63.248  1.00  0.00     0.731 N  
HETATM   15  O   UNL     1      -7.692  13.737  66.660  1.00  0.00     0.443 OA 
HETATM   16  C   UNL     1      -9.481  11.208  63.325  1.00  0.00    -0.332 C  
HETATM   17  C   UNL     1      -9.042   8.730  62.690  1.00  0.00     0.352 C  
HETATM   18  C   UNL     1     -10.751   7.863  62.824  1.00  0.00    10.697 C  
HETATM   19  C   UNL     1      -9.261   8.345  64.008  1.00  0.00     1.123 C  
HETATM   20  O   UNL     1      -8.616  11.552  62.516  1.00  0.00    -0.265 OA 
ENDROOT
BRANCH   9  21
HETATM   21  C   UNL     1     -10.421  14.297  68.244  1.00  0.00    -0.247 C  
HETATM   22  H   UNL     1     -10.620  14.302  70.298  1.00  0.00     0.000 HD 
HETATM   23  O   UNL     1     -10.496  15.527  68.190  1.00  0.00    -0.249 OA 
HETATM   24  N   UNL     1     -10.634  13.712  69.466  1.00  0.00     0.137 N  
BRANCH  24  25
HETATM   25  C   UNL     1     -10.875  12.311  69.627  1.00  0.00     0.272 C  
BRANCH  25  26
HETATM   26  C   UNL     1      -9.851  11.450  70.274  1.00  0.00     2.263 A  
HETATM   27  C   UNL     1      -9.381   9.457  71.582  1.00  0.00     0.309 A  
HETATM   28  C   UNL     1      -8.073   9.486  71.121  1.00  0.00     0.314 A  
HETATM   29  C   UNL     1     -10.258  10.443  71.156  1.00  0.00     1.627 A  
HETATM   30  F   UNL     1     -11.541  10.366  71.541  1.00  0.00    -0.390 F  
HETATM   31  F   UNL     1      -7.226   8.522  71.500  1.00  0.00    -0.065 F  
HETATM   32  C   UNL     1      -7.634  10.475  70.248  1.00  0.00     0.371 A  
HETATM   33  C   UNL     1      -8.531  11.450  69.828  1.00  0.00     1.231 A  
HETATM   34  F   UNL     1      -8.134  12.346  68.915  1.00  0.00    -0.091 F  
ENDBRANCH  25  26
ENDBRANCH  24  25
ENDBRANCH   9  21
TORSDOF 3
ENDMDL
