MODEL        1
REMARK 921   NORMALIZED FREE ENERGY PREDICTED BY IDOCK:   -7.24 KCAL/MOL
REMARK 922        TOTAL FREE ENERGY PREDICTED BY IDOCK:   -9.85 KCAL/MOL
REMARK 923 INTER-LIGAND FREE ENERGY PREDICTED BY IDOCK:   -8.93 KCAL/MOL
REMARK 924 INTRA-LIGAND FREE ENERGY PREDICTED BY IDOCK:   -0.92 KCAL/MOL
REMARK 927      BINDING AFFINITY PREDICTED BY RF-SCORE:    0.00 PKD
ROOT
HETATM    1  C   UNL     1     -11.360  12.229  68.019  1.00  0.00    -0.293 A  
HETATM    2  C   UNL     1     -11.509  13.177  69.003  1.00  0.00    -0.296 A  
HETATM    3  N   UNL     1     -11.870  14.336  68.347  1.00  0.00    -0.339 NA 
HETATM    4  C   UNL     1     -11.980  14.008  67.024  1.00  0.00    -0.438 A  
HETATM    5  N   UNL     1     -11.657  12.756  66.794  1.00  0.00    -0.350 NA 
ENDROOT
BRANCH   3   6
HETATM    6  C   UNL     1     -11.998  15.655  69.002  1.00  0.00    -0.304 C  
BRANCH   6   7
HETATM    7  C   UNL     1     -12.458  15.586  70.462  1.00  0.00    -0.472 A  
HETATM    8  C   UNL     1     -11.575  16.026  71.471  1.00  0.00    -0.529 A  
HETATM    9  C   UNL     1     -11.980  16.109  72.804  1.00  0.00    -0.638 A  
HETATM   10  C   UNL     1     -13.757  15.217  70.851  1.00  0.00    -0.352 A  
HETATM   11  C   UNL     1     -13.277  15.759  73.161  1.00  0.00    -0.694 A  
HETATM   12  C   UNL     1     -14.162  15.308  72.186  1.00  0.00    -0.667 A  
ENDBRANCH   6   7
BRANCH   6  13
HETATM   13  C   UNL     1     -10.834  16.611  68.728  1.00  0.00    -0.331 A  
HETATM   14  C   UNL     1      -8.419  16.999  68.697  1.00  0.00    -0.262 A  
HETATM   15  C   UNL     1     -11.005  17.928  68.285  1.00  0.00     0.041 A  
HETATM   16  C   UNL     1      -9.517  16.149  68.883  1.00  0.00    -0.244 A  
HETATM   17  C   UNL     1      -9.903  18.787  68.132  1.00  0.00    -0.396 A  
HETATM   18  C   UNL     1      -8.587  18.352  68.365  1.00  0.00    -0.345 A  
BRANCH  18  19
HETATM   19  C   UNL     1      -7.433  19.284  68.321  1.00  0.00    -0.335 A  
HETATM   20  C   UNL     1      -6.638  19.542  69.454  1.00  0.00    -0.373 A  
HETATM   21  C   UNL     1      -5.604  20.486  69.422  1.00  0.00    -0.381 A  
HETATM   22  C   UNL     1      -5.330  21.183  68.251  1.00  0.00    -0.340 A  
HETATM   23  C   UNL     1      -6.086  20.935  67.111  1.00  0.00    -0.332 A  
HETATM   24  C   UNL     1      -7.124  19.999  67.149  1.00  0.00    -0.266 A  
ENDBRANCH  18  19
ENDBRANCH   6  13
ENDBRANCH   3   6
TORSDOF 4
ENDMDL
MODEL        2
REMARK 921   NORMALIZED FREE ENERGY PREDICTED BY IDOCK:   -7.05 KCAL/MOL
REMARK 922        TOTAL FREE ENERGY PREDICTED BY IDOCK:   -9.62 KCAL/MOL
REMARK 923 INTER-LIGAND FREE ENERGY PREDICTED BY IDOCK:   -8.67 KCAL/MOL
REMARK 924 INTRA-LIGAND FREE ENERGY PREDICTED BY IDOCK:   -0.95 KCAL/MOL
REMARK 927      BINDING AFFINITY PREDICTED BY RF-SCORE:    0.00 PKD
ROOT
HETATM    1  C   UNL     1     -12.048  12.880  63.211  1.00  0.00    -0.440 A  
HETATM    2  C   UNL     1     -11.135  12.541  64.180  1.00  0.00    -0.376 A  
HETATM    3  N   UNL     1     -11.144  13.587  65.078  1.00  0.00    -0.315 NA 
HETATM    4  C   UNL     1     -12.100  14.460  64.639  1.00  0.00    -0.471 A  
HETATM    5  N   UNL     1     -12.643  14.073  63.508  1.00  0.00    -0.777 NA 
ENDROOT
BRANCH   3   6
HETATM    6  C   UNL     1     -10.205  13.715  66.214  1.00  0.00    -0.296 C  
BRANCH   6   7
HETATM    7  C   UNL     1     -10.102  15.135  66.782  1.00  0.00    -0.261 A  
HETATM    8  C   UNL     1      -9.216  16.045  66.168  1.00  0.00    -0.388 A  
HETATM    9  C   UNL     1      -9.171  17.386  66.556  1.00  0.00    -0.286 A  
HETATM   10  C   UNL     1     -10.926  15.622  67.811  1.00  0.00    -0.316 A  
HETATM   11  C   UNL     1     -10.011  17.849  67.561  1.00  0.00    -0.322 A  
HETATM   12  C   UNL     1     -10.884  16.967  68.191  1.00  0.00    -0.351 A  
ENDBRANCH   6   7
BRANCH   6  13
HETATM   13  C   UNL     1     -10.322  12.601  67.257  1.00  0.00    -0.230 A  
HETATM   14  C   UNL     1     -11.743  11.285  68.752  1.00  0.00    -0.405 A  
HETATM   15  C   UNL     1      -9.228  11.859  67.721  1.00  0.00    -0.184 A  
HETATM   16  C   UNL     1     -11.590  12.260  67.758  1.00  0.00    -0.416 A  
HETATM   17  C   UNL     1      -9.382  10.907  68.742  1.00  0.00    -0.190 A  
HETATM   18  C   UNL     1     -10.638  10.620  69.304  1.00  0.00    -0.263 A  
BRANCH  18  19
HETATM   19  C   UNL     1     -10.789   9.704  70.461  1.00  0.00    -0.371 A  
HETATM   20  C   UNL     1     -12.030   9.496  71.092  1.00  0.00    -0.429 A  
HETATM   21  C   UNL     1     -12.146   8.694  72.235  1.00  0.00    -0.443 A  
HETATM   22  C   UNL     1     -11.022   8.068  72.765  1.00  0.00    -0.449 A  
HETATM   23  C   UNL     1      -9.787   8.240  72.151  1.00  0.00    -0.342 A  
HETATM   24  C   UNL     1      -9.674   9.049  71.017  1.00  0.00    -0.348 A  
ENDBRANCH  18  19
ENDBRANCH   6  13
ENDBRANCH   3   6
TORSDOF 4
ENDMDL
MODEL        3
REMARK 921   NORMALIZED FREE ENERGY PREDICTED BY IDOCK:   -7.05 KCAL/MOL
REMARK 922        TOTAL FREE ENERGY PREDICTED BY IDOCK:   -9.61 KCAL/MOL
REMARK 923 INTER-LIGAND FREE ENERGY PREDICTED BY IDOCK:   -8.61 KCAL/MOL
REMARK 924 INTRA-LIGAND FREE ENERGY PREDICTED BY IDOCK:   -1.00 KCAL/MOL
REMARK 927      BINDING AFFINITY PREDICTED BY RF-SCORE:    0.00 PKD
ROOT
HETATM    1  C   UNL     1     -11.001  13.563  64.457  1.00  0.00    -0.394 A  
HETATM    2  C   UNL     1     -10.576  13.971  65.698  1.00  0.00    -0.307 A  
HETATM    3  N   UNL     1     -11.725  14.193  66.428  1.00  0.00    -0.373 NA 
HETATM    4  C   UNL     1     -12.768  13.848  65.613  1.00  0.00    -0.495 A  
HETATM    5  N   UNL     1     -12.364  13.489  64.416  1.00  0.00    -0.581 NA 
ENDROOT
BRANCH   3   6
HETATM    6  C   UNL     1     -11.748  14.782  67.784  1.00  0.00    -0.343 C  
BRANCH   6   7
HETATM    7  C   UNL     1     -11.884  13.752  68.911  1.00  0.00    -0.396 A  
HETATM    8  C   UNL     1     -12.401  14.175  70.154  1.00  0.00    -0.413 A  
HETATM    9  C   UNL     1     -12.669  13.262  71.176  1.00  0.00    -0.404 A  
HETATM   10  C   UNL     1     -11.632  12.380  68.743  1.00  0.00    -0.373 A  
HETATM   11  C   UNL     1     -12.432  11.906  70.978  1.00  0.00    -0.390 A  
HETATM   12  C   UNL     1     -11.910  11.467  69.766  1.00  0.00    -0.435 A  
ENDBRANCH   6   7
BRANCH   6  13
HETATM   13  C   UNL     1     -10.697  15.870  68.017  1.00  0.00    -0.301 A  
HETATM   14  C   UNL     1     -10.067  18.229  67.853  1.00  0.00    -0.376 A  
HETATM   15  C   UNL     1      -9.433  15.619  68.565  1.00  0.00    -0.200 A  
HETATM   16  C   UNL     1     -11.012  17.205  67.709  1.00  0.00    -0.180 A  
HETATM   17  C   UNL     1      -8.478  16.643  68.676  1.00  0.00    -0.253 A  
HETATM   18  C   UNL     1      -8.761  17.965  68.293  1.00  0.00    -0.277 A  
BRANCH  18  19
HETATM   19  C   UNL     1      -7.721  19.023  68.296  1.00  0.00    -0.346 A  
HETATM   20  C   UNL     1      -6.756  19.119  69.316  1.00  0.00    -0.340 A  
HETATM   21  C   UNL     1      -5.832  20.171  69.354  1.00  0.00    -0.343 A  
HETATM   22  C   UNL     1      -5.841  21.144  68.360  1.00  0.00    -0.329 A  
HETATM   23  C   UNL     1      -6.770  21.064  67.330  1.00  0.00    -0.430 A  
HETATM   24  C   UNL     1      -7.698  20.019  67.301  1.00  0.00    -0.329 A  
ENDBRANCH  18  19
ENDBRANCH   6  13
ENDBRANCH   3   6
TORSDOF 4
ENDMDL
MODEL        4
REMARK 921   NORMALIZED FREE ENERGY PREDICTED BY IDOCK:   -7.03 KCAL/MOL
REMARK 922        TOTAL FREE ENERGY PREDICTED BY IDOCK:   -9.59 KCAL/MOL
REMARK 923 INTER-LIGAND FREE ENERGY PREDICTED BY IDOCK:   -8.70 KCAL/MOL
REMARK 924 INTRA-LIGAND FREE ENERGY PREDICTED BY IDOCK:   -0.89 KCAL/MOL
REMARK 927      BINDING AFFINITY PREDICTED BY RF-SCORE:    0.00 PKD
ROOT
HETATM    1  C   UNL     1     -12.102  12.556  63.358  1.00  0.00    -0.529 A  
HETATM    2  C   UNL     1     -11.268  12.316  64.423  1.00  0.00    -0.334 A  
HETATM    3  N   UNL     1     -11.202  13.507  65.116  1.00  0.00    -0.302 NA 
HETATM    4  C   UNL     1     -12.045  14.371  64.472  1.00  0.00    -0.481 A  
HETATM    5  N   UNL     1     -12.580  13.835  63.400  1.00  0.00    -0.789 NA 
ENDROOT
BRANCH   3   6
HETATM    6  C   UNL     1     -10.301  13.753  66.262  1.00  0.00    -0.294 C  
BRANCH   6   7
HETATM    7  C   UNL     1     -10.107  15.236  66.598  1.00  0.00    -0.268 A  
HETATM    8  C   UNL     1     -10.971  15.835  67.538  1.00  0.00    -0.293 A  
HETATM    9  C   UNL     1     -10.766  17.143  67.981  1.00  0.00    -0.372 A  
HETATM   10  C   UNL     1      -9.041  16.010  66.108  1.00  0.00    -0.387 A  
HETATM   11  C   UNL     1      -9.692  17.881  67.499  1.00  0.00    -0.278 A  
HETATM   12  C   UNL     1      -8.834  17.317  66.560  1.00  0.00    -0.290 A  
ENDBRANCH   6   7
BRANCH   6  13
HETATM   13  C   UNL     1     -10.544  12.837  67.464  1.00  0.00    -0.240 A  
HETATM   14  C   UNL     1      -9.660  11.190  69.042  1.00  0.00    -0.099 A  
HETATM   15  C   UNL     1     -11.777  12.736  68.120  1.00  0.00    -0.392 A  
HETATM   16  C   UNL     1      -9.477  12.082  67.978  1.00  0.00    -0.199 A  
HETATM   17  C   UNL     1     -11.965  11.814  69.164  1.00  0.00    -0.356 A  
HETATM   18  C   UNL     1     -10.921  10.997  69.629  1.00  0.00    -0.286 A  
BRANCH  18  19
HETATM   19  C   UNL     1     -11.143   9.942  70.648  1.00  0.00    -0.409 A  
HETATM   20  C   UNL     1     -12.393   9.753  71.267  1.00  0.00    -0.465 A  
HETATM   21  C   UNL     1     -12.570   8.809  72.287  1.00  0.00    -0.460 A  
HETATM   22  C   UNL     1     -11.502   8.021  72.701  1.00  0.00    -0.465 A  
HETATM   23  C   UNL     1     -10.261   8.172  72.094  1.00  0.00    -0.330 A  
HETATM   24  C   UNL     1     -10.085   9.121  71.083  1.00  0.00    -0.384 A  
ENDBRANCH  18  19
ENDBRANCH   6  13
ENDBRANCH   3   6
TORSDOF 4
ENDMDL
MODEL        5
REMARK 921   NORMALIZED FREE ENERGY PREDICTED BY IDOCK:   -6.99 KCAL/MOL
REMARK 922        TOTAL FREE ENERGY PREDICTED BY IDOCK:   -9.54 KCAL/MOL
REMARK 923 INTER-LIGAND FREE ENERGY PREDICTED BY IDOCK:   -8.49 KCAL/MOL
REMARK 924 INTRA-LIGAND FREE ENERGY PREDICTED BY IDOCK:   -1.05 KCAL/MOL
REMARK 927      BINDING AFFINITY PREDICTED BY RF-SCORE:    0.00 PKD
ROOT
HETATM    1  C   UNL     1     -11.948  12.793  66.554  1.00  0.00    -0.358 A  
HETATM    2  C   UNL     1     -11.925  14.134  66.854  1.00  0.00    -0.449 A  
HETATM    3  N   UNL     1     -11.798  14.203  68.226  1.00  0.00    -0.352 NA 
HETATM    4  C   UNL     1     -11.687  12.913  68.666  1.00  0.00    -0.324 A  
HETATM    5  N   UNL     1     -11.797  12.044  67.687  1.00  0.00    -0.564 NA 
ENDROOT
BRANCH   3   6
HETATM    6  C   UNL     1     -11.873  15.458  69.005  1.00  0.00    -0.335 C  
BRANCH   6   7
HETATM    7  C   UNL     1     -12.322  15.264  70.458  1.00  0.00    -0.434 A  
HETATM    8  C   UNL     1     -11.345  15.293  71.476  1.00  0.00    -0.432 A  
HETATM    9  C   UNL     1     -11.703  15.253  72.825  1.00  0.00    -0.502 A  
HETATM   10  C   UNL     1     -13.668  15.175  70.850  1.00  0.00    -0.352 A  
HETATM   11  C   UNL     1     -13.043  15.186  73.189  1.00  0.00    -0.625 A  
HETATM   12  C   UNL     1     -14.023  15.142  72.203  1.00  0.00    -0.635 A  
ENDBRANCH   6   7
BRANCH   6  13
HETATM   13  C   UNL     1     -10.680  16.396  68.809  1.00  0.00    -0.321 A  
HETATM   14  C   UNL     1      -9.849  18.679  68.521  1.00  0.00    -0.427 A  
HETATM   15  C   UNL     1      -9.355  15.952  68.721  1.00  0.00    -0.220 A  
HETATM   16  C   UNL     1     -10.900  17.782  68.753  1.00  0.00     0.170 A  
HETATM   17  C   UNL     1      -8.309  16.850  68.454  1.00  0.00    -0.238 A  
HETATM   18  C   UNL     1      -8.535  18.231  68.316  1.00  0.00    -0.309 A  
BRANCH  18  19
HETATM   19  C   UNL     1      -7.455  19.167  67.918  1.00  0.00    -0.290 A  
HETATM   20  C   UNL     1      -6.646  19.821  68.866  1.00  0.00    -0.352 A  
HETATM   21  C   UNL     1      -5.685  20.765  68.482  1.00  0.00    -0.380 A  
HETATM   22  C   UNL     1      -5.502  21.067  67.137  1.00  0.00    -0.287 A  
HETATM   23  C   UNL     1      -6.273  20.423  66.177  1.00  0.00    -0.237 A  
HETATM   24  C   UNL     1      -7.237  19.488  66.564  1.00  0.00    -0.241 A  
ENDBRANCH  18  19
ENDBRANCH   6  13
ENDBRANCH   3   6
TORSDOF 4
ENDMDL
MODEL        6
REMARK 921   NORMALIZED FREE ENERGY PREDICTED BY IDOCK:   -6.98 KCAL/MOL
REMARK 922        TOTAL FREE ENERGY PREDICTED BY IDOCK:   -9.53 KCAL/MOL
REMARK 923 INTER-LIGAND FREE ENERGY PREDICTED BY IDOCK:   -8.61 KCAL/MOL
REMARK 924 INTRA-LIGAND FREE ENERGY PREDICTED BY IDOCK:   -0.92 KCAL/MOL
REMARK 927      BINDING AFFINITY PREDICTED BY RF-SCORE:    0.00 PKD
ROOT
HETATM    1  C   UNL     1      -9.877   6.197  67.851  1.00  0.00    -0.123 A  
HETATM    2  C   UNL     1     -11.023   6.444  68.569  1.00  0.00    -0.319 A  
HETATM    3  N   UNL     1     -10.602   7.024  69.748  1.00  0.00    -0.226 NA 
HETATM    4  C   UNL     1      -9.244   7.151  69.648  1.00  0.00    -0.146 A  
HETATM    5  N   UNL     1      -8.779   6.642  68.531  1.00  0.00    -0.124 NA 
ENDROOT
BRANCH   3   6
HETATM    6  C   UNL     1     -11.493   7.329  70.888  1.00  0.00    -0.292 C  
BRANCH   6   7
HETATM    7  C   UNL     1     -11.052   6.696  72.212  1.00  0.00    -0.292 A  
HETATM    8  C   UNL     1     -11.394   5.351  72.465  1.00  0.00    -0.286 A  
HETATM    9  C   UNL     1     -10.913   4.681  73.592  1.00  0.00    -0.392 A  
HETATM   10  C   UNL     1     -10.224   7.344  73.144  1.00  0.00    -0.363 A  
HETATM   11  C   UNL     1     -10.077   5.336  74.488  1.00  0.00    -0.286 A  
HETATM   12  C   UNL     1      -9.737   6.667  74.267  1.00  0.00    -0.328 A  
ENDBRANCH   6   7
BRANCH   6  13
HETATM   13  C   UNL     1     -11.926   8.795  70.975  1.00  0.00    -0.291 A  
HETATM   14  C   UNL     1     -11.625  11.105  70.229  1.00  0.00    -0.388 A  
HETATM   15  C   UNL     1     -12.951   9.248  71.814  1.00  0.00    -0.471 A  
HETATM   16  C   UNL     1     -11.303   9.744  70.148  1.00  0.00    -0.305 A  
HETATM   17  C   UNL     1     -13.247  10.618  71.917  1.00  0.00    -0.528 A  
HETATM   18  C   UNL     1     -12.570  11.582  71.150  1.00  0.00    -0.463 A  
BRANCH  18  19
HETATM   19  C   UNL     1     -12.795  13.036  71.340  1.00  0.00    -0.385 A  
HETATM   20  C   UNL     1     -12.086  14.004  70.605  1.00  0.00    -0.424 A  
HETATM   21  C   UNL     1     -12.246  15.373  70.851  1.00  0.00    -0.425 A  
HETATM   22  C   UNL     1     -13.133  15.807  71.831  1.00  0.00    -0.492 A  
HETATM   23  C   UNL     1     -13.862  14.874  72.559  1.00  0.00    -0.564 A  
HETATM   24  C   UNL     1     -13.692  13.508  72.318  1.00  0.00    -0.700 A  
ENDBRANCH  18  19
ENDBRANCH   6  13
ENDBRANCH   3   6
TORSDOF 4
ENDMDL
MODEL        7
REMARK 921   NORMALIZED FREE ENERGY PREDICTED BY IDOCK:   -6.91 KCAL/MOL
REMARK 922        TOTAL FREE ENERGY PREDICTED BY IDOCK:   -9.45 KCAL/MOL
REMARK 923 INTER-LIGAND FREE ENERGY PREDICTED BY IDOCK:   -9.08 KCAL/MOL
REMARK 924 INTRA-LIGAND FREE ENERGY PREDICTED BY IDOCK:   -0.36 KCAL/MOL
REMARK 927      BINDING AFFINITY PREDICTED BY RF-SCORE:    0.00 PKD
ROOT
HETATM    1  C   UNL     1     -12.313  15.814  73.576  1.00  0.00    -0.552 A  
HETATM    2  C   UNL     1     -11.785  15.125  72.511  1.00  0.00    -0.375 A  
HETATM    3  N   UNL     1     -12.832  14.945  71.632  1.00  0.00    -0.307 NA 
HETATM    4  C   UNL     1     -13.908  15.587  72.182  1.00  0.00    -0.523 A  
HETATM    5  N   UNL     1     -13.631  16.097  73.359  1.00  0.00    -0.571 NA 
ENDROOT
BRANCH   3   6
HETATM    6  C   UNL     1     -12.755  14.125  70.404  1.00  0.00    -0.279 C  
BRANCH   6   7
HETATM    7  C   UNL     1     -11.919  14.754  69.283  1.00  0.00    -0.329 A  
HETATM    8  C   UNL     1     -11.971  14.178  67.997  1.00  0.00    -0.372 A  
HETATM    9  C   UNL     1     -11.337  14.779  66.907  1.00  0.00    -0.358 A  
HETATM   10  C   UNL     1     -11.190  15.946  69.434  1.00  0.00    -0.336 A  
HETATM   11  C   UNL     1     -10.639  15.969  67.077  1.00  0.00    -0.302 A  
HETATM   12  C   UNL     1     -10.562  16.549  68.340  1.00  0.00    -0.323 A  
ENDBRANCH   6   7
BRANCH   6  13
HETATM   13  C   UNL     1     -12.498  12.637  70.654  1.00  0.00    -0.323 A  
HETATM   14  C   UNL     1     -13.016  10.620  71.938  1.00  0.00    -0.542 A  
HETATM   15  C   UNL     1     -11.572  11.880  69.926  1.00  0.00    -0.333 A  
HETATM   16  C   UNL     1     -13.250  11.967  71.634  1.00  0.00    -0.364 A  
HETATM   17  C   UNL     1     -11.316  10.539  70.258  1.00  0.00    -0.407 A  
HETATM   18  C   UNL     1     -12.009   9.886  71.292  1.00  0.00    -0.489 A  
BRANCH  18  19
HETATM   19  C   UNL     1     -11.661   8.510  71.723  1.00  0.00    -0.380 A  
HETATM   20  C   UNL     1     -12.451   7.397  71.381  1.00  0.00    -0.402 A  
HETATM   21  C   UNL     1     -12.159   6.115  71.863  1.00  0.00    -0.225 A  
HETATM   22  C   UNL     1     -11.058   5.914  72.689  1.00  0.00    -0.322 A  
HETATM   23  C   UNL     1     -10.248   6.991  73.028  1.00  0.00    -0.264 A  
HETATM   24  C   UNL     1     -10.548   8.271  72.553  1.00  0.00    -0.407 A  
ENDBRANCH  18  19
ENDBRANCH   6  13
ENDBRANCH   3   6
TORSDOF 4
ENDMDL
MODEL        8
REMARK 921   NORMALIZED FREE ENERGY PREDICTED BY IDOCK:   -6.90 KCAL/MOL
REMARK 922        TOTAL FREE ENERGY PREDICTED BY IDOCK:   -9.43 KCAL/MOL
REMARK 923 INTER-LIGAND FREE ENERGY PREDICTED BY IDOCK:   -8.98 KCAL/MOL
REMARK 924 INTRA-LIGAND FREE ENERGY PREDICTED BY IDOCK:   -0.45 KCAL/MOL
REMARK 927      BINDING AFFINITY PREDICTED BY RF-SCORE:    0.00 PKD
ROOT
HETATM    1  C   UNL     1     -13.536  15.955  73.172  1.00  0.00    -0.563 A  
HETATM    2  C   UNL     1     -13.851  15.225  72.051  1.00  0.00    -0.522 A  
HETATM    3  N   UNL     1     -12.655  14.710  71.597  1.00  0.00    -0.321 NA 
HETATM    4  C   UNL     1     -11.703  15.102  72.498  1.00  0.00    -0.375 A  
HETATM    5  N   UNL     1     -12.199  15.870  73.441  1.00  0.00    -0.482 NA 
ENDROOT
BRANCH   3   6
HETATM    6  C   UNL     1     -12.497  13.972  70.325  1.00  0.00    -0.338 C  
BRANCH   6   7
HETATM    7  C   UNL     1     -11.567  14.657  69.317  1.00  0.00    -0.335 A  
HETATM    8  C   UNL     1     -11.836  14.508  67.940  1.00  0.00    -0.370 A  
HETATM    9  C   UNL     1     -11.106  15.209  66.978  1.00  0.00    -0.328 A  
HETATM   10  C   UNL     1     -10.525  15.525  69.686  1.00  0.00    -0.289 A  
HETATM   11  C   UNL     1     -10.094  16.079  67.369  1.00  0.00    -0.258 A  
HETATM   12  C   UNL     1      -9.801  16.232  68.721  1.00  0.00    -0.238 A  
ENDBRANCH   6   7
BRANCH   6  13
HETATM   13  C   UNL     1     -12.283  12.466  70.492  1.00  0.00    -0.382 A  
HETATM   14  C   UNL     1     -12.814  10.408  71.704  1.00  0.00    -0.579 A  
HETATM   15  C   UNL     1     -11.423  11.713  69.684  1.00  0.00    -0.359 A  
HETATM   16  C   UNL     1     -13.012  11.776  71.475  1.00  0.00    -0.446 A  
HETATM   17  C   UNL     1     -11.202  10.349  69.938  1.00  0.00    -0.371 A  
HETATM   18  C   UNL     1     -11.868   9.672  70.974  1.00  0.00    -0.428 A  
BRANCH  18  19
HETATM   19  C   UNL     1     -11.551   8.265  71.322  1.00  0.00    -0.318 A  
HETATM   20  C   UNL     1     -11.333   7.855  72.651  1.00  0.00    -0.468 A  
HETATM   21  C   UNL     1     -10.953   6.543  72.960  1.00  0.00    -0.270 A  
HETATM   22  C   UNL     1     -10.796   5.605  71.945  1.00  0.00    -0.302 A  
HETATM   23  C   UNL     1     -11.023   5.976  70.625  1.00  0.00    -0.376 A  
HETATM   24  C   UNL     1     -11.393   7.289  70.320  1.00  0.00    -0.266 A  
ENDBRANCH  18  19
ENDBRANCH   6  13
ENDBRANCH   3   6
TORSDOF 4
ENDMDL
MODEL        9
REMARK 921   NORMALIZED FREE ENERGY PREDICTED BY IDOCK:   -6.88 KCAL/MOL
REMARK 922        TOTAL FREE ENERGY PREDICTED BY IDOCK:   -9.41 KCAL/MOL
REMARK 923 INTER-LIGAND FREE ENERGY PREDICTED BY IDOCK:   -8.45 KCAL/MOL
REMARK 924 INTRA-LIGAND FREE ENERGY PREDICTED BY IDOCK:   -0.96 KCAL/MOL
REMARK 927      BINDING AFFINITY PREDICTED BY RF-SCORE:    0.00 PKD
ROOT
HETATM    1  C   UNL     1     -11.796  12.612  63.239  1.00  0.00    -0.425 A  
HETATM    2  C   UNL     1     -10.865  12.417  64.231  1.00  0.00    -0.355 A  
HETATM    3  N   UNL     1     -11.132  13.380  65.182  1.00  0.00    -0.294 NA 
HETATM    4  C   UNL     1     -12.239  14.054  64.744  1.00  0.00    -0.433 A  
HETATM    5  N   UNL     1     -12.645  13.630  63.569  1.00  0.00    -0.784 NA 
ENDROOT
BRANCH   3   6
HETATM    6  C   UNL     1     -10.284  13.636  66.366  1.00  0.00    -0.292 C  
BRANCH   6   7
HETATM    7  C   UNL     1     -10.370  15.071  66.897  1.00  0.00    -0.266 A  
HETATM    8  C   UNL     1     -11.011  15.298  68.133  1.00  0.00    -0.292 A  
HETATM    9  C   UNL     1     -11.008  16.560  68.731  1.00  0.00    -0.330 A  
HETATM   10  C   UNL     1      -9.742  16.167  66.278  1.00  0.00    -0.332 A  
HETATM   11  C   UNL     1     -10.363  17.623  68.110  1.00  0.00    -0.386 A  
HETATM   12  C   UNL     1      -9.735  17.428  66.884  1.00  0.00    -0.286 A  
ENDBRANCH   6   7
BRANCH   6  13
HETATM   13  C   UNL     1     -10.344  12.540  67.433  1.00  0.00    -0.222 A  
HETATM   14  C   UNL     1     -11.703  11.134  68.903  1.00  0.00    -0.406 A  
HETATM   15  C   UNL     1      -9.208  11.914  67.960  1.00  0.00    -0.190 A  
HETATM   16  C   UNL     1     -11.596  12.096  67.890  1.00  0.00    -0.413 A  
HETATM   17  C   UNL     1      -9.319  10.975  69.000  1.00  0.00    -0.105 A  
HETATM   18  C   UNL     1     -10.566  10.586  69.517  1.00  0.00    -0.278 A  
BRANCH  18  19
HETATM   19  C   UNL     1     -10.683   9.687  70.692  1.00  0.00    -0.388 A  
HETATM   20  C   UNL     1      -9.555   9.114  71.309  1.00  0.00    -0.331 A  
HETATM   21  C   UNL     1      -9.682   8.202  72.364  1.00  0.00    -0.338 A  
HETATM   22  C   UNL     1     -10.943   7.852  72.837  1.00  0.00    -0.452 A  
HETATM   23  C   UNL     1     -12.074   8.417  72.259  1.00  0.00    -0.456 A  
HETATM   24  C   UNL     1     -11.944   9.320  71.200  1.00  0.00    -0.394 A  
ENDBRANCH  18  19
ENDBRANCH   6  13
ENDBRANCH   3   6
TORSDOF 4
ENDMDL
MODEL       10
REMARK 921   NORMALIZED FREE ENERGY PREDICTED BY IDOCK:   -6.64 KCAL/MOL
REMARK 922        TOTAL FREE ENERGY PREDICTED BY IDOCK:   -9.11 KCAL/MOL
REMARK 923 INTER-LIGAND FREE ENERGY PREDICTED BY IDOCK:   -8.25 KCAL/MOL
REMARK 924 INTRA-LIGAND FREE ENERGY PREDICTED BY IDOCK:   -0.86 KCAL/MOL
REMARK 927      BINDING AFFINITY PREDICTED BY RF-SCORE:    0.00 PKD
ROOT
HETATM    1  C   UNL     1      -9.415  15.727  69.029  1.00  0.00    -0.247 A  
HETATM    2  C   UNL     1      -9.750  14.440  68.679  1.00  0.00    -0.216 A  
HETATM    3  N   UNL     1     -10.912  14.548  67.944  1.00  0.00    -0.262 NA 
HETATM    4  C   UNL     1     -11.175  15.886  67.839  1.00  0.00    -0.297 A  
HETATM    5  N   UNL     1     -10.307  16.616  68.500  1.00  0.00    -0.283 NA 
ENDROOT
BRANCH   3   6
HETATM    6  C   UNL     1     -11.712  13.394  67.480  1.00  0.00    -0.366 C  
BRANCH   6   7
HETATM    7  C   UNL     1     -11.569  13.097  65.984  1.00  0.00    -0.393 A  
HETATM    8  C   UNL     1     -10.273  12.986  65.438  1.00  0.00    -0.301 A  
HETATM    9  C   UNL     1     -10.075  12.590  64.113  1.00  0.00    -0.311 A  
HETATM   10  C   UNL     1     -12.657  12.811  65.141  1.00  0.00    -0.513 A  
HETATM   11  C   UNL     1     -11.166  12.292  63.305  1.00  0.00    -0.399 A  
HETATM   12  C   UNL     1     -12.455  12.407  63.817  1.00  0.00    -0.593 A  
ENDBRANCH   6   7
BRANCH   6  13
HETATM   13  C   UNL     1     -11.647  12.172  68.399  1.00  0.00    -0.381 A  
HETATM   14  C   UNL     1     -12.012  11.212  70.620  1.00  0.00    -0.459 A  
HETATM   15  C   UNL     1     -11.195  10.914  67.981  1.00  0.00    -0.378 A  
HETATM   16  C   UNL     1     -12.100  12.286  69.724  1.00  0.00    -0.298 A  
HETATM   17  C   UNL     1     -11.077   9.850  68.891  1.00  0.00    -0.181 A  
HETATM   18  C   UNL     1     -11.453   9.983  70.238  1.00  0.00    -0.372 A  
BRANCH  18  19
HETATM   19  C   UNL     1     -11.220   8.902  71.228  1.00  0.00    -0.368 A  
HETATM   20  C   UNL     1     -10.165   8.956  72.159  1.00  0.00    -0.292 A  
HETATM   21  C   UNL     1      -9.904   7.893  73.032  1.00  0.00    -0.355 A  
HETATM   22  C   UNL     1     -10.703   6.755  73.006  1.00  0.00    -0.315 A  
HETATM   23  C   UNL     1     -11.764   6.682  72.111  1.00  0.00    -0.342 A  
HETATM   24  C   UNL     1     -12.016   7.741  71.233  1.00  0.00    -0.324 A  
ENDBRANCH  18  19
ENDBRANCH   6  13
ENDBRANCH   3   6
TORSDOF 4
ENDMDL
MODEL       11
REMARK 921   NORMALIZED FREE ENERGY PREDICTED BY IDOCK:   -6.64 KCAL/MOL
REMARK 922        TOTAL FREE ENERGY PREDICTED BY IDOCK:   -9.11 KCAL/MOL
REMARK 923 INTER-LIGAND FREE ENERGY PREDICTED BY IDOCK:   -8.19 KCAL/MOL
REMARK 924 INTRA-LIGAND FREE ENERGY PREDICTED BY IDOCK:   -0.92 KCAL/MOL
REMARK 927      BINDING AFFINITY PREDICTED BY RF-SCORE:    0.00 PKD
ROOT
HETATM    1  C   UNL     1     -11.132  12.699  63.809  1.00  0.00    -0.453 A  
HETATM    2  C   UNL     1     -10.671  13.197  65.004  1.00  0.00    -0.323 A  
HETATM    3  N   UNL     1     -11.799  13.517  65.731  1.00  0.00    -0.354 NA 
HETATM    4  C   UNL     1     -12.867  13.137  64.966  1.00  0.00    -0.302 A  
HETATM    5  N   UNL     1     -12.498  12.665  63.798  1.00  0.00    -0.681 NA 
ENDROOT
BRANCH   3   6
HETATM    6  C   UNL     1     -11.777  14.220  67.032  1.00  0.00    -0.403 C  
BRANCH   6   7
HETATM    7  C   UNL     1     -11.800  13.287  68.247  1.00  0.00    -0.389 A  
HETATM    8  C   UNL     1     -12.206  13.810  69.493  1.00  0.00    -0.344 A  
HETATM    9  C   UNL     1     -12.372  12.984  70.607  1.00  0.00    -0.391 A  
HETATM   10  C   UNL     1     -11.551  11.906  68.170  1.00  0.00    -0.400 A  
HETATM   11  C   UNL     1     -12.140  11.617  70.501  1.00  0.00    -0.458 A  
HETATM   12  C   UNL     1     -11.725  11.080  69.286  1.00  0.00    -0.397 A  
ENDBRANCH   6   7
BRANCH   6  13
HETATM   13  C   UNL     1     -10.771  15.371  67.110  1.00  0.00    -0.314 A  
HETATM   14  C   UNL     1      -8.700  16.268  68.055  1.00  0.00    -0.178 A  
HETATM   15  C   UNL     1     -10.905  16.565  66.392  1.00  0.00    -0.042 A  
HETATM   16  C   UNL     1      -9.623  15.224  67.907  1.00  0.00    -0.199 A  
HETATM   17  C   UNL     1      -9.996  17.621  66.569  1.00  0.00    -0.332 A  
HETATM   18  C   UNL     1      -8.889  17.509  67.429  1.00  0.00    -0.230 A  
BRANCH  18  19
HETATM   19  C   UNL     1      -7.995  18.658  67.710  1.00  0.00    -0.267 A  
HETATM   20  C   UNL     1      -7.781  19.686  66.773  1.00  0.00    -0.288 A  
HETATM   21  C   UNL     1      -6.871  20.722  67.016  1.00  0.00    -0.385 A  
HETATM   22  C   UNL     1      -6.162  20.762  68.212  1.00  0.00    -0.373 A  
HETATM   23  C   UNL     1      -6.367  19.771  69.165  1.00  0.00    -0.349 A  
HETATM   24  C   UNL     1      -7.269  18.733  68.915  1.00  0.00    -0.333 A  
ENDBRANCH  18  19
ENDBRANCH   6  13
ENDBRANCH   3   6
TORSDOF 4
ENDMDL
MODEL       12
REMARK 921   NORMALIZED FREE ENERGY PREDICTED BY IDOCK:   -6.63 KCAL/MOL
REMARK 922        TOTAL FREE ENERGY PREDICTED BY IDOCK:   -9.10 KCAL/MOL
REMARK 923 INTER-LIGAND FREE ENERGY PREDICTED BY IDOCK:   -8.20 KCAL/MOL
REMARK 924 INTRA-LIGAND FREE ENERGY PREDICTED BY IDOCK:   -0.90 KCAL/MOL
REMARK 927      BINDING AFFINITY PREDICTED BY RF-SCORE:    0.00 PKD
ROOT
HETATM    1  C   UNL     1     -11.478  12.783  63.119  1.00  0.00    -0.040 A  
HETATM    2  C   UNL     1     -10.728  12.083  64.033  1.00  0.00    -0.375 A  
HETATM    3  N   UNL     1     -11.556  11.886  65.118  1.00  0.00    -0.266 NA 
HETATM    4  C   UNL     1     -12.769  12.417  64.774  1.00  0.00    -0.236 A  
HETATM    5  N   UNL     1     -12.745  12.983  63.590  1.00  0.00    -0.704 NA 
ENDROOT
BRANCH   3   6
HETATM    6  C   UNL     1     -11.119  11.297  66.402  1.00  0.00    -0.193 C  
BRANCH   6   7
HETATM    7  C   UNL     1      -9.743  10.623  66.343  1.00  0.00    -0.241 A  
HETATM    8  C   UNL     1      -8.615  11.353  66.771  1.00  0.00    -0.166 A  
HETATM    9  C   UNL     1      -7.356  10.755  66.863  1.00  0.00    -0.119 A  
HETATM   10  C   UNL     1      -9.553   9.275  65.995  1.00  0.00    -0.338 A  
HETATM   11  C   UNL     1      -7.197   9.414  66.534  1.00  0.00    -0.089 A  
HETATM   12  C   UNL     1      -8.293   8.676  66.097  1.00  0.00    -0.127 A  
ENDBRANCH   6   7
BRANCH   6  13
HETATM   13  C   UNL     1     -11.357  12.191  67.620  1.00  0.00    -0.379 A  
HETATM   14  C   UNL     1     -11.941  12.374  69.989  1.00  0.00    -0.372 A  
HETATM   15  C   UNL     1     -11.248  13.587  67.587  1.00  0.00    -0.304 A  
HETATM   16  C   UNL     1     -11.662  11.598  68.857  1.00  0.00    -0.397 A  
HETATM   17  C   UNL     1     -11.562  14.363  68.716  1.00  0.00    -0.348 A  
HETATM   18  C   UNL     1     -11.946  13.776  69.934  1.00  0.00    -0.412 A  
BRANCH  18  19
HETATM   19  C   UNL     1     -12.393  14.591  71.090  1.00  0.00    -0.415 A  
HETATM   20  C   UNL     1     -11.483  15.137  72.016  1.00  0.00    -0.450 A  
HETATM   21  C   UNL     1     -11.920  15.833  73.149  1.00  0.00    -0.574 A  
HETATM   22  C   UNL     1     -13.281  16.014  73.376  1.00  0.00    -0.645 A  
HETATM   23  C   UNL     1     -14.202  15.504  72.469  1.00  0.00    -0.502 A  
HETATM   24  C   UNL     1     -13.762  14.800  71.344  1.00  0.00    -0.504 A  
ENDBRANCH  18  19
ENDBRANCH   6  13
ENDBRANCH   3   6
TORSDOF 4
ENDMDL
MODEL       13
REMARK 921   NORMALIZED FREE ENERGY PREDICTED BY IDOCK:   -6.59 KCAL/MOL
REMARK 922        TOTAL FREE ENERGY PREDICTED BY IDOCK:   -9.05 KCAL/MOL
REMARK 923 INTER-LIGAND FREE ENERGY PREDICTED BY IDOCK:   -8.49 KCAL/MOL
REMARK 924 INTRA-LIGAND FREE ENERGY PREDICTED BY IDOCK:   -0.56 KCAL/MOL
REMARK 927      BINDING AFFINITY PREDICTED BY RF-SCORE:    0.00 PKD
ROOT
HETATM    1  C   UNL     1     -12.472  15.622  73.219  1.00  0.00    -0.498 A  
HETATM    2  C   UNL     1     -11.860  14.883  72.235  1.00  0.00    -0.282 A  
HETATM    3  N   UNL     1     -12.830  14.667  71.278  1.00  0.00    -0.314 NA 
HETATM    4  C   UNL     1     -13.944  15.336  71.705  1.00  0.00    -0.539 A  
HETATM    5  N   UNL     1     -13.766  15.898  72.878  1.00  0.00    -0.585 NA 
ENDROOT
BRANCH   3   6
HETATM    6  C   UNL     1     -12.654  13.791  70.100  1.00  0.00    -0.191 C  
BRANCH   6   7
HETATM    7  C   UNL     1     -11.853  14.432  68.960  1.00  0.00    -0.358 A  
HETATM    8  C   UNL     1     -12.029  13.937  67.651  1.00  0.00    -0.403 A  
HETATM    9  C   UNL     1     -11.428  14.560  66.554  1.00  0.00    -0.366 A  
HETATM   10  C   UNL     1     -11.037  15.564  69.125  1.00  0.00    -0.272 A  
HETATM   11  C   UNL     1     -10.643  15.691  66.740  1.00  0.00    -0.307 A  
HETATM   12  C   UNL     1     -10.443  16.189  68.024  1.00  0.00    -0.281 A  
ENDBRANCH   6   7
BRANCH   6  13
HETATM   13  C   UNL     1     -12.271  12.348  70.437  1.00  0.00    -0.370 A  
HETATM   14  C   UNL     1     -10.848  10.410  69.986  1.00  0.00    -0.348 A  
HETATM   15  C   UNL     1     -12.903  11.594  71.433  1.00  0.00    -0.461 A  
HETATM   16  C   UNL     1     -11.203  11.745  69.752  1.00  0.00    -0.166 A  
HETATM   17  C   UNL     1     -12.567  10.246  71.640  1.00  0.00    -0.534 A  
HETATM   18  C   UNL     1     -11.554   9.613  70.901  1.00  0.00    -0.420 A  
BRANCH  18  19
HETATM   19  C   UNL     1     -11.276   8.161  71.032  1.00  0.00    -0.284 A  
HETATM   20  C   UNL     1     -11.106   7.329  69.910  1.00  0.00    -0.233 A  
HETATM   21  C   UNL     1     -10.927   5.946  70.044  1.00  0.00    -0.430 A  
HETATM   22  C   UNL     1     -10.899   5.365  71.308  1.00  0.00    -0.201 A  
HETATM   23  C   UNL     1     -11.046   6.166  72.435  1.00  0.00    -0.316 A  
HETATM   24  C   UNL     1     -11.234   7.544  72.297  1.00  0.00    -0.329 A  
ENDBRANCH  18  19
ENDBRANCH   6  13
ENDBRANCH   3   6
TORSDOF 4
ENDMDL
MODEL       14
REMARK 921   NORMALIZED FREE ENERGY PREDICTED BY IDOCK:   -6.59 KCAL/MOL
REMARK 922        TOTAL FREE ENERGY PREDICTED BY IDOCK:   -9.04 KCAL/MOL
REMARK 923 INTER-LIGAND FREE ENERGY PREDICTED BY IDOCK:   -8.29 KCAL/MOL
REMARK 924 INTRA-LIGAND FREE ENERGY PREDICTED BY IDOCK:   -0.76 KCAL/MOL
REMARK 927      BINDING AFFINITY PREDICTED BY RF-SCORE:    0.00 PKD
ROOT
HETATM    1  C   UNL     1     -10.896  16.349  68.727  1.00  0.00    -0.338 A  
HETATM    2  C   UNL     1     -11.741  15.267  68.780  1.00  0.00    -0.353 A  
HETATM    3  N   UNL     1     -11.103  14.265  68.078  1.00  0.00    -0.261 NA 
HETATM    4  C   UNL     1      -9.892  14.776  67.699  1.00  0.00    -0.218 A  
HETATM    5  N   UNL     1      -9.750  16.032  68.055  1.00  0.00    -0.216 NA 
ENDROOT
BRANCH   3   6
HETATM    6  C   UNL     1     -11.714  12.958  67.755  1.00  0.00    -0.362 C  
BRANCH   6   7
HETATM    7  C   UNL     1     -11.699  12.613  66.261  1.00  0.00    -0.460 A  
HETATM    8  C   UNL     1     -12.426  13.432  65.372  1.00  0.00    -0.543 A  
HETATM    9  C   UNL     1     -12.348  13.248  63.990  1.00  0.00    -0.415 A  
HETATM   10  C   UNL     1     -10.907  11.593  65.708  1.00  0.00    -0.334 A  
HETATM   11  C   UNL     1     -11.541  12.246  63.465  1.00  0.00    -0.570 A  
HETATM   12  C   UNL     1     -10.825  11.417  64.323  1.00  0.00    -0.416 A  
ENDBRANCH   6   7
BRANCH   6  13
HETATM   13  C   UNL     1     -11.302  11.820  68.692  1.00  0.00    -0.327 A  
HETATM   14  C   UNL     1     -11.909  10.282  70.495  1.00  0.00    -0.419 A  
HETATM   15  C   UNL     1     -10.027  11.241  68.691  1.00  0.00    -0.210 A  
HETATM   16  C   UNL     1     -12.251  11.287  69.581  1.00  0.00    -0.340 A  
HETATM   17  C   UNL     1      -9.679  10.259  69.633  1.00  0.00    -0.216 A  
HETATM   18  C   UNL     1     -10.602   9.778  70.578  1.00  0.00    -0.376 A  
BRANCH  18  19
HETATM   19  C   UNL     1     -10.208   8.830  71.648  1.00  0.00    -0.394 A  
HETATM   20  C   UNL     1     -11.151   8.033  72.324  1.00  0.00    -0.393 A  
HETATM   21  C   UNL     1     -10.779   7.203  73.389  1.00  0.00    -0.410 A  
HETATM   22  C   UNL     1      -9.449   7.139  73.793  1.00  0.00    -0.286 A  
HETATM   23  C   UNL     1      -8.493   7.899  73.130  1.00  0.00    -0.242 A  
HETATM   24  C   UNL     1      -8.870   8.734  72.074  1.00  0.00    -0.191 A  
ENDBRANCH  18  19
ENDBRANCH   6  13
ENDBRANCH   3   6
TORSDOF 4
ENDMDL
MODEL       15
REMARK 921   NORMALIZED FREE ENERGY PREDICTED BY IDOCK:   -6.54 KCAL/MOL
REMARK 922        TOTAL FREE ENERGY PREDICTED BY IDOCK:   -8.99 KCAL/MOL
REMARK 923 INTER-LIGAND FREE ENERGY PREDICTED BY IDOCK:   -7.91 KCAL/MOL
REMARK 924 INTRA-LIGAND FREE ENERGY PREDICTED BY IDOCK:   -1.08 KCAL/MOL
REMARK 927      BINDING AFFINITY PREDICTED BY RF-SCORE:    0.00 PKD
ROOT
HETATM    1  C   UNL     1     -13.249  15.742  72.814  1.00  0.00    -0.518 A  
HETATM    2  C   UNL     1     -11.973  15.601  72.324  1.00  0.00    -0.467 A  
HETATM    3  N   UNL     1     -12.124  15.205  71.012  1.00  0.00    -0.304 NA 
HETATM    4  C   UNL     1     -13.469  15.193  70.767  1.00  0.00    -0.296 A  
HETATM    5  N   UNL     1     -14.170  15.488  71.838  1.00  0.00    -0.505 NA 
ENDROOT
BRANCH   3   6
HETATM    6  C   UNL     1     -11.006  14.797  70.134  1.00  0.00    -0.125 C  
BRANCH   6   7
HETATM    7  C   UNL     1     -11.387  13.745  69.086  1.00  0.00    -0.329 A  
HETATM    8  C   UNL     1     -11.612  14.164  67.758  1.00  0.00    -0.379 A  
HETATM    9  C   UNL     1     -11.834  13.241  66.734  1.00  0.00    -0.448 A  
HETATM   10  C   UNL     1     -11.412  12.364  69.346  1.00  0.00    -0.336 A  
HETATM   11  C   UNL     1     -11.833  11.879  67.012  1.00  0.00    -0.192 A  
HETATM   12  C   UNL     1     -11.628  11.441  68.317  1.00  0.00    -0.376 A  
ENDBRANCH   6   7
BRANCH   6  13
HETATM   13  C   UNL     1     -10.155  15.958  69.614  1.00  0.00    -0.271 A  
HETATM   14  C   UNL     1      -7.946  16.813  69.001  1.00  0.00    -0.188 A  
HETATM   15  C   UNL     1     -10.683  17.210  69.272  1.00  0.00    -0.146 A  
HETATM   16  C   UNL     1      -8.777  15.766  69.423  1.00  0.00    -0.230 A  
HETATM   17  C   UNL     1      -9.842  18.266  68.882  1.00  0.00    -0.341 A  
HETATM   18  C   UNL     1      -8.451  18.101  68.768  1.00  0.00    -0.224 A  
BRANCH  18  19
HETATM   19  C   UNL     1      -7.547  19.240  68.473  1.00  0.00    -0.369 A  
HETATM   20  C   UNL     1      -7.542  19.885  67.222  1.00  0.00    -0.306 A  
HETATM   21  C   UNL     1      -6.628  20.904  66.926  1.00  0.00    -0.380 A  
HETATM   22  C   UNL     1      -5.706  21.313  67.884  1.00  0.00    -0.394 A  
HETATM   23  C   UNL     1      -5.700  20.708  69.135  1.00  0.00    -0.402 A  
HETATM   24  C   UNL     1      -6.608  19.684  69.423  1.00  0.00    -0.383 A  
ENDBRANCH  18  19
ENDBRANCH   6  13
ENDBRANCH   3   6
TORSDOF 4
ENDMDL
MODEL       16
REMARK 921   NORMALIZED FREE ENERGY PREDICTED BY IDOCK:   -6.48 KCAL/MOL
REMARK 922        TOTAL FREE ENERGY PREDICTED BY IDOCK:   -8.91 KCAL/MOL
REMARK 923 INTER-LIGAND FREE ENERGY PREDICTED BY IDOCK:   -8.33 KCAL/MOL
REMARK 924 INTRA-LIGAND FREE ENERGY PREDICTED BY IDOCK:   -0.58 KCAL/MOL
REMARK 927      BINDING AFFINITY PREDICTED BY RF-SCORE:    0.00 PKD
ROOT
HETATM    1  C   UNL     1     -11.362  11.690  63.596  1.00  0.00    -0.394 A  
HETATM    2  C   UNL     1     -10.933  11.825  64.895  1.00  0.00    -0.300 A  
HETATM    3  N   UNL     1     -11.982  12.414  65.571  1.00  0.00    -0.490 NA 
HETATM    4  C   UNL     1     -12.998  12.541  64.664  1.00  0.00    -0.083 A  
HETATM    5  N   UNL     1     -12.646  12.137  63.466  1.00  0.00    -0.733 NA 
ENDROOT
BRANCH   3   6
HETATM    6  C   UNL     1     -11.911  12.877  66.973  1.00  0.00    -0.374 C  
BRANCH   6   7
HETATM    7  C   UNL     1     -11.271  11.867  67.933  1.00  0.00    -0.325 A  
HETATM    8  C   UNL     1      -9.881  11.641  67.848  1.00  0.00    -0.189 A  
HETATM    9  C   UNL     1      -9.220  10.833  68.776  1.00  0.00    -0.192 A  
HETATM   10  C   UNL     1     -11.971  11.236  68.975  1.00  0.00    -0.393 A  
HETATM   11  C   UNL     1      -9.931  10.236  69.811  1.00  0.00    -0.222 A  
HETATM   12  C   UNL     1     -11.305  10.434  69.907  1.00  0.00    -0.370 A  
ENDBRANCH   6   7
BRANCH   6  13
HETATM   13  C   UNL     1     -11.438  14.324  67.137  1.00  0.00    -0.377 A  
HETATM   14  C   UNL     1     -10.365  16.289  66.152  1.00  0.00    -0.352 A  
HETATM   15  C   UNL     1     -11.585  15.055  68.321  1.00  0.00    -0.355 A  
HETATM   16  C   UNL     1     -10.862  14.984  66.039  1.00  0.00    -0.334 A  
HETATM   17  C   UNL     1     -11.055  16.351  68.440  1.00  0.00    -0.351 A  
HETATM   18  C   UNL     1     -10.405  16.986  67.369  1.00  0.00    -0.319 A  
BRANCH  18  19
HETATM   19  C   UNL     1      -9.740  18.304  67.524  1.00  0.00    -0.305 A  
HETATM   20  C   UNL     1     -10.295  19.487  67.002  1.00  0.00    -0.568 A  
HETATM   21  C   UNL     1      -9.620  20.711  67.082  1.00  0.00    -0.534 A  
HETATM   22  C   UNL     1      -8.376  20.782  67.701  1.00  0.00    -0.116 A  
HETATM   23  C   UNL     1      -7.812  19.634  68.244  1.00  0.00    -0.355 A  
HETATM   24  C   UNL     1      -8.485  18.412  68.154  1.00  0.00    -0.301 A  
ENDBRANCH  18  19
ENDBRANCH   6  13
ENDBRANCH   3   6
TORSDOF 4
ENDMDL
MODEL       17
REMARK 921   NORMALIZED FREE ENERGY PREDICTED BY IDOCK:   -6.46 KCAL/MOL
REMARK 922        TOTAL FREE ENERGY PREDICTED BY IDOCK:   -8.89 KCAL/MOL
REMARK 923 INTER-LIGAND FREE ENERGY PREDICTED BY IDOCK:   -7.82 KCAL/MOL
REMARK 924 INTRA-LIGAND FREE ENERGY PREDICTED BY IDOCK:   -1.07 KCAL/MOL
REMARK 927      BINDING AFFINITY PREDICTED BY RF-SCORE:    0.00 PKD
ROOT
HETATM    1  C   UNL     1      -8.382  10.446  65.675  1.00  0.00    -0.163 A  
HETATM    2  C   UNL     1      -8.851  11.257  66.681  1.00  0.00    -0.175 A  
HETATM    3  N   UNL     1     -10.146  10.845  66.914  1.00  0.00    -0.205 NA 
HETATM    4  C   UNL     1     -10.363   9.777  66.088  1.00  0.00    -0.144 A  
HETATM    5  N   UNL     1      -9.329   9.530  65.316  1.00  0.00    -0.249 NA 
ENDROOT
BRANCH   3   6
HETATM    6  C   UNL     1     -11.087  11.535  67.823  1.00  0.00    -0.260 C  
BRANCH   6   7
HETATM    7  C   UNL     1     -11.199  10.894  69.210  1.00  0.00    -0.327 A  
HETATM    8  C   UNL     1     -12.426  10.986  69.900  1.00  0.00    -0.286 A  
HETATM    9  C   UNL     1     -12.632  10.314  71.107  1.00  0.00    -0.501 A  
HETATM   10  C   UNL     1     -10.182  10.117  69.791  1.00  0.00    -0.286 A  
HETATM   11  C   UNL     1     -11.618   9.534  71.651  1.00  0.00    -0.451 A  
HETATM   12  C   UNL     1     -10.394   9.439  70.996  1.00  0.00    -0.382 A  
ENDBRANCH   6   7
BRANCH   6  13
HETATM   13  C   UNL     1     -10.966  13.061  67.816  1.00  0.00    -0.273 A  
HETATM   14  C   UNL     1     -11.350  15.177  66.649  1.00  0.00    -0.234 A  
HETATM   15  C   UNL     1     -10.399  13.796  68.864  1.00  0.00    -0.146 A  
HETATM   16  C   UNL     1     -11.483  13.785  66.728  1.00  0.00    -0.367 A  
HETATM   17  C   UNL     1     -10.236  15.188  68.765  1.00  0.00    -0.235 A  
HETATM   18  C   UNL     1     -10.679  15.907  67.641  1.00  0.00    -0.312 A  
BRANCH  18  19
HETATM   19  C   UNL     1     -10.405  17.356  67.479  1.00  0.00    -0.351 A  
HETATM   20  C   UNL     1     -10.090  18.184  68.573  1.00  0.00    -0.413 A  
HETATM   21  C   UNL     1      -9.915  19.565  68.419  1.00  0.00    -0.540 A  
HETATM   22  C   UNL     1     -10.035  20.149  67.163  1.00  0.00    -0.595 A  
HETATM   23  C   UNL     1     -10.326  19.353  66.061  1.00  0.00    -0.584 A  
HETATM   24  C   UNL     1     -10.510  17.976  66.219  1.00  0.00    -0.340 A  
ENDBRANCH  18  19
ENDBRANCH   6  13
ENDBRANCH   3   6
TORSDOF 4
ENDMDL
MODEL       18
REMARK 921   NORMALIZED FREE ENERGY PREDICTED BY IDOCK:   -6.44 KCAL/MOL
REMARK 922        TOTAL FREE ENERGY PREDICTED BY IDOCK:   -8.86 KCAL/MOL
REMARK 923 INTER-LIGAND FREE ENERGY PREDICTED BY IDOCK:   -7.94 KCAL/MOL
REMARK 924 INTRA-LIGAND FREE ENERGY PREDICTED BY IDOCK:   -0.92 KCAL/MOL
REMARK 927      BINDING AFFINITY PREDICTED BY RF-SCORE:    0.00 PKD
ROOT
HETATM    1  C   UNL     1     -11.320  13.447  63.352  1.00  0.00     0.228 A  
HETATM    2  C   UNL     1     -10.588  12.914  64.386  1.00  0.00    -0.396 A  
HETATM    3  N   UNL     1     -11.435  12.029  65.020  1.00  0.00    -0.311 NA 
HETATM    4  C   UNL     1     -12.598  12.030  64.300  1.00  0.00    -0.255 A  
HETATM    5  N   UNL     1     -12.566  12.889  63.307  1.00  0.00    -0.667 NA 
ENDROOT
BRANCH   3   6
HETATM    6  C   UNL     1     -11.112  11.328  66.281  1.00  0.00    -0.166 C  
BRANCH   6   7
HETATM    7  C   UNL     1      -9.709  10.712  66.312  1.00  0.00    -0.245 A  
HETATM    8  C   UNL     1      -9.492   9.491  65.639  1.00  0.00    -0.326 A  
HETATM    9  C   UNL     1      -8.211   8.946  65.521  1.00  0.00    -0.130 A  
HETATM   10  C   UNL     1      -8.592  11.353  66.876  1.00  0.00    -0.154 A  
HETATM   11  C   UNL     1      -7.119   9.609  66.068  1.00  0.00    -0.097 A  
HETATM   12  C   UNL     1      -7.310  10.808  66.749  1.00  0.00    -0.129 A  
ENDBRANCH   6   7
BRANCH   6  13
HETATM   13  C   UNL     1     -11.521  12.086  67.547  1.00  0.00    -0.403 A  
HETATM   14  C   UNL     1     -12.016  14.225  68.627  1.00  0.00    -0.348 A  
HETATM   15  C   UNL     1     -11.777  11.460  68.773  1.00  0.00    -0.404 A  
HETATM   16  C   UNL     1     -11.695  13.479  67.485  1.00  0.00    -0.403 A  
HETATM   17  C   UNL     1     -12.066  12.215  69.922  1.00  0.00    -0.324 A  
HETATM   18  C   UNL     1     -12.161  13.617  69.883  1.00  0.00    -0.406 A  
BRANCH  18  19
HETATM   19  C   UNL     1     -12.347  14.425  71.113  1.00  0.00    -0.428 A  
HETATM   20  C   UNL     1     -11.808  15.719  71.245  1.00  0.00    -0.491 A  
HETATM   21  C   UNL     1     -11.918  16.440  72.441  1.00  0.00    -0.553 A  
HETATM   22  C   UNL     1     -12.585  15.888  73.530  1.00  0.00    -0.695 A  
HETATM   23  C   UNL     1     -13.145  14.620  73.421  1.00  0.00    -0.385 A  
HETATM   24  C   UNL     1     -13.024  13.899  72.230  1.00  0.00    -0.450 A  
ENDBRANCH  18  19
ENDBRANCH   6  13
ENDBRANCH   3   6
TORSDOF 4
ENDMDL
MODEL       19
REMARK 921   NORMALIZED FREE ENERGY PREDICTED BY IDOCK:   -6.37 KCAL/MOL
REMARK 922        TOTAL FREE ENERGY PREDICTED BY IDOCK:   -8.78 KCAL/MOL
REMARK 923 INTER-LIGAND FREE ENERGY PREDICTED BY IDOCK:   -7.71 KCAL/MOL
REMARK 924 INTRA-LIGAND FREE ENERGY PREDICTED BY IDOCK:   -1.07 KCAL/MOL
REMARK 927      BINDING AFFINITY PREDICTED BY RF-SCORE:    0.00 PKD
ROOT
HETATM    1  C   UNL     1      -8.925   9.221  65.298  1.00  0.00    -0.213 A  
HETATM    2  C   UNL     1     -10.111   9.666  65.831  1.00  0.00    -0.234 A  
HETATM    3  N   UNL     1      -9.814  10.866  66.444  1.00  0.00    -0.200 NA 
HETATM    4  C   UNL     1      -8.491  11.106  66.192  1.00  0.00    -0.156 A  
HETATM    5  N   UNL     1      -7.926  10.125  65.527  1.00  0.00    -0.140 NA 
ENDROOT
BRANCH   3   6
HETATM    6  C   UNL     1     -10.767  11.633  67.274  1.00  0.00    -0.238 C  
BRANCH   6   7
HETATM    7  C   UNL     1     -10.963  11.067  68.685  1.00  0.00    -0.271 A  
HETATM    8  C   UNL     1     -12.222  11.216  69.304  1.00  0.00    -0.295 A  
HETATM    9  C   UNL     1     -12.502  10.613  70.532  1.00  0.00    -0.445 A  
HETATM   10  C   UNL     1      -9.993  10.304  69.357  1.00  0.00    -0.254 A  
HETATM   11  C   UNL     1     -11.533   9.844  71.167  1.00  0.00    -0.459 A  
HETATM   12  C   UNL     1     -10.279   9.695  70.583  1.00  0.00    -0.346 A  
ENDBRANCH   6   7
BRANCH   6  13
HETATM   13  C   UNL     1     -10.590  13.151  67.197  1.00  0.00    -0.259 A  
HETATM   14  C   UNL     1      -9.860  15.222  68.276  1.00  0.00    -0.218 A  
HETATM   15  C   UNL     1     -10.954  13.916  66.082  1.00  0.00    -0.293 A  
HETATM   16  C   UNL     1      -9.995  13.828  68.275  1.00  0.00    -0.243 A  
HETATM   17  C   UNL     1     -10.848  15.317  66.101  1.00  0.00    -0.320 A  
HETATM   18  C   UNL     1     -10.328  16.005  67.210  1.00  0.00    -0.295 A  
BRANCH  18  19
HETATM   19  C   UNL     1     -10.324  17.487  67.283  1.00  0.00    -0.337 A  
HETATM   20  C   UNL     1     -10.415  18.292  66.132  1.00  0.00    -0.403 A  
HETATM   21  C   UNL     1     -10.327  19.688  66.205  1.00  0.00    -0.619 A  
HETATM   22  C   UNL     1     -10.160  20.313  67.436  1.00  0.00    -0.534 A  
HETATM   23  C   UNL     1     -10.087  19.544  68.592  1.00  0.00    -0.535 A  
HETATM   24  C   UNL     1     -10.166  18.151  68.514  1.00  0.00    -0.399 A  
ENDBRANCH  18  19
ENDBRANCH   6  13
ENDBRANCH   3   6
TORSDOF 4
ENDMDL
MODEL       20
REMARK 921   NORMALIZED FREE ENERGY PREDICTED BY IDOCK:   -6.37 KCAL/MOL
REMARK 922        TOTAL FREE ENERGY PREDICTED BY IDOCK:   -8.77 KCAL/MOL
REMARK 923 INTER-LIGAND FREE ENERGY PREDICTED BY IDOCK:   -7.73 KCAL/MOL
REMARK 924 INTRA-LIGAND FREE ENERGY PREDICTED BY IDOCK:   -1.04 KCAL/MOL
REMARK 927      BINDING AFFINITY PREDICTED BY RF-SCORE:    0.00 PKD
ROOT
HETATM    1  C   UNL     1     -12.534  13.482  70.723  1.00  0.00    -0.353 A  
HETATM    2  C   UNL     1     -11.951  14.223  69.723  1.00  0.00    -0.339 A  
HETATM    3  N   UNL     1     -11.252  13.317  68.952  1.00  0.00    -0.265 NA 
HETATM    4  C   UNL     1     -11.503  12.084  69.489  1.00  0.00    -0.282 A  
HETATM    5  N   UNL     1     -12.250  12.155  70.566  1.00  0.00    -0.349 NA 
ENDROOT
BRANCH   3   6
HETATM    6  C   UNL     1     -10.352  13.692  67.840  1.00  0.00    -0.249 C  
BRANCH   6   7
HETATM    7  C   UNL     1     -10.937  13.430  66.448  1.00  0.00    -0.297 A  
HETATM    8  C   UNL     1     -10.088  12.919  65.444  1.00  0.00    -0.265 A  
HETATM    9  C   UNL     1     -10.587  12.540  64.196  1.00  0.00    -0.425 A  
HETATM   10  C   UNL     1     -12.302  13.560  66.142  1.00  0.00    -0.463 A  
HETATM   11  C   UNL     1     -11.945  12.657  63.924  1.00  0.00    -0.558 A  
HETATM   12  C   UNL     1     -12.800  13.172  64.894  1.00  0.00    -0.349 A  
ENDBRANCH   6   7
BRANCH   6  13
HETATM   13  C   UNL     1      -9.664  15.048  68.016  1.00  0.00    -0.213 A  
HETATM   14  C   UNL     1      -9.465  17.388  67.332  1.00  0.00    -0.246 A  
HETATM   15  C   UNL     1      -8.638  15.279  68.940  1.00  0.00    -0.207 A  
HETATM   16  C   UNL     1     -10.098  16.141  67.248  1.00  0.00    -0.265 A  
HETATM   17  C   UNL     1      -7.984  16.521  68.998  1.00  0.00    -0.225 A  
HETATM   18  C   UNL     1      -8.361  17.595  68.173  1.00  0.00    -0.259 A  
BRANCH  18  19
HETATM   19  C   UNL     1      -7.599  18.868  68.145  1.00  0.00    -0.305 A  
HETATM   20  C   UNL     1      -7.609  19.720  67.025  1.00  0.00    -0.290 A  
HETATM   21  C   UNL     1      -6.821  20.877  66.978  1.00  0.00    -0.398 A  
HETATM   22  C   UNL     1      -6.015  21.217  68.059  1.00  0.00    -0.393 A  
HETATM   23  C   UNL     1      -6.000  20.405  69.187  1.00  0.00    -0.381 A  
HETATM   24  C   UNL     1      -6.780  19.246  69.227  1.00  0.00    -0.356 A  
ENDBRANCH  18  19
ENDBRANCH   6  13
ENDBRANCH   3   6
TORSDOF 4
ENDMDL
MODEL       21
REMARK 921   NORMALIZED FREE ENERGY PREDICTED BY IDOCK:   -6.29 KCAL/MOL
REMARK 922        TOTAL FREE ENERGY PREDICTED BY IDOCK:   -8.68 KCAL/MOL
REMARK 923 INTER-LIGAND FREE ENERGY PREDICTED BY IDOCK:   -8.19 KCAL/MOL
REMARK 924 INTRA-LIGAND FREE ENERGY PREDICTED BY IDOCK:   -0.50 KCAL/MOL
REMARK 927      BINDING AFFINITY PREDICTED BY RF-SCORE:    0.00 PKD
ROOT
HETATM    1  C   UNL     1     -14.391   8.250  72.303  1.00  0.00    -0.335 A  
HETATM    2  C   UNL     1     -13.591   9.347  72.090  1.00  0.00    -0.457 A  
HETATM    3  N   UNL     1     -12.451   8.860  71.485  1.00  0.00    -0.312 NA 
HETATM    4  C   UNL     1     -12.653   7.518  71.311  1.00  0.00    -0.314 A  
HETATM    5  N   UNL     1     -13.799   7.121  71.814  1.00  0.00    -0.323 NA 
ENDROOT
BRANCH   3   6
HETATM    6  C   UNL     1     -11.249   9.673  71.201  1.00  0.00    -0.384 C  
BRANCH   6   7
HETATM    7  C   UNL     1      -9.929   8.989  71.574  1.00  0.00    -0.391 A  
HETATM    8  C   UNL     1      -8.795   9.225  70.769  1.00  0.00    -0.282 A  
HETATM    9  C   UNL     1      -7.537   8.736  71.128  1.00  0.00    -0.134 A  
HETATM   10  C   UNL     1      -9.752   8.228  72.742  1.00  0.00    -0.336 A  
HETATM   11  C   UNL     1      -7.382   8.004  72.300  1.00  0.00    -0.110 A  
HETATM   12  C   UNL     1      -8.489   7.747  73.103  1.00  0.00    -0.215 A  
ENDBRANCH   6   7
BRANCH   6  13
HETATM   13  C   UNL     1     -11.263  10.365  69.836  1.00  0.00    -0.371 A  
HETATM   14  C   UNL     1     -11.705  12.385  68.527  1.00  0.00    -0.373 A  
HETATM   15  C   UNL     1     -10.892   9.730  68.644  1.00  0.00    -0.223 A  
HETATM   16  C   UNL     1     -11.624  11.721  69.758  1.00  0.00    -0.372 A  
HETATM   17  C   UNL     1     -11.008  10.389  67.409  1.00  0.00    -0.335 A  
HETATM   18  C   UNL     1     -11.447  11.721  67.318  1.00  0.00    -0.373 A  
BRANCH  18  19
HETATM   19  C   UNL     1     -11.683  12.382  66.011  1.00  0.00    -0.469 A  
HETATM   20  C   UNL     1     -11.944  13.761  65.907  1.00  0.00    -0.433 A  
HETATM   21  C   UNL     1     -12.248  14.359  64.678  1.00  0.00    -0.479 A  
HETATM   22  C   UNL     1     -12.283  13.592  63.519  1.00  0.00    -0.410 A  
HETATM   23  C   UNL     1     -12.011  12.231  63.587  1.00  0.00    -0.633 A  
HETATM   24  C   UNL     1     -11.718  11.636  64.817  1.00  0.00    -0.121 A  
ENDBRANCH  18  19
ENDBRANCH   6  13
ENDBRANCH   3   6
TORSDOF 4
ENDMDL
MODEL       22
REMARK 921   NORMALIZED FREE ENERGY PREDICTED BY IDOCK:   -6.28 KCAL/MOL
REMARK 922        TOTAL FREE ENERGY PREDICTED BY IDOCK:   -8.67 KCAL/MOL
REMARK 923 INTER-LIGAND FREE ENERGY PREDICTED BY IDOCK:   -7.64 KCAL/MOL
REMARK 924 INTRA-LIGAND FREE ENERGY PREDICTED BY IDOCK:   -1.03 KCAL/MOL
REMARK 927      BINDING AFFINITY PREDICTED BY RF-SCORE:    0.00 PKD
ROOT
HETATM    1  C   UNL     1     -11.910  11.726  69.880  1.00  0.00    -0.348 A  
HETATM    2  C   UNL     1     -11.086  11.499  68.803  1.00  0.00    -0.233 A  
HETATM    3  N   UNL     1     -10.797  12.747  68.290  1.00  0.00    -0.238 NA 
HETATM    4  C   UNL     1     -11.405  13.651  69.118  1.00  0.00    -0.285 A  
HETATM    5  N   UNL     1     -12.099  13.065  70.067  1.00  0.00    -0.323 NA 
ENDROOT
BRANCH   3   6
HETATM    6  C   UNL     1     -10.053  12.977  67.034  1.00  0.00    -0.243 C  
BRANCH   6   7
HETATM    7  C   UNL     1     -10.801  12.529  65.773  1.00  0.00    -0.310 A  
HETATM    8  C   UNL     1     -12.155  12.898  65.624  1.00  0.00    -0.511 A  
HETATM    9  C   UNL     1     -12.853  12.632  64.444  1.00  0.00    -0.344 A  
HETATM   10  C   UNL     1     -10.185  11.868  64.698  1.00  0.00    -0.316 A  
HETATM   11  C   UNL     1     -12.215  11.996  63.386  1.00  0.00    -0.627 A  
HETATM   12  C   UNL     1     -10.885  11.610  63.514  1.00  0.00    -0.497 A  
ENDBRANCH   6   7
BRANCH   6  13
HETATM   13  C   UNL     1      -9.380  14.349  66.941  1.00  0.00    -0.269 A  
HETATM   14  C   UNL     1      -7.545  15.820  67.616  1.00  0.00    -0.177 A  
HETATM   15  C   UNL     1      -9.881  15.405  66.170  1.00  0.00    -0.337 A  
HETATM   16  C   UNL     1      -8.172  14.567  67.625  1.00  0.00    -0.187 A  
HETATM   17  C   UNL     1      -9.268  16.669  66.191  1.00  0.00    -0.312 A  
HETATM   18  C   UNL     1      -8.104  16.915  66.939  1.00  0.00    -0.251 A  
BRANCH  18  19
HETATM   19  C   UNL     1      -7.521  18.274  67.060  1.00  0.00    -0.229 A  
HETATM   20  C   UNL     1      -7.251  18.863  68.309  1.00  0.00    -0.297 A  
HETATM   21  C   UNL     1      -6.779  20.177  68.413  1.00  0.00    -0.337 A  
HETATM   22  C   UNL     1      -6.551  20.929  67.265  1.00  0.00    -0.403 A  
HETATM   23  C   UNL     1      -6.790  20.367  66.017  1.00  0.00    -0.276 A  
HETATM   24  C   UNL     1      -7.271  19.058  65.918  1.00  0.00    -0.287 A  
ENDBRANCH  18  19
ENDBRANCH   6  13
ENDBRANCH   3   6
TORSDOF 4
ENDMDL
MODEL       23
REMARK 921   NORMALIZED FREE ENERGY PREDICTED BY IDOCK:   -6.24 KCAL/MOL
REMARK 922        TOTAL FREE ENERGY PREDICTED BY IDOCK:   -8.62 KCAL/MOL
REMARK 923 INTER-LIGAND FREE ENERGY PREDICTED BY IDOCK:   -7.60 KCAL/MOL
REMARK 924 INTRA-LIGAND FREE ENERGY PREDICTED BY IDOCK:   -1.02 KCAL/MOL
REMARK 927      BINDING AFFINITY PREDICTED BY RF-SCORE:    0.00 PKD
ROOT
HETATM    1  C   UNL     1     -11.845  11.992  69.681  1.00  0.00    -0.333 A  
HETATM    2  C   UNL     1     -11.089  11.800  68.549  1.00  0.00    -0.239 A  
HETATM    3  N   UNL     1     -10.790  13.065  68.087  1.00  0.00    -0.238 NA 
HETATM    4  C   UNL     1     -11.323  13.940  68.994  1.00  0.00    -0.283 A  
HETATM    5  N   UNL     1     -11.982  13.324  69.948  1.00  0.00    -0.334 NA 
ENDROOT
BRANCH   3   6
HETATM    6  C   UNL     1     -10.108  13.341  66.804  1.00  0.00    -0.258 C  
BRANCH   6   7
HETATM    7  C   UNL     1     -10.915  12.932  65.567  1.00  0.00    -0.301 A  
HETATM    8  C   UNL     1     -10.258  12.233  64.533  1.00  0.00    -0.322 A  
HETATM    9  C   UNL     1     -10.963  11.721  63.442  1.00  0.00    -0.458 A  
HETATM   10  C   UNL     1     -12.304  13.109  65.453  1.00  0.00    -0.532 A  
HETATM   11  C   UNL     1     -12.340  11.890  63.361  1.00  0.00    -0.577 A  
HETATM   12  C   UNL     1     -13.009  12.588  64.362  1.00  0.00    -0.248 A  
ENDBRANCH   6   7
BRANCH   6  13
HETATM   13  C   UNL     1      -9.446  14.719  66.726  1.00  0.00    -0.271 A  
HETATM   14  C   UNL     1      -7.473  16.109  67.128  1.00  0.00    -0.248 A  
HETATM   15  C   UNL     1     -10.090  15.859  66.229  1.00  0.00    -0.317 A  
HETATM   16  C   UNL     1      -8.108  14.860  67.130  1.00  0.00    -0.239 A  
HETATM   17  C   UNL     1      -9.462  17.115  66.260  1.00  0.00    -0.267 A  
HETATM   18  C   UNL     1      -8.150  17.275  66.740  1.00  0.00    -0.280 A  
BRANCH  18  19
HETATM   19  C   UNL     1      -7.526  18.613  66.886  1.00  0.00    -0.230 A  
HETATM   20  C   UNL     1      -7.197  19.410  65.773  1.00  0.00    -0.302 A  
HETATM   21  C   UNL     1      -6.533  20.634  65.920  1.00  0.00    -0.267 A  
HETATM   22  C   UNL     1      -6.196  21.098  67.187  1.00  0.00    -0.409 A  
HETATM   23  C   UNL     1      -6.526  20.342  68.305  1.00  0.00    -0.344 A  
HETATM   24  C   UNL     1      -7.180  19.116  68.155  1.00  0.00    -0.298 A  
ENDBRANCH  18  19
ENDBRANCH   6  13
ENDBRANCH   3   6
TORSDOF 4
ENDMDL
MODEL       24
REMARK 921   NORMALIZED FREE ENERGY PREDICTED BY IDOCK:   -6.23 KCAL/MOL
REMARK 922        TOTAL FREE ENERGY PREDICTED BY IDOCK:   -8.60 KCAL/MOL
REMARK 923 INTER-LIGAND FREE ENERGY PREDICTED BY IDOCK:   -7.79 KCAL/MOL
REMARK 924 INTRA-LIGAND FREE ENERGY PREDICTED BY IDOCK:   -0.82 KCAL/MOL
REMARK 927      BINDING AFFINITY PREDICTED BY RF-SCORE:    0.00 PKD
ROOT
HETATM    1  C   UNL     1     -12.621  15.942  72.792  1.00  0.00    -0.470 A  
HETATM    2  C   UNL     1     -11.748  15.959  71.731  1.00  0.00    -0.491 A  
HETATM    3  N   UNL     1     -12.474  15.507  70.649  1.00  0.00    -0.421 NA 
HETATM    4  C   UNL     1     -13.749  15.307  71.100  1.00  0.00    -0.443 A  
HETATM    5  N   UNL     1     -13.862  15.538  72.388  1.00  0.00    -0.542 NA 
ENDROOT
BRANCH   3   6
HETATM    6  C   UNL     1     -11.893  15.227  69.318  1.00  0.00    -0.329 C  
BRANCH   6   7
HETATM    7  C   UNL     1     -10.707  16.126  68.951  1.00  0.00    -0.280 A  
HETATM    8  C   UNL     1     -10.969  17.424  68.465  1.00  0.00    -0.072 A  
HETATM    9  C   UNL     1      -9.935  18.334  68.236  1.00  0.00    -0.382 A  
HETATM   10  C   UNL     1      -9.366  15.775  69.182  1.00  0.00    -0.258 A  
HETATM   11  C   UNL     1      -8.618  17.971  68.492  1.00  0.00    -0.306 A  
HETATM   12  C   UNL     1      -8.334  16.692  68.959  1.00  0.00    -0.182 A  
ENDBRANCH   6   7
BRANCH   6  13
HETATM   13  C   UNL     1     -11.704  13.739  69.013  1.00  0.00    -0.372 A  
HETATM   14  C   UNL     1     -11.613  11.437  69.839  1.00  0.00    -0.402 A  
HETATM   15  C   UNL     1     -11.449  13.239  67.730  1.00  0.00    -0.354 A  
HETATM   16  C   UNL     1     -11.830  12.804  70.055  1.00  0.00    -0.352 A  
HETATM   17  C   UNL     1     -11.198  11.872  67.524  1.00  0.00    -0.359 A  
HETATM   18  C   UNL     1     -11.243  10.944  68.578  1.00  0.00    -0.335 A  
BRANCH  18  19
HETATM   19  C   UNL     1     -10.864   9.522  68.389  1.00  0.00    -0.183 A  
HETATM   20  C   UNL     1     -10.763   8.626  69.469  1.00  0.00    -0.189 A  
HETATM   21  C   UNL     1     -10.323   7.308  69.289  1.00  0.00    -0.208 A  
HETATM   22  C   UNL     1      -9.990   6.851  68.018  1.00  0.00    -0.175 A  
HETATM   23  C   UNL     1     -10.099   7.709  66.930  1.00  0.00    -0.348 A  
HETATM   24  C   UNL     1     -10.528   9.026  67.115  1.00  0.00    -0.333 A  
ENDBRANCH  18  19
ENDBRANCH   6  13
ENDBRANCH   3   6
TORSDOF 4
ENDMDL
MODEL       25
REMARK 921   NORMALIZED FREE ENERGY PREDICTED BY IDOCK:   -6.19 KCAL/MOL
REMARK 922        TOTAL FREE ENERGY PREDICTED BY IDOCK:   -8.55 KCAL/MOL
REMARK 923 INTER-LIGAND FREE ENERGY PREDICTED BY IDOCK:   -7.74 KCAL/MOL
REMARK 924 INTRA-LIGAND FREE ENERGY PREDICTED BY IDOCK:   -0.82 KCAL/MOL
REMARK 927      BINDING AFFINITY PREDICTED BY RF-SCORE:    0.00 PKD
ROOT
HETATM    1  C   UNL     1     -10.443  10.712  66.829  1.00  0.00    -0.247 A  
HETATM    2  C   UNL     1     -11.296  11.775  67.006  1.00  0.00    -0.321 A  
HETATM    3  N   UNL     1     -10.769  12.500  68.055  1.00  0.00    -0.214 NA 
HETATM    4  C   UNL     1      -9.604  11.874  68.406  1.00  0.00    -0.196 A  
HETATM    5  N   UNL     1      -9.396  10.785  67.703  1.00  0.00    -0.147 NA 
ENDROOT
BRANCH   3   6
HETATM    6  C   UNL     1     -11.440  13.658  68.685  1.00  0.00    -0.307 C  
BRANCH   6   7
HETATM    7  C   UNL     1     -12.090  13.343  70.037  1.00  0.00    -0.404 A  
HETATM    8  C   UNL     1     -12.540  14.415  70.835  1.00  0.00    -0.422 A  
HETATM    9  C   UNL     1     -13.255  14.191  72.014  1.00  0.00    -0.488 A  
HETATM   10  C   UNL     1     -12.371  12.039  70.479  1.00  0.00    -0.369 A  
HETATM   11  C   UNL     1     -13.539  12.892  72.420  1.00  0.00    -0.577 A  
HETATM   12  C   UNL     1     -13.094  11.818  71.656  1.00  0.00    -0.443 A  
ENDBRANCH   6   7
BRANCH   6  13
HETATM   13  C   UNL     1     -10.634  14.958  68.634  1.00  0.00    -0.251 A  
HETATM   14  C   UNL     1     -10.416  17.243  67.787  1.00  0.00    -0.371 A  
HETATM   15  C   UNL     1      -9.423  15.143  69.311  1.00  0.00    -0.212 A  
HETATM   16  C   UNL     1     -11.140  16.050  67.909  1.00  0.00    -0.307 A  
HETATM   17  C   UNL     1      -8.684  16.328  69.159  1.00  0.00    -0.212 A  
HETATM   18  C   UNL     1      -9.148  17.394  68.368  1.00  0.00    -0.274 A  
BRANCH  18  19
HETATM   19  C   UNL     1      -8.320  18.597  68.108  1.00  0.00    -0.332 A  
HETATM   20  C   UNL     1      -7.186  18.905  68.883  1.00  0.00    -0.349 A  
HETATM   21  C   UNL     1      -6.460  20.086  68.682  1.00  0.00    -0.336 A  
HETATM   22  C   UNL     1      -6.844  20.981  67.689  1.00  0.00    -0.370 A  
HETATM   23  C   UNL     1      -7.948  20.694  66.896  1.00  0.00    -0.242 A  
HETATM   24  C   UNL     1      -8.676  19.519  67.105  1.00  0.00    -0.347 A  
ENDBRANCH  18  19
ENDBRANCH   6  13
ENDBRANCH   3   6
TORSDOF 4
ENDMDL
MODEL       26
REMARK 921   NORMALIZED FREE ENERGY PREDICTED BY IDOCK:   -6.09 KCAL/MOL
REMARK 922        TOTAL FREE ENERGY PREDICTED BY IDOCK:   -8.43 KCAL/MOL
REMARK 923 INTER-LIGAND FREE ENERGY PREDICTED BY IDOCK:   -7.87 KCAL/MOL
REMARK 924 INTRA-LIGAND FREE ENERGY PREDICTED BY IDOCK:   -0.56 KCAL/MOL
REMARK 927      BINDING AFFINITY PREDICTED BY RF-SCORE:    0.00 PKD
ROOT
HETATM    1  C   UNL     1      -7.324   9.053  71.112  1.00  0.00    -0.096 A  
HETATM    2  C   UNL     1      -8.264   9.280  70.135  1.00  0.00    -0.167 A  
HETATM    3  N   UNL     1      -9.481   9.001  70.722  1.00  0.00    -0.229 NA 
HETATM    4  C   UNL     1      -9.214   8.688  72.027  1.00  0.00    -0.268 A  
HETATM    5  N   UNL     1      -7.926   8.688  72.283  1.00  0.00    -0.344 NA 
ENDROOT
BRANCH   3   6
HETATM    6  C   UNL     1     -10.768   8.973  69.994  1.00  0.00    -0.229 C  
BRANCH   6   7
HETATM    7  C   UNL     1     -11.965   8.558  70.856  1.00  0.00    -0.204 A  
HETATM    8  C   UNL     1     -12.624   9.546  71.618  1.00  0.00    -0.476 A  
HETATM    9  C   UNL     1     -13.795   9.258  72.321  1.00  0.00    -0.492 A  
HETATM   10  C   UNL     1     -12.520   7.267  70.844  1.00  0.00    -0.266 A  
HETATM   11  C   UNL     1     -14.338   7.979  72.276  1.00  0.00    -0.360 A  
HETATM   12  C   UNL     1     -13.698   6.984  71.543  1.00  0.00    -0.355 A  
ENDBRANCH   6   7
BRANCH   6  13
HETATM   13  C   UNL     1     -11.005  10.181  69.085  1.00  0.00    -0.270 A  
HETATM   14  C   UNL     1     -10.964  11.134  66.832  1.00  0.00    -0.333 A  
HETATM   15  C   UNL     1     -11.448  11.424  69.552  1.00  0.00    -0.381 A  
HETATM   16  C   UNL     1     -10.813  10.045  67.699  1.00  0.00    -0.336 A  
HETATM   17  C   UNL     1     -11.566  12.523  68.684  1.00  0.00    -0.357 A  
HETATM   18  C   UNL     1     -11.296  12.412  67.309  1.00  0.00    -0.384 A  
BRANCH  18  19
HETATM   19  C   UNL     1     -11.304  13.592  66.410  1.00  0.00    -0.335 A  
HETATM   20  C   UNL     1     -12.194  13.700  65.326  1.00  0.00    -0.466 A  
HETATM   21  C   UNL     1     -12.137  14.779  64.434  1.00  0.00    -0.457 A  
HETATM   22  C   UNL     1     -11.194  15.785  64.617  1.00  0.00    -0.373 A  
HETATM   23  C   UNL     1     -10.314  15.715  65.691  1.00  0.00    -0.408 A  
HETATM   24  C   UNL     1     -10.368  14.632  66.573  1.00  0.00    -0.283 A  
ENDBRANCH  18  19
ENDBRANCH   6  13
ENDBRANCH   3   6
TORSDOF 4
ENDMDL
MODEL       27
REMARK 921   NORMALIZED FREE ENERGY PREDICTED BY IDOCK:   -6.08 KCAL/MOL
REMARK 922        TOTAL FREE ENERGY PREDICTED BY IDOCK:   -8.42 KCAL/MOL
REMARK 923 INTER-LIGAND FREE ENERGY PREDICTED BY IDOCK:   -7.65 KCAL/MOL
REMARK 924 INTRA-LIGAND FREE ENERGY PREDICTED BY IDOCK:   -0.76 KCAL/MOL
REMARK 927      BINDING AFFINITY PREDICTED BY RF-SCORE:    0.00 PKD
ROOT
HETATM    1  C   UNL     1      -8.793   8.998  66.924  1.00  0.00    -0.116 A  
HETATM    2  C   UNL     1      -9.926   9.767  66.810  1.00  0.00    -0.218 A  
HETATM    3  N   UNL     1      -9.958  10.549  67.945  1.00  0.00    -0.166 NA 
HETATM    4  C   UNL     1      -8.818  10.257  68.643  1.00  0.00    -0.137 A  
HETATM    5  N   UNL     1      -8.112   9.313  68.066  1.00  0.00    -0.103 NA 
ENDROOT
BRANCH   3   6
HETATM    6  C   UNL     1     -11.085  11.433  68.314  1.00  0.00    -0.244 C  
BRANCH   6   7
HETATM    7  C   UNL     1     -11.681  11.141  69.696  1.00  0.00    -0.410 A  
HETATM    8  C   UNL     1     -12.332  12.186  70.385  1.00  0.00    -0.315 A  
HETATM    9  C   UNL     1     -13.006  11.954  71.586  1.00  0.00    -0.447 A  
HETATM   10  C   UNL     1     -11.720   9.859  70.270  1.00  0.00    -0.286 A  
HETATM   11  C   UNL     1     -13.049  10.672  72.123  1.00  0.00    -0.382 A  
HETATM   12  C   UNL     1     -12.403   9.628  71.469  1.00  0.00    -0.477 A  
ENDBRANCH   6   7
BRANCH   6  13
HETATM   13  C   UNL     1     -10.854  12.913  68.001  1.00  0.00    -0.261 A  
HETATM   14  C   UNL     1      -9.496  14.924  68.320  1.00  0.00    -0.210 A  
HETATM   15  C   UNL     1     -11.691  13.667  67.170  1.00  0.00    -0.418 A  
HETATM   16  C   UNL     1      -9.724  13.558  68.533  1.00  0.00    -0.168 A  
HETATM   17  C   UNL     1     -11.478  15.044  66.987  1.00  0.00    -0.288 A  
HETATM   18  C   UNL     1     -10.394  15.711  67.583  1.00  0.00    -0.275 A  
BRANCH  18  19
HETATM   19  C   UNL     1     -10.232  17.183  67.491  1.00  0.00    -0.323 A  
HETATM   20  C   UNL     1     -10.060  17.988  68.632  1.00  0.00    -0.401 A  
HETATM   21  C   UNL     1      -9.991  19.384  68.540  1.00  0.00    -0.520 A  
HETATM   22  C   UNL     1     -10.079  20.007  67.300  1.00  0.00    -0.577 A  
HETATM   23  C   UNL     1     -10.230  19.236  66.154  1.00  0.00    -0.549 A  
HETATM   24  C   UNL     1     -10.308  17.843  66.250  1.00  0.00    -0.364 A  
ENDBRANCH  18  19
ENDBRANCH   6  13
ENDBRANCH   3   6
TORSDOF 4
ENDMDL
MODEL       28
REMARK 921   NORMALIZED FREE ENERGY PREDICTED BY IDOCK:   -6.07 KCAL/MOL
REMARK 922        TOTAL FREE ENERGY PREDICTED BY IDOCK:   -8.41 KCAL/MOL
REMARK 923 INTER-LIGAND FREE ENERGY PREDICTED BY IDOCK:   -7.35 KCAL/MOL
REMARK 924 INTRA-LIGAND FREE ENERGY PREDICTED BY IDOCK:   -1.06 KCAL/MOL
REMARK 927      BINDING AFFINITY PREDICTED BY RF-SCORE:    0.00 PKD
ROOT
HETATM    1  C   UNL     1     -10.072   5.637  73.767  1.00  0.00    -0.211 A  
HETATM    2  C   UNL     1      -9.620   6.694  73.015  1.00  0.00    -0.146 A  
HETATM    3  N   UNL     1     -10.341   6.647  71.840  1.00  0.00    -0.198 NA 
HETATM    4  C   UNL     1     -11.225   5.611  71.976  1.00  0.00    -0.207 A  
HETATM    5  N   UNL     1     -11.070   4.973  73.112  1.00  0.00    -0.303 NA 
ENDROOT
BRANCH   3   6
HETATM    6  C   UNL     1     -10.085   7.516  70.671  1.00  0.00    -0.187 C  
BRANCH   6   7
HETATM    7  C   UNL     1     -10.124   6.782  69.326  1.00  0.00    -0.179 A  
HETATM    8  C   UNL     1     -11.247   6.963  68.491  1.00  0.00    -0.068 A  
HETATM    9  C   UNL     1     -11.285   6.426  67.202  1.00  0.00    -0.298 A  
HETATM   10  C   UNL     1      -9.052   6.027  68.822  1.00  0.00    -0.124 A  
HETATM   11  C   UNL     1     -10.203   5.701  66.717  1.00  0.00    -0.276 A  
HETATM   12  C   UNL     1      -9.091   5.498  67.528  1.00  0.00    -0.107 A  
ENDBRANCH   6   7
BRANCH   6  13
HETATM   13  C   UNL     1     -10.824   8.856  70.707  1.00  0.00    -0.294 A  
HETATM   14  C   UNL     1     -10.920  11.202  70.020  1.00  0.00    -0.079 A  
HETATM   15  C   UNL     1     -12.023   9.058  71.401  1.00  0.00    -0.400 A  
HETATM   16  C   UNL     1     -10.311   9.941  69.977  1.00  0.00    -0.320 A  
HETATM   17  C   UNL     1     -12.611  10.332  71.469  1.00  0.00    -0.544 A  
HETATM   18  C   UNL     1     -12.057  11.440  70.807  1.00  0.00    -0.433 A  
BRANCH  18  19
HETATM   19  C   UNL     1     -12.606  12.809  70.972  1.00  0.00    -0.362 A  
HETATM   20  C   UNL     1     -12.248  13.866  70.115  1.00  0.00    -0.425 A  
HETATM   21  C   UNL     1     -12.707  15.172  70.330  1.00  0.00    -0.378 A  
HETATM   22  C   UNL     1     -13.551  15.447  71.402  1.00  0.00    -0.604 A  
HETATM   23  C   UNL     1     -13.937  14.419  72.253  1.00  0.00    -0.610 A  
HETATM   24  C   UNL     1     -13.469  13.119  72.041  1.00  0.00    -0.598 A  
ENDBRANCH  18  19
ENDBRANCH   6  13
ENDBRANCH   3   6
TORSDOF 4
ENDMDL
MODEL       29
REMARK 921   NORMALIZED FREE ENERGY PREDICTED BY IDOCK:   -6.07 KCAL/MOL
REMARK 922        TOTAL FREE ENERGY PREDICTED BY IDOCK:   -8.41 KCAL/MOL
REMARK 923 INTER-LIGAND FREE ENERGY PREDICTED BY IDOCK:   -7.81 KCAL/MOL
REMARK 924 INTRA-LIGAND FREE ENERGY PREDICTED BY IDOCK:   -0.60 KCAL/MOL
REMARK 927      BINDING AFFINITY PREDICTED BY RF-SCORE:    0.00 PKD
ROOT
HETATM    1  C   UNL     1      -7.549  10.663  66.001  1.00  0.00    -0.142 A  
HETATM    2  C   UNL     1      -8.286  10.244  67.083  1.00  0.00    -0.122 A  
HETATM    3  N   UNL     1      -9.496   9.829  66.567  1.00  0.00    -0.167 NA 
HETATM    4  C   UNL     1      -9.397   9.959  65.209  1.00  0.00    -0.251 A  
HETATM    5  N   UNL     1      -8.249  10.479  64.842  1.00  0.00    -0.152 NA 
ENDROOT
BRANCH   3   6
HETATM    6  C   UNL     1     -10.657   9.428  67.390  1.00  0.00    -0.258 C  
BRANCH   6   7
HETATM    7  C   UNL     1     -10.521   8.042  68.030  1.00  0.00    -0.243 A  
HETATM    8  C   UNL     1     -10.986   6.919  67.313  1.00  0.00    -0.406 A  
HETATM    9  C   UNL     1     -10.774   5.621  67.783  1.00  0.00    -0.250 A  
HETATM   10  C   UNL     1      -9.853   7.809  69.244  1.00  0.00    -0.173 A  
HETATM   11  C   UNL     1     -10.092   5.415  68.976  1.00  0.00    -0.283 A  
HETATM   12  C   UNL     1      -9.637   6.508  69.708  1.00  0.00    -0.161 A  
ENDBRANCH   6   7
BRANCH   6  13
HETATM   13  C   UNL     1     -11.182  10.527  68.317  1.00  0.00    -0.354 A  
HETATM   14  C   UNL     1     -11.774  12.880  68.634  1.00  0.00    -0.359 A  
HETATM   15  C   UNL     1     -11.552  10.303  69.649  1.00  0.00    -0.267 A  
HETATM   16  C   UNL     1     -11.348  11.828  67.813  1.00  0.00    -0.358 A  
HETATM   17  C   UNL     1     -11.946  11.367  70.478  1.00  0.00    -0.451 A  
HETATM   18  C   UNL     1     -12.035  12.685  69.999  1.00  0.00    -0.377 A  
BRANCH  18  19
HETATM   19  C   UNL     1     -12.335  13.828  70.897  1.00  0.00    -0.456 A  
HETATM   20  C   UNL     1     -11.555  14.999  70.900  1.00  0.00    -0.364 A  
HETATM   21  C   UNL     1     -11.795  16.037  71.810  1.00  0.00    -0.599 A  
HETATM   22  C   UNL     1     -12.835  15.933  72.728  1.00  0.00    -0.572 A  
HETATM   23  C   UNL     1     -13.634  14.796  72.735  1.00  0.00    -0.542 A  
HETATM   24  C   UNL     1     -13.384  13.758  71.832  1.00  0.00    -0.499 A  
ENDBRANCH  18  19
ENDBRANCH   6  13
ENDBRANCH   3   6
TORSDOF 4
ENDMDL
MODEL       30
REMARK 921   NORMALIZED FREE ENERGY PREDICTED BY IDOCK:   -5.98 KCAL/MOL
REMARK 922        TOTAL FREE ENERGY PREDICTED BY IDOCK:   -8.29 KCAL/MOL
REMARK 923 INTER-LIGAND FREE ENERGY PREDICTED BY IDOCK:   -7.61 KCAL/MOL
REMARK 924 INTRA-LIGAND FREE ENERGY PREDICTED BY IDOCK:   -0.68 KCAL/MOL
REMARK 927      BINDING AFFINITY PREDICTED BY RF-SCORE:    0.00 PKD
ROOT
HETATM    1  C   UNL     1     -12.594  14.602  71.552  1.00  0.00    -0.343 A  
HETATM    2  C   UNL     1     -12.435  14.467  70.193  1.00  0.00    -0.339 A  
HETATM    3  N   UNL     1     -11.640  15.526  69.807  1.00  0.00    -0.308 NA 
HETATM    4  C   UNL     1     -11.314  16.198  70.954  1.00  0.00    -0.359 A  
HETATM    5  N   UNL     1     -11.892  15.679  72.013  1.00  0.00    -0.412 NA 
ENDROOT
BRANCH   3   6
HETATM    6  C   UNL     1     -11.326  15.860  68.401  1.00  0.00    -0.361 C  
BRANCH   6   7
HETATM    7  C   UNL     1     -10.347  17.028  68.241  1.00  0.00    -0.347 A  
HETATM    8  C   UNL     1      -9.000  16.837  68.614  1.00  0.00    -0.251 A  
HETATM    9  C   UNL     1      -8.034  17.816  68.373  1.00  0.00    -0.293 A  
HETATM   10  C   UNL     1     -10.687  18.249  67.632  1.00  0.00    -0.373 A  
HETATM   11  C   UNL     1      -8.391  19.007  67.750  1.00  0.00    -0.318 A  
HETATM   12  C   UNL     1      -9.715  19.224  67.384  1.00  0.00    -0.405 A  
ENDBRANCH   6   7
BRANCH   6  13
HETATM   13  C   UNL     1     -11.048  14.647  67.511  1.00  0.00    -0.319 A  
HETATM   14  C   UNL     1      -9.709  12.646  67.074  1.00  0.00    -0.225 A  
HETATM   15  C   UNL     1     -11.778  14.355  66.352  1.00  0.00    -0.397 A  
HETATM   16  C   UNL     1     -10.039  13.742  67.882  1.00  0.00    -0.246 A  
HETATM   17  C   UNL     1     -11.422  13.275  65.527  1.00  0.00    -0.335 A  
HETATM   18  C   UNL     1     -10.360  12.414  65.852  1.00  0.00    -0.282 A  
BRANCH  18  19
HETATM   19  C   UNL     1      -9.905  11.346  64.928  1.00  0.00    -0.301 A  
HETATM   20  C   UNL     1      -9.289  10.169  65.392  1.00  0.00    -0.269 A  
HETATM   21  C   UNL     1      -8.788   9.206  64.507  1.00  0.00    -0.165 A  
HETATM   22  C   UNL     1      -8.907   9.392  63.134  1.00  0.00    -0.207 A  
HETATM   23  C   UNL     1      -9.528  10.536  62.647  1.00  0.00    -0.326 A  
HETATM   24  C   UNL     1     -10.017  11.499  63.533  1.00  0.00    -0.429 A  
ENDBRANCH  18  19
ENDBRANCH   6  13
ENDBRANCH   3   6
TORSDOF 4
ENDMDL
MODEL       31
REMARK 921   NORMALIZED FREE ENERGY PREDICTED BY IDOCK:   -5.93 KCAL/MOL
REMARK 922        TOTAL FREE ENERGY PREDICTED BY IDOCK:   -8.24 KCAL/MOL
REMARK 923 INTER-LIGAND FREE ENERGY PREDICTED BY IDOCK:   -7.46 KCAL/MOL
REMARK 924 INTRA-LIGAND FREE ENERGY PREDICTED BY IDOCK:   -0.78 KCAL/MOL
REMARK 927      BINDING AFFINITY PREDICTED BY RF-SCORE:    0.00 PKD
ROOT
HETATM    1  C   UNL     1      -8.507  10.552  63.480  1.00  0.00    -0.140 A  
HETATM    2  C   UNL     1      -8.735  10.702  64.827  1.00  0.00    -0.160 A  
HETATM    3  N   UNL     1     -10.035  11.150  64.934  1.00  0.00    -0.258 NA 
HETATM    4  C   UNL     1     -10.535  11.183  63.661  1.00  0.00    -0.376 A  
HETATM    5  N   UNL     1      -9.633  10.851  62.766  1.00  0.00    -0.315 NA 
ENDROOT
BRANCH   3   6
HETATM    6  C   UNL     1     -10.663  11.583  66.201  1.00  0.00    -0.274 C  
BRANCH   6   7
HETATM    7  C   UNL     1     -10.214  10.781  67.427  1.00  0.00    -0.241 A  
HETATM    8  C   UNL     1     -10.902   9.590  67.744  1.00  0.00    -0.258 A  
HETATM    9  C   UNL     1     -10.462   8.750  68.769  1.00  0.00    -0.214 A  
HETATM   10  C   UNL     1      -9.079  11.100  68.191  1.00  0.00    -0.159 A  
HETATM   11  C   UNL     1      -9.324   9.076  69.497  1.00  0.00    -0.160 A  
HETATM   12  C   UNL     1      -8.636  10.252  69.212  1.00  0.00    -0.175 A  
ENDBRANCH   6   7
BRANCH   6  13
HETATM   13  C   UNL     1     -10.711  13.101  66.395  1.00  0.00    -0.293 A  
HETATM   14  C   UNL     1      -9.968  15.318  65.675  1.00  0.00    -0.397 A  
HETATM   15  C   UNL     1     -11.465  13.729  67.393  1.00  0.00    -0.372 A  
HETATM   16  C   UNL     1     -10.000  13.928  65.508  1.00  0.00    -0.275 A  
HETATM   17  C   UNL     1     -11.403  15.120  67.578  1.00  0.00    -0.325 A  
HETATM   18  C   UNL     1     -10.628  15.944  66.743  1.00  0.00    -0.309 A  
BRANCH  18  19
HETATM   19  C   UNL     1     -10.465  17.395  67.006  1.00  0.00    -0.284 A  
HETATM   20  C   UNL     1     -10.481  18.348  65.970  1.00  0.00    -0.400 A  
HETATM   21  C   UNL     1     -10.243  19.706  66.220  1.00  0.00    -0.598 A  
HETATM   22  C   UNL     1      -9.998  20.144  67.517  1.00  0.00    -0.571 A  
HETATM   23  C   UNL     1      -9.996  19.228  68.563  1.00  0.00    -0.513 A  
HETATM   24  C   UNL     1     -10.224  17.873  68.308  1.00  0.00    -0.391 A  
ENDBRANCH  18  19
ENDBRANCH   6  13
ENDBRANCH   3   6
TORSDOF 4
ENDMDL
MODEL       32
REMARK 921   NORMALIZED FREE ENERGY PREDICTED BY IDOCK:   -5.89 KCAL/MOL
REMARK 922        TOTAL FREE ENERGY PREDICTED BY IDOCK:   -8.18 KCAL/MOL
REMARK 923 INTER-LIGAND FREE ENERGY PREDICTED BY IDOCK:   -7.67 KCAL/MOL
REMARK 924 INTRA-LIGAND FREE ENERGY PREDICTED BY IDOCK:   -0.51 KCAL/MOL
REMARK 927      BINDING AFFINITY PREDICTED BY RF-SCORE:    0.00 PKD
ROOT
HETATM    1  C   UNL     1     -10.782  19.775  66.175  1.00  0.00    -0.386 A  
HETATM    2  C   UNL     1     -10.557  18.762  67.075  1.00  0.00    -0.420 A  
HETATM    3  N   UNL     1      -9.197  18.534  67.042  1.00  0.00    -0.277 NA 
HETATM    4  C   UNL     1      -8.675  19.459  66.179  1.00  0.00    -0.279 A  
HETATM    5  N   UNL     1      -9.606  20.201  65.626  1.00  0.00    -0.186 NA 
ENDROOT
BRANCH   3   6
HETATM    6  C   UNL     1      -8.522  17.427  67.752  1.00  0.00    -0.223 C  
BRANCH   6   7
HETATM    7  C   UNL     1      -7.375  17.876  68.664  1.00  0.00    -0.271 A  
HETATM    8  C   UNL     1      -7.244  19.250  68.958  1.00  0.00    -0.388 A  
HETATM    9  C   UNL     1      -6.302  19.708  69.882  1.00  0.00    -0.353 A  
HETATM   10  C   UNL     1      -6.511  16.985  69.322  1.00  0.00    -0.231 A  
HETATM   11  C   UNL     1      -5.473  18.804  70.536  1.00  0.00    -0.233 A  
HETATM   12  C   UNL     1      -5.574  17.445  70.253  1.00  0.00    -0.236 A  
ENDBRANCH   6   7
BRANCH   6  13
HETATM   13  C   UNL     1      -9.474  16.394  68.360  1.00  0.00    -0.220 A  
HETATM   14  C   UNL     1     -11.040  15.799  70.144  1.00  0.00    -0.360 A  
HETATM   15  C   UNL     1      -9.705  15.132  67.800  1.00  0.00    -0.211 A  
HETATM   16  C   UNL     1     -10.197  16.727  69.518  1.00  0.00    -0.166 A  
HETATM   17  C   UNL     1     -10.524  14.193  68.449  1.00  0.00    -0.254 A  
HETATM   18  C   UNL     1     -11.186  14.493  69.652  1.00  0.00    -0.292 A  
BRANCH  18  19
HETATM   19  C   UNL     1     -11.955  13.469  70.401  1.00  0.00    -0.367 A  
HETATM   20  C   UNL     1     -12.804  13.808  71.471  1.00  0.00    -0.445 A  
HETATM   21  C   UNL     1     -13.461  12.826  72.224  1.00  0.00    -0.591 A  
HETATM   22  C   UNL     1     -13.294  11.481  71.914  1.00  0.00    -0.408 A  
HETATM   23  C   UNL     1     -12.476  11.118  70.850  1.00  0.00    -0.509 A  
HETATM   24  C   UNL     1     -11.815  12.099  70.107  1.00  0.00    -0.368 A  
ENDBRANCH  18  19
ENDBRANCH   6  13
ENDBRANCH   3   6
TORSDOF 4
ENDMDL
MODEL       33
REMARK 921   NORMALIZED FREE ENERGY PREDICTED BY IDOCK:   -5.89 KCAL/MOL
REMARK 922        TOTAL FREE ENERGY PREDICTED BY IDOCK:   -8.18 KCAL/MOL
REMARK 923 INTER-LIGAND FREE ENERGY PREDICTED BY IDOCK:   -7.38 KCAL/MOL
REMARK 924 INTRA-LIGAND FREE ENERGY PREDICTED BY IDOCK:   -0.80 KCAL/MOL
REMARK 927      BINDING AFFINITY PREDICTED BY RF-SCORE:    0.00 PKD
ROOT
HETATM    1  C   UNL     1     -14.364   8.592  72.175  1.00  0.00    -0.436 A  
HETATM    2  C   UNL     1     -13.342   9.494  71.997  1.00  0.00    -0.452 A  
HETATM    3  N   UNL     1     -12.314   8.778  71.420  1.00  0.00    -0.304 NA 
HETATM    4  C   UNL     1     -12.792   7.512  71.224  1.00  0.00    -0.290 A  
HETATM    5  N   UNL     1     -14.011   7.365  71.689  1.00  0.00    -0.417 NA 
ENDROOT
BRANCH   3   6
HETATM    6  C   UNL     1     -10.959   9.318  71.180  1.00  0.00    -0.339 C  
BRANCH   6   7
HETATM    7  C   UNL     1      -9.854   8.603  71.965  1.00  0.00    -0.396 A  
HETATM    8  C   UNL     1      -8.522   8.713  71.512  1.00  0.00    -0.238 A  
HETATM    9  C   UNL     1      -7.458   8.195  72.253  1.00  0.00    -0.139 A  
HETATM   10  C   UNL     1     -10.074   7.935  73.182  1.00  0.00    -0.362 A  
HETATM   11  C   UNL     1      -7.699   7.557  73.464  1.00  0.00    -0.134 A  
HETATM   12  C   UNL     1      -9.005   7.423  73.926  1.00  0.00    -0.281 A  
ENDBRANCH   6   7
BRANCH   6  13
HETATM   13  C   UNL     1     -10.641   9.594  69.708  1.00  0.00    -0.267 A  
HETATM   14  C   UNL     1     -10.245  11.230  67.933  1.00  0.00    -0.201 A  
HETATM   15  C   UNL     1     -10.453   8.585  68.756  1.00  0.00    -0.208 A  
HETATM   16  C   UNL     1     -10.483  10.922  69.279  1.00  0.00    -0.230 A  
HETATM   17  C   UNL     1     -10.249   8.899  67.402  1.00  0.00    -0.313 A  
HETATM   18  C   UNL     1     -10.171  10.228  66.953  1.00  0.00    -0.286 A  
BRANCH  18  19
HETATM   19  C   UNL     1     -10.074  10.566  65.512  1.00  0.00    -0.349 A  
HETATM   20  C   UNL     1      -9.413   9.731  64.592  1.00  0.00    -0.295 A  
HETATM   21  C   UNL     1      -9.256  10.099  63.250  1.00  0.00    -0.320 A  
HETATM   22  C   UNL     1      -9.771  11.308  62.793  1.00  0.00    -0.289 A  
HETATM   23  C   UNL     1     -10.446  12.144  63.675  1.00  0.00    -0.495 A  
HETATM   24  C   UNL     1     -10.592  11.777  65.016  1.00  0.00    -0.338 A  
ENDBRANCH  18  19
ENDBRANCH   6  13
ENDBRANCH   3   6
TORSDOF 4
ENDMDL
MODEL       34
REMARK 921   NORMALIZED FREE ENERGY PREDICTED BY IDOCK:   -5.86 KCAL/MOL
REMARK 922        TOTAL FREE ENERGY PREDICTED BY IDOCK:   -8.14 KCAL/MOL
REMARK 923 INTER-LIGAND FREE ENERGY PREDICTED BY IDOCK:   -7.70 KCAL/MOL
REMARK 924 INTRA-LIGAND FREE ENERGY PREDICTED BY IDOCK:   -0.44 KCAL/MOL
REMARK 927      BINDING AFFINITY PREDICTED BY RF-SCORE:    0.00 PKD
ROOT
HETATM    1  C   UNL     1     -14.410   7.701  72.023  1.00  0.00    -0.328 A  
HETATM    2  C   UNL     1     -13.337   7.377  71.228  1.00  0.00    -0.271 A  
HETATM    3  N   UNL     1     -12.347   8.280  71.557  1.00  0.00    -0.299 NA 
HETATM    4  C   UNL     1     -12.853   9.049  72.569  1.00  0.00    -0.338 A  
HETATM    5  N   UNL     1     -14.097   8.739  72.854  1.00  0.00    -0.365 NA 
ENDROOT
BRANCH   3   6
HETATM    6  C   UNL     1     -11.057   8.395  70.844  1.00  0.00    -0.254 C  
BRANCH   6   7
HETATM    7  C   UNL     1     -10.374   7.051  70.568  1.00  0.00    -0.218 A  
HETATM    8  C   UNL     1      -9.467   6.545  71.523  1.00  0.00    -0.162 A  
HETATM    9  C   UNL     1      -8.912   5.271  71.392  1.00  0.00    -0.156 A  
HETATM   10  C   UNL     1     -10.685   6.234  69.468  1.00  0.00    -0.365 A  
HETATM   11  C   UNL     1      -9.252   4.472  70.306  1.00  0.00    -0.185 A  
HETATM   12  C   UNL     1     -10.132   4.955  69.344  1.00  0.00    -0.270 A  
ENDBRANCH   6   7
BRANCH   6  13
HETATM   13  C   UNL     1     -11.071   9.375  69.669  1.00  0.00    -0.163 A  
HETATM   14  C   UNL     1     -11.866  11.489  68.727  1.00  0.00    -0.394 A  
HETATM   15  C   UNL     1     -10.378   9.157  68.472  1.00  0.00    -0.236 A  
HETATM   16  C   UNL     1     -11.778  10.584  69.792  1.00  0.00    -0.354 A  
HETATM   17  C   UNL     1     -10.497  10.050  67.395  1.00  0.00    -0.316 A  
HETATM   18  C   UNL     1     -11.269  11.221  67.485  1.00  0.00    -0.357 A  
BRANCH  18  19
HETATM   19  C   UNL     1     -11.494  12.105  66.316  1.00  0.00    -0.433 A  
HETATM   20  C   UNL     1     -12.261  13.282  66.405  1.00  0.00    -0.419 A  
HETATM   21  C   UNL     1     -12.537  14.065  65.277  1.00  0.00    -0.495 A  
HETATM   22  C   UNL     1     -12.037  13.696  64.033  1.00  0.00    -0.474 A  
HETATM   23  C   UNL     1     -11.260  12.549  63.917  1.00  0.00    -0.496 A  
HETATM   24  C   UNL     1     -10.995  11.765  65.044  1.00  0.00    -0.357 A  
ENDBRANCH  18  19
ENDBRANCH   6  13
ENDBRANCH   3   6
TORSDOF 4
ENDMDL
MODEL       35
REMARK 921   NORMALIZED FREE ENERGY PREDICTED BY IDOCK:   -5.83 KCAL/MOL
REMARK 922        TOTAL FREE ENERGY PREDICTED BY IDOCK:   -8.11 KCAL/MOL
REMARK 923 INTER-LIGAND FREE ENERGY PREDICTED BY IDOCK:   -7.51 KCAL/MOL
REMARK 924 INTRA-LIGAND FREE ENERGY PREDICTED BY IDOCK:   -0.61 KCAL/MOL
REMARK 927      BINDING AFFINITY PREDICTED BY RF-SCORE:    0.00 PKD
ROOT
HETATM    1  C   UNL     1      -7.281  10.235  65.336  1.00  0.00    -0.143 A  
HETATM    2  C   UNL     1      -7.952   9.784  66.448  1.00  0.00    -0.109 A  
HETATM    3  N   UNL     1      -9.230   9.496  66.017  1.00  0.00    -0.180 NA 
HETATM    4  C   UNL     1      -9.240   9.726  64.668  1.00  0.00    -0.255 A  
HETATM    5  N   UNL     1      -8.091  10.193  64.237  1.00  0.00    -0.157 NA 
ENDROOT
BRANCH   3   6
HETATM    6  C   UNL     1     -10.343   9.114  66.912  1.00  0.00    -0.251 C  
BRANCH   6   7
HETATM    7  C   UNL     1     -10.171   7.740  67.570  1.00  0.00    -0.301 A  
HETATM    8  C   UNL     1     -10.874   6.641  67.033  1.00  0.00    -0.467 A  
HETATM    9  C   UNL     1     -10.661   5.344  67.505  1.00  0.00    -0.143 A  
HETATM   10  C   UNL     1      -9.262   7.486  68.611  1.00  0.00    -0.144 A  
HETATM   11  C   UNL     1      -9.741   5.115  68.520  1.00  0.00    -0.205 A  
HETATM   12  C   UNL     1      -9.046   6.185  69.076  1.00  0.00    -0.124 A  
ENDBRANCH   6   7
BRANCH   6  13
HETATM   13  C   UNL     1     -10.814  10.232  67.845  1.00  0.00    -0.337 A  
HETATM   14  C   UNL     1     -11.486  10.925  70.094  1.00  0.00    -0.405 A  
HETATM   15  C   UNL     1     -11.032  11.549  67.425  1.00  0.00    -0.317 A  
HETATM   16  C   UNL     1     -11.005   9.951  69.209  1.00  0.00    -0.244 A  
HETATM   17  C   UNL     1     -11.547  12.514  68.307  1.00  0.00    -0.376 A  
HETATM   18  C   UNL     1     -11.816  12.216  69.654  1.00  0.00    -0.391 A  
BRANCH  18  19
HETATM   19  C   UNL     1     -12.470  13.194  70.558  1.00  0.00    -0.322 A  
HETATM   20  C   UNL     1     -13.164  12.794  71.715  1.00  0.00    -0.471 A  
HETATM   21  C   UNL     1     -13.847  13.718  72.516  1.00  0.00    -0.626 A  
HETATM   22  C   UNL     1     -13.839  15.068  72.185  1.00  0.00    -0.584 A  
HETATM   23  C   UNL     1     -13.146  15.496  71.059  1.00  0.00    -0.551 A  
HETATM   24  C   UNL     1     -12.473  14.570  70.257  1.00  0.00    -0.405 A  
ENDBRANCH  18  19
ENDBRANCH   6  13
ENDBRANCH   3   6
TORSDOF 4
ENDMDL
MODEL       36
REMARK 921   NORMALIZED FREE ENERGY PREDICTED BY IDOCK:   -5.74 KCAL/MOL
REMARK 922        TOTAL FREE ENERGY PREDICTED BY IDOCK:   -8.00 KCAL/MOL
REMARK 923 INTER-LIGAND FREE ENERGY PREDICTED BY IDOCK:   -7.21 KCAL/MOL
REMARK 924 INTRA-LIGAND FREE ENERGY PREDICTED BY IDOCK:   -0.79 KCAL/MOL
REMARK 927      BINDING AFFINITY PREDICTED BY RF-SCORE:    0.00 PKD
ROOT
HETATM    1  C   UNL     1     -11.160  10.184  69.846  1.00  0.00    -0.293 A  
HETATM    2  C   UNL     1     -10.051  10.719  69.234  1.00  0.00    -0.177 A  
HETATM    3  N   UNL     1     -10.537  11.481  68.192  1.00  0.00    -0.188 NA 
HETATM    4  C   UNL     1     -11.901  11.415  68.273  1.00  0.00    -0.249 A  
HETATM    5  N   UNL     1     -12.302  10.626  69.242  1.00  0.00    -0.284 NA 
ENDROOT
BRANCH   3   6
HETATM    6  C   UNL     1      -9.687  12.130  67.170  1.00  0.00    -0.199 C  
BRANCH   6   7
HETATM    7  C   UNL     1      -9.876  11.573  65.755  1.00  0.00    -0.266 A  
HETATM    8  C   UNL     1     -10.550  12.367  64.802  1.00  0.00    -0.331 A  
HETATM    9  C   UNL     1     -10.641  11.973  63.465  1.00  0.00    -0.514 A  
HETATM   10  C   UNL     1      -9.315  10.363  65.315  1.00  0.00    -0.263 A  
HETATM   11  C   UNL     1     -10.059  10.781  63.049  1.00  0.00    -0.207 A  
HETATM   12  C   UNL     1      -9.401   9.975  63.973  1.00  0.00    -0.324 A  
ENDBRANCH   6   7
BRANCH   6  13
HETATM   13  C   UNL     1      -9.634  13.656  67.271  1.00  0.00    -0.238 A  
HETATM   14  C   UNL     1     -10.795  15.755  67.753  1.00  0.00    -0.316 A  
HETATM   15  C   UNL     1      -8.484  14.408  67.002  1.00  0.00    -0.206 A  
HETATM   16  C   UNL     1     -10.776  14.355  67.695  1.00  0.00    -0.263 A  
HETATM   17  C   UNL     1      -8.517  15.813  67.028  1.00  0.00    -0.251 A  
HETATM   18  C   UNL     1      -9.682  16.520  67.373  1.00  0.00    -0.246 A  
BRANCH  18  19
HETATM   19  C   UNL     1      -9.757  17.999  67.286  1.00  0.00    -0.297 A  
HETATM   20  C   UNL     1     -10.198  18.658  66.124  1.00  0.00    -0.450 A  
HETATM   21  C   UNL     1     -10.185  20.055  66.024  1.00  0.00    -0.568 A  
HETATM   22  C   UNL     1      -9.745  20.827  67.094  1.00  0.00    -0.457 A  
HETATM   23  C   UNL     1      -9.322  20.204  68.262  1.00  0.00    -0.236 A  
HETATM   24  C   UNL     1      -9.326  18.809  68.354  1.00  0.00    -0.382 A  
ENDBRANCH  18  19
ENDBRANCH   6  13
ENDBRANCH   3   6
TORSDOF 4
ENDMDL
MODEL       37
REMARK 921   NORMALIZED FREE ENERGY PREDICTED BY IDOCK:   -5.73 KCAL/MOL
REMARK 922        TOTAL FREE ENERGY PREDICTED BY IDOCK:   -7.99 KCAL/MOL
REMARK 923 INTER-LIGAND FREE ENERGY PREDICTED BY IDOCK:   -7.05 KCAL/MOL
REMARK 924 INTRA-LIGAND FREE ENERGY PREDICTED BY IDOCK:   -0.94 KCAL/MOL
REMARK 927      BINDING AFFINITY PREDICTED BY RF-SCORE:    0.00 PKD
ROOT
HETATM    1  C   UNL     1     -10.177   5.354  67.731  1.00  0.00    -0.178 A  
HETATM    2  C   UNL     1     -11.087   6.154  68.380  1.00  0.00    -0.248 A  
HETATM    3  N   UNL     1     -10.499   6.479  69.585  1.00  0.00    -0.201 NA 
HETATM    4  C   UNL     1      -9.253   5.915  69.567  1.00  0.00    -0.135 A  
HETATM    5  N   UNL     1      -9.042   5.214  68.477  1.00  0.00    -0.109 NA 
ENDROOT
BRANCH   3   6
HETATM    6  C   UNL     1     -11.182   7.214  70.672  1.00  0.00    -0.280 C  
BRANCH   6   7
HETATM    7  C   UNL     1     -10.780   6.762  72.080  1.00  0.00    -0.249 A  
HETATM    8  C   UNL     1     -11.241   5.513  72.547  1.00  0.00    -0.330 A  
HETATM    9  C   UNL     1     -10.807   4.989  73.766  1.00  0.00    -0.366 A  
HETATM   10  C   UNL     1      -9.879   7.469  72.894  1.00  0.00    -0.272 A  
HETATM   11  C   UNL     1      -9.898   5.698  74.544  1.00  0.00    -0.246 A  
HETATM   12  C   UNL     1      -9.440   6.938  74.111  1.00  0.00    -0.283 A  
ENDBRANCH   6   7
BRANCH   6  13
HETATM   13  C   UNL     1     -11.247   8.729  70.465  1.00  0.00    -0.278 A  
HETATM   14  C   UNL     1     -12.256  10.874  71.071  1.00  0.00    -0.464 A  
HETATM   15  C   UNL     1     -10.447   9.418  69.546  1.00  0.00    -0.229 A  
HETATM   16  C   UNL     1     -12.120   9.492  71.258  1.00  0.00    -0.443 A  
HETATM   17  C   UNL     1     -10.611  10.798  69.337  1.00  0.00    -0.254 A  
HETATM   18  C   UNL     1     -11.541  11.552  70.072  1.00  0.00    -0.364 A  
BRANCH  18  19
HETATM   19  C   UNL     1     -11.802  12.982  69.775  1.00  0.00    -0.381 A  
HETATM   20  C   UNL     1     -11.704  13.504  68.472  1.00  0.00    -0.392 A  
HETATM   21  C   UNL     1     -11.871  14.871  68.216  1.00  0.00    -0.308 A  
HETATM   22  C   UNL     1     -12.155  15.747  69.258  1.00  0.00    -0.226 A  
HETATM   23  C   UNL     1     -12.277  15.257  70.553  1.00  0.00    -0.415 A  
HETATM   24  C   UNL     1     -12.100  13.894  70.806  1.00  0.00    -0.404 A  
ENDBRANCH  18  19
ENDBRANCH   6  13
ENDBRANCH   3   6
TORSDOF 4
ENDMDL
MODEL       38
REMARK 921   NORMALIZED FREE ENERGY PREDICTED BY IDOCK:   -5.67 KCAL/MOL
REMARK 922        TOTAL FREE ENERGY PREDICTED BY IDOCK:   -7.91 KCAL/MOL
REMARK 923 INTER-LIGAND FREE ENERGY PREDICTED BY IDOCK:   -7.54 KCAL/MOL
REMARK 924 INTRA-LIGAND FREE ENERGY PREDICTED BY IDOCK:   -0.37 KCAL/MOL
REMARK 927      BINDING AFFINITY PREDICTED BY RF-SCORE:    0.00 PKD
ROOT
HETATM    1  C   UNL     1     -12.601  15.518  71.506  1.00  0.00    -0.418 A  
HETATM    2  C   UNL     1     -12.981  14.452  70.728  1.00  0.00    -0.326 A  
HETATM    3  N   UNL     1     -11.997  14.325  69.769  1.00  0.00    -0.319 NA 
HETATM    4  C   UNL     1     -11.055  15.273  70.061  1.00  0.00    -0.287 A  
HETATM    5  N   UNL     1     -11.402  16.019  71.084  1.00  0.00    -0.391 NA 
ENDROOT
BRANCH   3   6
HETATM    6  C   UNL     1     -12.066  13.390  68.626  1.00  0.00    -0.246 C  
BRANCH   6   7
HETATM    7  C   UNL     1     -11.583  13.987  67.300  1.00  0.00    -0.396 A  
HETATM    8  C   UNL     1     -10.233  14.382  67.189  1.00  0.00    -0.257 A  
HETATM    9  C   UNL     1      -9.701  14.812  65.971  1.00  0.00    -0.350 A  
HETATM   10  C   UNL     1     -12.379  14.059  66.145  1.00  0.00    -0.491 A  
HETATM   11  C   UNL     1     -10.503  14.854  64.837  1.00  0.00    -0.389 A  
HETATM   12  C   UNL     1     -11.841  14.483  64.925  1.00  0.00    -0.417 A  
ENDBRANCH   6   7
BRANCH   6  13
HETATM   13  C   UNL     1     -11.554  11.980  68.933  1.00  0.00    -0.377 A  
HETATM   14  C   UNL     1     -10.439   9.950  68.144  1.00  0.00    -0.256 A  
HETATM   15  C   UNL     1     -11.684  11.366  70.184  1.00  0.00    -0.414 A  
HETATM   16  C   UNL     1     -10.878  11.263  67.931  1.00  0.00    -0.278 A  
HETATM   17  C   UNL     1     -11.273  10.038  70.383  1.00  0.00    -0.393 A  
HETATM   18  C   UNL     1     -10.669   9.288  69.359  1.00  0.00    -0.222 A  
BRANCH  18  19
HETATM   19  C   UNL     1     -10.341   7.851  69.528  1.00  0.00    -0.217 A  
HETATM   20  C   UNL     1      -9.089   7.323  69.163  1.00  0.00    -0.137 A  
HETATM   21  C   UNL     1      -8.819   5.951  69.249  1.00  0.00    -0.118 A  
HETATM   22  C   UNL     1      -9.794   5.076  69.716  1.00  0.00    -0.286 A  
HETATM   23  C   UNL     1     -11.034   5.572  70.102  1.00  0.00    -0.208 A  
HETATM   24  C   UNL     1     -11.303   6.940  70.006  1.00  0.00    -0.343 A  
ENDBRANCH  18  19
ENDBRANCH   6  13
ENDBRANCH   3   6
TORSDOF 4
ENDMDL
MODEL       39
REMARK 921   NORMALIZED FREE ENERGY PREDICTED BY IDOCK:   -5.66 KCAL/MOL
REMARK 922        TOTAL FREE ENERGY PREDICTED BY IDOCK:   -7.90 KCAL/MOL
REMARK 923 INTER-LIGAND FREE ENERGY PREDICTED BY IDOCK:   -7.42 KCAL/MOL
REMARK 924 INTRA-LIGAND FREE ENERGY PREDICTED BY IDOCK:   -0.48 KCAL/MOL
REMARK 927      BINDING AFFINITY PREDICTED BY RF-SCORE:    0.00 PKD
ROOT
HETATM    1  C   UNL     1     -10.595  17.798  67.474  1.00  0.00    -0.359 A  
HETATM    2  C   UNL     1     -10.435  17.267  68.731  1.00  0.00    -0.340 A  
HETATM    3  N   UNL     1     -10.580  15.904  68.577  1.00  0.00    -0.252 NA 
HETATM    4  C   UNL     1     -10.754  15.686  67.238  1.00  0.00    -0.305 A  
HETATM    5  N   UNL     1     -10.790  16.807  66.554  1.00  0.00    -0.085 NA 
ENDROOT
BRANCH   3   6
HETATM    6  C   UNL     1     -10.626  14.942  69.699  1.00  0.00    -0.197 C  
BRANCH   6   7
HETATM    7  C   UNL     1     -11.651  15.294  70.783  1.00  0.00    -0.371 A  
HETATM    8  C   UNL     1     -13.023  15.174  70.479  1.00  0.00    -0.366 A  
HETATM    9  C   UNL     1     -14.001  15.355  71.460  1.00  0.00    -0.601 A  
HETATM   10  C   UNL     1     -11.302  15.621  72.105  1.00  0.00    -0.368 A  
HETATM   11  C   UNL     1     -13.631  15.656  72.765  1.00  0.00    -0.678 A  
HETATM   12  C   UNL     1     -12.284  15.794  73.086  1.00  0.00    -0.605 A  
ENDBRANCH   6   7
BRANCH   6  13
HETATM   13  C   UNL     1     -10.606  13.472  69.271  1.00  0.00     0.033 A  
HETATM   14  C   UNL     1     -11.730  11.299  69.226  1.00  0.00    -0.403 A  
HETATM   15  C   UNL     1      -9.545  12.886  68.570  1.00  0.00    -0.113 A  
HETATM   16  C   UNL     1     -11.720  12.662  69.549  1.00  0.00    -0.374 A  
HETATM   17  C   UNL     1      -9.544  11.511  68.279  1.00  0.00    -0.189 A  
HETATM   18  C   UNL     1     -10.622  10.680  68.628  1.00  0.00    -0.229 A  
BRANCH  18  19
HETATM   19  C   UNL     1     -10.575   9.210  68.430  1.00  0.00    -0.217 A  
HETATM   20  C   UNL     1     -10.542   8.311  69.512  1.00  0.00    -0.216 A  
HETATM   21  C   UNL     1     -10.414   6.930  69.314  1.00  0.00    -0.233 A  
HETATM   22  C   UNL     1     -10.332   6.415  68.025  1.00  0.00    -0.234 A  
HETATM   23  C   UNL     1     -10.382   7.278  66.936  1.00  0.00    -0.358 A  
HETATM   24  C   UNL     1     -10.500   8.656  67.138  1.00  0.00    -0.360 A  
ENDBRANCH  18  19
ENDBRANCH   6  13
ENDBRANCH   3   6
TORSDOF 4
ENDMDL
MODEL       40
REMARK 921   NORMALIZED FREE ENERGY PREDICTED BY IDOCK:   -5.64 KCAL/MOL
REMARK 922        TOTAL FREE ENERGY PREDICTED BY IDOCK:   -7.87 KCAL/MOL
REMARK 923 INTER-LIGAND FREE ENERGY PREDICTED BY IDOCK:   -7.19 KCAL/MOL
REMARK 924 INTRA-LIGAND FREE ENERGY PREDICTED BY IDOCK:   -0.68 KCAL/MOL
REMARK 927      BINDING AFFINITY PREDICTED BY RF-SCORE:    0.00 PKD
ROOT
HETATM    1  C   UNL     1     -11.643   8.009  72.460  1.00  0.00    -0.403 A  
HETATM    2  C   UNL     1     -10.741   8.560  71.583  1.00  0.00    -0.281 A  
HETATM    3  N   UNL     1     -11.036   8.007  70.354  1.00  0.00    -0.249 NA 
HETATM    4  C   UNL     1     -12.131   7.210  70.546  1.00  0.00    -0.172 A  
HETATM    5  N   UNL     1     -12.502   7.173  71.805  1.00  0.00    -0.343 NA 
ENDROOT
BRANCH   3   6
HETATM    6  C   UNL     1     -10.223   8.208  69.135  1.00  0.00    -0.214 C  
BRANCH   6   7
HETATM    7  C   UNL     1     -10.043   6.943  68.288  1.00  0.00    -0.182 A  
HETATM    8  C   UNL     1      -9.062   6.006  68.673  1.00  0.00    -0.116 A  
HETATM    9  C   UNL     1      -8.937   4.778  68.021  1.00  0.00    -0.126 A  
HETATM   10  C   UNL     1     -10.881   6.604  67.212  1.00  0.00    -0.456 A  
HETATM   11  C   UNL     1      -9.791   4.456  66.973  1.00  0.00    -0.227 A  
HETATM   12  C   UNL     1     -10.758   5.369  66.566  1.00  0.00    -0.309 A  
ENDBRANCH   6   7
BRANCH   6  13
HETATM   13  C   UNL     1     -10.565   9.477  68.351  1.00  0.00    -0.261 A  
HETATM   14  C   UNL     1     -10.243  10.836  66.341  1.00  0.00    -0.294 A  
HETATM   15  C   UNL     1     -11.450  10.457  68.815  1.00  0.00    -0.240 A  
HETATM   16  C   UNL     1     -10.004   9.667  67.076  1.00  0.00    -0.263 A  
HETATM   17  C   UNL     1     -11.660  11.643  68.091  1.00  0.00    -0.389 A  
HETATM   18  C   UNL     1     -11.037  11.874  66.852  1.00  0.00    -0.356 A  
BRANCH  18  19
HETATM   19  C   UNL     1     -11.161  13.170  66.141  1.00  0.00    -0.320 A  
HETATM   20  C   UNL     1     -12.131  13.385  65.144  1.00  0.00    -0.442 A  
HETATM   21  C   UNL     1     -12.185  14.583  64.421  1.00  0.00    -0.480 A  
HETATM   22  C   UNL     1     -11.278  15.602  64.691  1.00  0.00    -0.380 A  
HETATM   23  C   UNL     1     -10.322  15.426  65.684  1.00  0.00    -0.395 A  
HETATM   24  C   UNL     1     -10.264  14.225  66.396  1.00  0.00    -0.295 A  
ENDBRANCH  18  19
ENDBRANCH   6  13
ENDBRANCH   3   6
TORSDOF 4
ENDMDL
MODEL       41
REMARK 921   NORMALIZED FREE ENERGY PREDICTED BY IDOCK:   -5.63 KCAL/MOL
REMARK 922        TOTAL FREE ENERGY PREDICTED BY IDOCK:   -7.87 KCAL/MOL
REMARK 923 INTER-LIGAND FREE ENERGY PREDICTED BY IDOCK:   -7.27 KCAL/MOL
REMARK 924 INTRA-LIGAND FREE ENERGY PREDICTED BY IDOCK:   -0.59 KCAL/MOL
REMARK 927      BINDING AFFINITY PREDICTED BY RF-SCORE:    0.00 PKD
ROOT
HETATM    1  C   UNL     1     -12.840  13.993  65.401  1.00  0.00    -0.410 A  
HETATM    2  C   UNL     1     -12.188  14.406  66.538  1.00  0.00    -0.332 A  
HETATM    3  N   UNL     1     -11.599  13.273  67.058  1.00  0.00    -0.339 NA 
HETATM    4  C   UNL     1     -11.873  12.261  66.179  1.00  0.00    -0.329 A  
HETATM    5  N   UNL     1     -12.636  12.659  65.187  1.00  0.00    -0.654 NA 
ENDROOT
BRANCH   3   6
HETATM    6  C   UNL     1     -10.908  13.221  68.364  1.00  0.00    -0.258 C  
BRANCH   6   7
HETATM    7  C   UNL     1     -11.450  14.214  69.398  1.00  0.00    -0.337 A  
HETATM    8  C   UNL     1     -12.637  13.889  70.089  1.00  0.00    -0.285 A  
HETATM    9  C   UNL     1     -13.111  14.689  71.131  1.00  0.00    -0.428 A  
HETATM   10  C   UNL     1     -10.770  15.381  69.785  1.00  0.00    -0.300 A  
HETATM   11  C   UNL     1     -12.409  15.827  71.510  1.00  0.00    -0.514 A  
HETATM   12  C   UNL     1     -11.243  16.176  70.834  1.00  0.00    -0.329 A  
ENDBRANCH   6   7
BRANCH   6  13
HETATM   13  C   UNL     1     -10.654  11.805  68.888  1.00  0.00    -0.211 A  
HETATM   14  C   UNL     1      -9.151   9.882  69.053  1.00  0.00    -0.164 A  
HETATM   15  C   UNL     1     -11.585  11.084  69.646  1.00  0.00    -0.390 A  
HETATM   16  C   UNL     1      -9.413  11.195  68.642  1.00  0.00    -0.196 A  
HETATM   17  C   UNL     1     -11.332   9.755  70.026  1.00  0.00    -0.269 A  
HETATM   18  C   UNL     1     -10.122   9.112  69.712  1.00  0.00    -0.211 A  
BRANCH  18  19
HETATM   19  C   UNL     1      -9.897   7.676  70.007  1.00  0.00    -0.180 A  
HETATM   20  C   UNL     1     -10.890   6.703  69.784  1.00  0.00    -0.337 A  
HETATM   21  C   UNL     1     -10.696   5.363  70.143  1.00  0.00    -0.295 A  
HETATM   22  C   UNL     1      -9.496   4.962  70.721  1.00  0.00    -0.232 A  
HETATM   23  C   UNL     1      -8.491   5.897  70.935  1.00  0.00    -0.127 A  
HETATM   24  C   UNL     1      -8.691   7.235  70.584  1.00  0.00    -0.147 A  
ENDBRANCH  18  19
ENDBRANCH   6  13
ENDBRANCH   3   6
TORSDOF 4
ENDMDL
MODEL       42
REMARK 921   NORMALIZED FREE ENERGY PREDICTED BY IDOCK:   -5.63 KCAL/MOL
REMARK 922        TOTAL FREE ENERGY PREDICTED BY IDOCK:   -7.87 KCAL/MOL
REMARK 923 INTER-LIGAND FREE ENERGY PREDICTED BY IDOCK:   -7.24 KCAL/MOL
REMARK 924 INTRA-LIGAND FREE ENERGY PREDICTED BY IDOCK:   -0.63 KCAL/MOL
REMARK 927      BINDING AFFINITY PREDICTED BY RF-SCORE:    0.00 PKD
ROOT
HETATM    1  C   UNL     1     -11.914  15.367  71.692  1.00  0.00    -0.387 A  
HETATM    2  C   UNL     1     -11.190  16.036  70.735  1.00  0.00    -0.352 A  
HETATM    3  N   UNL     1     -11.830  15.780  69.540  1.00  0.00    -0.361 NA 
HETATM    4  C   UNL     1     -12.931  15.030  69.850  1.00  0.00     0.107 A  
HETATM    5  N   UNL     1     -12.995  14.747  71.130  1.00  0.00    -0.337 NA 
ENDROOT
BRANCH   3   6
HETATM    6  C   UNL     1     -11.312  16.186  68.216  1.00  0.00    -0.316 C  
BRANCH   6   7
HETATM    7  C   UNL     1     -10.240  17.280  68.273  1.00  0.00    -0.348 A  
HETATM    8  C   UNL     1     -10.621  18.614  68.019  1.00  0.00    -0.350 A  
HETATM    9  C   UNL     1      -9.721  19.669  68.182  1.00  0.00    -0.503 A  
HETATM   10  C   UNL     1      -8.915  17.048  68.680  1.00  0.00    -0.267 A  
HETATM   11  C   UNL     1      -8.422  19.417  68.606  1.00  0.00    -0.395 A  
HETATM   12  C   UNL     1      -8.018  18.108  68.850  1.00  0.00    -0.189 A  
ENDBRANCH   6   7
BRANCH   6  13
HETATM   13  C   UNL     1     -11.006  15.020  67.273  1.00  0.00    -0.326 A  
HETATM   14  C   UNL     1     -10.413  12.662  66.998  1.00  0.00    -0.244 A  
HETATM   15  C   UNL     1     -11.006  15.134  65.878  1.00  0.00    -0.339 A  
HETATM   16  C   UNL     1     -10.750  13.749  67.815  1.00  0.00    -0.254 A  
HETATM   17  C   UNL     1     -10.634  14.051  65.064  1.00  0.00    -0.426 A  
HETATM   18  C   UNL     1     -10.298  12.799  65.606  1.00  0.00    -0.296 A  
BRANCH  18  19
HETATM   19  C   UNL     1      -9.791  11.689  64.763  1.00  0.00    -0.261 A  
HETATM   20  C   UNL     1     -10.060  11.615  63.384  1.00  0.00    -0.468 A  
HETATM   21  C   UNL     1      -9.647  10.521  62.614  1.00  0.00    -0.285 A  
HETATM   22  C   UNL     1      -8.940   9.479  63.205  1.00  0.00    -0.217 A  
HETATM   23  C   UNL     1      -8.642   9.534  64.561  1.00  0.00    -0.206 A  
HETATM   24  C   UNL     1      -9.064  10.623  65.328  1.00  0.00    -0.221 A  
ENDBRANCH  18  19
ENDBRANCH   6  13
ENDBRANCH   3   6
TORSDOF 4
ENDMDL
MODEL       43
REMARK 921   NORMALIZED FREE ENERGY PREDICTED BY IDOCK:   -5.61 KCAL/MOL
REMARK 922        TOTAL FREE ENERGY PREDICTED BY IDOCK:   -7.84 KCAL/MOL
REMARK 923 INTER-LIGAND FREE ENERGY PREDICTED BY IDOCK:   -6.90 KCAL/MOL
REMARK 924 INTRA-LIGAND FREE ENERGY PREDICTED BY IDOCK:   -0.94 KCAL/MOL
REMARK 927      BINDING AFFINITY PREDICTED BY RF-SCORE:    0.00 PKD
ROOT
HETATM    1  C   UNL     1      -9.024   9.696  62.402  1.00  0.00    -0.268 A  
HETATM    2  C   UNL     1      -9.703  10.608  63.175  1.00  0.00    -0.333 A  
HETATM    3  N   UNL     1      -8.952  10.748  64.324  1.00  0.00    -0.183 NA 
HETATM    4  C   UNL     1      -7.841   9.969  64.153  1.00  0.00    -0.144 A  
HETATM    5  N   UNL     1      -7.869   9.308  63.018  1.00  0.00    -0.128 NA 
ENDROOT
BRANCH   3   6
HETATM    6  C   UNL     1      -9.380  11.528  65.505  1.00  0.00    -0.185 C  
BRANCH   6   7
HETATM    7  C   UNL     1     -10.418  12.613  65.195  1.00  0.00    -0.319 A  
HETATM    8  C   UNL     1     -11.781  12.327  65.420  1.00  0.00    -0.424 A  
HETATM    9  C   UNL     1     -12.761  13.312  65.280  1.00  0.00    -0.474 A  
HETATM   10  C   UNL     1     -10.082  13.921  64.808  1.00  0.00    -0.247 A  
HETATM   11  C   UNL     1     -12.402  14.605  64.917  1.00  0.00    -0.322 A  
HETATM   12  C   UNL     1     -11.065  14.908  64.677  1.00  0.00    -0.335 A  
ENDBRANCH   6   7
BRANCH   6  13
HETATM   13  C   UNL     1      -9.668  10.683  66.748  1.00  0.00    -0.222 A  
HETATM   14  C   UNL     1     -10.434   8.561  67.694  1.00  0.00    -0.308 A  
HETATM   15  C   UNL     1      -9.480  11.145  68.057  1.00  0.00    -0.174 A  
HETATM   16  C   UNL     1     -10.106   9.358  66.590  1.00  0.00    -0.332 A  
HETATM   17  C   UNL     1      -9.844  10.356  69.160  1.00  0.00    -0.237 A  
HETATM   18  C   UNL     1     -10.359   9.057  69.005  1.00  0.00    -0.233 A  
BRANCH  18  19
HETATM   19  C   UNL     1     -10.854   8.266  70.158  1.00  0.00    -0.237 A  
HETATM   20  C   UNL     1     -11.188   8.865  71.387  1.00  0.00    -0.382 A  
HETATM   21  C   UNL     1     -11.574   8.099  72.494  1.00  0.00    -0.468 A  
HETATM   22  C   UNL     1     -11.650   6.714  72.392  1.00  0.00    -0.281 A  
HETATM   23  C   UNL     1     -11.345   6.096  71.185  1.00  0.00    -0.340 A  
HETATM   24  C   UNL     1     -10.950   6.863  70.085  1.00  0.00    -0.322 A  
ENDBRANCH  18  19
ENDBRANCH   6  13
ENDBRANCH   3   6
TORSDOF 4
ENDMDL
MODEL       44
REMARK 921   NORMALIZED FREE ENERGY PREDICTED BY IDOCK:   -5.58 KCAL/MOL
REMARK 922        TOTAL FREE ENERGY PREDICTED BY IDOCK:   -7.81 KCAL/MOL
REMARK 923 INTER-LIGAND FREE ENERGY PREDICTED BY IDOCK:   -6.85 KCAL/MOL
REMARK 924 INTRA-LIGAND FREE ENERGY PREDICTED BY IDOCK:   -0.96 KCAL/MOL
REMARK 927      BINDING AFFINITY PREDICTED BY RF-SCORE:    0.00 PKD
ROOT
HETATM    1  C   UNL     1     -12.468  14.182  65.131  1.00  0.00    -0.439 A  
HETATM    2  C   UNL     1     -12.336  13.981  66.484  1.00  0.00    -0.404 A  
HETATM    3  N   UNL     1     -10.987  13.796  66.700  1.00  0.00    -0.294 NA 
HETATM    4  C   UNL     1     -10.379  13.958  65.486  1.00  0.00    -0.333 A  
HETATM    5  N   UNL     1     -11.246  14.167  64.522  1.00  0.00    -0.363 NA 
ENDROOT
BRANCH   3   6
HETATM    6  C   UNL     1     -10.399  13.404  68.000  1.00  0.00    -0.241 C  
BRANCH   6   7
HETATM    7  C   UNL     1     -11.040  14.096  69.209  1.00  0.00    -0.286 A  
HETATM    8  C   UNL     1     -10.726  15.449  69.458  1.00  0.00    -0.269 A  
HETATM    9  C   UNL     1     -11.373  16.170  70.463  1.00  0.00    -0.392 A  
HETATM   10  C   UNL     1     -12.016  13.494  70.021  1.00  0.00    -0.410 A  
HETATM   11  C   UNL     1     -12.350  15.558  71.240  1.00  0.00    -0.468 A  
HETATM   12  C   UNL     1     -12.668  14.221  71.022  1.00  0.00    -0.430 A  
ENDBRANCH   6   7
BRANCH   6  13
HETATM   13  C   UNL     1     -10.162  11.901  68.157  1.00  0.00    -0.203 A  
HETATM   14  C   UNL     1     -10.832   9.615  67.599  1.00  0.00    -0.276 A  
HETATM   15  C   UNL     1      -9.140  11.358  68.946  1.00  0.00    -0.022 A  
HETATM   16  C   UNL     1     -10.975  11.000  67.448  1.00  0.00    -0.349 A  
HETATM   17  C   UNL     1      -9.023   9.969  69.122  1.00  0.00    -0.172 A  
HETATM   18  C   UNL     1      -9.886   9.066  68.478  1.00  0.00    -0.184 A  
BRANCH  18  19
HETATM   19  C   UNL     1      -9.843   7.609  68.752  1.00  0.00    -0.165 A  
HETATM   20  C   UNL     1      -8.954   6.748  68.081  1.00  0.00    -0.118 A  
HETATM   21  C   UNL     1      -8.979   5.363  68.286  1.00  0.00    -0.112 A  
HETATM   22  C   UNL     1      -9.887   4.807  69.182  1.00  0.00    -0.254 A  
HETATM   23  C   UNL     1     -10.763   5.635  69.874  1.00  0.00    -0.399 A  
HETATM   24  C   UNL     1     -10.742   7.016  69.659  1.00  0.00    -0.265 A  
ENDBRANCH  18  19
ENDBRANCH   6  13
ENDBRANCH   3   6
TORSDOF 4
ENDMDL
MODEL       45
REMARK 921   NORMALIZED FREE ENERGY PREDICTED BY IDOCK:   -5.58 KCAL/MOL
REMARK 922        TOTAL FREE ENERGY PREDICTED BY IDOCK:   -7.81 KCAL/MOL
REMARK 923 INTER-LIGAND FREE ENERGY PREDICTED BY IDOCK:   -7.24 KCAL/MOL
REMARK 924 INTRA-LIGAND FREE ENERGY PREDICTED BY IDOCK:   -0.56 KCAL/MOL
REMARK 927      BINDING AFFINITY PREDICTED BY RF-SCORE:    0.00 PKD
ROOT
HETATM    1  C   UNL     1     -12.392   7.056  71.853  1.00  0.00    -0.323 A  
HETATM    2  C   UNL     1     -11.916   6.716  70.609  1.00  0.00    -0.343 A  
HETATM    3  N   UNL     1     -10.752   7.439  70.448  1.00  0.00    -0.232 NA 
HETATM    4  C   UNL     1     -10.559   8.119  71.620  1.00  0.00    -0.232 A  
HETATM    5  N   UNL     1     -11.540   7.926  72.472  1.00  0.00    -0.377 NA 
ENDROOT
BRANCH   3   6
HETATM    6  C   UNL     1      -9.975   7.493  69.192  1.00  0.00    -0.179 C  
BRANCH   6   7
HETATM    7  C   UNL     1      -9.935   6.167  68.425  1.00  0.00    -0.162 A  
HETATM    8  C   UNL     1     -10.666   6.059  67.223  1.00  0.00    -0.400 A  
HETATM    9  C   UNL     1     -10.568   4.926  66.413  1.00  0.00    -0.276 A  
HETATM   10  C   UNL     1      -9.117   5.083  68.788  1.00  0.00    -0.140 A  
HETATM   11  C   UNL     1      -9.736   3.876  66.783  1.00  0.00    -0.189 A  
HETATM   12  C   UNL     1      -9.015   3.953  67.971  1.00  0.00    -0.155 A  
ENDBRANCH   6   7
BRANCH   6  13
HETATM   13  C   UNL     1     -10.242   8.735  68.338  1.00  0.00    -0.228 A  
HETATM   14  C   UNL     1     -11.443  10.846  68.048  1.00  0.00    -0.356 A  
HETATM   15  C   UNL     1      -9.618   8.974  67.107  1.00  0.00    -0.218 A  
HETATM   16  C   UNL     1     -11.124   9.718  68.815  1.00  0.00    -0.140 A  
HETATM   17  C   UNL     1      -9.966  10.089  66.326  1.00  0.00    -0.310 A  
HETATM   18  C   UNL     1     -10.909  11.034  66.764  1.00  0.00    -0.307 A  
BRANCH  18  19
HETATM   19  C   UNL     1     -11.367  12.146  65.895  1.00  0.00    -0.407 A  
HETATM   20  C   UNL     1     -11.935  13.321  66.422  1.00  0.00    -0.465 A  
HETATM   21  C   UNL     1     -12.439  14.329  65.590  1.00  0.00    -0.432 A  
HETATM   22  C   UNL     1     -12.374  14.189  64.207  1.00  0.00    -0.398 A  
HETATM   23  C   UNL     1     -11.802  13.048  63.658  1.00  0.00    -0.580 A  
HETATM   24  C   UNL     1     -11.308  12.041  64.492  1.00  0.00    -0.393 A  
ENDBRANCH  18  19
ENDBRANCH   6  13
ENDBRANCH   3   6
TORSDOF 4
ENDMDL
MODEL       46
REMARK 921   NORMALIZED FREE ENERGY PREDICTED BY IDOCK:   -5.57 KCAL/MOL
REMARK 922        TOTAL FREE ENERGY PREDICTED BY IDOCK:   -7.79 KCAL/MOL
REMARK 923 INTER-LIGAND FREE ENERGY PREDICTED BY IDOCK:   -7.11 KCAL/MOL
REMARK 924 INTRA-LIGAND FREE ENERGY PREDICTED BY IDOCK:   -0.68 KCAL/MOL
REMARK 927      BINDING AFFINITY PREDICTED BY RF-SCORE:    0.00 PKD
ROOT
HETATM    1  C   UNL     1      -7.191   9.956  66.796  1.00  0.00    -0.091 A  
HETATM    2  C   UNL     1      -7.911   9.582  67.905  1.00  0.00    -0.091 A  
HETATM    3  N   UNL     1      -9.069   9.011  67.419  1.00  0.00    -0.130 NA 
HETATM    4  C   UNL     1      -8.954   9.015  66.056  1.00  0.00    -0.185 A  
HETATM    5  N   UNL     1      -7.848   9.597  65.653  1.00  0.00    -0.104 NA 
ENDROOT
BRANCH   3   6
HETATM    6  C   UNL     1     -10.207   8.592  68.264  1.00  0.00    -0.205 C  
BRANCH   6   7
HETATM    7  C   UNL     1      -9.927   7.349  69.117  1.00  0.00    -0.173 A  
HETATM    8  C   UNL     1      -8.912   7.415  70.094  1.00  0.00    -0.148 A  
HETATM    9  C   UNL     1      -8.696   6.363  70.987  1.00  0.00    -0.135 A  
HETATM   10  C   UNL     1     -10.704   6.179  69.062  1.00  0.00    -0.377 A  
HETATM   11  C   UNL     1      -9.491   5.225  70.928  1.00  0.00    -0.216 A  
HETATM   12  C   UNL     1     -10.490   5.131  69.963  1.00  0.00    -0.305 A  
ENDBRANCH   6   7
BRANCH   6  13
HETATM   13  C   UNL     1     -10.908   9.740  68.993  1.00  0.00    -0.223 A  
HETATM   14  C   UNL     1     -11.810  12.013  68.920  1.00  0.00    -0.356 A  
HETATM   15  C   UNL     1     -11.304   9.676  70.335  1.00  0.00    -0.337 A  
HETATM   16  C   UNL     1     -11.218  10.914  68.285  1.00  0.00    -0.347 A  
HETATM   17  C   UNL     1     -11.867  10.793  70.975  1.00  0.00    -0.349 A  
HETATM   18  C   UNL     1     -12.104  11.998  70.292  1.00  0.00    -0.395 A  
BRANCH  18  19
HETATM   19  C   UNL     1     -12.586  13.215  70.990  1.00  0.00    -0.397 A  
HETATM   20  C   UNL     1     -13.389  13.145  72.144  1.00  0.00    -0.621 A  
HETATM   21  C   UNL     1     -13.907  14.299  72.746  1.00  0.00    -0.361 A  
HETATM   22  C   UNL     1     -13.620  15.552  72.216  1.00  0.00    -0.618 A  
HETATM   23  C   UNL     1     -12.813  15.652  71.089  1.00  0.00    -0.540 A  
HETATM   24  C   UNL     1     -12.306  14.499  70.484  1.00  0.00    -0.403 A  
ENDBRANCH  18  19
ENDBRANCH   6  13
ENDBRANCH   3   6
TORSDOF 4
ENDMDL
MODEL       47
REMARK 921   NORMALIZED FREE ENERGY PREDICTED BY IDOCK:   -5.55 KCAL/MOL
REMARK 922        TOTAL FREE ENERGY PREDICTED BY IDOCK:   -7.76 KCAL/MOL
REMARK 923 INTER-LIGAND FREE ENERGY PREDICTED BY IDOCK:   -6.93 KCAL/MOL
REMARK 924 INTRA-LIGAND FREE ENERGY PREDICTED BY IDOCK:   -0.83 KCAL/MOL
REMARK 927      BINDING AFFINITY PREDICTED BY RF-SCORE:    0.00 PKD
ROOT
HETATM    1  C   UNL     1     -11.628  15.103  64.491  1.00  0.00    -0.329 A  
HETATM    2  C   UNL     1     -10.594  14.730  65.316  1.00  0.00    -0.395 A  
HETATM    3  N   UNL     1     -11.175  13.990  66.325  1.00  0.00    -0.315 NA 
HETATM    4  C   UNL     1     -12.505  13.906  66.019  1.00  0.00    -0.461 A  
HETATM    5  N   UNL     1     -12.810  14.584  64.937  1.00  0.00    -0.537 NA 
ENDROOT
BRANCH   3   6
HETATM    6  C   UNL     1     -10.452  13.503  67.519  1.00  0.00    -0.237 C  
BRANCH   6   7
HETATM    7  C   UNL     1     -11.039  13.994  68.848  1.00  0.00    -0.296 A  
HETATM    8  C   UNL     1     -11.899  13.137  69.565  1.00  0.00    -0.383 A  
HETATM    9  C   UNL     1     -12.362  13.473  70.839  1.00  0.00    -0.437 A  
HETATM   10  C   UNL     1     -10.677  15.209  69.454  1.00  0.00    -0.269 A  
HETATM   11  C   UNL     1     -11.973  14.671  71.427  1.00  0.00    -0.405 A  
HETATM   12  C   UNL     1     -11.136  15.540  70.733  1.00  0.00    -0.383 A  
ENDBRANCH   6   7
BRANCH   6  13
HETATM   13  C   UNL     1     -10.090  12.017  67.475  1.00  0.00    -0.205 A  
HETATM   14  C   UNL     1     -10.318   9.848  66.364  1.00  0.00    -0.246 A  
HETATM   15  C   UNL     1      -9.256  11.396  68.413  1.00  0.00    -0.183 A  
HETATM   16  C   UNL     1     -10.576  11.224  66.421  1.00  0.00    -0.316 A  
HETATM   17  C   UNL     1      -9.028  10.011  68.371  1.00  0.00    -0.121 A  
HETATM   18  C   UNL     1      -9.579   9.199  67.365  1.00  0.00    -0.193 A  
BRANCH  18  19
HETATM   19  C   UNL     1      -9.439   7.722  67.384  1.00  0.00    -0.177 A  
HETATM   20  C   UNL     1     -10.542   6.865  67.211  1.00  0.00    -0.393 A  
HETATM   21  C   UNL     1     -10.413   5.474  67.313  1.00  0.00    -0.300 A  
HETATM   22  C   UNL     1      -9.171   4.907  67.576  1.00  0.00    -0.135 A  
HETATM   23  C   UNL     1      -8.060   5.727  67.732  1.00  0.00    -0.102 A  
HETATM   24  C   UNL     1      -8.195   7.115  67.639  1.00  0.00    -0.114 A  
ENDBRANCH  18  19
ENDBRANCH   6  13
ENDBRANCH   3   6
TORSDOF 4
ENDMDL
MODEL       48
REMARK 921   NORMALIZED FREE ENERGY PREDICTED BY IDOCK:   -5.54 KCAL/MOL
REMARK 922        TOTAL FREE ENERGY PREDICTED BY IDOCK:   -7.75 KCAL/MOL
REMARK 923 INTER-LIGAND FREE ENERGY PREDICTED BY IDOCK:   -6.94 KCAL/MOL
REMARK 924 INTRA-LIGAND FREE ENERGY PREDICTED BY IDOCK:   -0.81 KCAL/MOL
REMARK 927      BINDING AFFINITY PREDICTED BY RF-SCORE:    0.00 PKD
ROOT
HETATM    1  C   UNL     1      -9.072  18.854  68.181  1.00  0.00    -0.313 A  
HETATM    2  C   UNL     1      -8.725  17.603  68.632  1.00  0.00    -0.266 A  
HETATM    3  N   UNL     1      -9.875  16.847  68.543  1.00  0.00    -0.254 NA 
HETATM    4  C   UNL     1     -10.825  17.659  67.988  1.00  0.00    -0.234 A  
HETATM    5  N   UNL     1     -10.378  18.876  67.782  1.00  0.00    -0.400 NA 
ENDROOT
BRANCH   3   6
HETATM    6  C   UNL     1     -10.004  15.467  69.058  1.00  0.00    -0.229 C  
BRANCH   6   7
HETATM    7  C   UNL     1     -11.108  15.292  70.107  1.00  0.00    -0.312 A  
HETATM    8  C   UNL     1     -11.760  14.045  70.200  1.00  0.00    -0.331 A  
HETATM    9  C   UNL     1     -12.681  13.782  71.216  1.00  0.00    -0.450 A  
HETATM   10  C   UNL     1     -11.431  16.269  71.064  1.00  0.00    -0.343 A  
HETATM   11  C   UNL     1     -12.969  14.757  72.164  1.00  0.00    -0.415 A  
HETATM   12  C   UNL     1     -12.349  16.000  72.085  1.00  0.00    -0.557 A  
ENDBRANCH   6   7
BRANCH   6  13
HETATM   13  C   UNL     1      -9.950  14.383  67.979  1.00  0.00    -0.225 A  
HETATM   14  C   UNL     1      -8.854  12.388  67.082  1.00  0.00    -0.197 A  
HETATM   15  C   UNL     1     -10.851  14.312  66.910  1.00  0.00    -0.298 A  
HETATM   16  C   UNL     1      -8.979  13.371  68.072  1.00  0.00    -0.190 A  
HETATM   17  C   UNL     1     -10.700  13.345  65.901  1.00  0.00    -0.285 A  
HETATM   18  C   UNL     1      -9.680  12.380  65.947  1.00  0.00    -0.237 A  
BRANCH  18  19
HETATM   19  C   UNL     1      -9.444  11.434  64.829  1.00  0.00    -0.176 A  
HETATM   20  C   UNL     1      -9.802  11.740  63.503  1.00  0.00    -0.386 A  
HETATM   21  C   UNL     1      -9.651  10.807  62.469  1.00  0.00    -0.241 A  
HETATM   22  C   UNL     1      -9.123   9.549  62.737  1.00  0.00    -0.196 A  
HETATM   23  C   UNL     1      -8.742   9.225  64.034  1.00  0.00    -0.198 A  
HETATM   24  C   UNL     1      -8.903  10.155  65.065  1.00  0.00    -0.205 A  
ENDBRANCH  18  19
ENDBRANCH   6  13
ENDBRANCH   3   6
TORSDOF 4
ENDMDL
MODEL       49
REMARK 921   NORMALIZED FREE ENERGY PREDICTED BY IDOCK:   -5.54 KCAL/MOL
REMARK 922        TOTAL FREE ENERGY PREDICTED BY IDOCK:   -7.75 KCAL/MOL
REMARK 923 INTER-LIGAND FREE ENERGY PREDICTED BY IDOCK:   -7.21 KCAL/MOL
REMARK 924 INTRA-LIGAND FREE ENERGY PREDICTED BY IDOCK:   -0.53 KCAL/MOL
REMARK 927      BINDING AFFINITY PREDICTED BY RF-SCORE:    0.00 PKD
ROOT
HETATM    1  C   UNL     1     -10.371  14.847  67.107  1.00  0.00    -0.260 A  
HETATM    2  C   UNL     1      -9.887  13.588  66.844  1.00  0.00    -0.257 A  
HETATM    3  N   UNL     1     -10.995  12.822  66.544  1.00  0.00    -0.257 NA 
HETATM    4  C   UNL     1     -12.067  13.670  66.580  1.00  0.00    -0.423 A  
HETATM    5  N   UNL     1     -11.726  14.887  66.938  1.00  0.00    -0.305 NA 
ENDROOT
BRANCH   3   6
HETATM    6  C   UNL     1     -10.961  11.359  66.334  1.00  0.00    -0.260 C  
BRANCH   6   7
HETATM    7  C   UNL     1     -10.037  10.913  65.196  1.00  0.00    -0.352 A  
HETATM    8  C   UNL     1     -10.425  11.180  63.866  1.00  0.00    -0.445 A  
HETATM    9  C   UNL     1      -9.570  10.915  62.794  1.00  0.00    -0.339 A  
HETATM   10  C   UNL     1      -8.764  10.353  65.403  1.00  0.00    -0.193 A  
HETATM   11  C   UNL     1      -8.308  10.382  63.025  1.00  0.00    -0.174 A  
HETATM   12  C   UNL     1      -7.908  10.096  64.327  1.00  0.00    -0.140 A  
ENDBRANCH   6   7
BRANCH   6  13
HETATM   13  C   UNL     1     -10.855  10.539  67.622  1.00  0.00    -0.355 A  
HETATM   14  C   UNL     1     -10.455   8.372  68.686  1.00  0.00    -0.197 A  
HETATM   15  C   UNL     1     -11.040  11.080  68.900  1.00  0.00    -0.295 A  
HETATM   16  C   UNL     1     -10.513   9.178  67.542  1.00  0.00    -0.335 A  
HETATM   17  C   UNL     1     -11.016  10.261  70.041  1.00  0.00    -0.371 A  
HETATM   18  C   UNL     1     -10.754   8.883  69.959  1.00  0.00    -0.241 A  
BRANCH  18  19
HETATM   19  C   UNL     1     -10.844   7.995  71.144  1.00  0.00    -0.267 A  
HETATM   20  C   UNL     1     -10.230   8.318  72.368  1.00  0.00    -0.397 A  
HETATM   21  C   UNL     1     -10.251   7.434  73.454  1.00  0.00    -0.402 A  
HETATM   22  C   UNL     1     -10.900   6.209  73.345  1.00  0.00    -0.243 A  
HETATM   23  C   UNL     1     -11.532   5.871  72.154  1.00  0.00    -0.333 A  
HETATM   24  C   UNL     1     -11.501   6.752  71.069  1.00  0.00    -0.372 A  
ENDBRANCH  18  19
ENDBRANCH   6  13
ENDBRANCH   3   6
TORSDOF 4
ENDMDL
MODEL       50
REMARK 921   NORMALIZED FREE ENERGY PREDICTED BY IDOCK:   -5.50 KCAL/MOL
REMARK 922        TOTAL FREE ENERGY PREDICTED BY IDOCK:   -7.71 KCAL/MOL
REMARK 923 INTER-LIGAND FREE ENERGY PREDICTED BY IDOCK:   -7.50 KCAL/MOL
REMARK 924 INTRA-LIGAND FREE ENERGY PREDICTED BY IDOCK:   -0.20 KCAL/MOL
REMARK 927      BINDING AFFINITY PREDICTED BY RF-SCORE:    0.00 PKD
ROOT
HETATM    1  C   UNL     1     -12.108  14.922  71.104  1.00  0.00    -0.327 A  
HETATM    2  C   UNL     1     -11.786  14.042  70.099  1.00  0.00    -0.261 A  
HETATM    3  N   UNL     1     -12.280  12.820  70.505  1.00  0.00    -0.358 NA 
HETATM    4  C   UNL     1     -12.923  13.043  71.692  1.00  0.00    -0.321 A  
HETATM    5  N   UNL     1     -12.816  14.290  72.087  1.00  0.00    -0.343 NA 
ENDROOT
BRANCH   3   6
HETATM    6  C   UNL     1     -12.036  11.547  69.793  1.00  0.00    -0.346 C  
BRANCH   6   7
HETATM    7  C   UNL     1     -11.102  11.676  68.585  1.00  0.00    -0.287 A  
HETATM    8  C   UNL     1     -11.625  11.432  67.297  1.00  0.00    -0.232 A  
HETATM    9  C   UNL     1     -10.862  11.657  66.150  1.00  0.00    -0.343 A  
HETATM   10  C   UNL     1      -9.778  12.139  68.672  1.00  0.00    -0.090 A  
HETATM   11  C   UNL     1      -9.562  12.136  66.261  1.00  0.00    -0.246 A  
HETATM   12  C   UNL     1      -9.019  12.372  67.521  1.00  0.00    -0.183 A  
ENDBRANCH   6   7
BRANCH   6  13
HETATM   13  C   UNL     1     -11.756  10.355  70.711  1.00  0.00    -0.464 A  
HETATM   14  C   UNL     1     -10.154   8.719  71.573  1.00  0.00    -0.371 A  
HETATM   15  C   UNL     1     -12.730   9.759  71.522  1.00  0.00    -0.504 A  
HETATM   16  C   UNL     1     -10.450   9.842  70.790  1.00  0.00    -0.339 A  
HETATM   17  C   UNL     1     -12.436   8.612  72.279  1.00  0.00    -0.460 A  
HETATM   18  C   UNL     1     -11.150   8.047  72.298  1.00  0.00    -0.393 A  
BRANCH  18  19
HETATM   19  C   UNL     1     -10.864   6.771  72.999  1.00  0.00    -0.314 A  
HETATM   20  C   UNL     1      -9.764   6.626  73.866  1.00  0.00    -0.267 A  
HETATM   21  C   UNL     1      -9.456   5.394  74.458  1.00  0.00    -0.151 A  
HETATM   22  C   UNL     1     -10.251   4.281  74.207  1.00  0.00    -0.263 A  
HETATM   23  C   UNL     1     -11.355   4.399  73.370  1.00  0.00    -0.353 A  
HETATM   24  C   UNL     1     -11.654   5.628  72.774  1.00  0.00    -0.289 A  
ENDBRANCH  18  19
ENDBRANCH   6  13
ENDBRANCH   3   6
TORSDOF 4
ENDMDL
MODEL       51
REMARK 921   NORMALIZED FREE ENERGY PREDICTED BY IDOCK:   -5.38 KCAL/MOL
REMARK 922        TOTAL FREE ENERGY PREDICTED BY IDOCK:   -7.56 KCAL/MOL
REMARK 923 INTER-LIGAND FREE ENERGY PREDICTED BY IDOCK:   -6.49 KCAL/MOL
REMARK 924 INTRA-LIGAND FREE ENERGY PREDICTED BY IDOCK:   -1.07 KCAL/MOL
REMARK 927      BINDING AFFINITY PREDICTED BY RF-SCORE:    0.00 PKD
ROOT
HETATM    1  C   UNL     1      -5.710   8.573  70.481  1.00  0.00    -0.027 A  
HETATM    2  C   UNL     1      -6.754   7.832  69.983  1.00  0.00    -0.045 A  
HETATM    3  N   UNL     1      -7.817   8.706  69.891  1.00  0.00    -0.089 NA 
HETATM    4  C   UNL     1      -7.340   9.930  70.274  1.00  0.00    -0.157 A  
HETATM    5  N   UNL     1      -6.085   9.875  70.656  1.00  0.00    -0.085 NA 
ENDROOT
BRANCH   3   6
HETATM    6  C   UNL     1      -9.195   8.305  69.534  1.00  0.00    -0.158 C  
BRANCH   6   7
HETATM    7  C   UNL     1     -10.030   7.815  70.723  1.00  0.00    -0.184 A  
HETATM    8  C   UNL     1     -10.980   6.796  70.506  1.00  0.00    -0.327 A  
HETATM    9  C   UNL     1     -11.679   6.218  71.568  1.00  0.00    -0.329 A  
HETATM   10  C   UNL     1      -9.824   8.243  72.045  1.00  0.00    -0.327 A  
HETATM   11  C   UNL     1     -11.442   6.643  72.870  1.00  0.00    -0.102 A  
HETATM   12  C   UNL     1     -10.520   7.657  73.108  1.00  0.00    -0.433 A  
ENDBRANCH   6   7
BRANCH   6  13
HETATM   13  C   UNL     1      -9.909   9.273  68.588  1.00  0.00    -0.173 A  
HETATM   14  C   UNL     1     -10.160  10.172  66.327  1.00  0.00    -0.303 A  
HETATM   15  C   UNL     1     -10.922  10.149  68.999  1.00  0.00    -0.265 A  
HETATM   16  C   UNL     1      -9.575   9.269  67.223  1.00  0.00    -0.200 A  
HETATM   17  C   UNL     1     -11.481  11.075  68.103  1.00  0.00    -0.374 A  
HETATM   18  C   UNL     1     -11.092  11.130  66.754  1.00  0.00    -0.280 A  
BRANCH  18  19
HETATM   19  C   UNL     1     -11.592  12.182  65.835  1.00  0.00    -0.425 A  
HETATM   20  C   UNL     1     -11.573  12.023  64.437  1.00  0.00    -0.411 A  
HETATM   21  C   UNL     1     -11.970  13.055  63.577  1.00  0.00    -0.615 A  
HETATM   22  C   UNL     1     -12.410  14.267  64.098  1.00  0.00    -0.361 A  
HETATM   23  C   UNL     1     -12.458  14.446  65.475  1.00  0.00    -0.356 A  
HETATM   24  C   UNL     1     -12.052  13.418  66.330  1.00  0.00    -0.464 A  
ENDBRANCH  18  19
ENDBRANCH   6  13
ENDBRANCH   3   6
TORSDOF 4
ENDMDL
MODEL       52
REMARK 921   NORMALIZED FREE ENERGY PREDICTED BY IDOCK:   -5.38 KCAL/MOL
REMARK 922        TOTAL FREE ENERGY PREDICTED BY IDOCK:   -7.55 KCAL/MOL
REMARK 923 INTER-LIGAND FREE ENERGY PREDICTED BY IDOCK:   -6.81 KCAL/MOL
REMARK 924 INTRA-LIGAND FREE ENERGY PREDICTED BY IDOCK:   -0.74 KCAL/MOL
REMARK 927      BINDING AFFINITY PREDICTED BY RF-SCORE:    0.00 PKD
ROOT
HETATM    1  C   UNL     1      -6.587   7.614  67.934  1.00  0.00    -0.059 A  
HETATM    2  C   UNL     1      -7.669   8.388  68.278  1.00  0.00    -0.106 A  
HETATM    3  N   UNL     1      -8.726   7.510  68.403  1.00  0.00    -0.124 NA 
HETATM    4  C   UNL     1      -8.212   6.260  68.192  1.00  0.00    -0.115 A  
HETATM    5  N   UNL     1      -6.935   6.295  67.885  1.00  0.00    -0.070 NA 
ENDROOT
BRANCH   3   6
HETATM    6  C   UNL     1     -10.128   7.924  68.625  1.00  0.00    -0.197 C  
BRANCH   6   7
HETATM    7  C   UNL     1     -10.611   7.744  70.069  1.00  0.00    -0.238 A  
HETATM    8  C   UNL     1     -11.647   6.821  70.324  1.00  0.00    -0.417 A  
HETATM    9  C   UNL     1     -12.043   6.518  71.629  1.00  0.00    -0.381 A  
HETATM   10  C   UNL     1     -10.002   8.361  71.174  1.00  0.00    -0.245 A  
HETATM   11  C   UNL     1     -11.410   7.126  72.707  1.00  0.00    -0.285 A  
HETATM   12  C   UNL     1     -10.395   8.050  72.480  1.00  0.00    -0.374 A  
ENDBRANCH   6   7
BRANCH   6  13
HETATM   13  C   UNL     1     -10.504   9.256  67.971  1.00  0.00    -0.275 A  
HETATM   14  C   UNL     1     -10.523  10.663  65.970  1.00  0.00    -0.250 A  
HETATM   15  C   UNL     1     -11.137  10.300  68.655  1.00  0.00    -0.290 A  
HETATM   16  C   UNL     1     -10.247   9.444  66.603  1.00  0.00    -0.319 A  
HETATM   17  C   UNL     1     -11.380  11.533  68.026  1.00  0.00    -0.368 A  
HETATM   18  C   UNL     1     -11.050  11.754  66.677  1.00  0.00    -0.364 A  
BRANCH  18  19
HETATM   19  C   UNL     1     -11.196  13.086  66.042  1.00  0.00    -0.320 A  
HETATM   20  C   UNL     1     -12.296  13.409  65.226  1.00  0.00    -0.513 A  
HETATM   21  C   UNL     1     -12.381  14.641  64.565  1.00  0.00    -0.416 A  
HETATM   22  C   UNL     1     -11.372  15.586  64.717  1.00  0.00    -0.362 A  
HETATM   23  C   UNL     1     -10.283  15.302  65.532  1.00  0.00    -0.417 A  
HETATM   24  C   UNL     1     -10.196  14.068  66.183  1.00  0.00    -0.308 A  
ENDBRANCH  18  19
ENDBRANCH   6  13
ENDBRANCH   3   6
TORSDOF 4
ENDMDL
MODEL       53
REMARK 921   NORMALIZED FREE ENERGY PREDICTED BY IDOCK:   -5.37 KCAL/MOL
REMARK 922        TOTAL FREE ENERGY PREDICTED BY IDOCK:   -7.54 KCAL/MOL
REMARK 923 INTER-LIGAND FREE ENERGY PREDICTED BY IDOCK:   -6.71 KCAL/MOL
REMARK 924 INTRA-LIGAND FREE ENERGY PREDICTED BY IDOCK:   -0.84 KCAL/MOL
REMARK 927      BINDING AFFINITY PREDICTED BY RF-SCORE:    0.00 PKD
ROOT
HETATM    1  C   UNL     1     -14.117  15.123  72.119  1.00  0.00    -0.554 A  
HETATM    2  C   UNL     1     -13.978  14.651  70.836  1.00  0.00     0.032 A  
HETATM    3  N   UNL     1     -12.628  14.715  70.563  1.00  0.00    -0.341 NA 
HETATM    4  C   UNL     1     -12.026  15.158  71.709  1.00  0.00    -0.382 A  
HETATM    5  N   UNL     1     -12.898  15.433  72.651  1.00  0.00    -0.364 NA 
ENDROOT
BRANCH   3   6
HETATM    6  C   UNL     1     -12.034  14.438  69.237  1.00  0.00    -0.324 C  
BRANCH   6   7
HETATM    7  C   UNL     1     -10.947  15.435  68.819  1.00  0.00    -0.264 A  
HETATM    8  C   UNL     1      -9.595  15.067  68.981  1.00  0.00    -0.225 A  
HETATM    9  C   UNL     1      -8.561  15.875  68.501  1.00  0.00    -0.190 A  
HETATM   10  C   UNL     1     -11.218  16.653  68.172  1.00  0.00    -0.202 A  
HETATM   11  C   UNL     1      -8.855  17.065  67.846  1.00  0.00    -0.224 A  
HETATM   12  C   UNL     1     -10.181  17.456  67.687  1.00  0.00    -0.342 A  
ENDBRANCH   6   7
BRANCH   6  13
HETATM   13  C   UNL     1     -11.699  12.965  68.992  1.00  0.00    -0.375 A  
HETATM   14  C   UNL     1     -11.557  10.685  69.870  1.00  0.00    -0.396 A  
HETATM   15  C   UNL     1     -11.237  12.471  67.765  1.00  0.00    -0.318 A  
HETATM   16  C   UNL     1     -11.898  12.035  70.026  1.00  0.00    -0.392 A  
HETATM   17  C   UNL     1     -10.864  11.124  67.624  1.00  0.00    -0.295 A  
HETATM   18  C   UNL     1     -10.985  10.207  68.681  1.00  0.00    -0.273 A  
BRANCH  18  19
HETATM   19  C   UNL     1     -10.484   8.815  68.574  1.00  0.00    -0.212 A  
HETATM   20  C   UNL     1     -10.200   8.216  67.332  1.00  0.00    -0.327 A  
HETATM   21  C   UNL     1      -9.806   6.876  67.237  1.00  0.00    -0.196 A  
HETATM   22  C   UNL     1      -9.673   6.105  68.387  1.00  0.00    -0.133 A  
HETATM   23  C   UNL     1      -9.927   6.675  69.629  1.00  0.00    -0.191 A  
HETATM   24  C   UNL     1     -10.329   8.010  69.719  1.00  0.00    -0.219 A  
ENDBRANCH  18  19
ENDBRANCH   6  13
ENDBRANCH   3   6
TORSDOF 4
ENDMDL
MODEL       54
REMARK 921   NORMALIZED FREE ENERGY PREDICTED BY IDOCK:   -5.30 KCAL/MOL
REMARK 922        TOTAL FREE ENERGY PREDICTED BY IDOCK:   -7.46 KCAL/MOL
REMARK 923 INTER-LIGAND FREE ENERGY PREDICTED BY IDOCK:   -6.43 KCAL/MOL
REMARK 924 INTRA-LIGAND FREE ENERGY PREDICTED BY IDOCK:   -1.02 KCAL/MOL
REMARK 927      BINDING AFFINITY PREDICTED BY RF-SCORE:    0.00 PKD
ROOT
HETATM    1  C   UNL     1     -11.534   7.043  72.914  1.00  0.00    -0.123 A  
HETATM    2  C   UNL     1     -10.546   7.974  72.700  1.00  0.00    -0.350 A  
HETATM    3  N   UNL     1     -10.634   8.305  71.364  1.00  0.00    -0.215 NA 
HETATM    4  C   UNL     1     -11.702   7.610  70.867  1.00  0.00    -0.271 A  
HETATM    5  N   UNL     1     -12.247   6.827  71.769  1.00  0.00    -0.348 NA 
ENDROOT
BRANCH   3   6
HETATM    6  C   UNL     1      -9.667   9.173  70.658  1.00  0.00    -0.256 C  
BRANCH   6   7
HETATM    7  C   UNL     1      -8.312   8.507  70.387  1.00  0.00    -0.124 A  
HETATM    8  C   UNL     1      -7.138   9.177  70.790  1.00  0.00    -0.103 A  
HETATM    9  C   UNL     1      -5.885   8.569  70.689  1.00  0.00    -0.031 A  
HETATM   10  C   UNL     1      -8.175   7.211  69.863  1.00  0.00    -0.133 A  
HETATM   11  C   UNL     1      -5.777   7.277  70.188  1.00  0.00    -0.024 A  
HETATM   12  C   UNL     1      -6.920   6.601  69.770  1.00  0.00    -0.066 A  
ENDBRANCH   6   7
BRANCH   6  13
HETATM   13  C   UNL     1     -10.259   9.950  69.480  1.00  0.00    -0.243 A  
HETATM   14  C   UNL     1     -10.409  10.273  67.060  1.00  0.00    -0.299 A  
HETATM   15  C   UNL     1     -11.153  11.018  69.631  1.00  0.00    -0.320 A  
HETATM   16  C   UNL     1      -9.936   9.561  68.169  1.00  0.00    -0.191 A  
HETATM   17  C   UNL     1     -11.597  11.750  68.518  1.00  0.00    -0.380 A  
HETATM   18  C   UNL     1     -11.211  11.415  67.208  1.00  0.00    -0.370 A  
BRANCH  18  19
HETATM   19  C   UNL     1     -11.581  12.254  66.042  1.00  0.00    -0.451 A  
HETATM   20  C   UNL     1     -11.293  11.865  64.721  1.00  0.00    -0.344 A  
HETATM   21  C   UNL     1     -11.572  12.702  63.633  1.00  0.00    -0.575 A  
HETATM   22  C   UNL     1     -12.160  13.945  63.842  1.00  0.00    -0.387 A  
HETATM   23  C   UNL     1     -12.474  14.348  65.134  1.00  0.00    -0.360 A  
HETATM   24  C   UNL     1     -12.185  13.514  66.218  1.00  0.00    -0.468 A  
ENDBRANCH  18  19
ENDBRANCH   6  13
ENDBRANCH   3   6
TORSDOF 4
ENDMDL
MODEL       55
REMARK 921   NORMALIZED FREE ENERGY PREDICTED BY IDOCK:   -5.30 KCAL/MOL
REMARK 922        TOTAL FREE ENERGY PREDICTED BY IDOCK:   -7.45 KCAL/MOL
REMARK 923 INTER-LIGAND FREE ENERGY PREDICTED BY IDOCK:   -6.57 KCAL/MOL
REMARK 924 INTRA-LIGAND FREE ENERGY PREDICTED BY IDOCK:   -0.89 KCAL/MOL
REMARK 927      BINDING AFFINITY PREDICTED BY RF-SCORE:    0.00 PKD
ROOT
HETATM    1  C   UNL     1     -10.452   5.146  66.697  1.00  0.00    -0.275 A  
HETATM    2  C   UNL     1     -11.090   6.290  67.114  1.00  0.00    -0.303 A  
HETATM    3  N   UNL     1     -10.328   6.778  68.156  1.00  0.00    -0.174 NA 
HETATM    4  C   UNL     1      -9.249   5.944  68.264  1.00  0.00    -0.117 A  
HETATM    5  N   UNL     1      -9.309   4.943  67.417  1.00  0.00    -0.126 NA 
ENDROOT
BRANCH   3   6
HETATM    6  C   UNL     1     -10.718   7.924  69.005  1.00  0.00    -0.096 C  
BRANCH   6   7
HETATM    7  C   UNL     1     -10.090   7.909  70.403  1.00  0.00    -0.194 A  
HETATM    8  C   UNL     1      -8.756   8.345  70.549  1.00  0.00    -0.152 A  
HETATM    9  C   UNL     1      -8.170   8.476  71.809  1.00  0.00    -0.209 A  
HETATM   10  C   UNL     1     -10.804   7.595  71.572  1.00  0.00    -0.256 A  
HETATM   11  C   UNL     1      -8.904   8.180  72.952  1.00  0.00    -0.307 A  
HETATM   12  C   UNL     1     -10.217   7.735  72.833  1.00  0.00    -0.377 A  
ENDBRANCH   6   7
BRANCH   6  13
HETATM   13  C   UNL     1     -10.689   9.277  68.290  1.00  0.00    -0.195 A  
HETATM   14  C   UNL     1     -11.478  11.590  68.172  1.00  0.00    -0.385 A  
HETATM   15  C   UNL     1      -9.924   9.529  67.144  1.00  0.00    -0.261 A  
HETATM   16  C   UNL     1     -11.429  10.348  68.819  1.00  0.00    -0.240 A  
HETATM   17  C   UNL     1     -10.003  10.765  66.481  1.00  0.00    -0.260 A  
HETATM   18  C   UNL     1     -10.806  11.814  66.961  1.00  0.00    -0.306 A  
BRANCH  18  19
HETATM   19  C   UNL     1     -10.985  13.076  66.202  1.00  0.00    -0.300 A  
HETATM   20  C   UNL     1     -12.127  13.319  65.417  1.00  0.00    -0.464 A  
HETATM   21  C   UNL     1     -12.248  14.478  64.639  1.00  0.00    -0.474 A  
HETATM   22  C   UNL     1     -11.233  15.429  64.641  1.00  0.00    -0.374 A  
HETATM   23  C   UNL     1     -10.102  15.224  65.423  1.00  0.00    -0.397 A  
HETATM   24  C   UNL     1      -9.981  14.062  66.190  1.00  0.00    -0.325 A  
ENDBRANCH  18  19
ENDBRANCH   6  13
ENDBRANCH   3   6
TORSDOF 4
ENDMDL
MODEL       56
REMARK 921   NORMALIZED FREE ENERGY PREDICTED BY IDOCK:   -5.29 KCAL/MOL
REMARK 922        TOTAL FREE ENERGY PREDICTED BY IDOCK:   -7.44 KCAL/MOL
REMARK 923 INTER-LIGAND FREE ENERGY PREDICTED BY IDOCK:   -7.29 KCAL/MOL
REMARK 924 INTRA-LIGAND FREE ENERGY PREDICTED BY IDOCK:   -0.16 KCAL/MOL
REMARK 927      BINDING AFFINITY PREDICTED BY RF-SCORE:    0.00 PKD
ROOT
HETATM    1  C   UNL     1     -12.872  14.878  71.805  1.00  0.00    -0.330 A  
HETATM    2  C   UNL     1     -12.751  14.462  70.501  1.00  0.00    -0.340 A  
HETATM    3  N   UNL     1     -11.867  15.343  69.913  1.00  0.00    -0.327 NA 
HETATM    4  C   UNL     1     -11.459  16.193  70.903  1.00  0.00    -0.386 A  
HETATM    5  N   UNL     1     -12.064  15.953  72.044  1.00  0.00    -0.460 NA 
ENDROOT
BRANCH   3   6
HETATM    6  C   UNL     1     -11.548  15.360  68.469  1.00  0.00    -0.359 C  
BRANCH   6   7
HETATM    7  C   UNL     1     -10.771  16.602  68.016  1.00  0.00    -0.350 A  
HETATM    8  C   UNL     1     -10.454  16.738  66.648  1.00  0.00    -0.258 A  
HETATM    9  C   UNL     1      -9.864  17.903  66.154  1.00  0.00    -0.256 A  
HETATM   10  C   UNL     1     -10.455  17.673  68.868  1.00  0.00    -0.256 A  
HETATM   11  C   UNL     1      -9.580  18.958  67.012  1.00  0.00    -0.348 A  
HETATM   12  C   UNL     1      -9.870  18.842  68.368  1.00  0.00    -0.429 A  
ENDBRANCH   6   7
BRANCH   6  13
HETATM   13  C   UNL     1     -11.030  14.029  67.921  1.00  0.00    -0.261 A  
HETATM   14  C   UNL     1     -11.402  12.075  66.496  1.00  0.00    -0.413 A  
HETATM   15  C   UNL     1      -9.789  13.481  68.268  1.00  0.00    -0.233 A  
HETATM   16  C   UNL     1     -11.807  13.323  66.987  1.00  0.00    -0.442 A  
HETATM   17  C   UNL     1      -9.403  12.214  67.801  1.00  0.00    -0.193 A  
HETATM   18  C   UNL     1     -10.213  11.467  66.929  1.00  0.00    -0.254 A  
BRANCH  18  19
HETATM   19  C   UNL     1      -9.866  10.082  66.527  1.00  0.00    -0.267 A  
HETATM   20  C   UNL     1     -10.448   8.957  67.143  1.00  0.00    -0.344 A  
HETATM   21  C   UNL     1     -10.051   7.655  66.814  1.00  0.00    -0.325 A  
HETATM   22  C   UNL     1      -9.073   7.447  65.848  1.00  0.00    -0.073 A  
HETATM   23  C   UNL     1      -8.495   8.537  65.209  1.00  0.00    -0.192 A  
HETATM   24  C   UNL     1      -8.886   9.836  65.547  1.00  0.00    -0.192 A  
ENDBRANCH  18  19
ENDBRANCH   6  13
ENDBRANCH   3   6
TORSDOF 4
ENDMDL
MODEL       57
REMARK 921   NORMALIZED FREE ENERGY PREDICTED BY IDOCK:   -5.28 KCAL/MOL
REMARK 922        TOTAL FREE ENERGY PREDICTED BY IDOCK:   -7.43 KCAL/MOL
REMARK 923 INTER-LIGAND FREE ENERGY PREDICTED BY IDOCK:   -6.81 KCAL/MOL
REMARK 924 INTRA-LIGAND FREE ENERGY PREDICTED BY IDOCK:   -0.62 KCAL/MOL
REMARK 927      BINDING AFFINITY PREDICTED BY RF-SCORE:    0.00 PKD
ROOT
HETATM    1  C   UNL     1     -11.357  15.807  64.752  1.00  0.00    -0.314 A  
HETATM    2  C   UNL     1     -10.326  15.776  65.660  1.00  0.00    -0.388 A  
HETATM    3  N   UNL     1     -10.068  14.439  65.880  1.00  0.00    -0.310 NA 
HETATM    4  C   UNL     1     -10.907  13.746  65.051  1.00  0.00    -0.371 A  
HETATM    5  N   UNL     1     -11.708  14.541  64.380  1.00  0.00    -0.393 NA 
ENDROOT
BRANCH   3   6
HETATM    6  C   UNL     1      -9.124  13.932  66.899  1.00  0.00    -0.245 C  
BRANCH   6   7
HETATM    7  C   UNL     1      -8.217  15.010  67.503  1.00  0.00    -0.199 A  
HETATM    8  C   UNL     1      -8.798  15.999  68.323  1.00  0.00    -0.182 A  
HETATM    9  C   UNL     1      -8.011  16.930  69.005  1.00  0.00    -0.169 A  
HETATM   10  C   UNL     1      -6.817  15.004  67.381  1.00  0.00    -0.144 A  
HETATM   11  C   UNL     1      -6.626  16.891  68.885  1.00  0.00    -0.193 A  
HETATM   12  C   UNL     1      -6.031  15.933  68.071  1.00  0.00    -0.142 A  
ENDBRANCH   6   7
BRANCH   6  13
HETATM   13  C   UNL     1      -9.745  12.961  67.907  1.00  0.00    -0.218 A  
HETATM   14  C   UNL     1      -9.672  10.785  69.022  1.00  0.00    -0.201 A  
HETATM   15  C   UNL     1     -10.900  13.248  68.644  1.00  0.00    -0.285 A  
HETATM   16  C   UNL     1      -9.115  11.729  68.150  1.00  0.00    -0.185 A  
HETATM   17  C   UNL     1     -11.474  12.285  69.491  1.00  0.00    -0.318 A  
HETATM   18  C   UNL     1     -10.891  11.020  69.676  1.00  0.00    -0.241 A  
BRANCH  18  19
HETATM   19  C   UNL     1     -11.554   9.959  70.474  1.00  0.00    -0.386 A  
HETATM   20  C   UNL     1     -11.155   8.611  70.403  1.00  0.00    -0.250 A  
HETATM   21  C   UNL     1     -11.841   7.607  71.097  1.00  0.00    -0.314 A  
HETATM   22  C   UNL     1     -12.936   7.930  71.892  1.00  0.00    -0.323 A  
HETATM   23  C   UNL     1     -13.341   9.256  71.996  1.00  0.00    -0.518 A  
HETATM   24  C   UNL     1     -12.660  10.255  71.294  1.00  0.00    -0.522 A  
ENDBRANCH  18  19
ENDBRANCH   6  13
ENDBRANCH   3   6
TORSDOF 4
ENDMDL
MODEL       58
REMARK 921   NORMALIZED FREE ENERGY PREDICTED BY IDOCK:   -5.28 KCAL/MOL
REMARK 922        TOTAL FREE ENERGY PREDICTED BY IDOCK:   -7.43 KCAL/MOL
REMARK 923 INTER-LIGAND FREE ENERGY PREDICTED BY IDOCK:   -6.37 KCAL/MOL
REMARK 924 INTRA-LIGAND FREE ENERGY PREDICTED BY IDOCK:   -1.05 KCAL/MOL
REMARK 927      BINDING AFFINITY PREDICTED BY RF-SCORE:    0.00 PKD
ROOT
HETATM    1  C   UNL     1      -6.764   7.376  69.827  1.00  0.00    -0.044 A  
HETATM    2  C   UNL     1      -7.814   7.656  68.985  1.00  0.00    -0.119 A  
HETATM    3  N   UNL     1      -8.719   8.364  69.748  1.00  0.00    -0.132 NA 
HETATM    4  C   UNL     1      -8.141   8.525  70.977  1.00  0.00    -0.130 A  
HETATM    5  N   UNL     1      -6.978   7.922  71.060  1.00  0.00    -0.048 NA 
ENDROOT
BRANCH   3   6
HETATM    6  C   UNL     1     -10.070   8.752  69.287  1.00  0.00    -0.204 C  
BRANCH   6   7
HETATM    7  C   UNL     1     -11.142   8.699  70.381  1.00  0.00    -0.250 A  
HETATM    8  C   UNL     1     -11.627   9.913  70.911  1.00  0.00    -0.456 A  
HETATM    9  C   UNL     1     -12.692   9.936  71.814  1.00  0.00    -0.523 A  
HETATM   10  C   UNL     1     -11.758   7.510  70.807  1.00  0.00    -0.281 A  
HETATM   11  C   UNL     1     -13.299   8.749  72.205  1.00  0.00    -0.465 A  
HETATM   12  C   UNL     1     -12.830   7.538  71.706  1.00  0.00    -0.359 A  
ENDBRANCH   6   7
BRANCH   6  13
HETATM   13  C   UNL     1     -10.100  10.000  68.401  1.00  0.00    -0.186 A  
HETATM   14  C   UNL     1      -9.335  12.289  67.999  1.00  0.00    -0.195 A  
HETATM   15  C   UNL     1     -10.855  10.095  67.226  1.00  0.00    -0.295 A  
HETATM   16  C   UNL     1      -9.303  11.104  68.746  1.00  0.00    -0.156 A  
HETATM   17  C   UNL     1     -10.912  11.296  66.500  1.00  0.00    -0.303 A  
HETATM   18  C   UNL     1     -10.178  12.431  66.886  1.00  0.00    -0.238 A  
BRANCH  18  19
HETATM   19  C   UNL     1     -10.325  13.734  66.193  1.00  0.00    -0.301 A  
HETATM   20  C   UNL     1      -9.456  14.814  66.439  1.00  0.00    -0.328 A  
HETATM   21  C   UNL     1      -9.654  16.065  65.842  1.00  0.00    -0.370 A  
HETATM   22  C   UNL     1     -10.720  16.261  64.970  1.00  0.00    -0.319 A  
HETATM   23  C   UNL     1     -11.583  15.208  64.693  1.00  0.00    -0.357 A  
HETATM   24  C   UNL     1     -11.388  13.963  65.299  1.00  0.00    -0.316 A  
ENDBRANCH  18  19
ENDBRANCH   6  13
ENDBRANCH   3   6
TORSDOF 4
ENDMDL
MODEL       59
REMARK 921   NORMALIZED FREE ENERGY PREDICTED BY IDOCK:   -5.27 KCAL/MOL
REMARK 922        TOTAL FREE ENERGY PREDICTED BY IDOCK:   -7.42 KCAL/MOL
REMARK 923 INTER-LIGAND FREE ENERGY PREDICTED BY IDOCK:   -6.58 KCAL/MOL
REMARK 924 INTRA-LIGAND FREE ENERGY PREDICTED BY IDOCK:   -0.85 KCAL/MOL
REMARK 927      BINDING AFFINITY PREDICTED BY RF-SCORE:    0.00 PKD
ROOT
HETATM    1  C   UNL     1      -6.715  13.142  68.269  1.00  0.00    -0.101 A  
HETATM    2  C   UNL     1      -7.738  12.226  68.311  1.00  0.00    -0.143 A  
HETATM    3  N   UNL     1      -8.741  12.755  67.526  1.00  0.00    -0.174 NA 
HETATM    4  C   UNL     1      -8.245  13.920  67.006  1.00  0.00    -0.046 A  
HETATM    5  N   UNL     1      -7.041  14.189  67.454  1.00  0.00    -0.156 NA 
ENDROOT
BRANCH   3   6
HETATM    6  C   UNL     1     -10.093  12.170  67.398  1.00  0.00    -0.199 C  
BRANCH   6   7
HETATM    7  C   UNL     1     -10.561  11.989  65.950  1.00  0.00    -0.302 A  
HETATM    8  C   UNL     1     -11.748  12.631  65.538  1.00  0.00    -0.446 A  
HETATM    9  C   UNL     1     -12.158  12.612  64.203  1.00  0.00    -0.518 A  
HETATM   10  C   UNL     1      -9.813  11.313  64.970  1.00  0.00    -0.307 A  
HETATM   11  C   UNL     1     -11.390  11.954  63.249  1.00  0.00    -0.373 A  
HETATM   12  C   UNL     1     -10.222  11.302  63.633  1.00  0.00    -0.446 A  
ENDBRANCH   6   7
BRANCH   6  13
HETATM   13  C   UNL     1     -10.355  10.979  68.323  1.00  0.00    -0.197 A  
HETATM   14  C   UNL     1     -11.351  10.123  70.388  1.00  0.00    -0.401 A  
HETATM   15  C   UNL     1      -9.899   9.682  68.060  1.00  0.00    -0.175 A  
HETATM   16  C   UNL     1     -11.127  11.168  69.482  1.00  0.00    -0.311 A  
HETATM   17  C   UNL     1     -10.096   8.645  68.988  1.00  0.00    -0.207 A  
HETATM   18  C   UNL     1     -10.799   8.849  70.188  1.00  0.00    -0.251 A  
BRANCH  18  19
HETATM   19  C   UNL     1     -10.907   7.792  71.223  1.00  0.00    -0.255 A  
HETATM   20  C   UNL     1     -10.644   8.047  72.582  1.00  0.00    -0.419 A  
HETATM   21  C   UNL     1     -10.669   7.023  73.538  1.00  0.00    -0.368 A  
HETATM   22  C   UNL     1     -10.972   5.720  73.157  1.00  0.00    -0.309 A  
HETATM   23  C   UNL     1     -11.254   5.442  71.825  1.00  0.00    -0.088 A  
HETATM   24  C   UNL     1     -11.220   6.464  70.872  1.00  0.00    -0.384 A  
ENDBRANCH  18  19
ENDBRANCH   6  13
ENDBRANCH   3   6
TORSDOF 4
ENDMDL
MODEL       60
REMARK 921   NORMALIZED FREE ENERGY PREDICTED BY IDOCK:   -5.26 KCAL/MOL
REMARK 922        TOTAL FREE ENERGY PREDICTED BY IDOCK:   -7.41 KCAL/MOL
REMARK 923 INTER-LIGAND FREE ENERGY PREDICTED BY IDOCK:   -6.69 KCAL/MOL
REMARK 924 INTRA-LIGAND FREE ENERGY PREDICTED BY IDOCK:   -0.72 KCAL/MOL
REMARK 927      BINDING AFFINITY PREDICTED BY RF-SCORE:    0.00 PKD
ROOT
HETATM    1  C   UNL     1     -12.533  11.451  70.671  1.00  0.00    -0.327 A  
HETATM    2  C   UNL     1     -11.792  12.244  69.828  1.00  0.00    -0.318 A  
HETATM    3  N   UNL     1     -10.772  11.439  69.365  1.00  0.00    -0.159 NA 
HETATM    4  C   UNL     1     -10.992  10.198  69.898  1.00  0.00    -0.293 A  
HETATM    5  N   UNL     1     -12.029  10.182  70.704  1.00  0.00    -0.309 NA 
ENDROOT
BRANCH   3   6
HETATM    6  C   UNL     1      -9.645  11.919  68.536  1.00  0.00    -0.157 C  
BRANCH   6   7
HETATM    7  C   UNL     1      -9.298  10.998  67.361  1.00  0.00    -0.165 A  
HETATM    8  C   UNL     1      -7.987  10.483  67.271  1.00  0.00    -0.114 A  
HETATM    9  C   UNL     1      -7.644   9.540  66.299  1.00  0.00    -0.097 A  
HETATM   10  C   UNL     1     -10.243  10.541  66.427  1.00  0.00    -0.296 A  
HETATM   11  C   UNL     1      -8.602   9.087  65.400  1.00  0.00    -0.200 A  
HETATM   12  C   UNL     1      -9.898   9.591  65.460  1.00  0.00    -0.304 A  
ENDBRANCH   6   7
BRANCH   6  13
HETATM   13  C   UNL     1      -9.698  13.412  68.204  1.00  0.00    -0.226 A  
HETATM   14  C   UNL     1      -8.719  15.639  68.461  1.00  0.00    -0.182 A  
HETATM   15  C   UNL     1     -10.684  13.989  67.396  1.00  0.00    -0.285 A  
HETATM   16  C   UNL     1      -8.687  14.258  68.692  1.00  0.00    -0.150 A  
HETATM   17  C   UNL     1     -10.731  15.379  67.196  1.00  0.00    -0.314 A  
HETATM   18  C   UNL     1      -9.769  16.240  67.749  1.00  0.00    -0.233 A  
BRANCH  18  19
HETATM   19  C   UNL     1      -9.880  17.716  67.640  1.00  0.00    -0.294 A  
HETATM   20  C   UNL     1      -9.758  18.559  68.760  1.00  0.00    -0.390 A  
HETATM   21  C   UNL     1      -9.948  19.943  68.660  1.00  0.00    -0.492 A  
HETATM   22  C   UNL     1     -10.249  20.518  67.430  1.00  0.00    -0.342 A  
HETATM   23  C   UNL     1     -10.356  19.713  66.302  1.00  0.00    -0.619 A  
HETATM   24  C   UNL     1     -10.176  18.330  66.409  1.00  0.00    -0.417 A  
ENDBRANCH  18  19
ENDBRANCH   6  13
ENDBRANCH   3   6
TORSDOF 4
ENDMDL
MODEL       61
REMARK 921   NORMALIZED FREE ENERGY PREDICTED BY IDOCK:   -5.25 KCAL/MOL
REMARK 922        TOTAL FREE ENERGY PREDICTED BY IDOCK:   -7.39 KCAL/MOL
REMARK 923 INTER-LIGAND FREE ENERGY PREDICTED BY IDOCK:   -6.34 KCAL/MOL
REMARK 924 INTRA-LIGAND FREE ENERGY PREDICTED BY IDOCK:   -1.06 KCAL/MOL
REMARK 927      BINDING AFFINITY PREDICTED BY RF-SCORE:    0.00 PKD
ROOT
HETATM    1  C   UNL     1      -8.810   7.159  66.169  1.00  0.00    -0.150 A  
HETATM    2  C   UNL     1      -9.823   7.990  66.585  1.00  0.00    -0.252 A  
HETATM    3  N   UNL     1      -9.651   8.129  67.947  1.00  0.00    -0.152 NA 
HETATM    4  C   UNL     1      -8.516   7.433  68.262  1.00  0.00    -0.125 A  
HETATM    5  N   UNL     1      -8.004   6.822  67.219  1.00  0.00    -0.112 NA 
ENDROOT
BRANCH   3   6
HETATM    6  C   UNL     1     -10.602   8.827  68.838  1.00  0.00    -0.155 C  
BRANCH   6   7
HETATM    7  C   UNL     1     -10.693   8.230  70.246  1.00  0.00    -0.237 A  
HETATM    8  C   UNL     1      -9.935   8.819  71.280  1.00  0.00    -0.333 A  
HETATM    9  C   UNL     1     -10.072   8.403  72.606  1.00  0.00    -0.322 A  
HETATM   10  C   UNL     1     -11.579   7.196  70.596  1.00  0.00    -0.354 A  
HETATM   11  C   UNL     1     -10.971   7.394  72.931  1.00  0.00    -0.408 A  
HETATM   12  C   UNL     1     -11.719   6.788  71.926  1.00  0.00    -0.349 A  
ENDBRANCH   6   7
BRANCH   6  13
HETATM   13  C   UNL     1     -10.516  10.354  68.780  1.00  0.00    -0.219 A  
HETATM   14  C   UNL     1     -11.627  12.517  69.058  1.00  0.00    -0.365 A  
HETATM   15  C   UNL     1      -9.355  11.050  68.420  1.00  0.00    -0.179 A  
HETATM   16  C   UNL     1     -11.638  11.118  69.145  1.00  0.00    -0.393 A  
HETATM   17  C   UNL     1      -9.360  12.450  68.301  1.00  0.00    -0.199 A  
HETATM   18  C   UNL     1     -10.504  13.214  68.586  1.00  0.00    -0.242 A  
BRANCH  18  19
HETATM   19  C   UNL     1     -10.550  14.677  68.349  1.00  0.00    -0.241 A  
HETATM   20  C   UNL     1     -10.439  15.229  67.059  1.00  0.00    -0.292 A  
HETATM   21  C   UNL     1     -10.399  16.614  66.855  1.00  0.00    -0.299 A  
HETATM   22  C   UNL     1     -10.487  17.481  67.939  1.00  0.00    -0.384 A  
HETATM   23  C   UNL     1     -10.617  16.966  69.223  1.00  0.00    -0.325 A  
HETATM   24  C   UNL     1     -10.646  15.582  69.423  1.00  0.00    -0.250 A  
ENDBRANCH  18  19
ENDBRANCH   6  13
ENDBRANCH   3   6
TORSDOF 4
ENDMDL
MODEL       62
REMARK 921   NORMALIZED FREE ENERGY PREDICTED BY IDOCK:   -5.25 KCAL/MOL
REMARK 922        TOTAL FREE ENERGY PREDICTED BY IDOCK:   -7.39 KCAL/MOL
REMARK 923 INTER-LIGAND FREE ENERGY PREDICTED BY IDOCK:   -6.54 KCAL/MOL
REMARK 924 INTRA-LIGAND FREE ENERGY PREDICTED BY IDOCK:   -0.85 KCAL/MOL
REMARK 927      BINDING AFFINITY PREDICTED BY RF-SCORE:    0.00 PKD
ROOT
HETATM    1  C   UNL     1     -11.075  14.698  65.682  1.00  0.00    -0.338 A  
HETATM    2  C   UNL     1     -10.309  14.084  66.644  1.00  0.00    -0.278 A  
HETATM    3  N   UNL     1     -11.182  13.289  67.358  1.00  0.00    -0.278 NA 
HETATM    4  C   UNL     1     -12.401  13.419  66.752  1.00  0.00    -0.231 A  
HETATM    5  N   UNL     1     -12.372  14.276  65.758  1.00  0.00    -0.424 NA 
ENDROOT
BRANCH   3   6
HETATM    6  C   UNL     1     -10.817  12.550  68.586  1.00  0.00    -0.248 C  
BRANCH   6   7
HETATM    7  C   UNL     1     -11.778  12.774  69.759  1.00  0.00    -0.352 A  
HETATM    8  C   UNL     1     -12.174  11.661  70.530  1.00  0.00    -0.451 A  
HETATM    9  C   UNL     1     -12.943  11.816  71.686  1.00  0.00    -0.467 A  
HETATM   10  C   UNL     1     -12.200  14.045  70.185  1.00  0.00    -0.425 A  
HETATM   11  C   UNL     1     -13.329  13.086  72.100  1.00  0.00    -0.622 A  
HETATM   12  C   UNL     1     -12.963  14.197  71.348  1.00  0.00    -0.422 A  
ENDBRANCH   6   7
BRANCH   6  13
HETATM   13  C   UNL     1     -10.406  11.095  68.347  1.00  0.00    -0.201 A  
HETATM   14  C   UNL     1      -8.869   9.256  68.840  1.00  0.00    -0.135 A  
HETATM   15  C   UNL     1     -11.083  10.234  67.476  1.00  0.00    -0.302 A  
HETATM   16  C   UNL     1      -9.318  10.565  69.062  1.00  0.00    -0.205 A  
HETATM   17  C   UNL     1     -10.608   8.934  67.231  1.00  0.00    -0.304 A  
HETATM   18  C   UNL     1      -9.472   8.426  67.883  1.00  0.00    -0.164 A  
BRANCH  18  19
HETATM   19  C   UNL     1      -8.898   7.101  67.542  1.00  0.00    -0.119 A  
HETATM   20  C   UNL     1      -7.538   6.801  67.746  1.00  0.00    -0.107 A  
HETATM   21  C   UNL     1      -6.990   5.577  67.343  1.00  0.00    -0.069 A  
HETATM   22  C   UNL     1      -7.795   4.616  66.740  1.00  0.00    -0.099 A  
HETATM   23  C   UNL     1      -9.146   4.877  66.544  1.00  0.00    -0.124 A  
HETATM   24  C   UNL     1      -9.687   6.104  66.938  1.00  0.00    -0.178 A  
ENDBRANCH  18  19
ENDBRANCH   6  13
ENDBRANCH   3   6
TORSDOF 4
ENDMDL
MODEL       63
REMARK 921   NORMALIZED FREE ENERGY PREDICTED BY IDOCK:   -5.18 KCAL/MOL
REMARK 922        TOTAL FREE ENERGY PREDICTED BY IDOCK:   -7.30 KCAL/MOL
REMARK 923 INTER-LIGAND FREE ENERGY PREDICTED BY IDOCK:   -6.69 KCAL/MOL
REMARK 924 INTRA-LIGAND FREE ENERGY PREDICTED BY IDOCK:   -0.61 KCAL/MOL
REMARK 927      BINDING AFFINITY PREDICTED BY RF-SCORE:    0.00 PKD
ROOT
HETATM    1  C   UNL     1      -9.876  15.897  68.918  1.00  0.00    -0.226 A  
HETATM    2  C   UNL     1      -9.983  14.775  68.131  1.00  0.00    -0.221 A  
HETATM    3  N   UNL     1     -11.273  14.320  68.309  1.00  0.00    -0.264 NA 
HETATM    4  C   UNL     1     -11.886  15.222  69.136  1.00  0.00    -0.321 A  
HETATM    5  N   UNL     1     -11.064  16.165  69.536  1.00  0.00    -0.327 NA 
ENDROOT
BRANCH   3   6
HETATM    6  C   UNL     1     -11.789  13.048  67.761  1.00  0.00    -0.347 C  
BRANCH   6   7
HETATM    7  C   UNL     1     -11.916  13.032  66.233  1.00  0.00    -0.477 A  
HETATM    8  C   UNL     1     -12.338  14.208  65.578  1.00  0.00    -0.472 A  
HETATM    9  C   UNL     1     -12.351  14.298  64.185  1.00  0.00    -0.361 A  
HETATM   10  C   UNL     1     -11.525  11.946  65.433  1.00  0.00    -0.310 A  
HETATM   11  C   UNL     1     -11.938  13.217  63.414  1.00  0.00    -0.552 A  
HETATM   12  C   UNL     1     -11.531  12.041  64.037  1.00  0.00    -0.484 A  
ENDBRANCH   6   7
BRANCH   6  13
HETATM   13  C   UNL     1     -11.163  11.795  68.377  1.00  0.00    -0.307 A  
HETATM   14  C   UNL     1      -9.189  10.377  68.664  1.00  0.00    -0.164 A  
HETATM   15  C   UNL     1     -11.869  10.896  69.186  1.00  0.00    -0.389 A  
HETATM   16  C   UNL     1      -9.797  11.537  68.167  1.00  0.00    -0.197 A  
HETATM   17  C   UNL     1     -11.264   9.717  69.654  1.00  0.00    -0.216 A  
HETATM   18  C   UNL     1      -9.920   9.414  69.378  1.00  0.00    -0.189 A  
BRANCH  18  19
HETATM   19  C   UNL     1      -9.311   8.119  69.768  1.00  0.00    -0.159 A  
HETATM   20  C   UNL     1      -7.917   7.933  69.818  1.00  0.00    -0.114 A  
HETATM   21  C   UNL     1      -7.354   6.683  70.106  1.00  0.00    -0.085 A  
HETATM   22  C   UNL     1      -8.175   5.591  70.366  1.00  0.00    -0.104 A  
HETATM   23  C   UNL     1      -9.556   5.749  70.343  1.00  0.00    -0.210 A  
HETATM   24  C   UNL     1     -10.114   6.996  70.045  1.00  0.00    -0.196 A  
ENDBRANCH  18  19
ENDBRANCH   6  13
ENDBRANCH   3   6
TORSDOF 4
ENDMDL
MODEL       64
REMARK 921   NORMALIZED FREE ENERGY PREDICTED BY IDOCK:   -5.16 KCAL/MOL
REMARK 922        TOTAL FREE ENERGY PREDICTED BY IDOCK:   -7.28 KCAL/MOL
REMARK 923 INTER-LIGAND FREE ENERGY PREDICTED BY IDOCK:   -7.19 KCAL/MOL
REMARK 924 INTRA-LIGAND FREE ENERGY PREDICTED BY IDOCK:   -0.09 KCAL/MOL
REMARK 927      BINDING AFFINITY PREDICTED BY RF-SCORE:    0.00 PKD
ROOT
HETATM    1  C   UNL     1     -14.406   8.606  72.563  1.00  0.00    -0.259 A  
HETATM    2  C   UNL     1     -13.357   9.408  72.180  1.00  0.00    -0.468 A  
HETATM    3  N   UNL     1     -12.630   8.658  71.278  1.00  0.00    -0.277 NA 
HETATM    4  C   UNL     1     -13.311   7.482  71.122  1.00  0.00    -0.161 A  
HETATM    5  N   UNL     1     -14.368   7.414  71.898  1.00  0.00    -0.389 NA 
ENDROOT
BRANCH   3   6
HETATM    6  C   UNL     1     -11.329   9.073  70.711  1.00  0.00    -0.277 C  
BRANCH   6   7
HETATM    7  C   UNL     1     -10.432   7.905  70.288  1.00  0.00    -0.225 A  
HETATM    8  C   UNL     1      -9.032   8.059  70.384  1.00  0.00    -0.146 A  
HETATM    9  C   UNL     1      -8.167   6.991  70.136  1.00  0.00    -0.133 A  
HETATM   10  C   UNL     1     -10.924   6.642  69.916  1.00  0.00    -0.373 A  
HETATM   11  C   UNL     1      -8.679   5.745  69.791  1.00  0.00    -0.127 A  
HETATM   12  C   UNL     1     -10.055   5.573  69.677  1.00  0.00    -0.309 A  
ENDBRANCH   6   7
BRANCH   6  13
HETATM   13  C   UNL     1     -11.417  10.227  69.710  1.00  0.00    -0.320 A  
HETATM   14  C   UNL     1     -11.184  11.006  67.402  1.00  0.00    -0.355 A  
HETATM   15  C   UNL     1     -11.774  11.533  70.066  1.00  0.00    -0.414 A  
HETATM   16  C   UNL     1     -11.169   9.974  68.350  1.00  0.00    -0.187 A  
HETATM   17  C   UNL     1     -11.754  12.571  69.118  1.00  0.00    -0.375 A  
HETATM   18  C   UNL     1     -11.428  12.338  67.772  1.00  0.00    -0.392 A  
BRANCH  18  19
HETATM   19  C   UNL     1     -11.290  13.446  66.795  1.00  0.00    -0.353 A  
HETATM   20  C   UNL     1     -11.293  13.221  65.405  1.00  0.00    -0.317 A  
HETATM   21  C   UNL     1     -11.078  14.263  64.494  1.00  0.00    -0.321 A  
HETATM   22  C   UNL     1     -10.871  15.560  64.953  1.00  0.00    -0.447 A  
HETATM   23  C   UNL     1     -10.882  15.815  66.319  1.00  0.00    -0.232 A  
HETATM   24  C   UNL     1     -11.086  14.770  67.226  1.00  0.00    -0.334 A  
ENDBRANCH  18  19
ENDBRANCH   6  13
ENDBRANCH   3   6
TORSDOF 4
ENDMDL
MODEL       65
REMARK 921   NORMALIZED FREE ENERGY PREDICTED BY IDOCK:   -5.14 KCAL/MOL
REMARK 922        TOTAL FREE ENERGY PREDICTED BY IDOCK:   -7.26 KCAL/MOL
REMARK 923 INTER-LIGAND FREE ENERGY PREDICTED BY IDOCK:   -6.68 KCAL/MOL
REMARK 924 INTRA-LIGAND FREE ENERGY PREDICTED BY IDOCK:   -0.58 KCAL/MOL
REMARK 927      BINDING AFFINITY PREDICTED BY RF-SCORE:    0.00 PKD
ROOT
HETATM    1  C   UNL     1     -11.007  16.294  64.106  1.00  0.00     0.691 A  
HETATM    2  C   UNL     1     -10.545  15.414  65.055  1.00  0.00    -0.420 A  
HETATM    3  N   UNL     1     -11.544  14.474  65.204  1.00  0.00    -0.359 NA 
HETATM    4  C   UNL     1     -12.515  14.802  64.298  1.00  0.00    -0.197 A  
HETATM    5  N   UNL     1     -12.230  15.903  63.642  1.00  0.00    -0.456 NA 
ENDROOT
BRANCH   3   6
HETATM    6  C   UNL     1     -11.537  13.410  66.231  1.00  0.00    -0.344 C  
BRANCH   6   7
HETATM    7  C   UNL     1     -10.527  12.290  65.963  1.00  0.00    -0.284 A  
HETATM    8  C   UNL     1     -10.774  11.398  64.898  1.00  0.00    -0.350 A  
HETATM    9  C   UNL     1      -9.832  10.438  64.522  1.00  0.00    -0.405 A  
HETATM   10  C   UNL     1      -9.304  12.167  66.644  1.00  0.00    -0.226 A  
HETATM   11  C   UNL     1      -8.620  10.350  65.198  1.00  0.00    -0.189 A  
HETATM   12  C   UNL     1      -8.359  11.210  66.260  1.00  0.00    -0.163 A  
ENDBRANCH   6   7
BRANCH   6  13
HETATM   13  C   UNL     1     -11.576  13.924  67.672  1.00  0.00    -0.381 A  
HETATM   14  C   UNL     1     -11.862  13.435  70.052  1.00  0.00    -0.364 A  
HETATM   15  C   UNL     1     -11.390  15.268  68.019  1.00  0.00    -0.345 A  
HETATM   16  C   UNL     1     -11.766  13.009  68.721  1.00  0.00    -0.363 A  
HETATM   17  C   UNL     1     -11.522  15.695  69.350  1.00  0.00    -0.354 A  
HETATM   18  C   UNL     1     -11.792  14.794  70.394  1.00  0.00    -0.352 A  
BRANCH  18  19
HETATM   19  C   UNL     1     -12.050  15.254  71.781  1.00  0.00    -0.439 A  
HETATM   20  C   UNL     1     -11.832  16.586  72.179  1.00  0.00    -0.360 A  
HETATM   21  C   UNL     1     -11.998  16.990  73.510  1.00  0.00     0.035 A  
HETATM   22  C   UNL     1     -12.403  16.071  74.472  1.00  0.00    -0.698 A  
HETATM   23  C   UNL     1     -12.644  14.753  74.105  1.00  0.00    -0.077 A  
HETATM   24  C   UNL     1     -12.468  14.351  72.777  1.00  0.00    -0.279 A  
ENDBRANCH  18  19
ENDBRANCH   6  13
ENDBRANCH   3   6
TORSDOF 4
ENDMDL
MODEL       66
REMARK 921   NORMALIZED FREE ENERGY PREDICTED BY IDOCK:   -5.08 KCAL/MOL
REMARK 922        TOTAL FREE ENERGY PREDICTED BY IDOCK:   -7.19 KCAL/MOL
REMARK 923 INTER-LIGAND FREE ENERGY PREDICTED BY IDOCK:   -6.38 KCAL/MOL
REMARK 924 INTRA-LIGAND FREE ENERGY PREDICTED BY IDOCK:   -0.81 KCAL/MOL
REMARK 927      BINDING AFFINITY PREDICTED BY RF-SCORE:    0.00 PKD
ROOT
HETATM    1  C   UNL     1      -8.661   7.711  74.098  1.00  0.00    -0.247 A  
HETATM    2  C   UNL     1      -9.275   8.222  72.980  1.00  0.00    -0.246 A  
HETATM    3  N   UNL     1     -10.330   7.373  72.718  1.00  0.00    -0.232 NA 
HETATM    4  C   UNL     1     -10.331   6.443  73.722  1.00  0.00    -0.311 A  
HETATM    5  N   UNL     1      -9.327   6.608  74.551  1.00  0.00    -0.218 NA 
ENDROOT
BRANCH   3   6
HETATM    6  C   UNL     1     -11.186   7.458  71.515  1.00  0.00    -0.243 C  
BRANCH   6   7
HETATM    7  C   UNL     1     -11.674   8.875  71.195  1.00  0.00    -0.356 A  
HETATM    8  C   UNL     1     -12.738   9.410  71.952  1.00  0.00    -0.484 A  
HETATM    9  C   UNL     1     -13.142  10.738  71.796  1.00  0.00    -0.573 A  
HETATM   10  C   UNL     1     -11.046   9.721  70.265  1.00  0.00    -0.349 A  
HETATM   11  C   UNL     1     -12.491  11.562  70.885  1.00  0.00    -0.464 A  
HETATM   12  C   UNL     1     -11.448  11.052  70.117  1.00  0.00    -0.383 A  
ENDBRANCH   6   7
BRANCH   6  13
HETATM   13  C   UNL     1     -10.671   6.657  70.317  1.00  0.00    -0.294 A  
HETATM   14  C   UNL     1     -11.035   5.858  68.033  1.00  0.00    -0.252 A  
HETATM   15  C   UNL     1      -9.445   5.982  70.308  1.00  0.00    -0.186 A  
HETATM   16  C   UNL     1     -11.436   6.620  69.138  1.00  0.00    -0.199 A  
HETATM   17  C   UNL     1      -9.064   5.191  69.211  1.00  0.00    -0.140 A  
HETATM   18  C   UNL     1      -9.864   5.086  68.061  1.00  0.00    -0.202 A  
BRANCH  18  19
HETATM   19  C   UNL     1      -9.524   4.162  66.951  1.00  0.00    -0.212 A  
HETATM   20  C   UNL     1      -9.754   4.497  65.603  1.00  0.00    -0.207 A  
HETATM   21  C   UNL     1      -9.507   3.585  64.569  1.00  0.00    -0.154 A  
HETATM   22  C   UNL     1      -9.008   2.319  64.859  1.00  0.00    -0.125 A  
HETATM   23  C   UNL     1      -8.753   1.968  66.179  1.00  0.00    -0.116 A  
HETATM   24  C   UNL     1      -9.010   2.877  67.209  1.00  0.00    -0.185 A  
ENDBRANCH  18  19
ENDBRANCH   6  13
ENDBRANCH   3   6
TORSDOF 4
ENDMDL
MODEL       67
REMARK 921   NORMALIZED FREE ENERGY PREDICTED BY IDOCK:   -5.08 KCAL/MOL
REMARK 922        TOTAL FREE ENERGY PREDICTED BY IDOCK:   -7.18 KCAL/MOL
REMARK 923 INTER-LIGAND FREE ENERGY PREDICTED BY IDOCK:   -6.20 KCAL/MOL
REMARK 924 INTRA-LIGAND FREE ENERGY PREDICTED BY IDOCK:   -0.98 KCAL/MOL
REMARK 927      BINDING AFFINITY PREDICTED BY RF-SCORE:    0.00 PKD
ROOT
HETATM    1  C   UNL     1     -11.300   6.087  72.641  1.00  0.00    -0.277 A  
HETATM    2  C   UNL     1     -10.157   6.451  71.969  1.00  0.00    -0.178 A  
HETATM    3  N   UNL     1     -10.586   6.966  70.763  1.00  0.00    -0.217 NA 
HETATM    4  C   UNL     1     -11.953   6.943  70.802  1.00  0.00    -0.373 A  
HETATM    5  N   UNL     1     -12.409   6.400  71.908  1.00  0.00    -0.312 NA 
ENDROOT
BRANCH   3   6
HETATM    6  C   UNL     1      -9.684   7.353  69.657  1.00  0.00    -0.163 C  
BRANCH   6   7
HETATM    7  C   UNL     1      -9.153   6.169  68.841  1.00  0.00    -0.123 A  
HETATM    8  C   UNL     1      -7.793   6.162  68.468  1.00  0.00    -0.104 A  
HETATM    9  C   UNL     1      -7.220   5.056  67.837  1.00  0.00    -0.067 A  
HETATM   10  C   UNL     1      -9.917   5.029  68.540  1.00  0.00    -0.207 A  
HETATM   11  C   UNL     1      -7.990   3.931  67.568  1.00  0.00    -0.090 A  
HETATM   12  C   UNL     1      -9.338   3.919  67.915  1.00  0.00    -0.227 A  
ENDBRANCH   6   7
BRANCH   6  13
HETATM   13  C   UNL     1     -10.172   8.548  68.835  1.00  0.00    -0.221 A  
HETATM   14  C   UNL     1     -10.781   9.465  66.650  1.00  0.00    -0.076 A  
HETATM   15  C   UNL     1     -10.461   9.801  69.389  1.00  0.00    -0.241 A  
HETATM   16  C   UNL     1     -10.387   8.389  67.456  1.00  0.00    -0.333 A  
HETATM   17  C   UNL     1     -10.822  10.886  68.573  1.00  0.00    -0.262 A  
HETATM   18  C   UNL     1     -10.960  10.751  67.181  1.00  0.00    -0.324 A  
BRANCH  18  19
HETATM   19  C   UNL     1     -11.225  11.917  66.302  1.00  0.00    -0.392 A  
HETATM   20  C   UNL     1     -10.571  12.085  65.067  1.00  0.00    -0.332 A  
HETATM   21  C   UNL     1     -10.767  13.231  64.285  1.00  0.00    -0.408 A  
HETATM   22  C   UNL     1     -11.634  14.229  64.714  1.00  0.00    -0.404 A  
HETATM   23  C   UNL     1     -12.308  14.082  65.921  1.00  0.00    -0.515 A  
HETATM   24  C   UNL     1     -12.103  12.942  66.704  1.00  0.00    -0.360 A  
ENDBRANCH  18  19
ENDBRANCH   6  13
ENDBRANCH   3   6
TORSDOF 4
ENDMDL
MODEL       68
REMARK 921   NORMALIZED FREE ENERGY PREDICTED BY IDOCK:   -5.07 KCAL/MOL
REMARK 922        TOTAL FREE ENERGY PREDICTED BY IDOCK:   -7.18 KCAL/MOL
REMARK 923 INTER-LIGAND FREE ENERGY PREDICTED BY IDOCK:   -6.47 KCAL/MOL
REMARK 924 INTRA-LIGAND FREE ENERGY PREDICTED BY IDOCK:   -0.71 KCAL/MOL
REMARK 927      BINDING AFFINITY PREDICTED BY RF-SCORE:    0.00 PKD
ROOT
HETATM    1  C   UNL     1      -9.621   9.152  69.520  1.00  0.00    -0.168 A  
HETATM    2  C   UNL     1      -8.866   9.954  68.698  1.00  0.00    -0.128 A  
HETATM    3  N   UNL     1      -9.770  10.763  68.040  1.00  0.00    -0.159 NA 
HETATM    4  C   UNL     1     -11.002  10.450  68.546  1.00  0.00    -0.254 A  
HETATM    5  N   UNL     1     -10.945   9.470  69.419  1.00  0.00    -0.208 NA 
ENDROOT
BRANCH   3   6
HETATM    6  C   UNL     1      -9.412  11.691  66.946  1.00  0.00    -0.185 C  
BRANCH   6   7
HETATM    7  C   UNL     1     -10.429  11.727  65.800  1.00  0.00    -0.302 A  
HETATM    8  C   UNL     1     -11.621  12.461  65.977  1.00  0.00    -0.455 A  
HETATM    9  C   UNL     1     -12.525  12.639  64.928  1.00  0.00    -0.564 A  
HETATM   10  C   UNL     1     -10.193  11.164  64.534  1.00  0.00    -0.383 A  
HETATM   11  C   UNL     1     -12.259  12.091  63.678  1.00  0.00    -0.642 A  
HETATM   12  C   UNL     1     -11.097  11.351  63.483  1.00  0.00    -0.373 A  
ENDBRANCH   6   7
BRANCH   6  13
HETATM   13  C   UNL     1      -8.910  13.058  67.417  1.00  0.00    -0.203 A  
HETATM   14  C   UNL     1      -9.303  15.082  68.733  1.00  0.00    -0.200 A  
HETATM   15  C   UNL     1      -7.678  13.601  67.034  1.00  0.00     0.159 A  
HETATM   16  C   UNL     1      -9.693  13.803  68.315  1.00  0.00    -0.231 A  
HETATM   17  C   UNL     1      -7.307  14.898  67.429  1.00  0.00    -0.222 A  
HETATM   18  C   UNL     1      -8.125  15.681  68.262  1.00  0.00    -0.134 A  
BRANCH  18  19
HETATM   19  C   UNL     1      -7.795  17.091  68.584  1.00  0.00    -0.257 A  
HETATM   20  C   UNL     1      -8.739  18.127  68.460  1.00  0.00    -0.309 A  
HETATM   21  C   UNL     1      -8.394  19.465  68.687  1.00  0.00    -0.397 A  
HETATM   22  C   UNL     1      -7.096  19.797  69.060  1.00  0.00    -0.358 A  
HETATM   23  C   UNL     1      -6.146  18.793  69.210  1.00  0.00    -0.268 A  
HETATM   24  C   UNL     1      -6.492  17.459  68.973  1.00  0.00    -0.226 A  
ENDBRANCH  18  19
ENDBRANCH   6  13
ENDBRANCH   3   6
TORSDOF 4
ENDMDL
MODEL       69
REMARK 921   NORMALIZED FREE ENERGY PREDICTED BY IDOCK:   -5.07 KCAL/MOL
REMARK 922        TOTAL FREE ENERGY PREDICTED BY IDOCK:   -7.17 KCAL/MOL
REMARK 923 INTER-LIGAND FREE ENERGY PREDICTED BY IDOCK:   -6.60 KCAL/MOL
REMARK 924 INTRA-LIGAND FREE ENERGY PREDICTED BY IDOCK:   -0.57 KCAL/MOL
REMARK 927      BINDING AFFINITY PREDICTED BY RF-SCORE:    0.00 PKD
ROOT
HETATM    1  C   UNL     1     -10.763   6.678  66.917  1.00  0.00    -0.331 A  
HETATM    2  C   UNL     1     -10.624   7.938  67.449  1.00  0.00    -0.272 A  
HETATM    3  N   UNL     1     -10.702   7.772  68.816  1.00  0.00    -0.124 NA 
HETATM    4  C   UNL     1     -10.817   6.426  69.033  1.00  0.00    -0.327 A  
HETATM    5  N   UNL     1     -10.880   5.748  67.910  1.00  0.00    -0.224 NA 
ENDROOT
BRANCH   3   6
HETATM    6  C   UNL     1     -10.744   8.886  69.788  1.00  0.00    -0.225 C  
BRANCH   6   7
HETATM    7  C   UNL     1      -9.801   8.708  70.983  1.00  0.00    -0.267 A  
HETATM    8  C   UNL     1     -10.355   8.367  72.235  1.00  0.00    -0.403 A  
HETATM    9  C   UNL     1      -9.543   8.066  73.330  1.00  0.00    -0.322 A  
HETATM   10  C   UNL     1      -8.400   8.752  70.881  1.00  0.00    -0.196 A  
HETATM   11  C   UNL     1      -8.159   8.095  73.199  1.00  0.00    -0.237 A  
HETATM   12  C   UNL     1      -7.589   8.442  71.978  1.00  0.00    -0.152 A  
ENDBRANCH   6   7
BRANCH   6  13
HETATM   13  C   UNL     1     -10.737  10.278  69.151  1.00  0.00    -0.259 A  
HETATM   14  C   UNL     1      -9.508  12.005  67.929  1.00  0.00    -0.196 A  
HETATM   15  C   UNL     1     -11.842  11.137  69.160  1.00  0.00    -0.419 A  
HETATM   16  C   UNL     1      -9.583  10.720  68.481  1.00  0.00    -0.183 A  
HETATM   17  C   UNL     1     -11.751  12.437  68.636  1.00  0.00    -0.372 A  
HETATM   18  C   UNL     1     -10.572  12.913  68.037  1.00  0.00    -0.238 A  
BRANCH  18  19
HETATM   19  C   UNL     1     -10.432  14.321  67.589  1.00  0.00    -0.248 A  
HETATM   20  C   UNL     1      -9.640  14.677  66.482  1.00  0.00    -0.308 A  
HETATM   21  C   UNL     1      -9.448  16.017  66.119  1.00  0.00    -0.371 A  
HETATM   22  C   UNL     1     -10.059  17.031  66.848  1.00  0.00    -0.298 A  
HETATM   23  C   UNL     1     -10.863  16.708  67.935  1.00  0.00    -0.321 A  
HETATM   24  C   UNL     1     -11.044  15.371  68.300  1.00  0.00    -0.309 A  
ENDBRANCH  18  19
ENDBRANCH   6  13
ENDBRANCH   3   6
TORSDOF 4
ENDMDL
MODEL       70
REMARK 921   NORMALIZED FREE ENERGY PREDICTED BY IDOCK:   -4.99 KCAL/MOL
REMARK 922        TOTAL FREE ENERGY PREDICTED BY IDOCK:   -7.08 KCAL/MOL
REMARK 923 INTER-LIGAND FREE ENERGY PREDICTED BY IDOCK:   -6.50 KCAL/MOL
REMARK 924 INTRA-LIGAND FREE ENERGY PREDICTED BY IDOCK:   -0.58 KCAL/MOL
REMARK 927      BINDING AFFINITY PREDICTED BY RF-SCORE:    0.00 PKD
ROOT
HETATM    1  C   UNL     1      -7.103   6.883  67.602  1.00  0.00    -0.085 A  
HETATM    2  C   UNL     1      -7.928   7.648  68.390  1.00  0.00    -0.123 A  
HETATM    3  N   UNL     1      -9.213   7.313  68.015  1.00  0.00    -0.132 NA 
HETATM    4  C   UNL     1      -9.091   6.326  67.075  1.00  0.00    -0.123 A  
HETATM    5  N   UNL     1      -7.836   6.065  66.791  1.00  0.00    -0.100 NA 
ENDROOT
BRANCH   3   6
HETATM    6  C   UNL     1     -10.428   7.998  68.505  1.00  0.00    -0.164 C  
BRANCH   6   7
HETATM    7  C   UNL     1     -10.696   7.800  70.001  1.00  0.00    -0.245 A  
HETATM    8  C   UNL     1     -10.007   8.613  70.925  1.00  0.00    -0.257 A  
HETATM    9  C   UNL     1     -10.301   8.571  72.289  1.00  0.00    -0.402 A  
HETATM   10  C   UNL     1     -11.680   6.932  70.505  1.00  0.00    -0.401 A  
HETATM   11  C   UNL     1     -11.293   7.719  72.761  1.00  0.00    -0.446 A  
HETATM   12  C   UNL     1     -11.978   6.897  71.871  1.00  0.00    -0.363 A  
ENDBRANCH   6   7
BRANCH   6  13
HETATM   13  C   UNL     1     -10.592   9.433  67.996  1.00  0.00    -0.278 A  
HETATM   14  C   UNL     1     -10.185  11.077  66.230  1.00  0.00    -0.295 A  
HETATM   15  C   UNL     1     -11.242  10.439  68.719  1.00  0.00    -0.295 A  
HETATM   16  C   UNL     1     -10.107   9.767  66.720  1.00  0.00    -0.295 A  
HETATM   17  C   UNL     1     -11.287  11.759  68.240  1.00  0.00    -0.343 A  
HETATM   18  C   UNL     1     -10.732  12.116  66.999  1.00  0.00    -0.272 A  
BRANCH  18  19
HETATM   19  C   UNL     1     -10.671  13.526  66.542  1.00  0.00    -0.287 A  
HETATM   20  C   UNL     1     -10.644  14.604  67.447  1.00  0.00    -0.265 A  
HETATM   21  C   UNL     1     -10.671  15.932  67.005  1.00  0.00    -0.292 A  
HETATM   22  C   UNL     1     -10.711  16.214  65.643  1.00  0.00    -0.321 A  
HETATM   23  C   UNL     1     -10.718  15.170  64.726  1.00  0.00    -0.344 A  
HETATM   24  C   UNL     1     -10.701  13.845  65.171  1.00  0.00    -0.371 A  
ENDBRANCH  18  19
ENDBRANCH   6  13
ENDBRANCH   3   6
TORSDOF 4
ENDMDL
MODEL       71
REMARK 921   NORMALIZED FREE ENERGY PREDICTED BY IDOCK:   -4.98 KCAL/MOL
REMARK 922        TOTAL FREE ENERGY PREDICTED BY IDOCK:   -7.06 KCAL/MOL
REMARK 923 INTER-LIGAND FREE ENERGY PREDICTED BY IDOCK:   -5.97 KCAL/MOL
REMARK 924 INTRA-LIGAND FREE ENERGY PREDICTED BY IDOCK:   -1.08 KCAL/MOL
REMARK 927      BINDING AFFINITY PREDICTED BY RF-SCORE:    0.00 PKD
ROOT
HETATM    1  C   UNL     1     -14.087   9.031  72.235  1.00  0.00    -0.413 A  
HETATM    2  C   UNL     1     -12.802   9.322  71.845  1.00  0.00    -0.404 A  
HETATM    3  N   UNL     1     -12.308   8.155  71.300  1.00  0.00    -0.293 NA 
HETATM    4  C   UNL     1     -13.335   7.252  71.333  1.00  0.00    -0.331 A  
HETATM    5  N   UNL     1     -14.408   7.743  71.910  1.00  0.00    -0.420 NA 
ENDROOT
BRANCH   3   6
HETATM    6  C   UNL     1     -10.904   7.965  70.877  1.00  0.00    -0.234 C  
BRANCH   6   7
HETATM    7  C   UNL     1      -9.929   7.724  72.035  1.00  0.00    -0.231 A  
HETATM    8  C   UNL     1      -8.626   8.256  71.943  1.00  0.00    -0.224 A  
HETATM    9  C   UNL     1      -7.735   8.183  73.016  1.00  0.00    -0.199 A  
HETATM   10  C   UNL     1     -10.294   7.101  73.240  1.00  0.00    -0.369 A  
HETATM   11  C   UNL     1      -8.126   7.580  74.205  1.00  0.00    -0.223 A  
HETATM   12  C   UNL     1      -9.402   7.036  74.316  1.00  0.00    -0.262 A  
ENDBRANCH   6   7
BRANCH   6  13
HETATM   13  C   UNL     1     -10.728   7.038  69.672  1.00  0.00    -0.265 A  
HETATM   14  C   UNL     1     -10.102   4.835  68.810  1.00  0.00    -0.128 A  
HETATM   15  C   UNL     1     -10.986   7.429  68.352  1.00  0.00     0.020 A  
HETATM   16  C   UNL     1     -10.329   5.707  69.883  1.00  0.00    -0.347 A  
HETATM   17  C   UNL     1     -10.725   6.562  67.278  1.00  0.00    -0.427 A  
HETATM   18  C   UNL     1     -10.247   5.256  67.479  1.00  0.00    -0.229 A  
BRANCH  18  19
HETATM   19  C   UNL     1      -9.858   4.380  66.347  1.00  0.00    -0.245 A  
HETATM   20  C   UNL     1     -10.570   4.366  65.134  1.00  0.00    -0.166 A  
HETATM   21  C   UNL     1     -10.245   3.475  64.103  1.00  0.00    -0.219 A  
HETATM   22  C   UNL     1      -9.187   2.586  64.258  1.00  0.00    -0.126 A  
HETATM   23  C   UNL     1      -8.453   2.590  65.438  1.00  0.00    -0.102 A  
HETATM   24  C   UNL     1      -8.787   3.474  66.468  1.00  0.00    -0.136 A  
ENDBRANCH  18  19
ENDBRANCH   6  13
ENDBRANCH   3   6
TORSDOF 4
ENDMDL
MODEL       72
REMARK 921   NORMALIZED FREE ENERGY PREDICTED BY IDOCK:   -4.95 KCAL/MOL
REMARK 922        TOTAL FREE ENERGY PREDICTED BY IDOCK:   -7.02 KCAL/MOL
REMARK 923 INTER-LIGAND FREE ENERGY PREDICTED BY IDOCK:   -6.99 KCAL/MOL
REMARK 924 INTRA-LIGAND FREE ENERGY PREDICTED BY IDOCK:   -0.03 KCAL/MOL
REMARK 927      BINDING AFFINITY PREDICTED BY RF-SCORE:    0.00 PKD
ROOT
HETATM    1  C   UNL     1     -13.782   8.921  72.321  1.00  0.00    -0.471 A  
HETATM    2  C   UNL     1     -12.502   9.175  71.890  1.00  0.00    -0.387 A  
HETATM    3  N   UNL     1     -12.166   8.109  71.082  1.00  0.00    -0.278 NA 
HETATM    4  C   UNL     1     -13.275   7.311  71.020  1.00  0.00    -0.103 A  
HETATM    5  N   UNL     1     -14.252   7.761  71.772  1.00  0.00    -0.432 NA 
ENDROOT
BRANCH   3   6
HETATM    6  C   UNL     1     -10.819   7.892  70.511  1.00  0.00    -0.241 C  
BRANCH   6   7
HETATM    7  C   UNL     1     -10.276   6.473  70.714  1.00  0.00    -0.218 A  
HETATM    8  C   UNL     1     -10.108   5.995  72.031  1.00  0.00    -0.215 A  
HETATM    9  C   UNL     1      -9.742   4.671  72.282  1.00  0.00    -0.213 A  
HETATM   10  C   UNL     1     -10.044   5.572  69.661  1.00  0.00    -0.309 A  
HETATM   11  C   UNL     1      -9.538   3.793  71.223  1.00  0.00    -0.243 A  
HETATM   12  C   UNL     1      -9.684   4.244  69.915  1.00  0.00    -0.291 A  
ENDBRANCH   6   7
BRANCH   6  13
HETATM   13  C   UNL     1     -10.628   8.470  69.107  1.00  0.00    -0.188 A  
HETATM   14  C   UNL     1     -10.247   8.072  66.723  1.00  0.00    -0.367 A  
HETATM   15  C   UNL     1     -10.634   9.842  68.829  1.00  0.00    -0.244 A  
HETATM   16  C   UNL     1     -10.478   7.593  68.019  1.00  0.00    -0.247 A  
HETATM   17  C   UNL     1     -10.368  10.318  67.534  1.00  0.00    -0.276 A  
HETATM   18  C   UNL     1     -10.137   9.445  66.457  1.00  0.00    -0.332 A  
BRANCH  18  19
HETATM   19  C   UNL     1      -9.739   9.941  65.117  1.00  0.00    -0.376 A  
HETATM   20  C   UNL     1      -8.594   9.462  64.453  1.00  0.00    -0.214 A  
HETATM   21  C   UNL     1      -8.182   9.996  63.225  1.00  0.00    -0.162 A  
HETATM   22  C   UNL     1      -8.916  11.014  62.625  1.00  0.00    -0.355 A  
HETATM   23  C   UNL     1     -10.062  11.493  63.249  1.00  0.00    -0.439 A  
HETATM   24  C   UNL     1     -10.465  10.964  64.478  1.00  0.00    -0.393 A  
ENDBRANCH  18  19
ENDBRANCH   6  13
ENDBRANCH   3   6
TORSDOF 4
ENDMDL
MODEL       73
REMARK 921   NORMALIZED FREE ENERGY PREDICTED BY IDOCK:   -4.95 KCAL/MOL
REMARK 922        TOTAL FREE ENERGY PREDICTED BY IDOCK:   -7.02 KCAL/MOL
REMARK 923 INTER-LIGAND FREE ENERGY PREDICTED BY IDOCK:   -6.11 KCAL/MOL
REMARK 924 INTRA-LIGAND FREE ENERGY PREDICTED BY IDOCK:   -0.90 KCAL/MOL
REMARK 927      BINDING AFFINITY PREDICTED BY RF-SCORE:    0.00 PKD
ROOT
HETATM    1  C   UNL     1     -12.052  14.170  67.345  1.00  0.00    -0.344 A  
HETATM    2  C   UNL     1     -11.775  12.826  67.424  1.00  0.00    -0.366 A  
HETATM    3  N   UNL     1     -10.954  12.682  68.523  1.00  0.00    -0.249 NA 
HETATM    4  C   UNL     1     -10.836  13.927  69.078  1.00  0.00    -0.225 A  
HETATM    5  N   UNL     1     -11.466  14.843  68.379  1.00  0.00    -0.304 NA 
ENDROOT
BRANCH   3   6
HETATM    6  C   UNL     1     -10.292  11.417  68.906  1.00  0.00    -0.184 C  
BRANCH   6   7
HETATM    7  C   UNL     1     -11.068  10.592  69.938  1.00  0.00    -0.371 A  
HETATM    8  C   UNL     1     -10.397   9.551  70.614  1.00  0.00    -0.369 A  
HETATM    9  C   UNL     1     -11.010   8.849  71.655  1.00  0.00    -0.415 A  
HETATM   10  C   UNL     1     -12.382  10.888  70.339  1.00  0.00    -0.436 A  
HETATM   11  C   UNL     1     -12.303   9.174  72.047  1.00  0.00    -0.448 A  
HETATM   12  C   UNL     1     -12.990  10.188  71.387  1.00  0.00    -0.528 A  
ENDBRANCH   6   7
BRANCH   6  13
HETATM   13  C   UNL     1      -9.723  10.621  67.728  1.00  0.00    -0.179 A  
HETATM   14  C   UNL     1      -9.908   8.694  66.232  1.00  0.00    -0.320 A  
HETATM   15  C   UNL     1      -8.559  10.985  67.040  1.00  0.00    -0.140 A  
HETATM   16  C   UNL     1     -10.414   9.486  67.271  1.00  0.00    -0.328 A  
HETATM   17  C   UNL     1      -8.037  10.170  66.022  1.00  0.00    -0.129 A  
HETATM   18  C   UNL     1      -8.682   8.989  65.615  1.00  0.00    -0.205 A  
BRANCH  18  19
HETATM   19  C   UNL     1      -8.075   8.064  64.626  1.00  0.00    -0.140 A  
HETATM   20  C   UNL     1      -7.574   8.516  63.391  1.00  0.00    -0.123 A  
HETATM   21  C   UNL     1      -7.080   7.624  62.430  1.00  0.00    -0.078 A  
HETATM   22  C   UNL     1      -7.062   6.258  62.691  1.00  0.00    -0.044 A  
HETATM   23  C   UNL     1      -7.533   5.785  63.910  1.00  0.00    -0.069 A  
HETATM   24  C   UNL     1      -8.034   6.677  64.862  1.00  0.00    -0.121 A  
ENDBRANCH  18  19
ENDBRANCH   6  13
ENDBRANCH   3   6
TORSDOF 4
ENDMDL
MODEL       74
REMARK 921   NORMALIZED FREE ENERGY PREDICTED BY IDOCK:   -4.87 KCAL/MOL
REMARK 922        TOTAL FREE ENERGY PREDICTED BY IDOCK:   -6.93 KCAL/MOL
REMARK 923 INTER-LIGAND FREE ENERGY PREDICTED BY IDOCK:   -5.94 KCAL/MOL
REMARK 924 INTRA-LIGAND FREE ENERGY PREDICTED BY IDOCK:   -0.99 KCAL/MOL
REMARK 927      BINDING AFFINITY PREDICTED BY RF-SCORE:    0.00 PKD
ROOT
HETATM    1  C   UNL     1     -12.612   7.476  71.745  1.00  0.00    -0.334 A  
HETATM    2  C   UNL     1     -11.460   7.355  71.007  1.00  0.00    -0.282 A  
HETATM    3  N   UNL     1     -10.907   8.618  70.974  1.00  0.00    -0.235 NA 
HETATM    4  C   UNL     1     -11.716   9.409  71.742  1.00  0.00    -0.374 A  
HETATM    5  N   UNL     1     -12.760   8.756  72.199  1.00  0.00    -0.375 NA 
ENDROOT
BRANCH   3   6
HETATM    6  C   UNL     1      -9.725   8.987  70.166  1.00  0.00    -0.188 C  
BRANCH   6   7
HETATM    7  C   UNL     1      -8.878   7.792  69.715  1.00  0.00    -0.139 A  
HETATM    8  C   UNL     1      -9.025   7.321  68.393  1.00  0.00    -0.126 A  
HETATM    9  C   UNL     1      -8.193   6.322  67.883  1.00  0.00    -0.114 A  
HETATM   10  C   UNL     1      -7.876   7.208  70.507  1.00  0.00    -0.100 A  
HETATM   11  C   UNL     1      -7.194   5.774  68.679  1.00  0.00    -0.082 A  
HETATM   12  C   UNL     1      -7.039   6.213  69.991  1.00  0.00    -0.072 A  
ENDBRANCH   6   7
BRANCH   6  13
HETATM   13  C   UNL     1     -10.002  10.037  69.087  1.00  0.00    -0.213 A  
HETATM   14  C   UNL     1      -9.258  12.029  67.877  1.00  0.00    -0.190 A  
HETATM   15  C   UNL     1     -11.167  10.057  68.310  1.00  0.00    -0.195 A  
HETATM   16  C   UNL     1      -9.031  11.015  68.817  1.00  0.00    -0.153 A  
HETATM   17  C   UNL     1     -11.406  11.095  67.393  1.00  0.00    -0.329 A  
HETATM   18  C   UNL     1     -10.471  12.122  67.178  1.00  0.00    -0.241 A  
BRANCH  18  19
HETATM   19  C   UNL     1     -10.768  13.282  66.302  1.00  0.00    -0.293 A  
HETATM   20  C   UNL     1      -9.999  14.460  66.336  1.00  0.00    -0.305 A  
HETATM   21  C   UNL     1     -10.338  15.579  65.564  1.00  0.00    -0.419 A  
HETATM   22  C   UNL     1     -11.449  15.539  64.728  1.00  0.00    -0.314 A  
HETATM   23  C   UNL     1     -12.216  14.382  64.659  1.00  0.00    -0.479 A  
HETATM   24  C   UNL     1     -11.880  13.271  65.438  1.00  0.00    -0.392 A  
ENDBRANCH  18  19
ENDBRANCH   6  13
ENDBRANCH   3   6
TORSDOF 4
ENDMDL
MODEL       75
REMARK 921   NORMALIZED FREE ENERGY PREDICTED BY IDOCK:   -4.87 KCAL/MOL
REMARK 922        TOTAL FREE ENERGY PREDICTED BY IDOCK:   -6.92 KCAL/MOL
REMARK 923 INTER-LIGAND FREE ENERGY PREDICTED BY IDOCK:   -6.35 KCAL/MOL
REMARK 924 INTRA-LIGAND FREE ENERGY PREDICTED BY IDOCK:   -0.57 KCAL/MOL
REMARK 927      BINDING AFFINITY PREDICTED BY RF-SCORE:    0.00 PKD
ROOT
HETATM    1  C   UNL     1     -10.677  19.759  67.403  1.00  0.00    -0.384 A  
HETATM    2  C   UNL     1      -9.857  18.981  68.184  1.00  0.00    -0.368 A  
HETATM    3  N   UNL     1      -8.752  18.710  67.403  1.00  0.00    -0.268 NA 
HETATM    4  C   UNL     1      -8.938  19.387  66.229  1.00  0.00    -0.346 A  
HETATM    5  N   UNL     1     -10.096  20.006  66.192  1.00  0.00    -0.478 NA 
ENDROOT
BRANCH   3   6
HETATM    6  C   UNL     1      -7.669  17.781  67.790  1.00  0.00    -0.214 C  
BRANCH   6   7
HETATM    7  C   UNL     1      -6.740  18.325  68.882  1.00  0.00    -0.259 A  
HETATM    8  C   UNL     1      -6.639  19.723  69.048  1.00  0.00    -0.368 A  
HETATM    9  C   UNL     1      -5.913  20.277  70.104  1.00  0.00    -0.386 A  
HETATM   10  C   UNL     1      -6.067  17.509  69.807  1.00  0.00    -0.222 A  
HETATM   11  C   UNL     1      -5.274  19.449  71.020  1.00  0.00    -0.265 A  
HETATM   12  C   UNL     1      -5.347  18.067  70.868  1.00  0.00    -0.228 A  
ENDBRANCH   6   7
BRANCH   6  13
HETATM   13  C   UNL     1      -8.118  16.330  67.979  1.00  0.00    -0.150 A  
HETATM   14  C   UNL     1      -7.779  13.961  67.473  1.00  0.00    -0.192 A  
HETATM   15  C   UNL     1      -9.217  15.958  68.763  1.00  0.00    -0.218 A  
HETATM   16  C   UNL     1      -7.378  15.300  67.375  1.00  0.00    -0.241 A  
HETATM   17  C   UNL     1      -9.635  14.618  68.830  1.00  0.00    -0.210 A  
HETATM   18  C   UNL     1      -8.945  13.592  68.161  1.00  0.00    -0.191 A  
BRANCH  18  19
HETATM   19  C   UNL     1      -9.449  12.197  68.131  1.00  0.00    -0.205 A  
HETATM   20  C   UNL     1      -8.585  11.089  68.220  1.00  0.00    -0.143 A  
HETATM   21  C   UNL     1      -9.063   9.777  68.108  1.00  0.00    -0.125 A  
HETATM   22  C   UNL     1     -10.421   9.543  67.918  1.00  0.00    -0.293 A  
HETATM   23  C   UNL     1     -11.300  10.618  67.846  1.00  0.00    -0.342 A  
HETATM   24  C   UNL     1     -10.818  11.926  67.949  1.00  0.00    -0.254 A  
ENDBRANCH  18  19
ENDBRANCH   6  13
ENDBRANCH   3   6
TORSDOF 4
ENDMDL
MODEL       76
REMARK 921   NORMALIZED FREE ENERGY PREDICTED BY IDOCK:   -4.80 KCAL/MOL
REMARK 922        TOTAL FREE ENERGY PREDICTED BY IDOCK:   -6.84 KCAL/MOL
REMARK 923 INTER-LIGAND FREE ENERGY PREDICTED BY IDOCK:   -5.90 KCAL/MOL
REMARK 924 INTRA-LIGAND FREE ENERGY PREDICTED BY IDOCK:   -0.94 KCAL/MOL
REMARK 927      BINDING AFFINITY PREDICTED BY RF-SCORE:    0.00 PKD
ROOT
HETATM    1  C   UNL     1     -12.679  15.298  70.786  1.00  0.00    -0.433 A  
HETATM    2  C   UNL     1     -12.571  14.596  69.610  1.00  0.00    -0.068 A  
HETATM    3  N   UNL     1     -11.274  14.789  69.182  1.00  0.00    -0.257 NA 
HETATM    4  C   UNL     1     -10.660  15.536  70.150  1.00  0.00    -0.320 A  
HETATM    5  N   UNL     1     -11.485  15.876  71.113  1.00  0.00    -0.400 NA 
ENDROOT
BRANCH   3   6
HETATM    6  C   UNL     1     -10.752  14.330  67.877  1.00  0.00    -0.240 C  
BRANCH   6   7
HETATM    7  C   UNL     1      -9.705  15.263  67.260  1.00  0.00    -0.212 A  
HETATM    8  C   UNL     1     -10.138  16.472  66.674  1.00  0.00    -0.299 A  
HETATM    9  C   UNL     1      -9.225  17.422  66.212  1.00  0.00    -0.234 A  
HETATM   10  C   UNL     1      -8.320  15.041  67.346  1.00  0.00    -0.210 A  
HETATM   11  C   UNL     1      -7.859  17.189  66.327  1.00  0.00    -0.351 A  
HETATM   12  C   UNL     1      -7.408  15.998  66.889  1.00  0.00    -0.236 A  
ENDBRANCH   6   7
BRANCH   6  13
HETATM   13  C   UNL     1     -10.412  12.839  67.823  1.00  0.00    -0.228 A  
HETATM   14  C   UNL     1     -10.763  10.658  66.771  1.00  0.00    -0.272 A  
HETATM   15  C   UNL     1      -9.503  12.222  68.691  1.00  0.00    -0.030 A  
HETATM   16  C   UNL     1     -11.000  12.037  66.830  1.00  0.00    -0.329 A  
HETATM   17  C   UNL     1      -9.294  10.833  68.650  1.00  0.00    -0.184 A  
HETATM   18  C   UNL     1      -9.943  10.014  67.710  1.00  0.00    -0.203 A  
BRANCH  18  19
HETATM   19  C   UNL     1      -9.818   8.536  67.739  1.00  0.00    -0.218 A  
HETATM   20  C   UNL     1     -10.767   7.694  67.129  1.00  0.00    -0.361 A  
HETATM   21  C   UNL     1     -10.684   6.300  67.234  1.00  0.00    -0.424 A  
HETATM   22  C   UNL     1      -9.639   5.714  67.940  1.00  0.00    -0.133 A  
HETATM   23  C   UNL     1      -8.676   6.520  68.536  1.00  0.00    -0.122 A  
HETATM   24  C   UNL     1      -8.767   7.911  68.438  1.00  0.00    -0.131 A  
ENDBRANCH  18  19
ENDBRANCH   6  13
ENDBRANCH   3   6
TORSDOF 4
ENDMDL
MODEL       77
REMARK 921   NORMALIZED FREE ENERGY PREDICTED BY IDOCK:   -4.78 KCAL/MOL
REMARK 922        TOTAL FREE ENERGY PREDICTED BY IDOCK:   -6.81 KCAL/MOL
REMARK 923 INTER-LIGAND FREE ENERGY PREDICTED BY IDOCK:   -5.96 KCAL/MOL
REMARK 924 INTRA-LIGAND FREE ENERGY PREDICTED BY IDOCK:   -0.86 KCAL/MOL
REMARK 927      BINDING AFFINITY PREDICTED BY RF-SCORE:    0.00 PKD
ROOT
HETATM    1  C   UNL     1     -11.483  13.319  66.513  1.00  0.00    -0.337 A  
HETATM    2  C   UNL     1     -11.348  12.007  66.898  1.00  0.00    -0.341 A  
HETATM    3  N   UNL     1     -10.610  12.037  68.062  1.00  0.00    -0.201 NA 
HETATM    4  C   UNL     1     -10.398  13.359  68.346  1.00  0.00    -0.251 A  
HETATM    5  N   UNL     1     -10.890  14.150  67.421  1.00  0.00    -0.284 NA 
ENDROOT
BRANCH   3   6
HETATM    6  C   UNL     1     -10.101  10.835  68.756  1.00  0.00    -0.191 C  
BRANCH   6   7
HETATM    7  C   UNL     1     -10.962  10.388  69.943  1.00  0.00    -0.364 A  
HETATM    8  C   UNL     1     -12.274  10.894  70.055  1.00  0.00    -0.422 A  
HETATM    9  C   UNL     1     -13.149  10.428  71.038  1.00  0.00    -0.450 A  
HETATM   10  C   UNL     1     -10.560   9.409  70.868  1.00  0.00    -0.390 A  
HETATM   11  C   UNL     1     -12.736   9.444  71.928  1.00  0.00    -0.484 A  
HETATM   12  C   UNL     1     -11.443   8.939  71.846  1.00  0.00    -0.442 A  
ENDBRANCH   6   7
BRANCH   6  13
HETATM   13  C   UNL     1      -9.645   9.713  67.820  1.00  0.00    -0.161 A  
HETATM   14  C   UNL     1     -10.115   7.553  66.771  1.00  0.00    -0.313 A  
HETATM   15  C   UNL     1      -8.416   9.718  67.149  1.00  0.00    -0.125 A  
HETATM   16  C   UNL     1     -10.507   8.630  67.576  1.00  0.00    -0.335 A  
HETATM   17  C   UNL     1      -8.013   8.620  66.371  1.00  0.00    -0.099 A  
HETATM   18  C   UNL     1      -8.840   7.498  66.189  1.00  0.00    -0.185 A  
BRANCH  18  19
HETATM   19  C   UNL     1      -8.373   6.289  65.467  1.00  0.00    -0.147 A  
HETATM   20  C   UNL     1      -8.387   5.013  66.061  1.00  0.00    -0.114 A  
HETATM   21  C   UNL     1      -7.868   3.892  65.402  1.00  0.00    -0.089 A  
HETATM   22  C   UNL     1      -7.335   4.020  64.123  1.00  0.00    -0.062 A  
HETATM   23  C   UNL     1      -7.326   5.264  63.504  1.00  0.00    -0.051 A  
HETATM   24  C   UNL     1      -7.836   6.382  64.169  1.00  0.00    -0.116 A  
ENDBRANCH  18  19
ENDBRANCH   6  13
ENDBRANCH   3   6
TORSDOF 4
ENDMDL
MODEL       78
REMARK 921   NORMALIZED FREE ENERGY PREDICTED BY IDOCK:   -4.77 KCAL/MOL
REMARK 922        TOTAL FREE ENERGY PREDICTED BY IDOCK:   -6.80 KCAL/MOL
REMARK 923 INTER-LIGAND FREE ENERGY PREDICTED BY IDOCK:   -6.01 KCAL/MOL
REMARK 924 INTRA-LIGAND FREE ENERGY PREDICTED BY IDOCK:   -0.79 KCAL/MOL
REMARK 927      BINDING AFFINITY PREDICTED BY RF-SCORE:    0.00 PKD
ROOT
HETATM    1  C   UNL     1      -6.488   8.333  64.534  1.00  0.00    -0.065 A  
HETATM    2  C   UNL     1      -7.344   8.551  65.587  1.00  0.00    -0.084 A  
HETATM    3  N   UNL     1      -8.562   8.855  65.015  1.00  0.00    -0.176 NA 
HETATM    4  C   UNL     1      -8.389   8.741  63.663  1.00  0.00    -0.143 A  
HETATM    5  N   UNL     1      -7.148   8.453  63.344  1.00  0.00    -0.089 NA 
ENDROOT
BRANCH   3   6
HETATM    6  C   UNL     1      -9.749   9.302  65.776  1.00  0.00    -0.269 C  
BRANCH   6   7
HETATM    7  C   UNL     1     -10.052   8.453  67.015  1.00  0.00    -0.354 A  
HETATM    8  C   UNL     1     -10.111   9.089  68.273  1.00  0.00    -0.223 A  
HETATM    9  C   UNL     1     -10.508   8.397  69.418  1.00  0.00    -0.222 A  
HETATM   10  C   UNL     1     -10.393   7.090  66.959  1.00  0.00    -0.360 A  
HETATM   11  C   UNL     1     -10.861   7.055  69.334  1.00  0.00    -0.253 A  
HETATM   12  C   UNL     1     -10.798   6.402  68.107  1.00  0.00    -0.386 A  
ENDBRANCH   6   7
BRANCH   6  13
HETATM   13  C   UNL     1      -9.831  10.816  65.985  1.00  0.00    -0.285 A  
HETATM   14  C   UNL     1      -8.796  12.860  66.843  1.00  0.00    -0.188 A  
HETATM   15  C   UNL     1     -10.919  11.595  65.574  1.00  0.00    -0.327 A  
HETATM   16  C   UNL     1      -8.748  11.485  66.581  1.00  0.00    -0.182 A  
HETATM   17  C   UNL     1     -10.978  12.967  65.869  1.00  0.00    -0.292 A  
HETATM   18  C   UNL     1      -9.932  13.626  66.539  1.00  0.00    -0.288 A  
BRANCH  18  19
HETATM   19  C   UNL     1     -10.040  15.045  66.957  1.00  0.00    -0.244 A  
HETATM   20  C   UNL     1     -10.930  15.461  67.965  1.00  0.00    -0.307 A  
HETATM   21  C   UNL     1     -11.083  16.814  68.294  1.00  0.00    -0.259 A  
HETATM   22  C   UNL     1     -10.336  17.782  67.632  1.00  0.00    -0.375 A  
HETATM   23  C   UNL     1      -9.434  17.399  66.646  1.00  0.00    -0.285 A  
HETATM   24  C   UNL     1      -9.291  16.049  66.313  1.00  0.00    -0.356 A  
ENDBRANCH  18  19
ENDBRANCH   6  13
ENDBRANCH   3   6
TORSDOF 4
ENDMDL
MODEL       79
REMARK 921   NORMALIZED FREE ENERGY PREDICTED BY IDOCK:   -4.72 KCAL/MOL
REMARK 922        TOTAL FREE ENERGY PREDICTED BY IDOCK:   -6.73 KCAL/MOL
REMARK 923 INTER-LIGAND FREE ENERGY PREDICTED BY IDOCK:   -6.26 KCAL/MOL
REMARK 924 INTRA-LIGAND FREE ENERGY PREDICTED BY IDOCK:   -0.48 KCAL/MOL
REMARK 927      BINDING AFFINITY PREDICTED BY RF-SCORE:    0.00 PKD
ROOT
HETATM    1  C   UNL     1      -9.992   5.795  70.779  1.00  0.00    -0.193 A  
HETATM    2  C   UNL     1      -9.108   6.268  69.840  1.00  0.00    -0.144 A  
HETATM    3  N   UNL     1      -9.867   6.536  68.720  1.00  0.00    -0.138 NA 
HETATM    4  C   UNL     1     -11.164   6.273  69.065  1.00  0.00    -0.343 A  
HETATM    5  N   UNL     1     -11.267   5.804  70.287  1.00  0.00    -0.249 NA 
ENDROOT
BRANCH   3   6
HETATM    6  C   UNL     1      -9.305   6.933  67.411  1.00  0.00    -0.131 C  
BRANCH   6   7
HETATM    7  C   UNL     1      -9.370   5.834  66.344  1.00  0.00    -0.168 A  
HETATM    8  C   UNL     1      -8.212   5.556  65.589  1.00  0.00    -0.127 A  
HETATM    9  C   UNL     1      -8.168   4.484  64.695  1.00  0.00    -0.109 A  
HETATM   10  C   UNL     1     -10.487   5.003  66.153  1.00  0.00    -0.334 A  
HETATM   11  C   UNL     1      -9.279   3.663  64.538  1.00  0.00    -0.141 A  
HETATM   12  C   UNL     1     -10.438   3.925  65.262  1.00  0.00     0.023 A  
ENDBRANCH   6   7
BRANCH   6  13
HETATM   13  C   UNL     1      -9.727   8.327  66.940  1.00  0.00    -0.291 A  
HETATM   14  C   UNL     1     -10.960  10.393  67.384  1.00  0.00    -0.335 A  
HETATM   15  C   UNL     1      -9.346   8.874  65.708  1.00  0.00    -0.286 A  
HETATM   16  C   UNL     1     -10.503   9.132  67.790  1.00  0.00    -0.306 A  
HETATM   17  C   UNL     1      -9.834  10.124  65.292  1.00  0.00    -0.388 A  
HETATM   18  C   UNL     1     -10.678  10.899  66.106  1.00  0.00    -0.225 A  
BRANCH  18  19
HETATM   19  C   UNL     1     -11.290  12.161  65.625  1.00  0.00    -0.395 A  
HETATM   20  C   UNL     1     -11.808  13.125  66.510  1.00  0.00    -0.456 A  
HETATM   21  C   UNL     1     -12.459  14.274  66.043  1.00  0.00    -0.392 A  
HETATM   22  C   UNL     1     -12.592  14.493  64.676  1.00  0.00    -0.220 A  
HETATM   23  C   UNL     1     -12.073  13.569  63.778  1.00  0.00    -0.482 A  
HETATM   24  C   UNL     1     -11.433  12.418  64.248  1.00  0.00    -0.427 A  
ENDBRANCH  18  19
ENDBRANCH   6  13
ENDBRANCH   3   6
TORSDOF 4
ENDMDL
MODEL       80
REMARK 921   NORMALIZED FREE ENERGY PREDICTED BY IDOCK:   -4.67 KCAL/MOL
REMARK 922        TOTAL FREE ENERGY PREDICTED BY IDOCK:   -6.68 KCAL/MOL
REMARK 923 INTER-LIGAND FREE ENERGY PREDICTED BY IDOCK:   -6.03 KCAL/MOL
REMARK 924 INTRA-LIGAND FREE ENERGY PREDICTED BY IDOCK:   -0.64 KCAL/MOL
REMARK 927      BINDING AFFINITY PREDICTED BY RF-SCORE:    0.00 PKD
ROOT
HETATM    1  C   UNL     1      -7.322   5.140  65.282  1.00  0.00    -0.068 A  
HETATM    2  C   UNL     1      -8.601   5.610  65.464  1.00  0.00    -0.151 A  
HETATM    3  N   UNL     1      -8.533   6.453  66.553  1.00  0.00    -0.115 NA 
HETATM    4  C   UNL     1      -7.217   6.494  66.924  1.00  0.00    -0.078 A  
HETATM    5  N   UNL     1      -6.471   5.698  66.194  1.00  0.00    -0.039 NA 
ENDROOT
BRANCH   3   6
HETATM    6  C   UNL     1      -9.710   7.076  67.197  1.00  0.00    -0.161 C  
BRANCH   6   7
HETATM    7  C   UNL     1      -9.818   6.802  68.701  1.00  0.00    -0.142 A  
HETATM    8  C   UNL     1      -8.886   7.412  69.567  1.00  0.00    -0.137 A  
HETATM    9  C   UNL     1      -9.009   7.306  70.954  1.00  0.00    -0.150 A  
HETATM   10  C   UNL     1     -10.865   6.067  69.283  1.00  0.00    -0.428 A  
HETATM   11  C   UNL     1     -10.066   6.592  71.507  1.00  0.00    -0.200 A  
HETATM   12  C   UNL     1     -10.989   5.970  70.673  1.00  0.00    -0.376 A  
ENDBRANCH   6   7
BRANCH   6  13
HETATM   13  C   UNL     1      -9.966   8.525  66.776  1.00  0.00    -0.351 A  
HETATM   14  C   UNL     1     -10.999  10.687  67.271  1.00  0.00    -0.348 A  
HETATM   15  C   UNL     1      -9.476   9.083  65.589  1.00  0.00    -0.273 A  
HETATM   16  C   UNL     1     -10.693   9.369  67.633  1.00  0.00    -0.295 A  
HETATM   17  C   UNL     1      -9.815  10.394  65.214  1.00  0.00    -0.361 A  
HETATM   18  C   UNL     1     -10.610  11.216  66.031  1.00  0.00    -0.298 A  
BRANCH  18  19
HETATM   19  C   UNL     1     -11.068  12.555  65.587  1.00  0.00    -0.338 A  
HETATM   20  C   UNL     1     -12.413  12.815  65.260  1.00  0.00    -0.528 A  
HETATM   21  C   UNL     1     -12.819  14.060  64.763  1.00  0.00    -0.114 A  
HETATM   22  C   UNL     1     -11.889  15.081  64.595  1.00  0.00    -0.378 A  
HETATM   23  C   UNL     1     -10.558  14.860  64.928  1.00  0.00    -0.417 A  
HETATM   24  C   UNL     1     -10.155  13.613  65.414  1.00  0.00    -0.291 A  
ENDBRANCH  18  19
ENDBRANCH   6  13
ENDBRANCH   3   6
TORSDOF 4
ENDMDL
MODEL       81
REMARK 921   NORMALIZED FREE ENERGY PREDICTED BY IDOCK:   -4.59 KCAL/MOL
REMARK 922        TOTAL FREE ENERGY PREDICTED BY IDOCK:   -6.58 KCAL/MOL
REMARK 923 INTER-LIGAND FREE ENERGY PREDICTED BY IDOCK:   -5.88 KCAL/MOL
REMARK 924 INTRA-LIGAND FREE ENERGY PREDICTED BY IDOCK:   -0.70 KCAL/MOL
REMARK 927      BINDING AFFINITY PREDICTED BY RF-SCORE:    0.00 PKD
ROOT
HETATM    1  C   UNL     1      -9.527  18.911  67.963  1.00  0.00    -0.317 A  
HETATM    2  C   UNL     1      -8.949  17.859  68.633  1.00  0.00    -0.256 A  
HETATM    3  N   UNL     1      -9.866  16.830  68.565  1.00  0.00    -0.246 NA 
HETATM    4  C   UNL     1     -10.908  17.295  67.810  1.00  0.00    -0.261 A  
HETATM    5  N   UNL     1     -10.742  18.548  67.455  1.00  0.00    -0.422 NA 
ENDROOT
BRANCH   3   6
HETATM    6  C   UNL     1      -9.723  15.542  69.278  1.00  0.00    -0.272 C  
BRANCH   6   7
HETATM    7  C   UNL     1     -10.906  15.199  70.190  1.00  0.00    -0.265 A  
HETATM    8  C   UNL     1     -11.376  16.182  71.086  1.00  0.00    -0.368 A  
HETATM    9  C   UNL     1     -12.527  15.976  71.850  1.00  0.00    -0.475 A  
HETATM   10  C   UNL     1     -11.628  13.996  70.106  1.00  0.00    -0.273 A  
HETATM   11  C   UNL     1     -13.237  14.787  71.733  1.00  0.00    -0.435 A  
HETATM   12  C   UNL     1     -12.785  13.797  70.866  1.00  0.00    -0.394 A  
ENDBRANCH   6   7
BRANCH   6  13
HETATM   13  C   UNL     1      -9.215  14.392  68.405  1.00  0.00    -0.195 A  
HETATM   14  C   UNL     1      -9.643  12.801  66.596  1.00  0.00    -0.255 A  
HETATM   15  C   UNL     1      -7.940  13.829  68.536  1.00  0.00    -0.131 A  
HETATM   16  C   UNL     1     -10.041  13.888  67.386  1.00  0.00    -0.244 A  
HETATM   17  C   UNL     1      -7.559  12.718  67.765  1.00  0.00    -0.141 A  
HETATM   18  C   UNL     1      -8.413  12.158  66.800  1.00  0.00    -0.138 A  
BRANCH  18  19
HETATM   19  C   UNL     1      -8.064  10.915  66.068  1.00  0.00    -0.142 A  
HETATM   20  C   UNL     1      -9.035  10.138  65.409  1.00  0.00    -0.208 A  
HETATM   21  C   UNL     1      -8.707   8.924  64.793  1.00  0.00    -0.162 A  
HETATM   22  C   UNL     1      -7.393   8.466  64.809  1.00  0.00    -0.088 A  
HETATM   23  C   UNL     1      -6.410   9.222  65.435  1.00  0.00    -0.065 A  
HETATM   24  C   UNL     1      -6.743  10.428  66.058  1.00  0.00    -0.124 A  
ENDBRANCH  18  19
ENDBRANCH   6  13
ENDBRANCH   3   6
TORSDOF 4
ENDMDL
MODEL       82
REMARK 921   NORMALIZED FREE ENERGY PREDICTED BY IDOCK:   -4.59 KCAL/MOL
REMARK 922        TOTAL FREE ENERGY PREDICTED BY IDOCK:   -6.58 KCAL/MOL
REMARK 923 INTER-LIGAND FREE ENERGY PREDICTED BY IDOCK:   -5.67 KCAL/MOL
REMARK 924 INTRA-LIGAND FREE ENERGY PREDICTED BY IDOCK:   -0.90 KCAL/MOL
REMARK 927      BINDING AFFINITY PREDICTED BY RF-SCORE:    0.00 PKD
ROOT
HETATM    1  C   UNL     1     -10.152  11.986  65.996  1.00  0.00    -0.230 A  
HETATM    2  C   UNL     1     -10.559  10.848  66.649  1.00  0.00    -0.249 A  
HETATM    3  N   UNL     1      -9.712  10.719  67.730  1.00  0.00    -0.161 NA 
HETATM    4  C   UNL     1      -8.890  11.812  67.704  1.00  0.00    -0.162 A  
HETATM    5  N   UNL     1      -9.116  12.578  66.661  1.00  0.00    -0.220 NA 
ENDROOT
BRANCH   3   6
HETATM    6  C   UNL     1      -9.693   9.551  68.637  1.00  0.00    -0.155 C  
BRANCH   6   7
HETATM    7  C   UNL     1     -10.628   9.681  69.844  1.00  0.00    -0.281 A  
HETATM    8  C   UNL     1     -11.678  10.621  69.786  1.00  0.00    -0.385 A  
HETATM    9  C   UNL     1     -12.639  10.698  70.797  1.00  0.00    -0.479 A  
HETATM   10  C   UNL     1     -10.572   8.835  70.964  1.00  0.00    -0.293 A  
HETATM   11  C   UNL     1     -12.575   9.836  71.885  1.00  0.00    -0.479 A  
HETATM   12  C   UNL     1     -11.540   8.910  71.971  1.00  0.00    -0.435 A  
ENDBRANCH   6   7
BRANCH   6  13
HETATM   13  C   UNL     1      -9.732   8.198  67.922  1.00  0.00    -0.191 A  
HETATM   14  C   UNL     1      -8.523   6.428  66.742  1.00  0.00    -0.112 A  
HETATM   15  C   UNL     1     -10.903   7.451  67.745  1.00  0.00    -0.186 A  
HETATM   16  C   UNL     1      -8.533   7.637  67.449  1.00  0.00    -0.122 A  
HETATM   17  C   UNL     1     -10.893   6.257  67.006  1.00  0.00    -0.458 A  
HETATM   18  C   UNL     1      -9.709   5.733  66.461  1.00  0.00    -0.185 A  
BRANCH  18  19
HETATM   19  C   UNL     1      -9.711   4.538  65.582  1.00  0.00    -0.207 A  
HETATM   20  C   UNL     1      -8.638   3.628  65.555  1.00  0.00    -0.112 A  
HETATM   21  C   UNL     1      -8.613   2.550  64.661  1.00  0.00    -0.092 A  
HETATM   22  C   UNL     1      -9.672   2.347  63.783  1.00  0.00    -0.134 A  
HETATM   23  C   UNL     1     -10.755   3.218  63.800  1.00  0.00    -0.225 A  
HETATM   24  C   UNL     1     -10.771   4.299  64.686  1.00  0.00    -0.121 A  
ENDBRANCH  18  19
ENDBRANCH   6  13
ENDBRANCH   3   6
TORSDOF 4
ENDMDL
MODEL       83
REMARK 921   NORMALIZED FREE ENERGY PREDICTED BY IDOCK:   -4.57 KCAL/MOL
REMARK 922        TOTAL FREE ENERGY PREDICTED BY IDOCK:   -6.56 KCAL/MOL
REMARK 923 INTER-LIGAND FREE ENERGY PREDICTED BY IDOCK:   -5.88 KCAL/MOL
REMARK 924 INTRA-LIGAND FREE ENERGY PREDICTED BY IDOCK:   -0.68 KCAL/MOL
REMARK 927      BINDING AFFINITY PREDICTED BY RF-SCORE:    0.00 PKD
ROOT
HETATM    1  C   UNL     1      -5.569  11.676  70.537  1.00  0.00    -0.153 A  
HETATM    2  C   UNL     1      -6.045  12.419  69.484  1.00  0.00    -0.117 A  
HETATM    3  N   UNL     1      -7.145  11.732  69.014  1.00  0.00    -0.111 NA 
HETATM    4  C   UNL     1      -7.306  10.656  69.844  1.00  0.00    -0.064 A  
HETATM    5  N   UNL     1      -6.361  10.585  70.753  1.00  0.00    -0.333 NA 
ENDROOT
BRANCH   3   6
HETATM    6  C   UNL     1      -7.891  12.094  67.790  1.00  0.00    -0.148 C  
BRANCH   6   7
HETATM    7  C   UNL     1      -8.882  11.022  67.322  1.00  0.00    -0.135 A  
HETATM    8  C   UNL     1      -8.440  10.050  66.400  1.00  0.00    -0.132 A  
HETATM    9  C   UNL     1      -9.253   8.975  66.035  1.00  0.00    -0.284 A  
HETATM   10  C   UNL     1     -10.178  10.880  67.848  1.00  0.00    -0.205 A  
HETATM   11  C   UNL     1     -10.523   8.844  66.585  1.00  0.00    -0.231 A  
HETATM   12  C   UNL     1     -10.986   9.798  67.486  1.00  0.00    -0.205 A  
ENDBRANCH   6   7
BRANCH   6  13
HETATM   13  C   UNL     1      -8.426  13.528  67.779  1.00  0.00    -0.184 A  
HETATM   14  C   UNL     1      -9.406  15.377  66.512  1.00  0.00    -0.311 A  
HETATM   15  C   UNL     1      -8.460  14.349  68.913  1.00  0.00    -0.069 A  
HETATM   16  C   UNL     1      -8.954  14.053  66.588  1.00  0.00    -0.177 A  
HETATM   17  C   UNL     1      -8.882  15.686  68.824  1.00  0.00    -0.208 A  
HETATM   18  C   UNL     1      -9.335  16.241  67.615  1.00  0.00    -0.218 A  
BRANCH  18  19
HETATM   19  C   UNL     1      -9.669  17.681  67.489  1.00  0.00    -0.280 A  
HETATM   20  C   UNL     1     -10.216  18.221  66.310  1.00  0.00    -0.414 A  
HETATM   21  C   UNL     1     -10.449  19.595  66.172  1.00  0.00    -0.624 A  
HETATM   22  C   UNL     1     -10.155  20.461  67.220  1.00  0.00    -0.504 A  
HETATM   23  C   UNL     1      -9.632  19.954  68.404  1.00  0.00    -0.406 A  
HETATM   24  C   UNL     1      -9.391  18.583  68.534  1.00  0.00    -0.364 A  
ENDBRANCH  18  19
ENDBRANCH   6  13
ENDBRANCH   3   6
TORSDOF 4
ENDMDL
MODEL       84
REMARK 921   NORMALIZED FREE ENERGY PREDICTED BY IDOCK:   -4.56 KCAL/MOL
REMARK 922        TOTAL FREE ENERGY PREDICTED BY IDOCK:   -6.54 KCAL/MOL
REMARK 923 INTER-LIGAND FREE ENERGY PREDICTED BY IDOCK:   -5.86 KCAL/MOL
REMARK 924 INTRA-LIGAND FREE ENERGY PREDICTED BY IDOCK:   -0.68 KCAL/MOL
REMARK 927      BINDING AFFINITY PREDICTED BY RF-SCORE:    0.00 PKD
ROOT
HETATM    1  C   UNL     1      -7.079   9.999  70.557  1.00  0.00    -0.068 A  
HETATM    2  C   UNL     1      -6.654  10.858  69.572  1.00  0.00    -0.109 A  
HETATM    3  N   UNL     1      -7.737  11.024  68.734  1.00  0.00    -0.127 NA 
HETATM    4  C   UNL     1      -8.764  10.313  69.292  1.00  0.00    -0.174 A  
HETATM    5  N   UNL     1      -8.391   9.669  70.374  1.00  0.00    -0.187 NA 
ENDROOT
BRANCH   3   6
HETATM    6  C   UNL     1      -7.692  11.760  67.453  1.00  0.00    -0.151 C  
BRANCH   6   7
HETATM    7  C   UNL     1      -8.306  10.998  66.273  1.00  0.00    -0.166 A  
HETATM    8  C   UNL     1      -9.505  11.481  65.707  1.00  0.00    -0.255 A  
HETATM    9  C   UNL     1     -10.044  10.909  64.553  1.00  0.00    -0.404 A  
HETATM   10  C   UNL     1      -7.681   9.908  65.643  1.00  0.00    -0.121 A  
HETATM   11  C   UNL     1      -9.397   9.846  63.936  1.00  0.00    -0.262 A  
HETATM   12  C   UNL     1      -8.220   9.343  64.482  1.00  0.00    -0.147 A  
ENDBRANCH   6   7
BRANCH   6  13
HETATM   13  C   UNL     1      -8.090  13.234  67.557  1.00  0.00    -0.187 A  
HETATM   14  C   UNL     1      -9.834  14.897  67.980  1.00  0.00    -0.216 A  
HETATM   15  C   UNL     1      -7.197  14.292  67.347  1.00  0.00    -0.137 A  
HETATM   16  C   UNL     1      -9.406  13.565  67.923  1.00  0.00    -0.215 A  
HETATM   17  C   UNL     1      -7.639  15.626  67.372  1.00  0.00    -0.227 A  
HETATM   18  C   UNL     1      -8.974  15.958  67.658  1.00  0.00    -0.193 A  
BRANCH  18  19
HETATM   19  C   UNL     1      -9.472  17.353  67.569  1.00  0.00    -0.250 A  
HETATM   20  C   UNL     1      -9.426  18.234  68.666  1.00  0.00    -0.343 A  
HETATM   21  C   UNL     1      -9.975  19.521  68.595  1.00  0.00    -0.538 A  
HETATM   22  C   UNL     1     -10.568  19.963  67.418  1.00  0.00    -0.505 A  
HETATM   23  C   UNL     1     -10.610  19.122  66.312  1.00  0.00    -0.521 A  
HETATM   24  C   UNL     1     -10.071  17.835  66.389  1.00  0.00    -0.357 A  
ENDBRANCH  18  19
ENDBRANCH   6  13
ENDBRANCH   3   6
TORSDOF 4
ENDMDL
MODEL       85
REMARK 921   NORMALIZED FREE ENERGY PREDICTED BY IDOCK:   -4.56 KCAL/MOL
REMARK 922        TOTAL FREE ENERGY PREDICTED BY IDOCK:   -6.54 KCAL/MOL
REMARK 923 INTER-LIGAND FREE ENERGY PREDICTED BY IDOCK:   -5.83 KCAL/MOL
REMARK 924 INTRA-LIGAND FREE ENERGY PREDICTED BY IDOCK:   -0.71 KCAL/MOL
REMARK 927      BINDING AFFINITY PREDICTED BY RF-SCORE:    0.00 PKD
ROOT
HETATM    1  C   UNL     1     -12.694   7.432  71.839  1.00  0.00    -0.278 A  
HETATM    2  C   UNL     1     -12.019   6.765  70.845  1.00  0.00    -0.383 A  
HETATM    3  N   UNL     1     -10.681   6.999  71.084  1.00  0.00    -0.228 NA 
HETATM    4  C   UNL     1     -10.622   7.735  72.236  1.00  0.00    -0.259 A  
HETATM    5  N   UNL     1     -11.816   8.030  72.698  1.00  0.00    -0.366 NA 
ENDROOT
BRANCH   3   6
HETATM    6  C   UNL     1      -9.590   6.587  70.176  1.00  0.00    -0.160 C  
BRANCH   6   7
HETATM    7  C   UNL     1      -9.420   5.069  70.052  1.00  0.00    -0.231 A  
HETATM    8  C   UNL     1      -8.763   4.553  68.915  1.00  0.00    -0.111 A  
HETATM    9  C   UNL     1      -8.464   3.194  68.804  1.00  0.00    -0.096 A  
HETATM   10  C   UNL     1      -9.778   4.162  71.064  1.00  0.00    -0.260 A  
HETATM   11  C   UNL     1      -8.809   2.320  69.829  1.00  0.00    -0.138 A  
HETATM   12  C   UNL     1      -9.469   2.802  70.954  1.00  0.00    -0.224 A  
ENDBRANCH   6   7
BRANCH   6  13
HETATM   13  C   UNL     1      -9.542   7.360  68.856  1.00  0.00    -0.148 A  
HETATM   14  C   UNL     1      -8.491   9.103  67.498  1.00  0.00    -0.116 A  
HETATM   15  C   UNL     1     -10.421   7.127  67.792  1.00  0.00    -0.284 A  
HETATM   16  C   UNL     1      -8.544   8.331  68.666  1.00  0.00    -0.133 A  
HETATM   17  C   UNL     1     -10.385   7.926  66.637  1.00  0.00    -0.270 A  
HETATM   18  C   UNL     1      -9.440   8.953  66.476  1.00  0.00    -0.272 A  
BRANCH  18  19
HETATM   19  C   UNL     1      -9.473   9.875  65.314  1.00  0.00    -0.331 A  
HETATM   20  C   UNL     1     -10.179  11.092  65.345  1.00  0.00    -0.333 A  
HETATM   21  C   UNL     1     -10.273  11.914  64.216  1.00  0.00    -0.346 A  
HETATM   22  C   UNL     1      -9.646  11.545  63.030  1.00  0.00    -0.371 A  
HETATM   23  C   UNL     1      -8.925  10.358  62.975  1.00  0.00    -0.247 A  
HETATM   24  C   UNL     1      -8.843   9.535  64.102  1.00  0.00    -0.243 A  
ENDBRANCH  18  19
ENDBRANCH   6  13
ENDBRANCH   3   6
TORSDOF 4
ENDMDL
MODEL       86
REMARK 921   NORMALIZED FREE ENERGY PREDICTED BY IDOCK:   -4.52 KCAL/MOL
REMARK 922        TOTAL FREE ENERGY PREDICTED BY IDOCK:   -6.50 KCAL/MOL
REMARK 923 INTER-LIGAND FREE ENERGY PREDICTED BY IDOCK:   -6.25 KCAL/MOL
REMARK 924 INTRA-LIGAND FREE ENERGY PREDICTED BY IDOCK:   -0.25 KCAL/MOL
REMARK 927      BINDING AFFINITY PREDICTED BY RF-SCORE:    0.00 PKD
ROOT
HETATM    1  C   UNL     1     -10.372  20.192  68.798  1.00  0.00    -0.121 A  
HETATM    2  C   UNL     1      -9.671  19.013  68.885  1.00  0.00    -0.385 A  
HETATM    3  N   UNL     1      -8.752  19.053  67.857  1.00  0.00    -0.294 NA 
HETATM    4  C   UNL     1      -8.906  20.271  67.254  1.00  0.00    -0.355 A  
HETATM    5  N   UNL     1      -9.887  20.966  67.782  1.00  0.00    -0.178 NA 
ENDROOT
BRANCH   3   6
HETATM    6  C   UNL     1      -7.874  17.924  67.483  1.00  0.00    -0.212 C  
BRANCH   6   7
HETATM    7  C   UNL     1      -6.905  17.492  68.589  1.00  0.00    -0.227 A  
HETATM    8  C   UNL     1      -6.003  18.445  69.107  1.00  0.00    -0.229 A  
HETATM    9  C   UNL     1      -5.186  18.150  70.201  1.00  0.00    -0.231 A  
HETATM   10  C   UNL     1      -6.941  16.228  69.203  1.00  0.00    -0.206 A  
HETATM   11  C   UNL     1      -5.255  16.900  70.805  1.00  0.00    -0.211 A  
HETATM   12  C   UNL     1      -6.128  15.939  70.304  1.00  0.00    -0.042 A  
ENDBRANCH   6   7
BRANCH   6  13
HETATM   13  C   UNL     1      -8.591  16.781  66.759  1.00  0.00    -0.264 A  
HETATM   14  C   UNL     1     -10.434  16.055  65.323  1.00  0.00    -0.384 A  
HETATM   15  C   UNL     1      -8.165  15.448  66.809  1.00  0.00    -0.252 A  
HETATM   16  C   UNL     1      -9.712  17.071  65.963  1.00  0.00    -0.243 A  
HETATM   17  C   UNL     1      -8.912  14.429  66.194  1.00  0.00     0.080 A  
HETATM   18  C   UNL     1     -10.081  14.704  65.464  1.00  0.00    -0.405 A  
BRANCH  18  19
HETATM   19  C   UNL     1     -10.936  13.623  64.915  1.00  0.00    -0.372 A  
HETATM   20  C   UNL     1     -10.417  12.603  64.097  1.00  0.00    -0.438 A  
HETATM   21  C   UNL     1     -11.247  11.635  63.516  1.00  0.00    -0.462 A  
HETATM   22  C   UNL     1     -12.617  11.658  63.754  1.00  0.00    -0.261 A  
HETATM   23  C   UNL     1     -13.155  12.643  64.574  1.00  0.00    -0.068 A  
HETATM   24  C   UNL     1     -12.325  13.612  65.143  1.00  0.00    -0.486 A  
ENDBRANCH  18  19
ENDBRANCH   6  13
ENDBRANCH   3   6
TORSDOF 4
ENDMDL
MODEL       87
REMARK 921   NORMALIZED FREE ENERGY PREDICTED BY IDOCK:   -4.51 KCAL/MOL
REMARK 922        TOTAL FREE ENERGY PREDICTED BY IDOCK:   -6.48 KCAL/MOL
REMARK 923 INTER-LIGAND FREE ENERGY PREDICTED BY IDOCK:   -5.74 KCAL/MOL
REMARK 924 INTRA-LIGAND FREE ENERGY PREDICTED BY IDOCK:   -0.75 KCAL/MOL
REMARK 927      BINDING AFFINITY PREDICTED BY RF-SCORE:    0.00 PKD
ROOT
HETATM    1  C   UNL     1      -9.432   5.710  74.080  1.00  0.00    -0.139 A  
HETATM    2  C   UNL     1      -9.880   6.619  73.152  1.00  0.00    -0.170 A  
HETATM    3  N   UNL     1     -10.911   5.989  72.486  1.00  0.00    -0.233 NA 
HETATM    4  C   UNL     1     -11.066   4.770  73.087  1.00  0.00    -0.310 A  
HETATM    5  N   UNL     1     -10.177   4.567  74.032  1.00  0.00    -0.184 NA 
ENDROOT
BRANCH   3   6
HETATM    6  C   UNL     1     -11.598   6.546  71.301  1.00  0.00    -0.327 C  
BRANCH   6   7
HETATM    7  C   UNL     1     -12.004   8.017  71.448  1.00  0.00    -0.328 A  
HETATM    8  C   UNL     1     -11.111   9.012  70.998  1.00  0.00    -0.356 A  
HETATM    9  C   UNL     1     -11.474  10.361  70.986  1.00  0.00    -0.304 A  
HETATM   10  C   UNL     1     -13.268   8.432  71.901  1.00  0.00    -0.381 A  
HETATM   11  C   UNL     1     -12.738  10.745  71.418  1.00  0.00    -0.544 A  
HETATM   12  C   UNL     1     -13.632   9.783  71.880  1.00  0.00    -0.421 A  
ENDBRANCH   6   7
BRANCH   6  13
HETATM   13  C   UNL     1     -10.949   6.178  69.964  1.00  0.00    -0.441 A  
HETATM   14  C   UNL     1      -9.076   5.155  68.769  1.00  0.00    -0.140 A  
HETATM   15  C   UNL     1     -11.521   6.473  68.721  1.00  0.00    -0.099 A  
HETATM   16  C   UNL     1      -9.736   5.468  69.964  1.00  0.00    -0.238 A  
HETATM   17  C   UNL     1     -10.838   6.188  67.526  1.00  0.00    -0.422 A  
HETATM   18  C   UNL     1      -9.586   5.550  67.523  1.00  0.00    -0.131 A  
BRANCH  18  19
HETATM   19  C   UNL     1      -8.809   5.353  66.275  1.00  0.00    -0.131 A  
HETATM   20  C   UNL     1      -8.861   4.151  65.544  1.00  0.00    -0.123 A  
HETATM   21  C   UNL     1      -8.060   3.946  64.413  1.00  0.00    -0.090 A  
HETATM   22  C   UNL     1      -7.198   4.946  63.978  1.00  0.00    -0.050 A  
HETATM   23  C   UNL     1      -7.139   6.151  64.669  1.00  0.00    -0.057 A  
HETATM   24  C   UNL     1      -7.933   6.349  65.802  1.00  0.00    -0.117 A  
ENDBRANCH  18  19
ENDBRANCH   6  13
ENDBRANCH   3   6
TORSDOF 4
ENDMDL
MODEL       88
REMARK 921   NORMALIZED FREE ENERGY PREDICTED BY IDOCK:   -4.47 KCAL/MOL
REMARK 922        TOTAL FREE ENERGY PREDICTED BY IDOCK:   -6.43 KCAL/MOL
REMARK 923 INTER-LIGAND FREE ENERGY PREDICTED BY IDOCK:   -5.48 KCAL/MOL
REMARK 924 INTRA-LIGAND FREE ENERGY PREDICTED BY IDOCK:   -0.95 KCAL/MOL
REMARK 927      BINDING AFFINITY PREDICTED BY RF-SCORE:    0.00 PKD
ROOT
HETATM    1  C   UNL     1      -5.601   4.393  69.702  1.00  0.00    -0.016 A  
HETATM    2  C   UNL     1      -6.787   4.476  69.014  1.00  0.00    -0.050 A  
HETATM    3  N   UNL     1      -7.655   5.144  69.853  1.00  0.00    -0.063 NA 
HETATM    4  C   UNL     1      -6.930   5.480  70.963  1.00  0.00    -0.061 A  
HETATM    5  N   UNL     1      -5.701   5.022  70.910  1.00  0.00    -0.015 NA 
ENDROOT
BRANCH   3   6
HETATM    6  C   UNL     1      -9.095   5.334  69.578  1.00  0.00    -0.112 C  
BRANCH   6   7
HETATM    7  C   UNL     1      -9.997   5.128  70.800  1.00  0.00    -0.285 A  
HETATM    8  C   UNL     1      -9.957   3.885  71.467  1.00  0.00    -0.209 A  
HETATM    9  C   UNL     1     -10.656   3.679  72.658  1.00  0.00    -0.140 A  
HETATM   10  C   UNL     1     -10.780   6.147  71.368  1.00  0.00    -0.308 A  
HETATM   11  C   UNL     1     -11.406   4.710  73.213  1.00  0.00    -0.393 A  
HETATM   12  C   UNL     1     -11.472   5.940  72.566  1.00  0.00    -0.347 A  
ENDBRANCH   6   7
BRANCH   6  13
HETATM   13  C   UNL     1      -9.418   6.566  68.728  1.00  0.00    -0.128 A  
HETATM   14  C   UNL     1      -9.041   8.940  68.270  1.00  0.00    -0.140 A  
HETATM   15  C   UNL     1     -10.330   6.553  67.665  1.00  0.00    -0.239 A  
HETATM   16  C   UNL     1      -8.743   7.771  68.984  1.00  0.00    -0.135 A  
HETATM   17  C   UNL     1     -10.650   7.735  66.975  1.00  0.00    -0.396 A  
HETATM   18  C   UNL     1     -10.037   8.961  67.282  1.00  0.00    -0.303 A  
BRANCH  18  19
HETATM   19  C   UNL     1     -10.457  10.231  66.639  1.00  0.00    -0.260 A  
HETATM   20  C   UNL     1     -11.239  11.187  67.314  1.00  0.00    -0.347 A  
HETATM   21  C   UNL     1     -11.699  12.343  66.670  1.00  0.00    -0.438 A  
HETATM   22  C   UNL     1     -11.373  12.577  65.339  1.00  0.00    -0.363 A  
HETATM   23  C   UNL     1     -10.586  11.660  64.653  1.00  0.00    -0.366 A  
HETATM   24  C   UNL     1     -10.137  10.502  65.295  1.00  0.00    -0.369 A  
ENDBRANCH  18  19
ENDBRANCH   6  13
ENDBRANCH   3   6
TORSDOF 4
ENDMDL
MODEL       89
REMARK 921   NORMALIZED FREE ENERGY PREDICTED BY IDOCK:   -4.47 KCAL/MOL
REMARK 922        TOTAL FREE ENERGY PREDICTED BY IDOCK:   -6.43 KCAL/MOL
REMARK 923 INTER-LIGAND FREE ENERGY PREDICTED BY IDOCK:   -5.88 KCAL/MOL
REMARK 924 INTRA-LIGAND FREE ENERGY PREDICTED BY IDOCK:   -0.55 KCAL/MOL
REMARK 927      BINDING AFFINITY PREDICTED BY RF-SCORE:    0.00 PKD
ROOT
HETATM    1  C   UNL     1     -11.637  12.684  64.263  1.00  0.00    -0.374 A  
HETATM    2  C   UNL     1     -10.430  12.894  64.885  1.00  0.00    -0.331 A  
HETATM    3  N   UNL     1     -10.716  12.962  66.233  1.00  0.00    -0.272 NA 
HETATM    4  C   UNL     1     -12.058  12.727  66.352  1.00  0.00    -0.300 A  
HETATM    5  N   UNL     1     -12.641  12.580  65.184  1.00  0.00    -0.650 NA 
ENDROOT
BRANCH   3   6
HETATM    6  C   UNL     1      -9.730  13.321  67.275  1.00  0.00    -0.231 C  
BRANCH   6   7
HETATM    7  C   UNL     1      -8.653  12.255  67.509  1.00  0.00    -0.174 A  
HETATM    8  C   UNL     1      -7.366  12.466  66.971  1.00  0.00    -0.016 A  
HETATM    9  C   UNL     1      -6.310  11.598  67.257  1.00  0.00    -0.118 A  
HETATM   10  C   UNL     1      -8.840  11.130  68.329  1.00  0.00    -0.155 A  
HETATM   11  C   UNL     1      -6.514  10.503  68.089  1.00  0.00    -0.062 A  
HETATM   12  C   UNL     1      -7.778  10.267  68.620  1.00  0.00    -0.094 A  
ENDBRANCH   6   7
BRANCH   6  13
HETATM   13  C   UNL     1      -9.216  14.760  67.189  1.00  0.00    -0.233 A  
HETATM   14  C   UNL     1      -9.079  16.852  65.928  1.00  0.00    -0.091 A  
HETATM   15  C   UNL     1      -8.440  15.364  68.186  1.00  0.00    -0.147 A  
HETATM   16  C   UNL     1      -9.567  15.548  66.079  1.00  0.00    -0.380 A  
HETATM   17  C   UNL     1      -7.925  16.660  68.014  1.00  0.00    -0.173 A  
HETATM   18  C   UNL     1      -8.206  17.423  66.867  1.00  0.00    -0.258 A  
BRANCH  18  19
HETATM   19  C   UNL     1      -7.571  18.741  66.626  1.00  0.00    -0.259 A  
HETATM   20  C   UNL     1      -6.885  19.033  65.433  1.00  0.00    -0.218 A  
HETATM   21  C   UNL     1      -6.218  20.251  65.250  1.00  0.00    -0.290 A  
HETATM   22  C   UNL     1      -6.235  21.214  66.254  1.00  0.00    -0.310 A  
HETATM   23  C   UNL     1      -6.921  20.961  67.436  1.00  0.00    -0.426 A  
HETATM   24  C   UNL     1      -7.577  19.740  67.619  1.00  0.00    -0.317 A  
ENDBRANCH  18  19
ENDBRANCH   6  13
ENDBRANCH   3   6
TORSDOF 4
ENDMDL
MODEL       90
REMARK 921   NORMALIZED FREE ENERGY PREDICTED BY IDOCK:   -4.45 KCAL/MOL
REMARK 922        TOTAL FREE ENERGY PREDICTED BY IDOCK:   -6.41 KCAL/MOL
REMARK 923 INTER-LIGAND FREE ENERGY PREDICTED BY IDOCK:   -5.59 KCAL/MOL
REMARK 924 INTRA-LIGAND FREE ENERGY PREDICTED BY IDOCK:   -0.82 KCAL/MOL
REMARK 927      BINDING AFFINITY PREDICTED BY RF-SCORE:    0.00 PKD
ROOT
HETATM    1  C   UNL     1     -10.720   1.916  73.179  1.00  0.00    -0.142 A  
HETATM    2  C   UNL     1     -10.014   2.308  72.067  1.00  0.00    -0.161 A  
HETATM    3  N   UNL     1      -9.703   3.635  72.276  1.00  0.00    -0.148 NA 
HETATM    4  C   UNL     1     -10.179   3.948  73.520  1.00  0.00    -0.143 A  
HETATM    5  N   UNL     1     -10.815   2.943  74.075  1.00  0.00    -0.193 NA 
ENDROOT
BRANCH   3   6
HETATM    6  C   UNL     1      -9.065   4.508  71.267  1.00  0.00    -0.130 C  
BRANCH   6   7
HETATM    7  C   UNL     1      -8.652   3.780  69.983  1.00  0.00    -0.107 A  
HETATM    8  C   UNL     1      -9.572   3.721  68.915  1.00  0.00    -0.183 A  
HETATM    9  C   UNL     1      -9.211   3.186  67.676  1.00  0.00    -0.237 A  
HETATM   10  C   UNL     1      -7.363   3.267  69.762  1.00  0.00    -0.044 A  
HETATM   11  C   UNL     1      -7.923   2.704  67.475  1.00  0.00    -0.068 A  
HETATM   12  C   UNL     1      -7.002   2.739  68.518  1.00  0.00    -0.048 A  
ENDBRANCH   6   7
BRANCH   6  13
HETATM   13  C   UNL     1      -9.769   5.851  71.060  1.00  0.00    -0.209 A  
HETATM   14  C   UNL     1      -9.604   8.286  70.888  1.00  0.00    -0.196 A  
HETATM   15  C   UNL     1     -11.149   5.977  70.861  1.00  0.00    -0.352 A  
HETATM   16  C   UNL     1      -9.002   7.028  71.022  1.00  0.00    -0.151 A  
HETATM   17  C   UNL     1     -11.752   7.243  70.762  1.00  0.00    -0.333 A  
HETATM   18  C   UNL     1     -10.998   8.428  70.805  1.00  0.00    -0.276 A  
BRANCH  18  19
HETATM   19  C   UNL     1     -11.639   9.766  70.820  1.00  0.00    -0.417 A  
HETATM   20  C   UNL     1     -11.331  10.752  69.865  1.00  0.00    -0.385 A  
HETATM   21  C   UNL     1     -11.879  12.039  69.938  1.00  0.00    -0.405 A  
HETATM   22  C   UNL     1     -12.762  12.364  70.962  1.00  0.00    -0.315 A  
HETATM   23  C   UNL     1     -13.099  11.404  71.909  1.00  0.00    -0.505 A  
HETATM   24  C   UNL     1     -12.543  10.124  71.839  1.00  0.00    -0.437 A  
ENDBRANCH  18  19
ENDBRANCH   6  13
ENDBRANCH   3   6
TORSDOF 4
ENDMDL
MODEL       91
REMARK 921   NORMALIZED FREE ENERGY PREDICTED BY IDOCK:   -4.43 KCAL/MOL
REMARK 922        TOTAL FREE ENERGY PREDICTED BY IDOCK:   -6.38 KCAL/MOL
REMARK 923 INTER-LIGAND FREE ENERGY PREDICTED BY IDOCK:   -5.72 KCAL/MOL
REMARK 924 INTRA-LIGAND FREE ENERGY PREDICTED BY IDOCK:   -0.66 KCAL/MOL
REMARK 927      BINDING AFFINITY PREDICTED BY RF-SCORE:    0.00 PKD
ROOT
HETATM    1  C   UNL     1      -7.858  17.249  66.433  1.00  0.00    -0.310 A  
HETATM    2  C   UNL     1      -7.731  16.210  67.323  1.00  0.00    -0.180 A  
HETATM    3  N   UNL     1      -8.778  15.356  67.046  1.00  0.00    -0.211 NA 
HETATM    4  C   UNL     1      -9.434  15.891  65.972  1.00  0.00    -0.354 A  
HETATM    5  N   UNL     1      -8.918  17.039  65.597  1.00  0.00    -0.386 NA 
ENDROOT
BRANCH   3   6
HETATM    6  C   UNL     1      -9.119  14.167  67.858  1.00  0.00    -0.189 C  
BRANCH   6   7
HETATM    7  C   UNL     1     -10.352  14.351  68.748  1.00  0.00    -0.241 A  
HETATM    8  C   UNL     1     -11.193  13.241  68.976  1.00  0.00    -0.320 A  
HETATM    9  C   UNL     1     -12.257  13.310  69.878  1.00  0.00    -0.313 A  
HETATM   10  C   UNL     1     -10.635  15.536  69.449  1.00  0.00    -0.250 A  
HETATM   11  C   UNL     1     -12.503  14.487  70.575  1.00  0.00    -0.408 A  
HETATM   12  C   UNL     1     -11.697  15.600  70.357  1.00  0.00    -0.379 A  
ENDBRANCH   6   7
BRANCH   6  13
HETATM   13  C   UNL     1      -9.056  12.843  67.093  1.00  0.00    -0.220 A  
HETATM   14  C   UNL     1      -7.820  10.798  66.565  1.00  0.00    -0.145 A  
HETATM   15  C   UNL     1     -10.068  12.397  66.235  1.00  0.00    -0.257 A  
HETATM   16  C   UNL     1      -7.951  11.995  67.281  1.00  0.00    -0.174 A  
HETATM   17  C   UNL     1      -9.917  11.213  65.494  1.00  0.00    -0.298 A  
HETATM   18  C   UNL     1      -8.776  10.402  65.617  1.00  0.00    -0.184 A  
BRANCH  18  19
HETATM   19  C   UNL     1      -8.558   9.217  64.752  1.00  0.00    -0.209 A  
HETATM   20  C   UNL     1      -8.316   7.937  65.286  1.00  0.00    -0.140 A  
HETATM   21  C   UNL     1      -8.029   6.842  64.461  1.00  0.00    -0.106 A  
HETATM   22  C   UNL     1      -7.993   6.999  63.079  1.00  0.00    -0.080 A  
HETATM   23  C   UNL     1      -8.248   8.247  62.523  1.00  0.00    -0.169 A  
HETATM   24  C   UNL     1      -8.524   9.340  63.350  1.00  0.00    -0.204 A  
ENDBRANCH  18  19
ENDBRANCH   6  13
ENDBRANCH   3   6
TORSDOF 4
ENDMDL
MODEL       92
REMARK 921   NORMALIZED FREE ENERGY PREDICTED BY IDOCK:   -4.42 KCAL/MOL
REMARK 922        TOTAL FREE ENERGY PREDICTED BY IDOCK:   -6.37 KCAL/MOL
REMARK 923 INTER-LIGAND FREE ENERGY PREDICTED BY IDOCK:   -5.58 KCAL/MOL
REMARK 924 INTRA-LIGAND FREE ENERGY PREDICTED BY IDOCK:   -0.79 KCAL/MOL
REMARK 927      BINDING AFFINITY PREDICTED BY RF-SCORE:    0.00 PKD
ROOT
HETATM    1  C   UNL     1     -10.218   6.541  73.830  1.00  0.00    -0.306 A  
HETATM    2  C   UNL     1      -9.557   7.207  72.825  1.00  0.00    -0.152 A  
HETATM    3  N   UNL     1     -10.189   6.834  71.657  1.00  0.00    -0.192 NA 
HETATM    4  C   UNL     1     -11.227   6.022  72.026  1.00  0.00    -0.288 A  
HETATM    5  N   UNL     1     -11.254   5.810  73.321  1.00  0.00    -0.210 NA 
ENDROOT
BRANCH   3   6
HETATM    6  C   UNL     1      -9.719   7.201  70.304  1.00  0.00    -0.175 C  
BRANCH   6   7
HETATM    7  C   UNL     1      -9.810   6.063  69.281  1.00  0.00    -0.191 A  
HETATM    8  C   UNL     1     -10.280   6.358  67.983  1.00  0.00    -0.195 A  
HETATM    9  C   UNL     1     -10.265   5.396  66.971  1.00  0.00    -0.274 A  
HETATM   10  C   UNL     1      -9.343   4.761  69.524  1.00  0.00    -0.198 A  
HETATM   11  C   UNL     1      -9.778   4.120  67.230  1.00  0.00    -0.214 A  
HETATM   12  C   UNL     1      -9.323   3.802  68.506  1.00  0.00    -0.227 A  
ENDBRANCH   6   7
BRANCH   6  13
HETATM   13  C   UNL     1     -10.213   8.564  69.813  1.00  0.00    -0.206 A  
HETATM   14  C   UNL     1      -9.730  10.658  68.644  1.00  0.00    -0.178 A  
HETATM   15  C   UNL     1     -11.513   9.037  70.026  1.00  0.00    -0.005 A  
HETATM   16  C   UNL     1      -9.344   9.380  69.070  1.00  0.00    -0.153 A  
HETATM   17  C   UNL     1     -11.885  10.332  69.628  1.00  0.00    -0.181 A  
HETATM   18  C   UNL     1     -10.993  11.184  68.955  1.00  0.00    -0.286 A  
BRANCH  18  19
HETATM   19  C   UNL     1     -11.340  12.591  68.638  1.00  0.00    -0.329 A  
HETATM   20  C   UNL     1     -11.373  13.073  67.316  1.00  0.00    -0.348 A  
HETATM   21  C   UNL     1     -11.620  14.422  67.033  1.00  0.00    -0.402 A  
HETATM   22  C   UNL     1     -11.857  15.320  68.069  1.00  0.00    -0.176 A  
HETATM   23  C   UNL     1     -11.851  14.869  69.383  1.00  0.00    -0.356 A  
HETATM   24  C   UNL     1     -11.594  13.523  69.662  1.00  0.00    -0.340 A  
ENDBRANCH  18  19
ENDBRANCH   6  13
ENDBRANCH   3   6
TORSDOF 4
ENDMDL
MODEL       93
REMARK 921   NORMALIZED FREE ENERGY PREDICTED BY IDOCK:   -4.38 KCAL/MOL
REMARK 922        TOTAL FREE ENERGY PREDICTED BY IDOCK:   -6.32 KCAL/MOL
REMARK 923 INTER-LIGAND FREE ENERGY PREDICTED BY IDOCK:   -5.52 KCAL/MOL
REMARK 924 INTRA-LIGAND FREE ENERGY PREDICTED BY IDOCK:   -0.79 KCAL/MOL
REMARK 927      BINDING AFFINITY PREDICTED BY RF-SCORE:    0.00 PKD
ROOT
HETATM    1  C   UNL     1      -8.556   3.758  72.687  1.00  0.00    -0.094 A  
HETATM    2  C   UNL     1      -8.193   4.801  71.869  1.00  0.00    -0.110 A  
HETATM    3  N   UNL     1      -9.301   5.063  71.090  1.00  0.00    -0.144 NA 
HETATM    4  C   UNL     1     -10.282   4.214  71.523  1.00  0.00    -0.042 A  
HETATM    5  N   UNL     1      -9.856   3.404  72.465  1.00  0.00    -0.144 NA 
ENDROOT
BRANCH   3   6
HETATM    6  C   UNL     1      -9.317   6.020  69.964  1.00  0.00    -0.153 C  
BRANCH   6   7
HETATM    7  C   UNL     1      -9.754   5.407  68.629  1.00  0.00    -0.187 A  
HETATM    8  C   UNL     1     -10.451   6.218  67.708  1.00  0.00    -0.289 A  
HETATM    9  C   UNL     1     -10.762   5.758  66.427  1.00  0.00    -0.193 A  
HETATM   10  C   UNL     1      -9.400   4.111  68.217  1.00  0.00    -0.214 A  
HETATM   11  C   UNL     1     -10.382   4.479  66.035  1.00  0.00    -0.276 A  
HETATM   12  C   UNL     1      -9.707   3.655  66.930  1.00  0.00    -0.101 A  
ENDBRANCH   6   7
BRANCH   6  13
HETATM   13  C   UNL     1      -9.945   7.376  70.297  1.00  0.00    -0.188 A  
HETATM   14  C   UNL     1     -11.883   8.635  71.098  1.00  0.00    -0.331 A  
HETATM   15  C   UNL     1      -9.276   8.596  70.140  1.00  0.00    -0.165 A  
HETATM   16  C   UNL     1     -11.245   7.418  70.828  1.00  0.00    -0.293 A  
HETATM   17  C   UNL     1      -9.932   9.815  70.380  1.00  0.00    -0.294 A  
HETATM   18  C   UNL     1     -11.260   9.864  70.835  1.00  0.00    -0.433 A  
BRANCH  18  19
HETATM   19  C   UNL     1     -11.995  11.146  70.976  1.00  0.00    -0.268 A  
HETATM   20  C   UNL     1     -11.879  12.181  70.030  1.00  0.00    -0.383 A  
HETATM   21  C   UNL     1     -12.511  13.417  70.216  1.00  0.00    -0.285 A  
HETATM   22  C   UNL     1     -13.288  13.641  71.348  1.00  0.00    -0.321 A  
HETATM   23  C   UNL     1     -13.436  12.630  72.290  1.00  0.00    -0.541 A  
HETATM   24  C   UNL     1     -12.796  11.401  72.106  1.00  0.00    -0.075 A  
ENDBRANCH  18  19
ENDBRANCH   6  13
ENDBRANCH   3   6
TORSDOF 4
ENDMDL
MODEL       94
REMARK 921   NORMALIZED FREE ENERGY PREDICTED BY IDOCK:   -4.32 KCAL/MOL
REMARK 922        TOTAL FREE ENERGY PREDICTED BY IDOCK:   -6.25 KCAL/MOL
REMARK 923 INTER-LIGAND FREE ENERGY PREDICTED BY IDOCK:   -6.01 KCAL/MOL
REMARK 924 INTRA-LIGAND FREE ENERGY PREDICTED BY IDOCK:   -0.24 KCAL/MOL
REMARK 927      BINDING AFFINITY PREDICTED BY RF-SCORE:    0.00 PKD
ROOT
HETATM    1  C   UNL     1     -12.678  15.098  71.471  1.00  0.00    -0.358 A  
HETATM    2  C   UNL     1     -13.110  14.009  70.753  1.00  0.00    -0.180 A  
HETATM    3  N   UNL     1     -11.979  13.486  70.160  1.00  0.00    -0.333 NA 
HETATM    4  C   UNL     1     -10.930  14.244  70.601  1.00  0.00     0.483 A  
HETATM    5  N   UNL     1     -11.323  15.234  71.370  1.00  0.00    -0.369 NA 
ENDROOT
BRANCH   3   6
HETATM    6  C   UNL     1     -11.992  12.383  69.176  1.00  0.00    -0.240 C  
BRANCH   6   7
HETATM    7  C   UNL     1     -11.471  12.777  67.789  1.00  0.00    -0.376 A  
HETATM    8  C   UNL     1     -10.727  13.968  67.660  1.00  0.00    -0.261 A  
HETATM    9  C   UNL     1     -10.117  14.316  66.453  1.00  0.00    -0.295 A  
HETATM   10  C   UNL     1     -11.592  11.959  66.653  1.00  0.00    -0.337 A  
HETATM   11  C   UNL     1     -10.233  13.480  65.349  1.00  0.00    -0.316 A  
HETATM   12  C   UNL     1     -10.973  12.306  65.447  1.00  0.00    -0.341 A  
ENDBRANCH   6   7
BRANCH   6  13
HETATM   13  C   UNL     1     -11.470  11.049  69.716  1.00  0.00    -0.387 A  
HETATM   14  C   UNL     1     -11.576   9.311  71.434  1.00  0.00    -0.437 A  
HETATM   15  C   UNL     1     -10.456  10.309  69.096  1.00  0.00    -0.246 A  
HETATM   16  C   UNL     1     -12.053  10.501  70.870  1.00  0.00    -0.487 A  
HETATM   17  C   UNL     1      -9.957   9.134  69.683  1.00  0.00    -0.198 A  
HETATM   18  C   UNL     1     -10.483   8.625  70.883  1.00  0.00    -0.265 A  
BRANCH  18  19
HETATM   19  C   UNL     1      -9.883   7.454  71.568  1.00  0.00    -0.185 A  
HETATM   20  C   UNL     1      -8.731   7.566  72.369  1.00  0.00    -0.155 A  
HETATM   21  C   UNL     1      -8.125   6.442  72.943  1.00  0.00    -0.106 A  
HETATM   22  C   UNL     1      -8.669   5.177  72.742  1.00  0.00    -0.119 A  
HETATM   23  C   UNL     1      -9.818   5.038  71.973  1.00  0.00    -0.226 A  
HETATM   24  C   UNL     1     -10.414   6.161  71.393  1.00  0.00    -0.273 A  
ENDBRANCH  18  19
ENDBRANCH   6  13
ENDBRANCH   3   6
TORSDOF 4
ENDMDL
MODEL       95
REMARK 921   NORMALIZED FREE ENERGY PREDICTED BY IDOCK:   -4.32 KCAL/MOL
REMARK 922        TOTAL FREE ENERGY PREDICTED BY IDOCK:   -6.25 KCAL/MOL
REMARK 923 INTER-LIGAND FREE ENERGY PREDICTED BY IDOCK:   -5.36 KCAL/MOL
REMARK 924 INTRA-LIGAND FREE ENERGY PREDICTED BY IDOCK:   -0.89 KCAL/MOL
REMARK 927      BINDING AFFINITY PREDICTED BY RF-SCORE:    0.00 PKD
ROOT
HETATM    1  C   UNL     1     -14.028   8.981  72.167  1.00  0.00    -0.435 A  
HETATM    2  C   UNL     1     -12.680   9.204  72.023  1.00  0.00    -0.398 A  
HETATM    3  N   UNL     1     -12.150   8.002  71.602  1.00  0.00    -0.291 NA 
HETATM    4  C   UNL     1     -13.209   7.148  71.455  1.00  0.00    -0.360 A  
HETATM    5  N   UNL     1     -14.345   7.702  71.810  1.00  0.00    -0.440 NA 
ENDROOT
BRANCH   3   6
HETATM    6  C   UNL     1     -10.703   7.737  71.455  1.00  0.00    -0.222 C  
BRANCH   6   7
HETATM    7  C   UNL     1     -10.210   6.511  72.231  1.00  0.00    -0.203 A  
HETATM    8  C   UNL     1     -10.495   6.424  73.610  1.00  0.00    -0.311 A  
HETATM    9  C   UNL     1     -10.187   5.276  74.343  1.00  0.00    -0.299 A  
HETATM   10  C   UNL     1      -9.588   5.406  71.624  1.00  0.00    -0.190 A  
HETATM   11  C   UNL     1      -9.592   4.188  73.716  1.00  0.00    -0.128 A  
HETATM   12  C   UNL     1      -9.288   4.255  72.360  1.00  0.00    -0.158 A  
ENDBRANCH   6   7
BRANCH   6  13
HETATM   13  C   UNL     1     -10.182   7.856  70.021  1.00  0.00    -0.208 A  
HETATM   14  C   UNL     1     -10.520   7.418  67.637  1.00  0.00    -0.310 A  
HETATM   15  C   UNL     1      -8.961   8.456  69.689  1.00  0.00    -0.145 A  
HETATM   16  C   UNL     1     -10.975   7.381  68.962  1.00  0.00    -0.035 A  
HETATM   17  C   UNL     1      -8.494   8.459  68.364  1.00  0.00    -0.135 A  
HETATM   18  C   UNL     1      -9.248   7.913  67.312  1.00  0.00    -0.167 A  
BRANCH  18  19
HETATM   19  C   UNL     1      -8.711   7.807  65.933  1.00  0.00    -0.175 A  
HETATM   20  C   UNL     1      -8.612   8.924  65.082  1.00  0.00    -0.208 A  
HETATM   21  C   UNL     1      -8.181   8.798  63.756  1.00  0.00    -0.163 A  
HETATM   22  C   UNL     1      -7.824   7.552  63.253  1.00  0.00    -0.126 A  
HETATM   23  C   UNL     1      -7.893   6.434  64.076  1.00  0.00    -0.111 A  
HETATM   24  C   UNL     1      -8.332   6.561  65.397  1.00  0.00    -0.140 A  
ENDBRANCH  18  19
ENDBRANCH   6  13
ENDBRANCH   3   6
TORSDOF 4
ENDMDL
MODEL       96
REMARK 921   NORMALIZED FREE ENERGY PREDICTED BY IDOCK:   -4.31 KCAL/MOL
REMARK 922        TOTAL FREE ENERGY PREDICTED BY IDOCK:   -6.23 KCAL/MOL
REMARK 923 INTER-LIGAND FREE ENERGY PREDICTED BY IDOCK:   -5.57 KCAL/MOL
REMARK 924 INTRA-LIGAND FREE ENERGY PREDICTED BY IDOCK:   -0.67 KCAL/MOL
REMARK 927      BINDING AFFINITY PREDICTED BY RF-SCORE:    0.00 PKD
ROOT
HETATM    1  C   UNL     1     -13.450   9.203  72.394  1.00  0.00    -0.476 A  
HETATM    2  C   UNL     1     -12.108   8.926  72.292  1.00  0.00    -0.322 A  
HETATM    3  N   UNL     1     -12.032   7.663  71.742  1.00  0.00    -0.288 NA 
HETATM    4  C   UNL     1     -13.320   7.280  71.486  1.00  0.00    -0.369 A  
HETATM    5  N   UNL     1     -14.193   8.174  71.888  1.00  0.00    -0.432 NA 
ENDROOT
BRANCH   3   6
HETATM    6  C   UNL     1     -10.776   6.900  71.584  1.00  0.00    -0.222 C  
BRANCH   6   7
HETATM    7  C   UNL     1     -10.521   5.878  72.697  1.00  0.00    -0.237 A  
HETATM    8  C   UNL     1     -11.307   4.707  72.732  1.00  0.00    -0.128 A  
HETATM    9  C   UNL     1     -11.039   3.681  73.641  1.00  0.00    -0.317 A  
HETATM   10  C   UNL     1      -9.467   5.984  73.622  1.00  0.00    -0.141 A  
HETATM   11  C   UNL     1      -9.978   3.799  74.531  1.00  0.00    -0.199 A  
HETATM   12  C   UNL     1      -9.197   4.951  74.525  1.00  0.00    -0.120 A  
ENDBRANCH   6   7
BRANCH   6  13
HETATM   13  C   UNL     1     -10.519   6.395  70.162  1.00  0.00    -0.269 A  
HETATM   14  C   UNL     1      -9.084   5.153  68.618  1.00  0.00    -0.135 A  
HETATM   15  C   UNL     1     -11.376   6.652  69.085  1.00  0.00    -0.262 A  
HETATM   16  C   UNL     1      -9.392   5.595  69.911  1.00  0.00    -0.181 A  
HETATM   17  C   UNL     1     -11.046   6.236  67.784  1.00  0.00    -0.361 A  
HETATM   18  C   UNL     1      -9.877   5.504  67.515  1.00  0.00    -0.165 A  
BRANCH  18  19
HETATM   19  C   UNL     1      -9.464   5.165  66.131  1.00  0.00    -0.168 A  
HETATM   20  C   UNL     1      -8.499   5.916  65.434  1.00  0.00    -0.153 A  
HETATM   21  C   UNL     1      -8.177   5.638  64.100  1.00  0.00    -0.111 A  
HETATM   22  C   UNL     1      -8.805   4.591  63.434  1.00  0.00    -0.132 A  
HETATM   23  C   UNL     1      -9.749   3.820  64.103  1.00  0.00    -0.171 A  
HETATM   24  C   UNL     1     -10.074   4.106  65.432  1.00  0.00    -0.207 A  
ENDBRANCH  18  19
ENDBRANCH   6  13
ENDBRANCH   3   6
TORSDOF 4
ENDMDL
MODEL       97
REMARK 921   NORMALIZED FREE ENERGY PREDICTED BY IDOCK:   -4.24 KCAL/MOL
REMARK 922        TOTAL FREE ENERGY PREDICTED BY IDOCK:   -6.15 KCAL/MOL
REMARK 923 INTER-LIGAND FREE ENERGY PREDICTED BY IDOCK:   -5.69 KCAL/MOL
REMARK 924 INTRA-LIGAND FREE ENERGY PREDICTED BY IDOCK:   -0.46 KCAL/MOL
REMARK 927      BINDING AFFINITY PREDICTED BY RF-SCORE:    0.00 PKD
ROOT
HETATM    1  C   UNL     1     -11.350  13.648  67.411  1.00  0.00    -0.315 A  
HETATM    2  C   UNL     1     -11.545  12.343  67.029  1.00  0.00    -0.365 A  
HETATM    3  N   UNL     1     -10.471  11.644  67.540  1.00  0.00    -0.195 NA 
HETATM    4  C   UNL     1      -9.730  12.548  68.250  1.00  0.00    -0.220 A  
HETATM    5  N   UNL     1     -10.221  13.763  68.171  1.00  0.00    -0.246 NA 
ENDROOT
BRANCH   3   6
HETATM    6  C   UNL     1     -10.193  10.221  67.253  1.00  0.00    -0.218 C  
BRANCH   6   7
HETATM    7  C   UNL     1      -9.109   9.998  66.192  1.00  0.00    -0.188 A  
HETATM    8  C   UNL     1      -7.877  10.672  66.333  1.00  0.00    -0.144 A  
HETATM    9  C   UNL     1      -6.807  10.413  65.474  1.00  0.00    -0.125 A  
HETATM   10  C   UNL     1      -9.227   9.070  65.143  1.00  0.00    -0.159 A  
HETATM   11  C   UNL     1      -6.941   9.474  64.457  1.00  0.00    -0.103 A  
HETATM   12  C   UNL     1      -8.151   8.808  64.290  1.00  0.00    -0.157 A  
ENDBRANCH   6   7
BRANCH   6  13
HETATM   13  C   UNL     1     -10.081   9.336  68.496  1.00  0.00    -0.211 A  
HETATM   14  C   UNL     1     -10.336   7.123  69.510  1.00  0.00    -0.224 A  
HETATM   15  C   UNL     1      -9.661   9.808  69.746  1.00  0.00    -0.256 A  
HETATM   16  C   UNL     1     -10.371   7.965  68.390  1.00  0.00    -0.235 A  
HETATM   17  C   UNL     1      -9.660   8.969  70.872  1.00  0.00    -0.328 A  
HETATM   18  C   UNL     1     -10.028   7.615  70.787  1.00  0.00    -0.181 A  
BRANCH  18  19
HETATM   19  C   UNL     1     -10.143   6.756  71.991  1.00  0.00    -0.198 A  
HETATM   20  C   UNL     1     -10.650   5.445  71.928  1.00  0.00    -0.288 A  
HETATM   21  C   UNL     1     -10.832   4.673  73.083  1.00  0.00    -0.338 A  
HETATM   22  C   UNL     1     -10.496   5.191  74.329  1.00  0.00    -0.315 A  
HETATM   23  C   UNL     1      -9.975   6.476  74.420  1.00  0.00    -0.374 A  
HETATM   24  C   UNL     1      -9.804   7.247  73.267  1.00  0.00    -0.302 A  
ENDBRANCH  18  19
ENDBRANCH   6  13
ENDBRANCH   3   6
TORSDOF 4
ENDMDL
MODEL       98
REMARK 921   NORMALIZED FREE ENERGY PREDICTED BY IDOCK:   -4.21 KCAL/MOL
REMARK 922        TOTAL FREE ENERGY PREDICTED BY IDOCK:   -6.11 KCAL/MOL
REMARK 923 INTER-LIGAND FREE ENERGY PREDICTED BY IDOCK:   -5.40 KCAL/MOL
REMARK 924 INTRA-LIGAND FREE ENERGY PREDICTED BY IDOCK:   -0.70 KCAL/MOL
REMARK 927      BINDING AFFINITY PREDICTED BY RF-SCORE:    0.00 PKD
ROOT
HETATM    1  C   UNL     1      -6.888   5.852  71.937  1.00  0.00    -0.068 A  
HETATM    2  C   UNL     1      -6.923   7.010  71.198  1.00  0.00    -0.062 A  
HETATM    3  N   UNL     1      -8.014   6.883  70.363  1.00  0.00    -0.112 NA 
HETATM    4  C   UNL     1      -8.607   5.694  70.687  1.00  0.00    -0.130 A  
HETATM    5  N   UNL     1      -7.940   5.043  71.612  1.00  0.00    -0.110 NA 
ENDROOT
BRANCH   3   6
HETATM    6  C   UNL     1      -8.353   7.839  69.288  1.00  0.00    -0.136 C  
BRANCH   6   7
HETATM    7  C   UNL     1      -8.506   7.196  67.905  1.00  0.00    -0.121 A  
HETATM    8  C   UNL     1      -7.593   7.550  66.890  1.00  0.00    -0.102 A  
HETATM    9  C   UNL     1      -7.599   6.905  65.651  1.00  0.00    -0.089 A  
HETATM   10  C   UNL     1      -9.437   6.182  67.619  1.00  0.00    -0.111 A  
HETATM   11  C   UNL     1      -8.515   5.891  65.399  1.00  0.00    -0.153 A  
HETATM   12  C   UNL     1      -9.436   5.533  66.380  1.00  0.00    -0.167 A  
ENDBRANCH   6   7
BRANCH   6  13
HETATM   13  C   UNL     1      -9.440   8.850  69.662  1.00  0.00    -0.168 A  
HETATM   14  C   UNL     1     -10.522  11.002  69.232  1.00  0.00    -0.210 A  
HETATM   15  C   UNL     1     -10.345   8.658  70.712  1.00  0.00    -0.249 A  
HETATM   16  C   UNL     1      -9.579  10.021  68.898  1.00  0.00    -0.181 A  
HETATM   17  C   UNL     1     -11.266   9.659  71.065  1.00  0.00    -0.445 A  
HETATM   18  C   UNL     1     -11.355  10.867  70.353  1.00  0.00    -0.289 A  
BRANCH  18  19
HETATM   19  C   UNL     1     -12.240  11.973  70.793  1.00  0.00    -0.382 A  
HETATM   20  C   UNL     1     -12.240  13.228  70.155  1.00  0.00    -0.376 A  
HETATM   21  C   UNL     1     -13.019  14.291  70.630  1.00  0.00    -0.318 A  
HETATM   22  C   UNL     1     -13.830  14.118  71.747  1.00  0.00    -0.498 A  
HETATM   23  C   UNL     1     -13.865  12.884  72.385  1.00  0.00    -0.443 A  
HETATM   24  C   UNL     1     -13.079  11.828  71.914  1.00  0.00    -0.482 A  
ENDBRANCH  18  19
ENDBRANCH   6  13
ENDBRANCH   3   6
TORSDOF 4
ENDMDL
MODEL       99
REMARK 921   NORMALIZED FREE ENERGY PREDICTED BY IDOCK:   -4.19 KCAL/MOL
REMARK 922        TOTAL FREE ENERGY PREDICTED BY IDOCK:   -6.09 KCAL/MOL
REMARK 923 INTER-LIGAND FREE ENERGY PREDICTED BY IDOCK:   -5.20 KCAL/MOL
REMARK 924 INTRA-LIGAND FREE ENERGY PREDICTED BY IDOCK:   -0.90 KCAL/MOL
REMARK 927      BINDING AFFINITY PREDICTED BY RF-SCORE:    0.00 PKD
ROOT
HETATM    1  C   UNL     1      -6.156   6.022  68.911  1.00  0.00    -0.031 A  
HETATM    2  C   UNL     1      -6.786   5.635  67.752  1.00  0.00    -0.058 A  
HETATM    3  N   UNL     1      -6.723   6.730  66.915  1.00  0.00    -0.054 NA 
HETATM    4  C   UNL     1      -6.009   7.684  67.585  1.00  0.00    -0.040 A  
HETATM    5  N   UNL     1      -5.676   7.295  68.795  1.00  0.00    -0.022 NA 
ENDROOT
BRANCH   3   6
HETATM    6  C   UNL     1      -7.403   6.814  65.604  1.00  0.00    -0.079 C  
BRANCH   6   7
HETATM    7  C   UNL     1      -7.909   5.467  65.076  1.00  0.00    -0.096 A  
HETATM    8  C   UNL     1      -9.220   5.062  65.404  1.00  0.00    -0.144 A  
HETATM    9  C   UNL     1      -9.783   3.910  64.849  1.00  0.00    -0.188 A  
HETATM   10  C   UNL     1      -7.182   4.660  64.184  1.00  0.00    -0.051 A  
HETATM   11  C   UNL     1      -9.052   3.140  63.952  1.00  0.00    -0.101 A  
HETATM   12  C   UNL     1      -7.752   3.512  63.624  1.00  0.00    -0.075 A  
ENDBRANCH   6   7
BRANCH   6  13
HETATM   13  C   UNL     1      -8.390   7.977  65.479  1.00  0.00    -0.153 A  
HETATM   14  C   UNL     1      -9.239   9.856  64.162  1.00  0.00    -0.312 A  
HETATM   15  C   UNL     1      -9.332   8.300  66.462  1.00  0.00    -0.263 A  
HETATM   16  C   UNL     1      -8.394   8.748  64.304  1.00  0.00    -0.158 A  
HETATM   17  C   UNL     1     -10.154   9.432  66.331  1.00  0.00    -0.332 A  
HETATM   18  C   UNL     1     -10.105  10.255  65.192  1.00  0.00    -0.355 A  
BRANCH  18  19
HETATM   19  C   UNL     1     -10.884  11.514  65.100  1.00  0.00    -0.326 A  
HETATM   20  C   UNL     1     -11.429  12.140  66.237  1.00  0.00    -0.433 A  
HETATM   21  C   UNL     1     -12.231  13.283  66.129  1.00  0.00    -0.466 A  
HETATM   22  C   UNL     1     -12.495  13.836  64.881  1.00  0.00    -0.420 A  
HETATM   23  C   UNL     1     -11.954  13.250  63.742  1.00  0.00    -0.551 A  
HETATM   24  C   UNL     1     -11.162  12.104  63.852  1.00  0.00    -0.485 A  
ENDBRANCH  18  19
ENDBRANCH   6  13
ENDBRANCH   3   6
TORSDOF 4
ENDMDL
MODEL      100
REMARK 921   NORMALIZED FREE ENERGY PREDICTED BY IDOCK:   -4.14 KCAL/MOL
REMARK 922        TOTAL FREE ENERGY PREDICTED BY IDOCK:   -6.03 KCAL/MOL
REMARK 923 INTER-LIGAND FREE ENERGY PREDICTED BY IDOCK:   -5.29 KCAL/MOL
REMARK 924 INTRA-LIGAND FREE ENERGY PREDICTED BY IDOCK:   -0.74 KCAL/MOL
REMARK 927      BINDING AFFINITY PREDICTED BY RF-SCORE:    0.00 PKD
ROOT
HETATM    1  C   UNL     1      -7.336   8.148  73.059  1.00  0.00    -0.123 A  
HETATM    2  C   UNL     1      -8.413   7.375  72.695  1.00  0.00    -0.113 A  
HETATM    3  N   UNL     1      -8.782   7.821  71.443  1.00  0.00    -0.125 NA 
HETATM    4  C   UNL     1      -7.875   8.785  71.098  1.00  0.00    -0.134 A  
HETATM    5  N   UNL     1      -7.010   9.019  72.058  1.00  0.00    -0.312 NA 
ENDROOT
BRANCH   3   6
HETATM    6  C   UNL     1      -9.990   7.366  70.722  1.00  0.00    -0.182 C  
BRANCH   6   7
HETATM    7  C   UNL     1     -11.201   8.291  70.887  1.00  0.00    -0.292 A  
HETATM    8  C   UNL     1     -12.392   7.755  71.422  1.00  0.00    -0.346 A  
HETATM    9  C   UNL     1     -13.486   8.571  71.717  1.00  0.00    -0.400 A  
HETATM   10  C   UNL     1     -11.161   9.674  70.645  1.00  0.00    -0.385 A  
HETATM   11  C   UNL     1     -13.414   9.940  71.488  1.00  0.00    -0.393 A  
HETATM   12  C   UNL     1     -12.256  10.490  70.948  1.00  0.00    -0.490 A  
ENDBRANCH   6   7
BRANCH   6  13
HETATM   13  C   UNL     1      -9.727   6.883  69.293  1.00  0.00    -0.156 A  
HETATM   14  C   UNL     1     -10.587   6.475  67.039  1.00  0.00    -0.402 A  
HETATM   15  C   UNL     1      -8.486   6.403  68.856  1.00  0.00    -0.121 A  
HETATM   16  C   UNL     1     -10.761   6.954  68.344  1.00  0.00    -0.259 A  
HETATM   17  C   UNL     1      -8.327   5.892  67.557  1.00  0.00    -0.105 A  
HETATM   18  C   UNL     1      -9.381   5.887  66.628  1.00  0.00    -0.156 A  
BRANCH  18  19
HETATM   19  C   UNL     1      -9.253   5.242  65.299  1.00  0.00    -0.054 A  
HETATM   20  C   UNL     1      -8.266   5.630  64.373  1.00  0.00    -0.120 A  
HETATM   21  C   UNL     1      -8.207   5.072  63.089  1.00  0.00    -0.107 A  
HETATM   22  C   UNL     1      -9.126   4.100  62.707  1.00  0.00    -0.118 A  
HETATM   23  C   UNL     1     -10.099   3.684  63.607  1.00  0.00    -0.199 A  
HETATM   24  C   UNL     1     -10.162   4.249  64.884  1.00  0.00    -0.193 A  
ENDBRANCH  18  19
ENDBRANCH   6  13
ENDBRANCH   3   6
TORSDOF 4
ENDMDL
MODEL      101
REMARK 921   NORMALIZED FREE ENERGY PREDICTED BY IDOCK:   -4.07 KCAL/MOL
REMARK 922        TOTAL FREE ENERGY PREDICTED BY IDOCK:   -5.94 KCAL/MOL
REMARK 923 INTER-LIGAND FREE ENERGY PREDICTED BY IDOCK:   -5.39 KCAL/MOL
REMARK 924 INTRA-LIGAND FREE ENERGY PREDICTED BY IDOCK:   -0.55 KCAL/MOL
REMARK 927      BINDING AFFINITY PREDICTED BY RF-SCORE:    0.00 PKD
ROOT
HETATM    1  C   UNL     1      -8.937  13.818  67.136  1.00  0.00    -0.235 A  
HETATM    2  C   UNL     1      -8.773  12.465  66.961  1.00  0.00    -0.207 A  
HETATM    3  N   UNL     1      -9.797  12.074  66.124  1.00  0.00    -0.230 NA 
HETATM    4  C   UNL     1     -10.476  13.214  65.793  1.00  0.00    -0.283 A  
HETATM    5  N   UNL     1      -9.997  14.272  66.404  1.00  0.00    -0.282 NA 
ENDROOT
BRANCH   3   6
HETATM    6  C   UNL     1     -10.096  10.668  65.778  1.00  0.00    -0.266 C  
BRANCH   6   7
HETATM    7  C   UNL     1      -9.185  10.085  64.692  1.00  0.00    -0.310 A  
HETATM    8  C   UNL     1      -7.919   9.588  65.067  1.00  0.00    -0.119 A  
HETATM    9  C   UNL     1      -7.098   8.929  64.150  1.00  0.00    -0.090 A  
HETATM   10  C   UNL     1      -9.584   9.908  63.356  1.00  0.00     0.026 A  
HETATM   11  C   UNL     1      -7.524   8.747  62.839  1.00  0.00    -0.101 A  
HETATM   12  C   UNL     1      -8.763   9.240  62.442  1.00  0.00    -0.241 A  
ENDBRANCH   6   7
BRANCH   6  13
HETATM   13  C   UNL     1     -10.339   9.759  66.985  1.00  0.00    -0.305 A  
HETATM   14  C   UNL     1     -11.274   9.478  69.229  1.00  0.00    -0.032 A  
HETATM   15  C   UNL     1      -9.903   8.430  67.051  1.00  0.00    -0.296 A  
HETATM   16  C   UNL     1     -11.071  10.252  68.078  1.00  0.00    -0.336 A  
HETATM   17  C   UNL     1     -10.079   7.669  68.220  1.00  0.00    -0.214 A  
HETATM   18  C   UNL     1     -10.741   8.186  69.347  1.00  0.00    -0.164 A  
BRANCH  18  19
HETATM   19  C   UNL     1     -10.825   7.432  70.622  1.00  0.00    -0.258 A  
HETATM   20  C   UNL     1     -10.600   6.044  70.685  1.00  0.00    -0.322 A  
HETATM   21  C   UNL     1     -10.764   5.329  71.878  1.00  0.00    -0.252 A  
HETATM   22  C   UNL     1     -11.142   5.990  73.041  1.00  0.00    -0.271 A  
HETATM   23  C   UNL     1     -11.351   7.364  73.014  1.00  0.00    -0.283 A  
HETATM   24  C   UNL     1     -11.196   8.073  71.819  1.00  0.00    -0.317 A  
ENDBRANCH  18  19
ENDBRANCH   6  13
ENDBRANCH   3   6
TORSDOF 4
ENDMDL
MODEL      102
REMARK 921   NORMALIZED FREE ENERGY PREDICTED BY IDOCK:   -4.04 KCAL/MOL
REMARK 922        TOTAL FREE ENERGY PREDICTED BY IDOCK:   -5.91 KCAL/MOL
REMARK 923 INTER-LIGAND FREE ENERGY PREDICTED BY IDOCK:   -5.00 KCAL/MOL
REMARK 924 INTRA-LIGAND FREE ENERGY PREDICTED BY IDOCK:   -0.90 KCAL/MOL
REMARK 927      BINDING AFFINITY PREDICTED BY RF-SCORE:    0.00 PKD
ROOT
HETATM    1  C   UNL     1     -10.631   8.353  71.758  1.00  0.00    -0.282 A  
HETATM    2  C   UNL     1      -9.792   9.264  71.164  1.00  0.00    -0.272 A  
HETATM    3  N   UNL     1      -9.617   8.817  69.871  1.00  0.00    -0.173 NA 
HETATM    4  C   UNL     1     -10.405   7.706  69.741  1.00  0.00    -0.223 A  
HETATM    5  N   UNL     1     -11.006   7.391  70.864  1.00  0.00    -0.248 NA 
ENDROOT
BRANCH   3   6
HETATM    6  C   UNL     1      -8.671   9.416  68.905  1.00  0.00    -0.132 C  
BRANCH   6   7
HETATM    7  C   UNL     1      -8.434   8.565  67.652  1.00  0.00    -0.129 A  
HETATM    8  C   UNL     1      -9.046   8.958  66.443  1.00  0.00    -0.217 A  
HETATM    9  C   UNL     1      -8.768   8.301  65.243  1.00  0.00    -0.121 A  
HETATM   10  C   UNL     1      -7.546   7.477  67.609  1.00  0.00    -0.113 A  
HETATM   11  C   UNL     1      -7.869   7.241  65.222  1.00  0.00    -0.121 A  
HETATM   12  C   UNL     1      -7.263   6.826  66.404  1.00  0.00    -0.072 A  
ENDBRANCH   6   7
BRANCH   6  13
HETATM   13  C   UNL     1      -8.892  10.909  68.649  1.00  0.00    -0.158 A  
HETATM   14  C   UNL     1     -10.461  12.754  68.303  1.00  0.00    -0.250 A  
HETATM   15  C   UNL     1      -7.849  11.832  68.510  1.00  0.00    -0.144 A  
HETATM   16  C   UNL     1     -10.205  11.407  68.588  1.00  0.00    -0.217 A  
HETATM   17  C   UNL     1      -8.110  13.175  68.190  1.00  0.00    -0.155 A  
HETATM   18  C   UNL     1      -9.421  13.661  68.048  1.00  0.00    -0.209 A  
BRANCH  18  19
HETATM   19  C   UNL     1      -9.700  15.046  67.595  1.00  0.00    -0.215 A  
HETATM   20  C   UNL     1      -9.193  15.552  66.384  1.00  0.00    -0.339 A  
HETATM   21  C   UNL     1      -9.393  16.886  66.006  1.00  0.00    -0.214 A  
HETATM   22  C   UNL     1     -10.120  17.742  66.827  1.00  0.00    -0.349 A  
HETATM   23  C   UNL     1     -10.649  17.264  68.020  1.00  0.00    -0.394 A  
HETATM   24  C   UNL     1     -10.439  15.935  68.398  1.00  0.00    -0.254 A  
ENDBRANCH  18  19
ENDBRANCH   6  13
ENDBRANCH   3   6
TORSDOF 4
ENDMDL
MODEL      103
REMARK 921   NORMALIZED FREE ENERGY PREDICTED BY IDOCK:   -3.99 KCAL/MOL
REMARK 922        TOTAL FREE ENERGY PREDICTED BY IDOCK:   -5.84 KCAL/MOL
REMARK 923 INTER-LIGAND FREE ENERGY PREDICTED BY IDOCK:   -5.27 KCAL/MOL
REMARK 924 INTRA-LIGAND FREE ENERGY PREDICTED BY IDOCK:   -0.57 KCAL/MOL
REMARK 927      BINDING AFFINITY PREDICTED BY RF-SCORE:    0.00 PKD
ROOT
HETATM    1  C   UNL     1      -5.860  14.013  71.298  1.00  0.00    -0.208 A  
HETATM    2  C   UNL     1      -6.646  14.691  70.397  1.00  0.00    -0.055 A  
HETATM    3  N   UNL     1      -6.957  13.774  69.415  1.00  0.00    -0.051 NA 
HETATM    4  C   UNL     1      -6.400  12.589  69.808  1.00  0.00    -0.076 A  
HETATM    5  N   UNL     1      -5.716  12.708  70.922  1.00  0.00    -0.308 NA 
ENDROOT
BRANCH   3   6
HETATM    6  C   UNL     1      -7.673  14.107  68.164  1.00  0.00    -0.140 C  
BRANCH   6   7
HETATM    7  C   UNL     1      -9.192  13.921  68.245  1.00  0.00    -0.207 A  
HETATM    8  C   UNL     1      -9.916  14.676  69.192  1.00  0.00    -0.149 A  
HETATM    9  C   UNL     1     -11.311  14.647  69.228  1.00  0.00    -0.313 A  
HETATM   10  C   UNL     1      -9.925  13.124  67.350  1.00  0.00    -0.229 A  
HETATM   11  C   UNL     1     -12.016  13.868  68.318  1.00  0.00    -0.392 A  
HETATM   12  C   UNL     1     -11.323  13.103  67.383  1.00  0.00    -0.344 A  
ENDBRANCH   6   7
BRANCH   6  13
HETATM   13  C   UNL     1      -7.208  15.404  67.497  1.00  0.00    -0.224 A  
HETATM   14  C   UNL     1      -7.760  17.365  66.143  1.00  0.00    -0.311 A  
HETATM   15  C   UNL     1      -5.892  15.878  67.563  1.00  0.00    -0.152 A  
HETATM   16  C   UNL     1      -8.145  16.198  66.815  1.00  0.00    -0.305 A  
HETATM   17  C   UNL     1      -5.504  17.030  66.859  1.00  0.00    -0.204 A  
HETATM   18  C   UNL     1      -6.421  17.783  66.107  1.00  0.00    -0.295 A  
BRANCH  18  19
HETATM   19  C   UNL     1      -5.995  18.930  65.268  1.00  0.00    -0.289 A  
HETATM   20  C   UNL     1      -6.067  20.259  65.726  1.00  0.00    -0.227 A  
HETATM   21  C   UNL     1      -5.740  21.339  64.897  1.00  0.00    -0.166 A  
HETATM   22  C   UNL     1      -5.318  21.113  63.591  1.00  0.00    -0.256 A  
HETATM   23  C   UNL     1      -5.217  19.810  63.117  1.00  0.00    -0.291 A  
HETATM   24  C   UNL     1      -5.554  18.735  63.945  1.00  0.00    -0.079 A  
ENDBRANCH  18  19
ENDBRANCH   6  13
ENDBRANCH   3   6
TORSDOF 4
ENDMDL
MODEL      104
REMARK 921   NORMALIZED FREE ENERGY PREDICTED BY IDOCK:   -3.98 KCAL/MOL
REMARK 922        TOTAL FREE ENERGY PREDICTED BY IDOCK:   -5.82 KCAL/MOL
REMARK 923 INTER-LIGAND FREE ENERGY PREDICTED BY IDOCK:   -4.92 KCAL/MOL
REMARK 924 INTRA-LIGAND FREE ENERGY PREDICTED BY IDOCK:   -0.91 KCAL/MOL
REMARK 927      BINDING AFFINITY PREDICTED BY RF-SCORE:    0.00 PKD
ROOT
HETATM    1  C   UNL     1      -5.939   4.221  69.196  1.00  0.00    -0.023 A  
HETATM    2  C   UNL     1      -7.249   4.516  68.903  1.00  0.00    -0.052 A  
HETATM    3  N   UNL     1      -7.534   5.668  69.606  1.00  0.00    -0.073 NA 
HETATM    4  C   UNL     1      -6.371   6.036  70.226  1.00  0.00    -0.032 A  
HETATM    5  N   UNL     1      -5.403   5.173  70.017  1.00  0.00    -0.004 NA 
ENDROOT
BRANCH   3   6
HETATM    6  C   UNL     1      -8.880   6.273  69.700  1.00  0.00    -0.136 C  
BRANCH   6   7
HETATM    7  C   UNL     1      -9.399   6.421  71.135  1.00  0.00    -0.166 A  
HETATM    8  C   UNL     1      -9.052   7.578  71.863  1.00  0.00    -0.153 A  
HETATM    9  C   UNL     1      -9.596   7.833  73.123  1.00  0.00    -0.337 A  
HETATM   10  C   UNL     1     -10.300   5.522  71.731  1.00  0.00    -0.272 A  
HETATM   11  C   UNL     1     -10.502   6.940  73.683  1.00  0.00    -0.400 A  
HETATM   12  C   UNL     1     -10.850   5.784  72.991  1.00  0.00    -0.306 A  
ENDBRANCH   6   7
BRANCH   6  13
HETATM   13  C   UNL     1      -9.088   7.493  68.801  1.00  0.00    -0.135 A  
HETATM   14  C   UNL     1     -10.618   8.874  67.481  1.00  0.00    -0.307 A  
HETATM   15  C   UNL     1      -8.056   8.362  68.427  1.00  0.00    -0.123 A  
HETATM   16  C   UNL     1     -10.383   7.799  68.349  1.00  0.00    -0.231 A  
HETATM   17  C   UNL     1      -8.290   9.417  67.529  1.00  0.00    -0.122 A  
HETATM   18  C   UNL     1      -9.569   9.679  67.010  1.00  0.00    -0.221 A  
BRANCH  18  19
HETATM   19  C   UNL     1      -9.800  10.714  65.973  1.00  0.00    -0.280 A  
HETATM   20  C   UNL     1      -9.848  10.401  64.602  1.00  0.00    -0.405 A  
HETATM   21  C   UNL     1      -9.982  11.397  63.627  1.00  0.00    -0.402 A  
HETATM   22  C   UNL     1     -10.087  12.732  64.003  1.00  0.00    -0.226 A  
HETATM   23  C   UNL     1     -10.063  13.069  65.351  1.00  0.00    -0.265 A  
HETATM   24  C   UNL     1      -9.918  12.073  66.321  1.00  0.00    -0.249 A  
ENDBRANCH  18  19
ENDBRANCH   6  13
ENDBRANCH   3   6
TORSDOF 4
ENDMDL
MODEL      105
REMARK 921   NORMALIZED FREE ENERGY PREDICTED BY IDOCK:   -3.77 KCAL/MOL
REMARK 922        TOTAL FREE ENERGY PREDICTED BY IDOCK:   -5.57 KCAL/MOL
REMARK 923 INTER-LIGAND FREE ENERGY PREDICTED BY IDOCK:   -5.64 KCAL/MOL
REMARK 924 INTRA-LIGAND FREE ENERGY PREDICTED BY IDOCK:    0.07 KCAL/MOL
REMARK 927      BINDING AFFINITY PREDICTED BY RF-SCORE:    0.00 PKD
ROOT
HETATM    1  C   UNL     1     -12.088  12.549  63.295  1.00  0.00    -0.430 A  
HETATM    2  C   UNL     1     -11.653  12.067  64.507  1.00  0.00    -0.317 A  
HETATM    3  N   UNL     1     -11.666  13.150  65.361  1.00  0.00    -0.334 NA 
HETATM    4  C   UNL     1     -12.164  14.200  64.641  1.00  0.00    -0.445 A  
HETATM    5  N   UNL     1     -12.404  13.875  63.391  1.00  0.00    -0.752 NA 
ENDROOT
BRANCH   3   6
HETATM    6  C   UNL     1     -11.137  13.125  66.742  1.00  0.00    -0.289 C  
BRANCH   6   7
HETATM    7  C   UNL     1     -10.632  11.750  67.193  1.00  0.00    -0.267 A  
HETATM    8  C   UNL     1     -11.083  11.235  68.426  1.00  0.00    -0.296 A  
HETATM    9  C   UNL     1     -10.762   9.938  68.832  1.00  0.00    -0.244 A  
HETATM   10  C   UNL     1      -9.833  10.916  66.392  1.00  0.00    -0.249 A  
HETATM   11  C   UNL     1      -9.988   9.124  68.013  1.00  0.00    -0.213 A  
HETATM   12  C   UNL     1      -9.520   9.614  66.798  1.00  0.00    -0.209 A  
ENDBRANCH   6   7
BRANCH   6  13
HETATM   13  C   UNL     1     -10.224  14.303  67.089  1.00  0.00    -0.254 A  
HETATM   14  C   UNL     1      -8.048  15.089  67.885  1.00  0.00    -0.142 A  
HETATM   15  C   UNL     1     -10.615  15.642  66.977  1.00  0.00    -0.311 A  
HETATM   16  C   UNL     1      -8.906  14.049  67.505  1.00  0.00    -0.199 A  
HETATM   17  C   UNL     1      -9.763  16.680  67.391  1.00  0.00    -0.251 A  
HETATM   18  C   UNL     1      -8.472  16.426  67.885  1.00  0.00    -0.171 A  
BRANCH  18  19
HETATM   19  C   UNL     1      -7.615  17.506  68.434  1.00  0.00    -0.254 A  
HETATM   20  C   UNL     1      -6.283  17.687  68.018  1.00  0.00    -0.158 A  
HETATM   21  C   UNL     1      -5.458  18.656  68.602  1.00  0.00    -0.193 A  
HETATM   22  C   UNL     1      -5.953  19.479  69.609  1.00  0.00    -0.303 A  
HETATM   23  C   UNL     1      -7.271  19.336  70.026  1.00  0.00     0.313 A  
HETATM   24  C   UNL     1      -8.088  18.361  69.447  1.00  0.00     0.329 A  
ENDBRANCH  18  19
ENDBRANCH   6  13
ENDBRANCH   3   6
TORSDOF 4
ENDMDL
MODEL      106
REMARK 921   NORMALIZED FREE ENERGY PREDICTED BY IDOCK:   -3.76 KCAL/MOL
REMARK 922        TOTAL FREE ENERGY PREDICTED BY IDOCK:   -5.56 KCAL/MOL
REMARK 923 INTER-LIGAND FREE ENERGY PREDICTED BY IDOCK:   -4.88 KCAL/MOL
REMARK 924 INTRA-LIGAND FREE ENERGY PREDICTED BY IDOCK:   -0.68 KCAL/MOL
REMARK 927      BINDING AFFINITY PREDICTED BY RF-SCORE:    0.00 PKD
ROOT
HETATM    1  C   UNL     1     -12.697  13.111  70.240  1.00  0.00     0.058 A  
HETATM    2  C   UNL     1     -12.129  12.299  69.288  1.00  0.00    -0.166 A  
HETATM    3  N   UNL     1     -11.964  11.073  69.900  1.00  0.00    -0.321 NA 
HETATM    4  C   UNL     1     -12.496  11.197  71.154  1.00  0.00    -0.393 A  
HETATM    5  N   UNL     1     -12.922  12.416  71.394  1.00  0.00    -0.321 NA 
ENDROOT
BRANCH   3   6
HETATM    6  C   UNL     1     -11.253   9.929  69.289  1.00  0.00    -0.130 C  
BRANCH   6   7
HETATM    7  C   UNL     1     -10.091  10.332  68.375  1.00  0.00    -0.178 A  
HETATM    8  C   UNL     1     -10.211  10.102  66.988  1.00  0.00    -0.290 A  
HETATM    9  C   UNL     1      -9.245  10.562  66.091  1.00  0.00    -0.197 A  
HETATM   10  C   UNL     1      -8.954  11.025  68.824  1.00  0.00    -0.153 A  
HETATM   11  C   UNL     1      -8.140  11.264  66.557  1.00  0.00    -0.160 A  
HETATM   12  C   UNL     1      -7.992  11.491  67.922  1.00  0.00    -0.126 A  
ENDBRANCH   6   7
BRANCH   6  13
HETATM   13  C   UNL     1     -10.957   8.782  70.258  1.00  0.00    -0.255 A  
HETATM   14  C   UNL     1      -9.606   7.906  72.101  1.00  0.00    -0.255 A  
HETATM   15  C   UNL     1     -11.664   7.573  70.264  1.00  0.00    -0.047 A  
HETATM   16  C   UNL     1      -9.953   8.945  71.227  1.00  0.00    -0.358 A  
HETATM   17  C   UNL     1     -11.291   6.522  71.118  1.00  0.00    -0.367 A  
HETATM   18  C   UNL     1     -10.234   6.653  72.035  1.00  0.00    -0.206 A  
BRANCH  18  19
HETATM   19  C   UNL     1      -9.760   5.510  72.854  1.00  0.00    -0.170 A  
HETATM   20  C   UNL     1     -10.614   4.812  73.727  1.00  0.00    -0.330 A  
HETATM   21  C   UNL     1     -10.137   3.789  74.557  1.00  0.00    -0.224 A  
HETATM   22  C   UNL     1      -8.794   3.431  74.521  1.00  0.00    -0.094 A  
HETATM   23  C   UNL     1      -7.930   4.090  73.654  1.00  0.00    -0.088 A  
HETATM   24  C   UNL     1      -8.408   5.116  72.834  1.00  0.00    -0.109 A  
ENDBRANCH  18  19
ENDBRANCH   6  13
ENDBRANCH   3   6
TORSDOF 4
ENDMDL
MODEL      107
REMARK 921   NORMALIZED FREE ENERGY PREDICTED BY IDOCK:   -3.68 KCAL/MOL
REMARK 922        TOTAL FREE ENERGY PREDICTED BY IDOCK:   -5.45 KCAL/MOL
REMARK 923 INTER-LIGAND FREE ENERGY PREDICTED BY IDOCK:   -4.61 KCAL/MOL
REMARK 924 INTRA-LIGAND FREE ENERGY PREDICTED BY IDOCK:   -0.84 KCAL/MOL
REMARK 927      BINDING AFFINITY PREDICTED BY RF-SCORE:    0.00 PKD
ROOT
HETATM    1  C   UNL     1     -13.728   8.912  72.322  1.00  0.00    -0.471 A  
HETATM    2  C   UNL     1     -12.362   9.038  72.398  1.00  0.00    -0.280 A  
HETATM    3  N   UNL     1     -11.852   7.890  71.827  1.00  0.00    -0.280 NA 
HETATM    4  C   UNL     1     -12.929   7.173  71.385  1.00  0.00    -0.368 A  
HETATM    5  N   UNL     1     -14.069   7.750  71.688  1.00  0.00    -0.418 NA 
ENDROOT
BRANCH   3   6
HETATM    6  C   UNL     1     -10.418   7.532  71.821  1.00  0.00    -0.193 C  
BRANCH   6   7
HETATM    7  C   UNL     1     -10.141   6.058  72.140  1.00  0.00    -0.208 A  
HETATM    8  C   UNL     1     -10.261   5.109  71.103  1.00  0.00    -0.291 A  
HETATM    9  C   UNL     1      -9.898   3.774  71.297  1.00  0.00    -0.219 A  
HETATM   10  C   UNL     1      -9.660   5.609  73.382  1.00  0.00    -0.145 A  
HETATM   11  C   UNL     1      -9.405   3.358  72.528  1.00  0.00    -0.157 A  
HETATM   12  C   UNL     1      -9.290   4.273  73.570  1.00  0.00    -0.112 A  
ENDBRANCH   6   7
BRANCH   6  13
HETATM   13  C   UNL     1      -9.629   8.105  70.641  1.00  0.00    -0.179 A  
HETATM   14  C   UNL     1      -9.653   9.224  68.466  1.00  0.00    -0.155 A  
HETATM   15  C   UNL     1      -8.232   8.079  70.561  1.00  0.00    -0.118 A  
HETATM   16  C   UNL     1     -10.323   8.731  69.593  1.00  0.00    -0.213 A  
HETATM   17  C   UNL     1      -7.566   8.542  69.414  1.00  0.00    -0.090 A  
HETATM   18  C   UNL     1      -8.262   9.097  68.326  1.00  0.00    -0.116 A  
BRANCH  18  19
HETATM   19  C   UNL     1      -7.576   9.478  67.067  1.00  0.00    -0.091 A  
HETATM   20  C   UNL     1      -7.733   8.740  65.878  1.00  0.00    -0.094 A  
HETATM   21  C   UNL     1      -7.016   9.060  64.718  1.00  0.00    -0.084 A  
HETATM   22  C   UNL     1      -6.136  10.137  64.716  1.00  0.00    -0.127 A  
HETATM   23  C   UNL     1      -5.976  10.895  65.870  1.00  0.00    -0.116 A  
HETATM   24  C   UNL     1      -6.685  10.567  67.029  1.00  0.00    -0.082 A  
ENDBRANCH  18  19
ENDBRANCH   6  13
ENDBRANCH   3   6
TORSDOF 4
ENDMDL
MODEL      108
REMARK 921   NORMALIZED FREE ENERGY PREDICTED BY IDOCK:   -3.57 KCAL/MOL
REMARK 922        TOTAL FREE ENERGY PREDICTED BY IDOCK:   -5.33 KCAL/MOL
REMARK 923 INTER-LIGAND FREE ENERGY PREDICTED BY IDOCK:   -4.30 KCAL/MOL
REMARK 924 INTRA-LIGAND FREE ENERGY PREDICTED BY IDOCK:   -1.03 KCAL/MOL
REMARK 927      BINDING AFFINITY PREDICTED BY RF-SCORE:    0.00 PKD
ROOT
HETATM    1  C   UNL     1      -7.259   8.293  72.722  1.00  0.00    -0.102 A  
HETATM    2  C   UNL     1      -7.169   6.950  72.448  1.00  0.00    -0.078 A  
HETATM    3  N   UNL     1      -8.102   6.710  71.461  1.00  0.00    -0.110 NA 
HETATM    4  C   UNL     1      -8.652   7.924  71.152  1.00  0.00    -0.128 A  
HETATM    5  N   UNL     1      -8.182   8.888  71.909  1.00  0.00    -0.367 NA 
ENDROOT
BRANCH   3   6
HETATM    6  C   UNL     1      -8.452   5.365  70.957  1.00  0.00    -0.124 C  
BRANCH   6   7
HETATM    7  C   UNL     1      -9.521   4.645  71.787  1.00  0.00    -0.205 A  
HETATM    8  C   UNL     1      -9.418   3.248  71.955  1.00  0.00    -0.202 A  
HETATM    9  C   UNL     1     -10.283   2.554  72.804  1.00  0.00    -0.234 A  
HETATM   10  C   UNL     1     -10.537   5.313  72.492  1.00  0.00    -0.276 A  
HETATM   11  C   UNL     1     -11.267   3.240  73.506  1.00  0.00    -0.280 A  
HETATM   12  C   UNL     1     -11.397   4.616  73.347  1.00  0.00    -0.394 A  
ENDBRANCH   6   7
BRANCH   6  13
HETATM   13  C   UNL     1      -8.643   5.289  69.440  1.00  0.00    -0.102 A  
HETATM   14  C   UNL     1     -10.132   4.870  67.545  1.00  0.00    -0.184 A  
HETATM   15  C   UNL     1      -7.616   5.533  68.519  1.00  0.00    -0.084 A  
HETATM   16  C   UNL     1      -9.917   5.003  68.923  1.00  0.00    -0.236 A  
HETATM   17  C   UNL     1      -7.828   5.365  67.141  1.00  0.00    -0.101 A  
HETATM   18  C   UNL     1      -9.082   4.999  66.623  1.00  0.00    -0.119 A  
BRANCH  18  19
HETATM   19  C   UNL     1      -9.281   4.705  65.183  1.00  0.00    -0.156 A  
HETATM   20  C   UNL     1     -10.430   4.045  64.707  1.00  0.00    -0.194 A  
HETATM   21  C   UNL     1     -10.569   3.699  63.357  1.00  0.00    -0.256 A  
HETATM   22  C   UNL     1      -9.567   4.019  62.447  1.00  0.00    -0.119 A  
HETATM   23  C   UNL     1      -8.430   4.687  62.885  1.00  0.00    -0.110 A  
HETATM   24  C   UNL     1      -8.290   5.023  64.235  1.00  0.00    -0.136 A  
ENDBRANCH  18  19
ENDBRANCH   6  13
ENDBRANCH   3   6
TORSDOF 4
ENDMDL
MODEL      109
REMARK 921   NORMALIZED FREE ENERGY PREDICTED BY IDOCK:   -3.54 KCAL/MOL
REMARK 922        TOTAL FREE ENERGY PREDICTED BY IDOCK:   -5.29 KCAL/MOL
REMARK 923 INTER-LIGAND FREE ENERGY PREDICTED BY IDOCK:   -5.29 KCAL/MOL
REMARK 924 INTRA-LIGAND FREE ENERGY PREDICTED BY IDOCK:    0.00 KCAL/MOL
REMARK 927      BINDING AFFINITY PREDICTED BY RF-SCORE:    0.00 PKD
ROOT
HETATM    1  C   UNL     1      -9.859  14.900  68.014  1.00  0.00    -0.216 A  
HETATM    2  C   UNL     1      -9.469  13.620  67.701  1.00  0.00    -0.221 A  
HETATM    3  N   UNL     1     -10.620  12.970  67.307  1.00  0.00    -0.241 NA 
HETATM    4  C   UNL     1     -11.619  13.904  67.343  1.00  0.00    -0.368 A  
HETATM    5  N   UNL     1     -11.195  15.065  67.786  1.00  0.00    -0.311 NA 
ENDROOT
BRANCH   3   6
HETATM    6  C   UNL     1     -10.698  11.522  67.014  1.00  0.00    -0.259 C  
BRANCH   6   7
HETATM    7  C   UNL     1     -10.150  11.134  65.636  1.00  0.00    -0.304 A  
HETATM    8  C   UNL     1      -8.997  10.323  65.572  1.00  0.00    -0.200 A  
HETATM    9  C   UNL     1      -8.525   9.829  64.354  1.00  0.00    -0.185 A  
HETATM   10  C   UNL     1     -10.797  11.442  64.428  1.00  0.00    -0.397 A  
HETATM   11  C   UNL     1      -9.194  10.131  63.174  1.00  0.00    -0.316 A  
HETATM   12  C   UNL     1     -10.326  10.940  63.210  1.00  0.00    -0.242 A  
ENDBRANCH   6   7
BRANCH   6  13
HETATM   13  C   UNL     1     -10.260  10.620  68.170  1.00  0.00    -0.192 A  
HETATM   14  C   UNL     1     -10.340  10.111  70.562  1.00  0.00    -0.108 A  
HETATM   15  C   UNL     1      -9.418   9.513  68.010  1.00  0.00    -0.147 A  
HETATM   16  C   UNL     1     -10.752  10.874  69.462  1.00  0.00    -0.251 A  
HETATM   17  C   UNL     1      -8.981   8.772  69.120  1.00  0.00    -0.137 A  
HETATM   18  C   UNL     1      -9.406   9.072  70.425  1.00  0.00    -0.244 A  
BRANCH  18  19
HETATM   19  C   UNL     1      -8.856   8.371  71.611  1.00  0.00    -0.246 A  
HETATM   20  C   UNL     1      -9.640   7.506  72.398  1.00  0.00    -0.205 A  
HETATM   21  C   UNL     1      -9.134   6.914  73.562  1.00  0.00    -0.172 A  
HETATM   22  C   UNL     1      -7.824   7.162  73.959  1.00  0.00    -0.132 A  
HETATM   23  C   UNL     1      -7.020   7.996  73.191  1.00  0.00    -0.117 A  
HETATM   24  C   UNL     1      -7.531   8.593  72.035  1.00  0.00    -0.078 A  
ENDBRANCH  18  19
ENDBRANCH   6  13
ENDBRANCH   3   6
TORSDOF 4
ENDMDL
MODEL      110
REMARK 921   NORMALIZED FREE ENERGY PREDICTED BY IDOCK:   -3.52 KCAL/MOL
REMARK 922        TOTAL FREE ENERGY PREDICTED BY IDOCK:   -5.25 KCAL/MOL
REMARK 923 INTER-LIGAND FREE ENERGY PREDICTED BY IDOCK:   -4.28 KCAL/MOL
REMARK 924 INTRA-LIGAND FREE ENERGY PREDICTED BY IDOCK:   -0.97 KCAL/MOL
REMARK 927      BINDING AFFINITY PREDICTED BY RF-SCORE:    0.00 PKD
ROOT
HETATM    1  C   UNL     1      -5.939   8.262  63.376  1.00  0.00    -0.072 A  
HETATM    2  C   UNL     1      -6.432   7.903  64.608  1.00  0.00    -0.048 A  
HETATM    3  N   UNL     1      -7.803   8.013  64.503  1.00  0.00    -0.132 NA 
HETATM    4  C   UNL     1      -8.061   8.366  63.206  1.00  0.00    -0.151 A  
HETATM    5  N   UNL     1      -6.960   8.546  62.514  1.00  0.00    -0.094 NA 
ENDROOT
BRANCH   3   6
HETATM    6  C   UNL     1      -8.739   7.858  65.637  1.00  0.00    -0.116 C  
BRANCH   6   7
HETATM    7  C   UNL     1      -8.319   6.789  66.652  1.00  0.00    -0.118 A  
HETATM    8  C   UNL     1      -7.545   7.181  67.765  1.00  0.00    -0.111 A  
HETATM    9  C   UNL     1      -7.241   6.282  68.789  1.00  0.00    -0.084 A  
HETATM   10  C   UNL     1      -8.758   5.455  66.602  1.00  0.00    -0.115 A  
HETATM   11  C   UNL     1      -7.704   4.973  68.727  1.00  0.00    -0.078 A  
HETATM   12  C   UNL     1      -8.457   4.559  67.633  1.00  0.00    -0.103 A  
ENDBRANCH   6   7
BRANCH   6  13
HETATM   13  C   UNL     1      -9.221   9.180  66.241  1.00  0.00    -0.246 A  
HETATM   14  C   UNL     1     -10.990  10.428  67.381  1.00  0.00    -0.335 A  
HETATM   15  C   UNL     1      -8.453  10.350  66.251  1.00  0.00    -0.145 A  
HETATM   16  C   UNL     1     -10.481   9.230  66.861  1.00  0.00    -0.284 A  
HETATM   17  C   UNL     1      -8.981  11.556  66.742  1.00  0.00    -0.181 A  
HETATM   18  C   UNL     1     -10.273  11.630  67.290  1.00  0.00    -0.226 A  
BRANCH  18  19
HETATM   19  C   UNL     1     -10.879  12.921  67.700  1.00  0.00    -0.252 A  
HETATM   20  C   UNL     1     -11.189  13.930  66.769  1.00  0.00    -0.328 A  
HETATM   21  C   UNL     1     -11.683  15.176  67.177  1.00  0.00    -0.141 A  
HETATM   22  C   UNL     1     -11.892  15.436  68.527  1.00  0.00    -0.293 A  
HETATM   23  C   UNL     1     -11.614  14.451  69.467  1.00  0.00    -0.352 A  
HETATM   24  C   UNL     1     -11.112  13.213  69.058  1.00  0.00    -0.282 A  
ENDBRANCH  18  19
ENDBRANCH   6  13
ENDBRANCH   3   6
TORSDOF 4
ENDMDL
MODEL      111
REMARK 921   NORMALIZED FREE ENERGY PREDICTED BY IDOCK:   -3.49 KCAL/MOL
REMARK 922        TOTAL FREE ENERGY PREDICTED BY IDOCK:   -5.22 KCAL/MOL
REMARK 923 INTER-LIGAND FREE ENERGY PREDICTED BY IDOCK:   -4.22 KCAL/MOL
REMARK 924 INTRA-LIGAND FREE ENERGY PREDICTED BY IDOCK:   -1.00 KCAL/MOL
REMARK 927      BINDING AFFINITY PREDICTED BY RF-SCORE:    0.00 PKD
ROOT
HETATM    1  C   UNL     1      -6.594   9.496  70.535  1.00  0.00    -0.094 A  
HETATM    2  C   UNL     1      -6.079  10.460  69.702  1.00  0.00    -0.052 A  
HETATM    3  N   UNL     1      -7.151  10.923  68.967  1.00  0.00    -0.085 NA 
HETATM    4  C   UNL     1      -8.252  10.264  69.440  1.00  0.00    -0.165 A  
HETATM    5  N   UNL     1      -7.944   9.385  70.365  1.00  0.00    -0.158 NA 
ENDROOT
BRANCH   3   6
HETATM    6  C   UNL     1      -7.037  11.874  67.840  1.00  0.00    -0.093 C  
BRANCH   6   7
HETATM    7  C   UNL     1      -8.145  11.733  66.790  1.00  0.00    -0.133 A  
HETATM    8  C   UNL     1      -8.123  10.614  65.931  1.00  0.00    -0.159 A  
HETATM    9  C   UNL     1      -9.170  10.362  65.043  1.00  0.00    -0.256 A  
HETATM   10  C   UNL     1      -9.251  12.596  66.708  1.00  0.00    -0.225 A  
HETATM   11  C   UNL     1     -10.264  11.218  64.995  1.00  0.00    -0.339 A  
HETATM   12  C   UNL     1     -10.302  12.336  65.822  1.00  0.00    -0.287 A  
ENDBRANCH   6   7
BRANCH   6  13
HETATM   13  C   UNL     1      -6.710  13.310  68.257  1.00  0.00    -0.103 A  
HETATM   14  C   UNL     1      -7.116  15.183  69.778  1.00  0.00    -0.169 A  
HETATM   15  C   UNL     1      -5.775  14.113  67.593  1.00  0.00     0.012 A  
HETATM   16  C   UNL     1      -7.340  13.856  69.388  1.00  0.00     0.127 A  
HETATM   17  C   UNL     1      -5.578  15.453  67.967  1.00  0.00    -0.144 A  
HETATM   18  C   UNL     1      -6.267  16.029  69.048  1.00  0.00    -0.136 A  
BRANCH  18  19
HETATM   19  C   UNL     1      -6.153  17.472  69.373  1.00  0.00    -0.245 A  
HETATM   20  C   UNL     1      -5.432  17.931  70.492  1.00  0.00    -0.245 A  
HETATM   21  C   UNL     1      -5.400  19.288  70.836  1.00  0.00    -0.253 A  
HETATM   22  C   UNL     1      -6.077  20.221  70.057  1.00  0.00    -0.381 A  
HETATM   23  C   UNL     1      -6.781  19.799  68.936  1.00  0.00    -0.362 A  
HETATM   24  C   UNL     1      -6.818  18.443  68.601  1.00  0.00    -0.275 A  
ENDBRANCH  18  19
ENDBRANCH   6  13
ENDBRANCH   3   6
TORSDOF 4
ENDMDL
MODEL      112
REMARK 921   NORMALIZED FREE ENERGY PREDICTED BY IDOCK:   -3.47 KCAL/MOL
REMARK 922        TOTAL FREE ENERGY PREDICTED BY IDOCK:   -5.20 KCAL/MOL
REMARK 923 INTER-LIGAND FREE ENERGY PREDICTED BY IDOCK:   -4.21 KCAL/MOL
REMARK 924 INTRA-LIGAND FREE ENERGY PREDICTED BY IDOCK:   -1.00 KCAL/MOL
REMARK 927      BINDING AFFINITY PREDICTED BY RF-SCORE:    0.00 PKD
ROOT
HETATM    1  C   UNL     1      -5.873   8.322  63.483  1.00  0.00    -0.071 A  
HETATM    2  C   UNL     1      -6.205   7.391  64.438  1.00  0.00    -0.041 A  
HETATM    3  N   UNL     1      -7.569   7.218  64.327  1.00  0.00    -0.108 NA 
HETATM    4  C   UNL     1      -7.969   7.999  63.278  1.00  0.00    -0.143 A  
HETATM    5  N   UNL     1      -6.976   8.691  62.768  1.00  0.00    -0.091 NA 
ENDROOT
BRANCH   3   6
HETATM    6  C   UNL     1      -8.382   6.407  65.258  1.00  0.00    -0.131 C  
BRANCH   6   7
HETATM    7  C   UNL     1      -7.729   5.082  65.666  1.00  0.00    -0.087 A  
HETATM    8  C   UNL     1      -7.822   3.984  64.786  1.00  0.00    -0.085 A  
HETATM    9  C   UNL     1      -7.141   2.791  65.040  1.00  0.00    -0.054 A  
HETATM   10  C   UNL     1      -6.940   4.928  66.819  1.00  0.00    -0.067 A  
HETATM   11  C   UNL     1      -6.349   2.670  66.176  1.00  0.00    -0.025 A  
HETATM   12  C   UNL     1      -6.253   3.735  67.066  1.00  0.00    -0.035 A  
ENDBRANCH   6   7
BRANCH   6  13
HETATM   13  C   UNL     1      -9.014   7.204  66.402  1.00  0.00    -0.178 A  
HETATM   14  C   UNL     1     -10.891   7.509  67.942  1.00  0.00    -0.128 A  
HETATM   15  C   UNL     1      -8.411   8.322  66.990  1.00  0.00    -0.122 A  
HETATM   16  C   UNL     1     -10.246   6.783  66.932  1.00  0.00    -0.300 A  
HETATM   17  C   UNL     1      -9.077   9.066  67.979  1.00  0.00    -0.140 A  
HETATM   18  C   UNL     1     -10.346   8.695  68.455  1.00  0.00    -0.228 A  
BRANCH  18  19
HETATM   19  C   UNL     1     -11.104   9.541  69.410  1.00  0.00    -0.136 A  
HETATM   20  C   UNL     1     -11.371  10.899  69.156  1.00  0.00    -0.350 A  
HETATM   21  C   UNL     1     -12.014  11.708  70.101  1.00  0.00    -0.441 A  
HETATM   22  C   UNL     1     -12.419  11.172  71.319  1.00  0.00    -0.466 A  
HETATM   23  C   UNL     1     -12.186   9.829  71.590  1.00  0.00    -0.488 A  
HETATM   24  C   UNL     1     -11.535   9.027  70.648  1.00  0.00    -0.291 A  
ENDBRANCH  18  19
ENDBRANCH   6  13
ENDBRANCH   3   6
TORSDOF 4
ENDMDL
MODEL      113
REMARK 921   NORMALIZED FREE ENERGY PREDICTED BY IDOCK:   -3.43 KCAL/MOL
REMARK 922        TOTAL FREE ENERGY PREDICTED BY IDOCK:   -5.14 KCAL/MOL
REMARK 923 INTER-LIGAND FREE ENERGY PREDICTED BY IDOCK:   -4.54 KCAL/MOL
REMARK 924 INTRA-LIGAND FREE ENERGY PREDICTED BY IDOCK:   -0.60 KCAL/MOL
REMARK 927      BINDING AFFINITY PREDICTED BY RF-SCORE:    0.00 PKD
ROOT
HETATM    1  C   UNL     1      -5.622  11.417  70.734  1.00  0.00    -0.111 A  
HETATM    2  C   UNL     1      -6.071  12.463  69.965  1.00  0.00    -0.123 A  
HETATM    3  N   UNL     1      -6.862  11.892  68.990  1.00  0.00    -0.100 NA 
HETATM    4  C   UNL     1      -6.897  10.552  69.262  1.00  0.00    -0.079 A  
HETATM    5  N   UNL     1      -6.142  10.235  70.289  1.00  0.00    -0.084 NA 
ENDROOT
BRANCH   3   6
HETATM    6  C   UNL     1      -7.444  12.634  67.851  1.00  0.00    -0.124 C  
BRANCH   6   7
HETATM    7  C   UNL     1      -8.889  12.245  67.524  1.00  0.00    -0.182 A  
HETATM    8  C   UNL     1      -9.827  12.182  68.576  1.00  0.00    -0.167 A  
HETATM    9  C   UNL     1     -11.183  11.959  68.327  1.00  0.00    -0.317 A  
HETATM   10  C   UNL     1      -9.366  12.058  66.215  1.00  0.00    -0.228 A  
HETATM   11  C   UNL     1     -11.634  11.799  67.022  1.00  0.00    -0.321 A  
HETATM   12  C   UNL     1     -10.726  11.843  65.968  1.00  0.00    -0.326 A  
ENDBRANCH   6   7
BRANCH   6  13
HETATM   13  C   UNL     1      -7.160  14.139  67.868  1.00  0.00    -0.168 A  
HETATM   14  C   UNL     1      -8.011  16.417  68.134  1.00  0.00    -0.160 A  
HETATM   15  C   UNL     1      -5.891  14.688  67.647  1.00  0.00    -0.024 A  
HETATM   16  C   UNL     1      -8.206  15.030  68.159  1.00  0.00    -0.140 A  
HETATM   17  C   UNL     1      -5.707  16.079  67.589  1.00  0.00    -0.169 A  
HETATM   18  C   UNL     1      -6.768  16.977  67.800  1.00  0.00    -0.163 A  
BRANCH  18  19
HETATM   19  C   UNL     1      -6.605  18.440  67.623  1.00  0.00    -0.197 A  
HETATM   20  C   UNL     1      -5.347  19.030  67.395  1.00  0.00    -0.159 A  
HETATM   21  C   UNL     1      -5.194  20.420  67.313  1.00  0.00    -0.184 A  
HETATM   22  C   UNL     1      -6.300  21.253  67.441  1.00  0.00    -0.426 A  
HETATM   23  C   UNL     1      -7.557  20.698  67.647  1.00  0.00    -0.282 A  
HETATM   24  C   UNL     1      -7.705  19.311  67.738  1.00  0.00    -0.307 A  
ENDBRANCH  18  19
ENDBRANCH   6  13
ENDBRANCH   3   6
TORSDOF 4
ENDMDL
MODEL      114
REMARK 921   NORMALIZED FREE ENERGY PREDICTED BY IDOCK:   -3.42 KCAL/MOL
REMARK 922        TOTAL FREE ENERGY PREDICTED BY IDOCK:   -5.14 KCAL/MOL
REMARK 923 INTER-LIGAND FREE ENERGY PREDICTED BY IDOCK:   -4.23 KCAL/MOL
REMARK 924 INTRA-LIGAND FREE ENERGY PREDICTED BY IDOCK:   -0.91 KCAL/MOL
REMARK 927      BINDING AFFINITY PREDICTED BY RF-SCORE:    0.00 PKD
ROOT
HETATM    1  C   UNL     1     -11.003   5.938  71.939  1.00  0.00    -0.266 A  
HETATM    2  C   UNL     1     -10.159   6.311  70.921  1.00  0.00    -0.189 A  
HETATM    3  N   UNL     1     -10.715   7.451  70.379  1.00  0.00    -0.232 NA 
HETATM    4  C   UNL     1     -11.819   7.735  71.136  1.00  0.00    -0.291 A  
HETATM    5  N   UNL     1     -12.029   6.831  72.065  1.00  0.00    -0.319 NA 
ENDROOT
BRANCH   3   6
HETATM    6  C   UNL     1     -10.215   8.121  69.159  1.00  0.00    -0.214 C  
BRANCH   6   7
HETATM    7  C   UNL     1      -9.149   9.190  69.426  1.00  0.00    -0.148 A  
HETATM    8  C   UNL     1      -8.145   8.919  70.380  1.00  0.00    -0.133 A  
HETATM    9  C   UNL     1      -7.076   9.796  70.575  1.00  0.00    -0.130 A  
HETATM   10  C   UNL     1      -9.045  10.382  68.690  1.00  0.00    -0.157 A  
HETATM   11  C   UNL     1      -6.982  10.959  69.820  1.00  0.00    -0.121 A  
HETATM   12  C   UNL     1      -7.968  11.254  68.883  1.00  0.00    -0.104 A  
ENDBRANCH   6   7
BRANCH   6  13
HETATM   13  C   UNL     1      -9.912   7.171  67.998  1.00  0.00    -0.184 A  
HETATM   14  C   UNL     1     -10.737   5.552  66.360  1.00  0.00    -0.262 A  
HETATM   15  C   UNL     1      -8.630   6.985  67.467  1.00  0.00    -0.121 A  
HETATM   16  C   UNL     1     -10.969   6.472  67.390  1.00  0.00    -0.458 A  
HETATM   17  C   UNL     1      -8.397   6.036  66.457  1.00  0.00    -0.113 A  
HETATM   18  C   UNL     1      -9.440   5.275  65.902  1.00  0.00    -0.156 A  
BRANCH  18  19
HETATM   19  C   UNL     1      -9.185   4.191  64.922  1.00  0.00    -0.154 A  
HETATM   20  C   UNL     1      -9.531   2.852  65.182  1.00  0.00    -0.083 A  
HETATM   21  C   UNL     1      -9.210   1.824  64.286  1.00  0.00    -0.125 A  
HETATM   22  C   UNL     1      -8.547   2.116  63.099  1.00  0.00    -0.084 A  
HETATM   23  C   UNL     1      -8.209   3.432  62.806  1.00  0.00    -0.073 A  
HETATM   24  C   UNL     1      -8.522   4.453  63.707  1.00  0.00    -0.113 A  
ENDBRANCH  18  19
ENDBRANCH   6  13
ENDBRANCH   3   6
TORSDOF 4
ENDMDL
MODEL      115
REMARK 921   NORMALIZED FREE ENERGY PREDICTED BY IDOCK:   -3.36 KCAL/MOL
REMARK 922        TOTAL FREE ENERGY PREDICTED BY IDOCK:   -5.07 KCAL/MOL
REMARK 923 INTER-LIGAND FREE ENERGY PREDICTED BY IDOCK:   -4.12 KCAL/MOL
REMARK 924 INTRA-LIGAND FREE ENERGY PREDICTED BY IDOCK:   -0.95 KCAL/MOL
REMARK 927      BINDING AFFINITY PREDICTED BY RF-SCORE:    0.00 PKD
ROOT
HETATM    1  C   UNL     1      -7.409  12.370  68.511  1.00  0.00    -0.105 A  
HETATM    2  C   UNL     1      -7.435  11.000  68.415  1.00  0.00    -0.100 A  
HETATM    3  N   UNL     1      -8.256  10.721  67.342  1.00  0.00    -0.115 NA 
HETATM    4  C   UNL     1      -8.623  11.929  66.817  1.00  0.00    -0.181 A  
HETATM    5  N   UNL     1      -8.149  12.937  67.513  1.00  0.00    -0.169 NA 
ENDROOT
BRANCH   3   6
HETATM    6  C   UNL     1      -8.687   9.359  66.957  1.00  0.00    -0.127 C  
BRANCH   6   7
HETATM    7  C   UNL     1      -7.774   8.683  65.928  1.00  0.00    -0.101 A  
HETATM    8  C   UNL     1      -8.286   7.603  65.178  1.00  0.00    -0.130 A  
HETATM    9  C   UNL     1      -7.551   7.030  64.138  1.00  0.00    -0.112 A  
HETATM   10  C   UNL     1      -6.489   9.151  65.603  1.00  0.00    -0.068 A  
HETATM   11  C   UNL     1      -6.291   7.524  63.821  1.00  0.00    -0.053 A  
HETATM   12  C   UNL     1      -5.759   8.579  64.556  1.00  0.00    -0.063 A  
ENDBRANCH   6   7
BRANCH   6  13
HETATM   13  C   UNL     1      -9.113   8.477  68.133  1.00  0.00    -0.138 A  
HETATM   14  C   UNL     1      -8.524   6.752  69.765  1.00  0.00    -0.133 A  
HETATM   15  C   UNL     1     -10.396   8.503  68.693  1.00  0.00    -0.224 A  
HETATM   16  C   UNL     1      -8.170   7.618  68.722  1.00  0.00    -0.128 A  
HETATM   17  C   UNL     1     -10.756   7.608  69.715  1.00  0.00    -0.243 A  
HETATM   18  C   UNL     1      -9.838   6.690  70.253  1.00  0.00    -0.188 A  
BRANCH  18  19
HETATM   19  C   UNL     1     -10.243   5.666  71.247  1.00  0.00    -0.279 A  
HETATM   20  C   UNL     1     -11.168   5.943  72.271  1.00  0.00    -0.343 A  
HETATM   21  C   UNL     1     -11.481   4.995  73.253  1.00  0.00    -0.339 A  
HETATM   22  C   UNL     1     -10.885   3.738  73.224  1.00  0.00    -0.293 A  
HETATM   23  C   UNL     1      -9.982   3.429  72.213  1.00  0.00    -0.234 A  
HETATM   24  C   UNL     1      -9.665   4.382  71.241  1.00  0.00    -0.252 A  
ENDBRANCH  18  19
ENDBRANCH   6  13
ENDBRANCH   3   6
TORSDOF 4
ENDMDL
MODEL      116
REMARK 921   NORMALIZED FREE ENERGY PREDICTED BY IDOCK:   -3.31 KCAL/MOL
REMARK 922        TOTAL FREE ENERGY PREDICTED BY IDOCK:   -5.01 KCAL/MOL
REMARK 923 INTER-LIGAND FREE ENERGY PREDICTED BY IDOCK:   -4.10 KCAL/MOL
REMARK 924 INTRA-LIGAND FREE ENERGY PREDICTED BY IDOCK:   -0.91 KCAL/MOL
REMARK 927      BINDING AFFINITY PREDICTED BY RF-SCORE:    0.00 PKD
ROOT
HETATM    1  C   UNL     1      -8.171   3.924  72.873  1.00  0.00    -0.091 A  
HETATM    2  C   UNL     1      -8.548   5.008  72.116  1.00  0.00    -0.125 A  
HETATM    3  N   UNL     1      -9.682   4.609  71.440  1.00  0.00    -0.169 NA 
HETATM    4  C   UNL     1      -9.959   3.341  71.873  1.00  0.00    -0.139 A  
HETATM    5  N   UNL     1      -9.056   2.896  72.715  1.00  0.00    -0.086 NA 
ENDROOT
BRANCH   3   6
HETATM    6  C   UNL     1     -10.352   5.412  70.396  1.00  0.00    -0.283 C  
BRANCH   6   7
HETATM    7  C   UNL     1     -10.568   6.880  70.780  1.00  0.00    -0.245 A  
HETATM    8  C   UNL     1      -9.934   7.880  70.012  1.00  0.00    -0.191 A  
HETATM    9  C   UNL     1     -10.193   9.235  70.231  1.00  0.00    -0.270 A  
HETATM   10  C   UNL     1     -11.458   7.297  71.785  1.00  0.00    -0.300 A  
HETATM   11  C   UNL     1     -11.093   9.622  71.216  1.00  0.00    -0.426 A  
HETATM   12  C   UNL     1     -11.721   8.655  71.996  1.00  0.00    -0.439 A  
ENDBRANCH   6   7
BRANCH   6  13
HETATM   13  C   UNL     1      -9.819   5.179  68.980  1.00  0.00    -0.246 A  
HETATM   14  C   UNL     1      -7.924   4.637  67.530  1.00  0.00    -0.097 A  
HETATM   15  C   UNL     1     -10.613   5.272  67.831  1.00  0.00    -0.098 A  
HETATM   16  C   UNL     1      -8.474   4.810  68.807  1.00  0.00    -0.087 A  
HETATM   17  C   UNL     1     -10.049   5.132  66.551  1.00  0.00    -0.269 A  
HETATM   18  C   UNL     1      -8.686   4.843  66.369  1.00  0.00    -0.113 A  
BRANCH  18  19
HETATM   19  C   UNL     1      -8.063   4.811  65.024  1.00  0.00    -0.104 A  
HETATM   20  C   UNL     1      -6.734   5.220  64.806  1.00  0.00    -0.048 A  
HETATM   21  C   UNL     1      -6.183   5.265  63.519  1.00  0.00    -0.022 A  
HETATM   22  C   UNL     1      -6.946   4.886  62.419  1.00  0.00    -0.030 A  
HETATM   23  C   UNL     1      -8.255   4.459  62.606  1.00  0.00    -0.081 A  
HETATM   24  C   UNL     1      -8.805   4.425  63.891  1.00  0.00    -0.139 A  
ENDBRANCH  18  19
ENDBRANCH   6  13
ENDBRANCH   3   6
TORSDOF 4
ENDMDL
MODEL      117
REMARK 921   NORMALIZED FREE ENERGY PREDICTED BY IDOCK:   -3.07 KCAL/MOL
REMARK 922        TOTAL FREE ENERGY PREDICTED BY IDOCK:   -4.70 KCAL/MOL
REMARK 923 INTER-LIGAND FREE ENERGY PREDICTED BY IDOCK:   -4.29 KCAL/MOL
REMARK 924 INTRA-LIGAND FREE ENERGY PREDICTED BY IDOCK:   -0.41 KCAL/MOL
REMARK 927      BINDING AFFINITY PREDICTED BY RF-SCORE:    0.00 PKD
ROOT
HETATM    1  C   UNL     1      -9.893  17.130  66.527  1.00  0.00    -0.296 A  
HETATM    2  C   UNL     1      -8.881  16.706  67.355  1.00  0.00    -0.188 A  
HETATM    3  N   UNL     1      -8.560  15.436  66.925  1.00  0.00    -0.239 NA 
HETATM    4  C   UNL     1      -9.345  15.193  65.831  1.00  0.00    -0.244 A  
HETATM    5  N   UNL     1     -10.170  16.183  65.583  1.00  0.00    -0.426 NA 
ENDROOT
BRANCH   3   6
HETATM    6  C   UNL     1      -7.614  14.537  67.620  1.00  0.00    -0.182 C  
BRANCH   6   7
HETATM    7  C   UNL     1      -6.677  15.253  68.600  1.00  0.00    -0.101 A  
HETATM    8  C   UNL     1      -5.958  16.379  68.146  1.00  0.00    -0.116 A  
HETATM    9  C   UNL     1      -5.191  17.150  69.021  1.00  0.00    -0.147 A  
HETATM   10  C   UNL     1      -6.580  14.923  69.962  1.00  0.00    -0.162 A  
HETATM   11  C   UNL     1      -5.126  16.816  70.369  1.00  0.00    -0.215 A  
HETATM   12  C   UNL     1      -5.816  15.702  70.838  1.00  0.00     0.178 A  
ENDBRANCH   6   7
BRANCH   6  13
HETATM   13  C   UNL     1      -8.242  13.243  68.144  1.00  0.00    -0.160 A  
HETATM   14  C   UNL     1      -7.971  10.883  68.730  1.00  0.00    -0.139 A  
HETATM   15  C   UNL     1      -9.587  13.133  68.517  1.00  0.00    -0.118 A  
HETATM   16  C   UNL     1      -7.434  12.105  68.305  1.00  0.00    -0.107 A  
HETATM   17  C   UNL     1     -10.129  11.898  68.910  1.00  0.00    -0.060 A  
HETATM   18  C   UNL     1      -9.341  10.737  68.995  1.00  0.00    -0.168 A  
BRANCH  18  19
HETATM   19  C   UNL     1      -9.931   9.409  69.293  1.00  0.00    -0.182 A  
HETATM   20  C   UNL     1      -9.711   8.291  68.466  1.00  0.00    -0.165 A  
HETATM   21  C   UNL     1     -10.339   7.063  68.711  1.00  0.00    -0.196 A  
HETATM   22  C   UNL     1     -11.192   6.921  69.800  1.00  0.00    -0.315 A  
HETATM   23  C   UNL     1     -11.413   8.002  70.645  1.00  0.00    -0.237 A  
HETATM   24  C   UNL     1     -10.792   9.229  70.392  1.00  0.00    -0.302 A  
ENDBRANCH  18  19
ENDBRANCH   6  13
ENDBRANCH   3   6
TORSDOF 4
ENDMDL
MODEL      118
REMARK 921   NORMALIZED FREE ENERGY PREDICTED BY IDOCK:   -2.88 KCAL/MOL
REMARK 922        TOTAL FREE ENERGY PREDICTED BY IDOCK:   -4.47 KCAL/MOL
REMARK 923 INTER-LIGAND FREE ENERGY PREDICTED BY IDOCK:   -4.19 KCAL/MOL
REMARK 924 INTRA-LIGAND FREE ENERGY PREDICTED BY IDOCK:   -0.28 KCAL/MOL
REMARK 927      BINDING AFFINITY PREDICTED BY RF-SCORE:    0.00 PKD
ROOT
HETATM    1  C   UNL     1     -11.607  11.350  63.087  1.00  0.00     0.243 A  
HETATM    2  C   UNL     1     -10.998  10.978  64.261  1.00  0.00    -0.078 A  
HETATM    3  N   UNL     1     -10.819  12.147  64.971  1.00  0.00    -0.290 NA 
HETATM    4  C   UNL     1     -11.383  13.141  64.219  1.00  0.00    -0.388 A  
HETATM    5  N   UNL     1     -11.843  12.695  63.073  1.00  0.00    -0.231 NA 
ENDROOT
BRANCH   3   6
HETATM    6  C   UNL     1     -10.068  12.242  66.241  1.00  0.00    -0.234 C  
BRANCH   6   7
HETATM    7  C   UNL     1      -8.833  11.335  66.306  1.00  0.00    -0.194 A  
HETATM    8  C   UNL     1      -8.249  11.078  67.564  1.00  0.00    -0.117 A  
HETATM    9  C   UNL     1      -7.205  10.161  67.705  1.00  0.00    -0.088 A  
HETATM   10  C   UNL     1      -8.316  10.647  65.195  1.00  0.00    -0.117 A  
HETATM   11  C   UNL     1      -6.725   9.477  66.594  1.00  0.00    -0.072 A  
HETATM   12  C   UNL     1      -7.276   9.724  65.341  1.00  0.00    -0.114 A  
ENDBRANCH   6   7
BRANCH   6  13
HETATM   13  C   UNL     1      -9.855  13.672  66.744  1.00  0.00    -0.271 A  
HETATM   14  C   UNL     1      -8.665  15.799  66.534  1.00  0.00    -0.354 A  
HETATM   15  C   UNL     1     -10.563  14.227  67.816  1.00  0.00    -0.253 A  
HETATM   16  C   UNL     1      -8.935  14.501  66.081  1.00  0.00     0.035 A  
HETATM   17  C   UNL     1     -10.265  15.516  68.288  1.00  0.00    -0.222 A  
HETATM   18  C   UNL     1      -9.287  16.320  67.679  1.00  0.00    -0.218 A  
BRANCH  18  19
HETATM   19  C   UNL     1      -8.886  17.632  68.244  1.00  0.00    -0.276 A  
HETATM   20  C   UNL     1      -9.814  18.668  68.459  1.00  0.00    -0.427 A  
HETATM   21  C   UNL     1      -9.411  19.930  68.915  1.00  0.00    -0.164 A  
HETATM   22  C   UNL     1      -8.069  20.179  69.180  1.00  0.00     0.305 A  
HETATM   23  C   UNL     1      -7.132  19.169  68.995  1.00  0.00    -0.377 A  
HETATM   24  C   UNL     1      -7.537  17.914  68.531  1.00  0.00    -0.290 A  
ENDBRANCH  18  19
ENDBRANCH   6  13
ENDBRANCH   3   6
TORSDOF 4
ENDMDL
MODEL      119
REMARK 921   NORMALIZED FREE ENERGY PREDICTED BY IDOCK:   -2.86 KCAL/MOL
REMARK 922        TOTAL FREE ENERGY PREDICTED BY IDOCK:   -4.44 KCAL/MOL
REMARK 923 INTER-LIGAND FREE ENERGY PREDICTED BY IDOCK:   -3.68 KCAL/MOL
REMARK 924 INTRA-LIGAND FREE ENERGY PREDICTED BY IDOCK:   -0.76 KCAL/MOL
REMARK 927      BINDING AFFINITY PREDICTED BY RF-SCORE:    0.00 PKD
ROOT
HETATM    1  C   UNL     1     -12.475   6.998  72.182  1.00  0.00    -0.158 A  
HETATM    2  C   UNL     1     -11.253   6.451  72.491  1.00  0.00    -0.272 A  
HETATM    3  N   UNL     1     -10.692   6.094  71.283  1.00  0.00    -0.246 NA 
HETATM    4  C   UNL     1     -11.572   6.501  70.317  1.00  0.00    -0.409 A  
HETATM    5  N   UNL     1     -12.661   7.025  70.829  1.00  0.00    -0.245 NA 
ENDROOT
BRANCH   3   6
HETATM    6  C   UNL     1      -9.430   5.335  71.144  1.00  0.00    -0.158 C  
BRANCH   6   7
HETATM    7  C   UNL     1      -9.228   4.258  72.216  1.00  0.00    -0.155 A  
HETATM    8  C   UNL     1     -10.286   3.363  72.482  1.00  0.00    -0.217 A  
HETATM    9  C   UNL     1     -10.120   2.282  73.351  1.00  0.00    -0.176 A  
HETATM   10  C   UNL     1      -8.005   4.034  72.871  1.00  0.00    -0.084 A  
HETATM   11  C   UNL     1      -8.895   2.069  73.971  1.00  0.00    -0.062 A  
HETATM   12  C   UNL     1      -7.841   2.947  73.735  1.00  0.00    -0.060 A  
ENDBRANCH   6   7
BRANCH   6  13
HETATM   13  C   UNL     1      -9.110   4.900  69.712  1.00  0.00    -0.157 A  
HETATM   14  C   UNL     1      -7.955   5.358  67.604  1.00  0.00    -0.100 A  
HETATM   15  C   UNL     1      -9.607   3.728  69.131  1.00  0.00    -0.195 A  
HETATM   16  C   UNL     1      -8.238   5.684  68.937  1.00  0.00    -0.100 A  
HETATM   17  C   UNL     1      -9.349   3.424  67.784  1.00  0.00    -0.243 A  
HETATM   18  C   UNL     1      -8.543   4.248  66.979  1.00  0.00    -0.104 A  
BRANCH  18  19
HETATM   19  C   UNL     1      -8.364   3.995  65.529  1.00  0.00    -0.109 A  
HETATM   20  C   UNL     1      -7.177   4.335  64.852  1.00  0.00    -0.071 A  
HETATM   21  C   UNL     1      -7.051   4.169  63.467  1.00  0.00    -0.045 A  
HETATM   22  C   UNL     1      -8.105   3.644  62.728  1.00  0.00    -0.072 A  
HETATM   23  C   UNL     1      -9.282   3.281  63.372  1.00  0.00    -0.096 A  
HETATM   24  C   UNL     1      -9.409   3.457  64.753  1.00  0.00    -0.148 A  
ENDBRANCH  18  19
ENDBRANCH   6  13
ENDBRANCH   3   6
TORSDOF 4
ENDMDL
MODEL      120
REMARK 921   NORMALIZED FREE ENERGY PREDICTED BY IDOCK:   -2.80 KCAL/MOL
REMARK 922        TOTAL FREE ENERGY PREDICTED BY IDOCK:   -4.37 KCAL/MOL
REMARK 923 INTER-LIGAND FREE ENERGY PREDICTED BY IDOCK:   -3.73 KCAL/MOL
REMARK 924 INTRA-LIGAND FREE ENERGY PREDICTED BY IDOCK:   -0.64 KCAL/MOL
REMARK 927      BINDING AFFINITY PREDICTED BY RF-SCORE:    0.00 PKD
ROOT
HETATM    1  C   UNL     1      -5.622  12.261  68.619  1.00  0.00    -0.053 A  
HETATM    2  C   UNL     1      -6.080  11.043  68.177  1.00  0.00    -0.049 A  
HETATM    3  N   UNL     1      -7.376  11.264  67.761  1.00  0.00    -0.090 NA 
HETATM    4  C   UNL     1      -7.603  12.604  67.913  1.00  0.00    -0.132 A  
HETATM    5  N   UNL     1      -6.577  13.223  68.448  1.00  0.00    -0.083 NA 
ENDROOT
BRANCH   3   6
HETATM    6  C   UNL     1      -8.307  10.195  67.338  1.00  0.00    -0.118 C  
BRANCH   6   7
HETATM    7  C   UNL     1      -7.956   9.559  65.988  1.00  0.00    -0.107 A  
HETATM    8  C   UNL     1      -7.442  10.385  64.966  1.00  0.00    -0.079 A  
HETATM    9  C   UNL     1      -6.985   9.847  63.761  1.00  0.00    -0.124 A  
HETATM   10  C   UNL     1      -8.008   8.176  65.744  1.00  0.00    -0.105 A  
HETATM   11  C   UNL     1      -7.026   8.474  63.552  1.00  0.00    -0.089 A  
HETATM   12  C   UNL     1      -7.541   7.640  64.540  1.00  0.00    -0.112 A  
ENDBRANCH   6   7
BRANCH   6  13
HETATM   13  C   UNL     1      -8.680   9.209  68.448  1.00  0.00    -0.129 A  
HETATM   14  C   UNL     1     -10.368   8.367  70.006  1.00  0.00    -0.211 A  
HETATM   15  C   UNL     1      -7.793   8.260  68.969  1.00  0.00    -0.103 A  
HETATM   16  C   UNL     1      -9.991   9.212  68.954  1.00  0.00    -0.189 A  
HETATM   17  C   UNL     1      -8.165   7.438  70.046  1.00  0.00    -0.131 A  
HETATM   18  C   UNL     1      -9.451   7.494  70.611  1.00  0.00    -0.164 A  
BRANCH  18  19
HETATM   19  C   UNL     1      -9.811   6.716  71.821  1.00  0.00    -0.171 A  
HETATM   20  C   UNL     1     -10.411   5.446  71.742  1.00  0.00    -0.288 A  
HETATM   21  C   UNL     1     -10.823   4.756  72.889  1.00  0.00    -0.306 A  
HETATM   22  C   UNL     1     -10.628   5.317  74.147  1.00  0.00    -0.301 A  
HETATM   23  C   UNL     1     -10.020   6.562  74.258  1.00  0.00    -0.362 A  
HETATM   24  C   UNL     1      -9.619   7.251  73.110  1.00  0.00    -0.237 A  
ENDBRANCH  18  19
ENDBRANCH   6  13
ENDBRANCH   3   6
TORSDOF 4
ENDMDL
MODEL      121
REMARK 921   NORMALIZED FREE ENERGY PREDICTED BY IDOCK:   -2.80 KCAL/MOL
REMARK 922        TOTAL FREE ENERGY PREDICTED BY IDOCK:   -4.37 KCAL/MOL
REMARK 923 INTER-LIGAND FREE ENERGY PREDICTED BY IDOCK:   -3.66 KCAL/MOL
REMARK 924 INTRA-LIGAND FREE ENERGY PREDICTED BY IDOCK:   -0.71 KCAL/MOL
REMARK 927      BINDING AFFINITY PREDICTED BY RF-SCORE:    0.00 PKD
ROOT
HETATM    1  C   UNL     1      -6.044   8.319  63.705  1.00  0.00    -0.072 A  
HETATM    2  C   UNL     1      -6.394   7.105  64.246  1.00  0.00    -0.040 A  
HETATM    3  N   UNL     1      -7.694   7.256  64.682  1.00  0.00    -0.109 NA 
HETATM    4  C   UNL     1      -8.073   8.521  64.325  1.00  0.00    -0.155 A  
HETATM    5  N   UNL     1      -7.096   9.190  63.757  1.00  0.00    -0.092 NA 
ENDROOT
BRANCH   3   6
HETATM    6  C   UNL     1      -8.432   6.240  65.463  1.00  0.00    -0.144 C  
BRANCH   6   7
HETATM    7  C   UNL     1      -7.618   4.978  65.772  1.00  0.00    -0.086 A  
HETATM    8  C   UNL     1      -6.895   4.920  66.982  1.00  0.00    -0.056 A  
HETATM    9  C   UNL     1      -6.241   3.753  67.380  1.00  0.00    -0.036 A  
HETATM   10  C   UNL     1      -7.643   3.823  64.972  1.00  0.00    -0.077 A  
HETATM   11  C   UNL     1      -6.297   2.616  66.582  1.00  0.00    -0.025 A  
HETATM   12  C   UNL     1      -6.993   2.653  65.378  1.00  0.00    -0.052 A  
ENDBRANCH   6   7
BRANCH   6  13
HETATM   13  C   UNL     1      -9.232   6.806  66.638  1.00  0.00    -0.184 A  
HETATM   14  C   UNL     1      -9.290   8.226  68.629  1.00  0.00    -0.143 A  
HETATM   15  C   UNL     1     -10.576   6.493  66.879  1.00  0.00    -0.376 A  
HETATM   16  C   UNL     1      -8.618   7.721  67.509  1.00  0.00    -0.122 A  
HETATM   17  C   UNL     1     -11.235   6.975  68.023  1.00  0.00    -0.002 A  
HETATM   18  C   UNL     1     -10.598   7.827  68.941  1.00  0.00    -0.168 A  
BRANCH  18  19
HETATM   19  C   UNL     1     -11.249   8.242  70.208  1.00  0.00    -0.176 A  
HETATM   20  C   UNL     1     -11.602   7.314  71.205  1.00  0.00    -0.316 A  
HETATM   21  C   UNL     1     -12.291   7.706  72.360  1.00  0.00    -0.162 A  
HETATM   22  C   UNL     1     -12.629   9.041  72.551  1.00  0.00    -0.342 A  
HETATM   23  C   UNL     1     -12.276   9.983  71.592  1.00  0.00    -0.456 A  
HETATM   24  C   UNL     1     -11.598   9.587  70.436  1.00  0.00    -0.268 A  
ENDBRANCH  18  19
ENDBRANCH   6  13
ENDBRANCH   3   6
TORSDOF 4
ENDMDL
MODEL      122
REMARK 921   NORMALIZED FREE ENERGY PREDICTED BY IDOCK:   -2.76 KCAL/MOL
REMARK 922        TOTAL FREE ENERGY PREDICTED BY IDOCK:   -4.33 KCAL/MOL
REMARK 923 INTER-LIGAND FREE ENERGY PREDICTED BY IDOCK:   -3.69 KCAL/MOL
REMARK 924 INTRA-LIGAND FREE ENERGY PREDICTED BY IDOCK:   -0.63 KCAL/MOL
REMARK 927      BINDING AFFINITY PREDICTED BY RF-SCORE:    0.00 PKD
ROOT
HETATM    1  C   UNL     1     -12.621   7.441  72.284  1.00  0.00    -0.048 A  
HETATM    2  C   UNL     1     -11.252   7.523  72.369  1.00  0.00    -0.308 A  
HETATM    3  N   UNL     1     -10.783   7.186  71.116  1.00  0.00    -0.231 NA 
HETATM    4  C   UNL     1     -11.889   6.985  70.336  1.00  0.00    -0.247 A  
HETATM    5  N   UNL     1     -13.005   7.108  71.016  1.00  0.00    -0.262 NA 
ENDROOT
BRANCH   3   6
HETATM    6  C   UNL     1      -9.354   7.004  70.785  1.00  0.00    -0.161 C  
BRANCH   6   7
HETATM    7  C   UNL     1      -9.029   5.650  70.143  1.00  0.00    -0.151 A  
HETATM    8  C   UNL     1      -9.684   4.498  70.628  1.00  0.00    -0.282 A  
HETATM    9  C   UNL     1      -9.530   3.259  70.003  1.00  0.00    -0.231 A  
HETATM   10  C   UNL     1      -8.201   5.503  69.018  1.00  0.00    -0.099 A  
HETATM   11  C   UNL     1      -8.721   3.142  68.879  1.00  0.00    -0.137 A  
HETATM   12  C   UNL     1      -8.054   4.261  68.390  1.00  0.00    -0.081 A  
ENDBRANCH   6   7
BRANCH   6  13
HETATM   13  C   UNL     1      -8.701   8.216  70.117  1.00  0.00    -0.130 A  
HETATM   14  C   UNL     1      -7.206  10.145  70.303  1.00  0.00    -0.131 A  
HETATM   15  C   UNL     1      -8.929   8.581  68.785  1.00  0.00    -0.139 A  
HETATM   16  C   UNL     1      -7.789   8.994  70.851  1.00  0.00    -0.172 A  
HETATM   17  C   UNL     1      -8.370   9.753  68.251  1.00  0.00    -0.106 A  
HETATM   18  C   UNL     1      -7.521  10.580  69.007  1.00  0.00    -0.112 A  
BRANCH  18  19
HETATM   19  C   UNL     1      -7.023  11.878  68.488  1.00  0.00    -0.085 A  
HETATM   20  C   UNL     1      -5.650  12.182  68.429  1.00  0.00    -0.054 A  
HETATM   21  C   UNL     1      -5.196  13.441  68.017  1.00  0.00    -0.111 A  
HETATM   22  C   UNL     1      -6.106  14.422  67.637  1.00  0.00    -0.070 A  
HETATM   23  C   UNL     1      -7.468  14.143  67.667  1.00  0.00    -0.192 A  
HETATM   24  C   UNL     1      -7.918  12.889  68.089  1.00  0.00    -0.153 A  
ENDBRANCH  18  19
ENDBRANCH   6  13
ENDBRANCH   3   6
TORSDOF 4
ENDMDL
MODEL      123
REMARK 921   NORMALIZED FREE ENERGY PREDICTED BY IDOCK:   -2.32 KCAL/MOL
REMARK 922        TOTAL FREE ENERGY PREDICTED BY IDOCK:   -3.78 KCAL/MOL
REMARK 923 INTER-LIGAND FREE ENERGY PREDICTED BY IDOCK:   -2.94 KCAL/MOL
REMARK 924 INTRA-LIGAND FREE ENERGY PREDICTED BY IDOCK:   -0.84 KCAL/MOL
REMARK 927      BINDING AFFINITY PREDICTED BY RF-SCORE:    0.00 PKD
ROOT
HETATM    1  C   UNL     1      -7.392   2.647  73.630  1.00  0.00    -0.041 A  
HETATM    2  C   UNL     1      -8.076   3.732  73.135  1.00  0.00    -0.087 A  
HETATM    3  N   UNL     1      -8.621   3.311  71.940  1.00  0.00    -0.079 NA 
HETATM    4  C   UNL     1      -8.293   1.989  71.814  1.00  0.00    -0.055 A  
HETATM    5  N   UNL     1      -7.536   1.570  72.802  1.00  0.00    -0.031 NA 
ENDROOT
BRANCH   3   6
HETATM    6  C   UNL     1      -9.326   4.198  70.989  1.00  0.00    -0.149 C  
BRANCH   6   7
HETATM    7  C   UNL     1      -9.634   5.592  71.547  1.00  0.00    -0.184 A  
HETATM    8  C   UNL     1     -10.860   5.797  72.214  1.00  0.00    -0.298 A  
HETATM    9  C   UNL     1     -11.144   7.005  72.855  1.00  0.00    -0.314 A  
HETATM   10  C   UNL     1      -8.713   6.654  71.537  1.00  0.00    -0.131 A  
HETATM   11  C   UNL     1     -10.209   8.033  72.849  1.00  0.00    -0.384 A  
HETATM   12  C   UNL     1      -8.998   7.860  72.187  1.00  0.00    -0.199 A  
ENDBRANCH   6   7
BRANCH   6  13
HETATM   13  C   UNL     1      -8.761   4.174  69.567  1.00  0.00    -0.124 A  
HETATM   14  C   UNL     1      -9.172   3.951  67.165  1.00  0.00    -0.197 A  
HETATM   15  C   UNL     1      -7.401   4.328  69.273  1.00  0.00    -0.054 A  
HETATM   16  C   UNL     1      -9.643   4.033  68.482  1.00  0.00    -0.184 A  
HETATM   17  C   UNL     1      -6.930   4.211  67.954  1.00  0.00    -0.059 A  
HETATM   18  C   UNL     1      -7.800   3.988  66.873  1.00  0.00    -0.096 A  
BRANCH  18  19
HETATM   19  C   UNL     1      -7.298   3.746  65.499  1.00  0.00    -0.072 A  
HETATM   20  C   UNL     1      -8.133   3.848  64.370  1.00  0.00    -0.090 A  
HETATM   21  C   UNL     1      -7.669   3.536  63.085  1.00  0.00    -0.067 A  
HETATM   22  C   UNL     1      -6.353   3.128  62.899  1.00  0.00    -0.018 A  
HETATM   23  C   UNL     1      -5.500   3.037  63.992  1.00  0.00    -0.009 A  
HETATM   24  C   UNL     1      -5.969   3.340  65.274  1.00  0.00    -0.019 A  
ENDBRANCH  18  19
ENDBRANCH   6  13
ENDBRANCH   3   6
TORSDOF 4
ENDMDL
