MODEL        1
REMARK 921   NORMALIZED FREE ENERGY PREDICTED BY IDOCK:   -8.02 KCAL/MOL
REMARK 922        TOTAL FREE ENERGY PREDICTED BY IDOCK:  -12.43 KCAL/MOL
REMARK 923 INTER-LIGAND FREE ENERGY PREDICTED BY IDOCK:  -12.25 KCAL/MOL
REMARK 924 INTRA-LIGAND FREE ENERGY PREDICTED BY IDOCK:   -0.19 KCAL/MOL
REMARK 927      BINDING AFFINITY PREDICTED BY RF-SCORE:    0.00 PKD
ROOT
HETATM    1  C   UNL     1     -13.369  15.547  71.845  1.00  0.00    -0.569 C  
HETATM    2  C   UNL     1     -11.897  15.370  71.531  1.00  0.00    -0.387 C  
ENDROOT
BRANCH   2   3
HETATM    3  O   UNL     1     -11.499  16.257  70.479  1.00  0.00    -0.367 OA 
BRANCH   3   4
HETATM    4  C   UNL     1     -11.867  15.713  69.203  1.00  0.00    -0.362 C  
BRANCH   4   5
HETATM    5  C   UNL     1     -10.641  15.567  68.302  1.00  0.00    -0.255 C  
BRANCH   5   6
HETATM    6  N   UNL     1     -10.587  16.572  67.251  1.00  0.00    -0.310 NA 
HETATM    7  C   UNL     1     -10.773  16.387  65.891  1.00  0.00    -0.214 A  
HETATM    8  N   UNL     1     -10.655  17.529  65.242  1.00  0.00    -0.618 NA 
HETATM    9  C   UNL     1     -10.022  18.666  68.602  1.00  0.00    -0.431 A  
HETATM   10  C   UNL     1     -10.374  18.476  66.190  1.00  0.00    -0.426 A  
HETATM   11  C   UNL     1     -10.310  17.909  67.458  1.00  0.00    -0.377 A  
HETATM   12  C   UNL     1      -9.816  20.040  68.429  1.00  0.00    -0.436 A  
HETATM   13  C   UNL     1     -10.153  19.852  66.033  1.00  0.00    -0.589 A  
HETATM   14  C   UNL     1      -9.879  20.627  67.166  1.00  0.00    -0.497 A  
BRANCH   7  15
HETATM   15  C   UNL     1     -11.046  15.065  65.247  1.00  0.00    -0.391 C  
HETATM   16  C   UNL     1     -10.198  12.883  64.418  1.00  0.00    -0.318 C  
HETATM   17  C   UNL     1     -12.532  13.088  65.102  1.00  0.00    -0.496 C  
HETATM   18  C   UNL     1     -12.199  14.330  65.929  1.00  0.00    -0.422 C  
HETATM   19  N   UNL     1     -11.397  12.171  64.906  1.00  0.00    -0.322 NA 
HETATM   20  C   UNL     1      -9.831  14.136  65.225  1.00  0.00    -0.199 C  
BRANCH  19  21
HETATM   21  C   UNL     1     -11.083  11.367  66.097  1.00  0.00    -0.198 C  
BRANCH  21  22
HETATM   22  C   UNL     1     -11.631  11.966  67.406  1.00  0.00    -0.367 C  
BRANCH  22  23
HETATM   23  C   UNL     1     -11.448  10.990  68.539  1.00  0.00    -0.379 A  
HETATM   24  C   UNL     1     -10.674   9.840  68.360  1.00  0.00    -0.262 A  
HETATM   25  C   UNL     1     -10.615   8.868  69.357  1.00  0.00    -0.226 A  
HETATM   26  C   UNL     1     -11.327   9.022  70.561  1.00  0.00    -0.282 A  
HETATM   27  C   UNL     1     -12.115  11.181  69.747  1.00  0.00    -0.414 A  
HETATM   28  C   UNL     1     -12.049  10.213  70.749  1.00  0.00    -0.438 A  
BRANCH  26  29
HETATM   29  C   UNL     1     -11.369   7.867  71.578  1.00  0.00    -0.293 C  
HETATM   30  C   UNL     1     -10.397   8.078  72.753  1.00  0.00    -0.339 C  
HETATM   31  C   UNL     1     -12.800   7.745  72.148  1.00  0.00    -0.190 C  
HETATM   32  C   UNL     1     -10.987   6.502  70.968  1.00  0.00    -0.314 C  
HETATM   33  O   UNL     1      -9.248   8.729  72.442  1.00  0.00    -0.361 OA 
HETATM   34  O   UNL     1     -10.579   7.650  73.883  1.00  0.00    -0.195 OA 
ENDBRANCH  26  29
ENDBRANCH  22  23
ENDBRANCH  21  22
ENDBRANCH  19  21
ENDBRANCH   7  15
ENDBRANCH   5   6
ENDBRANCH   4   5
ENDBRANCH   3   4
ENDBRANCH   2   3
TORSDOF 9
ENDMDL
MODEL        2
REMARK 921   NORMALIZED FREE ENERGY PREDICTED BY IDOCK:   -8.01 KCAL/MOL
REMARK 922        TOTAL FREE ENERGY PREDICTED BY IDOCK:  -12.41 KCAL/MOL
REMARK 923 INTER-LIGAND FREE ENERGY PREDICTED BY IDOCK:  -11.19 KCAL/MOL
REMARK 924 INTRA-LIGAND FREE ENERGY PREDICTED BY IDOCK:   -1.22 KCAL/MOL
REMARK 927      BINDING AFFINITY PREDICTED BY RF-SCORE:    0.00 PKD
ROOT
HETATM    1  C   UNL     1     -13.331  15.803  73.035  1.00  0.00    -0.679 C  
HETATM    2  C   UNL     1     -11.953  16.065  72.460  1.00  0.00    -0.545 C  
ENDROOT
BRANCH   2   3
HETATM    3  O   UNL     1     -11.999  16.059  71.028  1.00  0.00    -0.403 OA 
BRANCH   3   4
HETATM    4  C   UNL     1     -11.358  14.883  70.514  1.00  0.00    -0.235 C  
BRANCH   4   5
HETATM    5  C   UNL     1     -12.358  13.734  70.383  1.00  0.00    -0.353 C  
BRANCH   5   6
HETATM    6  N   UNL     1     -12.034  12.821  69.297  1.00  0.00    -0.276 NA 
HETATM    7  C   UNL     1     -11.798  11.459  69.377  1.00  0.00    -0.351 A  
HETATM    8  N   UNL     1     -11.539  10.957  68.185  1.00  0.00    -0.501 NA 
HETATM    9  C   UNL     1     -11.986  14.423  67.306  1.00  0.00    -0.409 A  
HETATM   10  C   UNL     1     -11.593  12.010  67.311  1.00  0.00    -0.313 A  
HETATM   11  C   UNL     1     -11.887  13.195  67.976  1.00  0.00    -0.358 A  
HETATM   12  C   UNL     1     -11.794  14.417  65.920  1.00  0.00    -0.371 A  
HETATM   13  C   UNL     1     -11.392  12.024  65.923  1.00  0.00    -0.391 A  
HETATM   14  C   UNL     1     -11.501  13.238  65.236  1.00  0.00    -0.319 A  
BRANCH   7  15
HETATM   15  C   UNL     1     -11.810  10.672  70.648  1.00  0.00    -0.463 C  
HETATM   16  C   UNL     1     -13.090   9.403  72.356  1.00  0.00    -0.379 C  
HETATM   17  C   UNL     1     -10.721   8.922  72.024  1.00  0.00    -0.319 C  
HETATM   18  C   UNL     1     -10.770   9.551  70.631  1.00  0.00    -0.375 C  
HETATM   19  N   UNL     1     -12.014   8.401  72.498  1.00  0.00    -0.389 NA 
HETATM   20  C   UNL     1     -13.174  10.056  70.970  1.00  0.00    -0.399 C  
BRANCH  19  21
HETATM   21  C   UNL     1     -12.396   7.126  71.870  1.00  0.00    -0.317 C  
BRANCH  21  22
HETATM   22  C   UNL     1     -11.307   6.041  71.970  1.00  0.00    -0.345 C  
BRANCH  22  23
HETATM   23  C   UNL     1     -10.731   5.758  70.607  1.00  0.00    -0.351 A  
HETATM   24  C   UNL     1     -11.338   6.285  69.463  1.00  0.00    -0.475 A  
HETATM   25  C   UNL     1     -10.893   5.915  68.195  1.00  0.00    -0.323 A  
HETATM   26  C   UNL     1      -9.827   5.008  68.038  1.00  0.00    -0.202 A  
HETATM   27  C   UNL     1      -9.641   4.902  70.467  1.00  0.00    -0.253 A  
HETATM   28  C   UNL     1      -9.189   4.538  69.199  1.00  0.00    -0.194 A  
BRANCH  26  29
HETATM   29  C   UNL     1      -9.458   4.498  66.633  1.00  0.00    -0.183 C  
HETATM   30  C   UNL     1      -8.375   5.358  65.958  1.00  0.00    -0.120 C  
HETATM   31  C   UNL     1      -8.930   3.049  66.744  1.00  0.00    -0.174 C  
HETATM   32  C   UNL     1     -10.649   4.491  65.653  1.00  0.00    -0.231 C  
HETATM   33  O   UNL     1      -8.414   6.679  66.261  1.00  0.00    -0.119 OA 
HETATM   34  O   UNL     1      -7.562   4.933  65.150  1.00  0.00    -0.075 OA 
ENDBRANCH  26  29
ENDBRANCH  22  23
ENDBRANCH  21  22
ENDBRANCH  19  21
ENDBRANCH   7  15
ENDBRANCH   5   6
ENDBRANCH   4   5
ENDBRANCH   3   4
ENDBRANCH   2   3
TORSDOF 9
ENDMDL
MODEL        3
REMARK 921   NORMALIZED FREE ENERGY PREDICTED BY IDOCK:   -7.89 KCAL/MOL
REMARK 922        TOTAL FREE ENERGY PREDICTED BY IDOCK:  -12.23 KCAL/MOL
REMARK 923 INTER-LIGAND FREE ENERGY PREDICTED BY IDOCK:  -10.60 KCAL/MOL
REMARK 924 INTRA-LIGAND FREE ENERGY PREDICTED BY IDOCK:   -1.64 KCAL/MOL
REMARK 927      BINDING AFFINITY PREDICTED BY RF-SCORE:    0.00 PKD
ROOT
HETATM    1  C   UNL     1     -10.707  19.702  67.207  1.00  0.00    -0.583 C  
HETATM    2  C   UNL     1     -10.569  18.199  67.352  1.00  0.00    -0.388 C  
ENDROOT
BRANCH   2   3
HETATM    3  O   UNL     1     -10.039  17.867  68.641  1.00  0.00    -0.362 OA 
BRANCH   3   4
HETATM    4  C   UNL     1     -10.000  16.443  68.811  1.00  0.00    -0.246 C  
BRANCH   4   5
HETATM    5  C   UNL     1     -11.304  15.804  68.336  1.00  0.00    -0.372 C  
BRANCH   5   6
HETATM    6  N   UNL     1     -11.671  14.625  69.105  1.00  0.00    -0.292 NA 
HETATM    7  C   UNL     1     -11.373  13.302  68.823  1.00  0.00    -0.290 A  
HETATM    8  N   UNL     1     -11.867  12.502  69.748  1.00  0.00    -0.328 NA 
HETATM    9  C   UNL     1     -13.010  15.678  71.009  1.00  0.00    -0.518 A  
HETATM   10  C   UNL     1     -12.511  13.313  70.645  1.00  0.00    -0.298 A  
HETATM   11  C   UNL     1     -12.420  14.647  70.265  1.00  0.00    -0.346 A  
HETATM   12  C   UNL     1     -13.690  15.319  72.179  1.00  0.00    -0.598 A  
HETATM   13  C   UNL     1     -13.206  12.969  71.813  1.00  0.00    -0.486 A  
HETATM   14  C   UNL     1     -13.789  13.987  72.577  1.00  0.00    -0.610 A  
BRANCH   7  15
HETATM   15  C   UNL     1     -10.615  12.844  67.618  1.00  0.00    -0.232 C  
HETATM   16  C   UNL     1      -8.462  12.162  66.586  1.00  0.00    -0.088 C  
HETATM   17  C   UNL     1     -10.561  11.363  65.632  1.00  0.00    -0.258 C  
HETATM   18  C   UNL     1     -11.288  11.646  66.947  1.00  0.00    -0.364 C  
HETATM   19  N   UNL     1      -9.118  11.112  65.781  1.00  0.00    -0.205 NA 
HETATM   20  C   UNL     1      -9.161  12.473  67.916  1.00  0.00    -0.200 C  
BRANCH  19  21
HETATM   21  C   UNL     1      -8.809   9.774  66.308  1.00  0.00    -0.147 C  
BRANCH  21  22
HETATM   22  C   UNL     1     -10.006   8.806  66.269  1.00  0.00    -0.315 C  
BRANCH  22  23
HETATM   23  C   UNL     1     -10.236   8.210  67.634  1.00  0.00    -0.296 A  
HETATM   24  C   UNL     1      -9.844   8.906  68.781  1.00  0.00    -0.182 A  
HETATM   25  C   UNL     1      -9.927   8.302  70.034  1.00  0.00    -0.188 A  
HETATM   26  C   UNL     1     -10.405   6.986  70.173  1.00  0.00    -0.213 A  
HETATM   27  C   UNL     1     -10.761   6.926  67.762  1.00  0.00    -0.321 A  
HETATM   28  C   UNL     1     -10.852   6.325  69.017  1.00  0.00    -0.400 A  
BRANCH  26  29
HETATM   29  C   UNL     1     -10.340   6.290  71.545  1.00  0.00    -0.243 C  
HETATM   30  C   UNL     1     -11.736   5.990  72.122  1.00  0.00    -0.279 C  
HETATM   31  C   UNL     1      -9.578   4.953  71.399  1.00  0.00    -0.226 C  
HETATM   32  C   UNL     1      -9.621   7.127  72.622  1.00  0.00    -0.177 C  
HETATM   33  O   UNL     1     -12.694   6.898  71.815  1.00  0.00    -0.357 OA 
HETATM   34  O   UNL     1     -11.988   5.049  72.861  1.00  0.00    -0.191 OA 
ENDBRANCH  26  29
ENDBRANCH  22  23
ENDBRANCH  21  22
ENDBRANCH  19  21
ENDBRANCH   7  15
ENDBRANCH   5   6
ENDBRANCH   4   5
ENDBRANCH   3   4
ENDBRANCH   2   3
TORSDOF 9
ENDMDL
MODEL        4
REMARK 921   NORMALIZED FREE ENERGY PREDICTED BY IDOCK:   -7.86 KCAL/MOL
REMARK 922        TOTAL FREE ENERGY PREDICTED BY IDOCK:  -12.18 KCAL/MOL
REMARK 923 INTER-LIGAND FREE ENERGY PREDICTED BY IDOCK:  -11.40 KCAL/MOL
REMARK 924 INTRA-LIGAND FREE ENERGY PREDICTED BY IDOCK:   -0.79 KCAL/MOL
REMARK 927      BINDING AFFINITY PREDICTED BY RF-SCORE:    0.00 PKD
ROOT
HETATM    1  C   UNL     1     -13.720  14.089  72.186  1.00  0.00    -0.603 C  
HETATM    2  C   UNL     1     -12.827  15.162  71.594  1.00  0.00    -0.364 C  
ENDROOT
BRANCH   2   3
HETATM    3  O   UNL     1     -12.173  14.675  70.416  1.00  0.00    -0.289 OA 
BRANCH   3   4
HETATM    4  C   UNL     1     -12.007  15.736  69.464  1.00  0.00    -0.310 C  
BRANCH   4   5
HETATM    5  C   UNL     1     -10.691  15.581  68.702  1.00  0.00    -0.252 C  
BRANCH   5   6
HETATM    6  N   UNL     1     -10.593  16.466  67.552  1.00  0.00    -0.312 NA 
HETATM    7  C   UNL     1     -10.668  16.125  66.211  1.00  0.00    -0.213 A  
HETATM    8  N   UNL     1     -10.542  17.194  65.449  1.00  0.00    -0.626 NA 
HETATM    9  C   UNL     1     -10.210  18.718  68.696  1.00  0.00    -0.366 A  
HETATM   10  C   UNL     1     -10.369  18.250  66.302  1.00  0.00    -0.405 A  
HETATM   11  C   UNL     1     -10.382  17.828  67.627  1.00  0.00    -0.373 A  
HETATM   12  C   UNL     1     -10.042  20.073  68.386  1.00  0.00    -0.513 A  
HETATM   13  C   UNL     1     -10.187  19.610  66.008  1.00  0.00    -0.587 A  
HETATM   14  C   UNL     1     -10.029  20.515  67.064  1.00  0.00    -0.489 A  
BRANCH   7  15
HETATM   15  C   UNL     1     -10.842  14.730  65.702  1.00  0.00    -0.344 C  
HETATM   16  C   UNL     1      -9.932  12.438  65.411  1.00  0.00    -0.236 C  
HETATM   17  C   UNL     1     -12.348  12.778  65.454  1.00  0.00    -0.470 C  
HETATM   18  C   UNL     1     -12.165  14.119  66.165  1.00  0.00    -0.465 C  
HETATM   19  N   UNL     1     -11.249  11.823  65.673  1.00  0.00    -0.299 NA 
HETATM   20  C   UNL     1      -9.709  13.786  66.110  1.00  0.00    -0.280 C  
BRANCH  19  21
HETATM   21  C   UNL     1     -11.279  11.191  67.002  1.00  0.00    -0.219 C  
BRANCH  21  22
HETATM   22  C   UNL     1     -10.028  10.347  67.310  1.00  0.00    -0.229 C  
BRANCH  22  23
HETATM   23  C   UNL     1     -10.275   9.475  68.513  1.00  0.00    -0.223 A  
HETATM   24  C   UNL     1     -10.379  10.043  69.786  1.00  0.00    -0.290 A  
HETATM   25  C   UNL     1     -10.469   9.231  70.915  1.00  0.00    -0.372 A  
HETATM   26  C   UNL     1     -10.459   7.828  70.800  1.00  0.00    -0.213 A  
HETATM   27  C   UNL     1     -10.318   8.089  68.380  1.00  0.00    -0.236 A  
HETATM   28  C   UNL     1     -10.417   7.276  69.509  1.00  0.00    -0.238 A  
BRANCH  26  29
HETATM   29  C   UNL     1     -10.403   6.957  72.069  1.00  0.00    -0.220 C  
HETATM   30  C   UNL     1     -11.688   6.136  72.279  1.00  0.00    -0.302 C  
HETATM   31  C   UNL     1      -9.213   5.978  71.958  1.00  0.00    -0.151 C  
HETATM   32  C   UNL     1     -10.220   7.776  73.364  1.00  0.00    -0.315 C  
HETATM   33  O   UNL     1     -12.830   6.735  71.861  1.00  0.00    -0.338 OA 
HETATM   34  O   UNL     1     -11.727   5.049  72.837  1.00  0.00    -0.256 OA 
ENDBRANCH  26  29
ENDBRANCH  22  23
ENDBRANCH  21  22
ENDBRANCH  19  21
ENDBRANCH   7  15
ENDBRANCH   5   6
ENDBRANCH   4   5
ENDBRANCH   3   4
ENDBRANCH   2   3
TORSDOF 9
ENDMDL
MODEL        5
REMARK 921   NORMALIZED FREE ENERGY PREDICTED BY IDOCK:   -7.85 KCAL/MOL
REMARK 922        TOTAL FREE ENERGY PREDICTED BY IDOCK:  -12.17 KCAL/MOL
REMARK 923 INTER-LIGAND FREE ENERGY PREDICTED BY IDOCK:  -10.50 KCAL/MOL
REMARK 924 INTRA-LIGAND FREE ENERGY PREDICTED BY IDOCK:   -1.67 KCAL/MOL
REMARK 927      BINDING AFFINITY PREDICTED BY RF-SCORE:    0.00 PKD
ROOT
HETATM    1  C   UNL     1      -9.297  19.472  66.587  1.00  0.00    -0.430 C  
HETATM    2  C   UNL     1     -10.633  19.179  67.240  1.00  0.00    -0.478 C  
ENDROOT
BRANCH   2   3
HETATM    3  O   UNL     1     -10.451  18.378  68.414  1.00  0.00    -0.347 OA 
BRANCH   3   4
HETATM    4  C   UNL     1     -10.728  17.000  68.125  1.00  0.00    -0.374 C  
BRANCH   4   5
HETATM    5  C   UNL     1     -10.121  16.089  69.192  1.00  0.00    -0.242 C  
BRANCH   5   6
HETATM    6  N   UNL     1     -11.043  15.063  69.653  1.00  0.00    -0.261 NA 
HETATM    7  C   UNL     1     -11.355  13.863  69.035  1.00  0.00    -0.283 A  
HETATM    8  N   UNL     1     -12.230  13.182  69.749  1.00  0.00    -0.249 NA 
HETATM    9  C   UNL     1     -11.908  16.115  71.816  1.00  0.00    -0.581 A  
HETATM   10  C   UNL     1     -12.506  13.952  70.846  1.00  0.00    -0.375 A  
HETATM   11  C   UNL     1     -11.791  15.144  70.811  1.00  0.00    -0.324 A  
HETATM   12  C   UNL     1     -12.767  15.836  72.884  1.00  0.00    -0.572 A  
HETATM   13  C   UNL     1     -13.373  13.693  71.918  1.00  0.00    -0.510 A  
HETATM   14  C   UNL     1     -13.491  14.646  72.937  1.00  0.00    -0.528 A  
BRANCH   7  15
HETATM   15  C   UNL     1     -10.792  13.417  67.723  1.00  0.00    -0.267 C  
HETATM   16  C   UNL     1      -8.992  12.267  66.457  1.00  0.00    -0.161 C  
HETATM   17  C   UNL     1     -11.236  12.406  65.505  1.00  0.00    -0.325 C  
HETATM   18  C   UNL     1     -11.828  12.659  66.892  1.00  0.00    -0.425 C  
HETATM   19  N   UNL     1      -9.962  11.667  65.518  1.00  0.00    -0.234 NA 
HETATM   20  C   UNL     1      -9.550  12.535  67.861  1.00  0.00    -0.206 C  
BRANCH  19  21
HETATM   21  C   UNL     1     -10.124  10.228  65.778  1.00  0.00    -0.255 C  
BRANCH  21  22
HETATM   22  C   UNL     1      -8.888   9.577  66.428  1.00  0.00    -0.164 C  
BRANCH  22  23
HETATM   23  C   UNL     1      -9.241   9.045  67.793  1.00  0.00    -0.152 A  
HETATM   24  C   UNL     1     -10.410   8.300  67.977  1.00  0.00    -0.268 A  
HETATM   25  C   UNL     1     -10.811   7.924  69.258  1.00  0.00    -0.077 A  
HETATM   26  C   UNL     1     -10.052   8.282  70.388  1.00  0.00    -0.199 A  
HETATM   27  C   UNL     1      -8.452   9.359  68.897  1.00  0.00    -0.122 A  
HETATM   28  C   UNL     1      -8.849   8.976  70.177  1.00  0.00    -0.196 A  
BRANCH  26  29
HETATM   29  C   UNL     1     -10.597   7.990  71.799  1.00  0.00    -0.296 C  
HETATM   30  C   UNL     1     -11.836   8.835  72.141  1.00  0.00    -0.366 C  
HETATM   31  C   UNL     1     -10.986   6.497  71.891  1.00  0.00    -0.288 C  
HETATM   32  C   UNL     1      -9.578   8.280  72.919  1.00  0.00    -0.320 C  
HETATM   33  O   UNL     1     -11.853  10.079  71.601  1.00  0.00    -0.365 OA 
HETATM   34  O   UNL     1     -12.731   8.474  72.891  1.00  0.00    -0.259 OA 
ENDBRANCH  26  29
ENDBRANCH  22  23
ENDBRANCH  21  22
ENDBRANCH  19  21
ENDBRANCH   7  15
ENDBRANCH   5   6
ENDBRANCH   4   5
ENDBRANCH   3   4
ENDBRANCH   2   3
TORSDOF 9
ENDMDL
MODEL        6
REMARK 921   NORMALIZED FREE ENERGY PREDICTED BY IDOCK:   -7.84 KCAL/MOL
REMARK 922        TOTAL FREE ENERGY PREDICTED BY IDOCK:  -12.15 KCAL/MOL
REMARK 923 INTER-LIGAND FREE ENERGY PREDICTED BY IDOCK:  -10.61 KCAL/MOL
REMARK 924 INTRA-LIGAND FREE ENERGY PREDICTED BY IDOCK:   -1.54 KCAL/MOL
REMARK 927      BINDING AFFINITY PREDICTED BY RF-SCORE:    0.00 PKD
ROOT
HETATM    1  C   UNL     1      -7.566  17.861  66.285  1.00  0.00    -0.315 C  
HETATM    2  C   UNL     1      -8.743  18.241  67.162  1.00  0.00    -0.256 C  
ENDROOT
BRANCH   2   3
HETATM    3  O   UNL     1      -8.448  17.975  68.538  1.00  0.00    -0.304 OA 
BRANCH   3   4
HETATM    4  C   UNL     1      -9.125  16.787  68.972  1.00  0.00    -0.191 C  
BRANCH   4   5
HETATM    5  C   UNL     1     -10.633  17.022  69.057  1.00  0.00    -0.314 C  
BRANCH   5   6
HETATM    6  N   UNL     1     -11.373  15.827  69.434  1.00  0.00    -0.321 NA 
HETATM    7  C   UNL     1     -11.711  14.750  68.630  1.00  0.00    -0.325 A  
HETATM    8  N   UNL     1     -12.381  13.845  69.317  1.00  0.00    -0.264 NA 
HETATM    9  C   UNL     1     -11.881  16.318  71.890  1.00  0.00    -0.538 A  
HETATM   10  C   UNL     1     -12.497  14.342  70.587  1.00  0.00    -0.350 A  
HETATM   11  C   UNL     1     -11.889  15.589  70.692  1.00  0.00    -0.365 A  
HETATM   12  C   UNL     1     -12.497  15.734  73.002  1.00  0.00    -0.581 A  
HETATM   13  C   UNL     1     -13.121  13.777  71.709  1.00  0.00    -0.463 A  
HETATM   14  C   UNL     1     -13.110  14.485  72.917  1.00  0.00    -0.614 A  
BRANCH   7  15
HETATM   15  C   UNL     1     -11.380  14.644  67.176  1.00  0.00    -0.365 C  
HETATM   16  C   UNL     1      -9.786  13.964  65.397  1.00  0.00    -0.163 C  
HETATM   17  C   UNL     1     -12.172  14.079  64.897  1.00  0.00    -0.437 C  
HETATM   18  C   UNL     1     -12.507  13.979  66.386  1.00  0.00    -0.395 C  
HETATM   19  N   UNL     1     -10.878  13.481  64.528  1.00  0.00    -0.399 NA 
HETATM   20  C   UNL     1     -10.084  13.878  66.900  1.00  0.00    -0.260 C  
BRANCH  19  21
HETATM   21  C   UNL     1     -10.905  12.011  64.484  1.00  0.00    -0.314 C  
BRANCH  21  22
HETATM   22  C   UNL     1      -9.594  11.357  64.961  1.00  0.00    -0.250 C  
BRANCH  22  23
HETATM   23  C   UNL     1      -9.832  10.583  66.231  1.00  0.00    -0.269 A  
HETATM   24  C   UNL     1     -10.999  10.789  66.973  1.00  0.00    -0.292 A  
HETATM   25  C   UNL     1     -11.161  10.180  68.215  1.00  0.00    -0.285 A  
HETATM   26  C   UNL     1     -10.160   9.345  68.748  1.00  0.00    -0.208 A  
HETATM   27  C   UNL     1      -8.857   9.717  66.721  1.00  0.00    -0.151 A  
HETATM   28  C   UNL     1      -9.023   9.100  67.961  1.00  0.00    -0.129 A  
BRANCH  26  29
HETATM   29  C   UNL     1     -10.296   8.811  70.186  1.00  0.00    -0.225 C  
HETATM   30  C   UNL     1     -10.704   7.327  70.229  1.00  0.00    -0.236 C  
HETATM   31  C   UNL     1      -8.940   8.962  70.912  1.00  0.00    -0.273 C  
HETATM   32  C   UNL     1     -11.360   9.556  71.017  1.00  0.00    -0.423 C  
HETATM   33  O   UNL     1     -11.524   6.926  69.226  1.00  0.00    -0.134 OA 
HETATM   34  O   UNL     1     -10.389   6.551  71.119  1.00  0.00    -0.201 OA 
ENDBRANCH  26  29
ENDBRANCH  22  23
ENDBRANCH  21  22
ENDBRANCH  19  21
ENDBRANCH   7  15
ENDBRANCH   5   6
ENDBRANCH   4   5
ENDBRANCH   3   4
ENDBRANCH   2   3
TORSDOF 9
ENDMDL
MODEL        7
REMARK 921   NORMALIZED FREE ENERGY PREDICTED BY IDOCK:   -7.68 KCAL/MOL
REMARK 922        TOTAL FREE ENERGY PREDICTED BY IDOCK:  -11.90 KCAL/MOL
REMARK 923 INTER-LIGAND FREE ENERGY PREDICTED BY IDOCK:  -10.46 KCAL/MOL
REMARK 924 INTRA-LIGAND FREE ENERGY PREDICTED BY IDOCK:   -1.44 KCAL/MOL
REMARK 927      BINDING AFFINITY PREDICTED BY RF-SCORE:    0.00 PKD
ROOT
HETATM    1  C   UNL     1     -12.087  12.130  63.784  1.00  0.00    -0.620 C  
HETATM    2  C   UNL     1     -11.521  13.520  64.000  1.00  0.00    -0.320 C  
ENDROOT
BRANCH   2   3
HETATM    3  O   UNL     1     -12.520  14.514  63.740  1.00  0.00    -0.809 OA 
BRANCH   3   4
HETATM    4  C   UNL     1     -12.311  15.661  64.576  1.00  0.00     0.119 C  
BRANCH   4   5
HETATM    5  C   UNL     1     -10.819  15.899  64.808  1.00  0.00    -0.324 C  
BRANCH   5   6
HETATM    6  N   UNL     1     -10.526  16.402  66.141  1.00  0.00    -0.328 NA 
HETATM    7  C   UNL     1     -10.347  15.670  67.304  1.00  0.00    -0.277 A  
HETATM    8  N   UNL     1     -10.090  16.465  68.324  1.00  0.00    -0.240 NA 
HETATM    9  C   UNL     1     -10.492  18.922  65.719  1.00  0.00    -0.347 A  
HETATM   10  C   UNL     1     -10.113  17.740  67.826  1.00  0.00    -0.345 A  
HETATM   11  C   UNL     1     -10.397  17.738  66.465  1.00  0.00    -0.345 A  
HETATM   12  C   UNL     1     -10.269  20.127  66.395  1.00  0.00    -0.552 A  
HETATM   13  C   UNL     1      -9.904  18.957  68.490  1.00  0.00    -0.455 A  
HETATM   14  C   UNL     1      -9.981  20.148  67.759  1.00  0.00    -0.549 A  
BRANCH   7  15
HETATM   15  C   UNL     1     -10.457  14.181  67.390  1.00  0.00    -0.271 C  
HETATM   16  C   UNL     1      -9.545  12.020  68.206  1.00  0.00    -0.204 C  
HETATM   17  C   UNL     1     -11.931  12.220  67.737  1.00  0.00    -0.159 C  
HETATM   18  C   UNL     1     -11.846  13.742  67.855  1.00  0.00    -0.413 C  
HETATM   19  N   UNL     1     -10.895  11.496  68.493  1.00  0.00    -0.202 NA 
HETATM   20  C   UNL     1      -9.418  13.545  68.316  1.00  0.00    -0.212 C  
BRANCH  19  21
HETATM   21  C   UNL     1     -11.148  11.457  69.941  1.00  0.00    -0.059 C  
BRANCH  21  22
HETATM   22  C   UNL     1     -12.298  10.513  70.340  1.00  0.00    -0.409 C  
BRANCH  22  23
HETATM   23  C   UNL     1     -11.755   9.317  71.078  1.00  0.00    -0.378 A  
HETATM   24  C   UNL     1     -10.375   9.155  71.237  1.00  0.00    -0.405 A  
HETATM   25  C   UNL     1      -9.863   7.986  71.795  1.00  0.00    -0.240 A  
HETATM   26  C   UNL     1     -10.717   6.947  72.210  1.00  0.00    -0.253 A  
HETATM   27  C   UNL     1     -12.615   8.320  71.533  1.00  0.00    -0.333 A  
HETATM   28  C   UNL     1     -12.103   7.153  72.099  1.00  0.00    -0.284 A  
BRANCH  26  29
HETATM   29  C   UNL     1     -10.120   5.606  72.677  1.00  0.00    -0.208 C  
HETATM   30  C   UNL     1      -9.532   4.785  71.517  1.00  0.00    -0.153 C  
HETATM   31  C   UNL     1      -8.993   5.883  73.698  1.00  0.00    -0.127 C  
HETATM   32  C   UNL     1     -11.152   4.682  73.356  1.00  0.00    -0.418 C  
HETATM   33  O   UNL     1     -10.177   4.916  70.331  1.00  0.00    -0.247 OA 
HETATM   34  O   UNL     1      -8.594   4.009  71.628  1.00  0.00    -0.097 OA 
ENDBRANCH  26  29
ENDBRANCH  22  23
ENDBRANCH  21  22
ENDBRANCH  19  21
ENDBRANCH   7  15
ENDBRANCH   5   6
ENDBRANCH   4   5
ENDBRANCH   3   4
ENDBRANCH   2   3
TORSDOF 9
ENDMDL
MODEL        8
REMARK 921   NORMALIZED FREE ENERGY PREDICTED BY IDOCK:   -7.66 KCAL/MOL
REMARK 922        TOTAL FREE ENERGY PREDICTED BY IDOCK:  -11.87 KCAL/MOL
REMARK 923 INTER-LIGAND FREE ENERGY PREDICTED BY IDOCK:  -11.24 KCAL/MOL
REMARK 924 INTRA-LIGAND FREE ENERGY PREDICTED BY IDOCK:   -0.63 KCAL/MOL
REMARK 927      BINDING AFFINITY PREDICTED BY RF-SCORE:    0.00 PKD
ROOT
HETATM    1  C   UNL     1      -7.647  11.994  67.427  1.00  0.00    -0.151 C  
HETATM    2  C   UNL     1      -7.843  13.458  67.767  1.00  0.00    -0.158 C  
ENDROOT
BRANCH   2   3
HETATM    3  O   UNL     1      -9.150  13.675  68.312  1.00  0.00    -0.191 OA 
BRANCH   3   4
HETATM    4  C   UNL     1      -9.322  15.057  68.659  1.00  0.00    -0.202 C  
BRANCH   4   5
HETATM    5  C   UNL     1     -10.707  15.552  68.244  1.00  0.00    -0.271 C  
BRANCH   5   6
HETATM    6  N   UNL     1     -10.662  16.527  67.166  1.00  0.00    -0.270 NA 
HETATM    7  C   UNL     1     -10.880  16.309  65.815  1.00  0.00    -0.169 A  
HETATM    8  N   UNL     1     -10.760  17.432  65.134  1.00  0.00    -0.627 NA 
HETATM    9  C   UNL     1     -10.040  18.648  68.448  1.00  0.00    -0.426 A  
HETATM   10  C   UNL     1     -10.446  18.400  66.050  1.00  0.00    -0.374 A  
HETATM   11  C   UNL     1     -10.362  17.865  67.331  1.00  0.00    -0.378 A  
HETATM   12  C   UNL     1      -9.819  20.014  68.234  1.00  0.00    -0.475 A  
HETATM   13  C   UNL     1     -10.210  19.768  65.851  1.00  0.00    -0.556 A  
HETATM   14  C   UNL     1      -9.900  20.568  66.957  1.00  0.00    -0.534 A  
BRANCH   7  15
HETATM   15  C   UNL     1     -11.184  14.975  65.213  1.00  0.00    -0.368 C  
HETATM   16  C   UNL     1     -10.373  12.804  64.321  1.00  0.00    -0.377 C  
HETATM   17  C   UNL     1     -12.630  12.963  65.235  1.00  0.00    -0.439 C  
HETATM   18  C   UNL     1     -12.246  14.221  66.014  1.00  0.00    -0.422 C  
HETATM   19  N   UNL     1     -11.499  12.070  64.933  1.00  0.00    -0.316 NA 
HETATM   20  C   UNL     1      -9.956  14.073  65.076  1.00  0.00    -0.216 C  
BRANCH  19  21
HETATM   21  C   UNL     1     -11.048  11.285  66.093  1.00  0.00    -0.143 C  
BRANCH  21  22
HETATM   22  C   UNL     1     -11.631  11.776  67.432  1.00  0.00    -0.352 C  
BRANCH  22  23
HETATM   23  C   UNL     1     -11.376  10.758  68.512  1.00  0.00    -0.360 A  
HETATM   24  C   UNL     1     -10.627   9.611  68.236  1.00  0.00    -0.268 A  
HETATM   25  C   UNL     1     -10.505   8.602  69.189  1.00  0.00    -0.223 A  
HETATM   26  C   UNL     1     -11.129   8.715  70.446  1.00  0.00    -0.250 A  
HETATM   27  C   UNL     1     -11.954  10.907  69.771  1.00  0.00    -0.423 A  
HETATM   28  C   UNL     1     -11.826   9.902  70.728  1.00  0.00    -0.415 A  
BRANCH  26  29
HETATM   29  C   UNL     1     -11.108   7.522  71.420  1.00  0.00    -0.262 C  
HETATM   30  C   UNL     1     -10.337   7.831  72.716  1.00  0.00    -0.313 C  
HETATM   31  C   UNL     1     -12.560   7.150  71.796  1.00  0.00    -0.381 C  
HETATM   32  C   UNL     1     -10.438   6.264  70.831  1.00  0.00    -0.274 C  
HETATM   33  O   UNL     1      -9.279   8.667  72.572  1.00  0.00    -0.293 OA 
HETATM   34  O   UNL     1     -10.585   7.328  73.802  1.00  0.00    -0.364 OA 
ENDBRANCH  26  29
ENDBRANCH  22  23
ENDBRANCH  21  22
ENDBRANCH  19  21
ENDBRANCH   7  15
ENDBRANCH   5   6
ENDBRANCH   4   5
ENDBRANCH   3   4
ENDBRANCH   2   3
TORSDOF 9
ENDMDL
MODEL        9
REMARK 921   NORMALIZED FREE ENERGY PREDICTED BY IDOCK:   -7.65 KCAL/MOL
REMARK 922        TOTAL FREE ENERGY PREDICTED BY IDOCK:  -11.87 KCAL/MOL
REMARK 923 INTER-LIGAND FREE ENERGY PREDICTED BY IDOCK:  -10.13 KCAL/MOL
REMARK 924 INTRA-LIGAND FREE ENERGY PREDICTED BY IDOCK:   -1.73 KCAL/MOL
REMARK 927      BINDING AFFINITY PREDICTED BY RF-SCORE:    0.00 PKD
ROOT
HETATM    1  C   UNL     1      -9.315   6.846  74.289  1.00  0.00    -0.269 C  
HETATM    2  C   UNL     1      -8.319   5.710  74.160  1.00  0.00    -0.107 C  
ENDROOT
BRANCH   2   3
HETATM    3  O   UNL     1      -8.132   5.363  72.783  1.00  0.00    -0.108 OA 
BRANCH   3   4
HETATM    4  C   UNL     1      -8.599   4.028  72.537  1.00  0.00    -0.103 C  
BRANCH   4   5
HETATM    5  C   UNL     1      -9.995   4.048  71.915  1.00  0.00    -0.176 C  
BRANCH   5   6
HETATM    6  N   UNL     1      -9.995   4.514  70.537  1.00  0.00    -0.223 NA 
HETATM    7  C   UNL     1     -10.377   5.758  70.063  1.00  0.00    -0.259 A  
HETATM    8  N   UNL     1     -10.239   5.823  68.753  1.00  0.00    -0.176 NA 
HETATM    9  C   UNL     1      -9.170   2.428  69.313  1.00  0.00    -0.193 A  
HETATM   10  C   UNL     1      -9.773   4.598  68.360  1.00  0.00    -0.134 A  
HETATM   11  C   UNL     1      -9.622   3.748  69.450  1.00  0.00    -0.149 A  
HETATM   12  C   UNL     1      -8.852   1.989  68.022  1.00  0.00    -0.154 A  
HETATM   13  C   UNL     1      -9.460   4.137  67.072  1.00  0.00    -0.215 A  
HETATM   14  C   UNL     1      -8.994   2.827  66.918  1.00  0.00    -0.171 A  
BRANCH   7  15
HETATM   15  C   UNL     1     -10.898   6.866  70.922  1.00  0.00    -0.277 C  
HETATM   16  C   UNL     1     -10.768   9.236  71.655  1.00  0.00    -0.323 C  
HETATM   17  C   UNL     1     -12.883   8.032  71.838  1.00  0.00    -0.320 C  
HETATM   18  C   UNL     1     -12.414   7.013  70.798  1.00  0.00    -0.253 C  
HETATM   19  N   UNL     1     -12.239   9.351  71.725  1.00  0.00    -0.376 NA 
HETATM   20  C   UNL     1     -10.259   8.223  70.620  1.00  0.00    -0.214 C  
BRANCH  19  21
HETATM   21  C   UNL     1     -12.757  10.160  70.611  1.00  0.00    -0.255 C  
BRANCH  21  22
HETATM   22  C   UNL     1     -12.242  11.612  70.613  1.00  0.00    -0.461 C  
BRANCH  22  23
HETATM   23  C   UNL     1     -11.786  12.003  69.231  1.00  0.00    -0.377 A  
HETATM   24  C   UNL     1     -11.775  13.347  68.848  1.00  0.00    -0.369 A  
HETATM   25  C   UNL     1     -11.487  13.701  67.531  1.00  0.00    -0.360 A  
HETATM   26  C   UNL     1     -11.202  12.720  66.563  1.00  0.00    -0.349 A  
HETATM   27  C   UNL     1     -11.453  11.025  68.297  1.00  0.00    -0.374 A  
HETATM   28  C   UNL     1     -11.157  11.379  66.981  1.00  0.00    -0.364 A  
BRANCH  26  29
HETATM   29  C   UNL     1     -11.042  13.126  65.086  1.00  0.00    -0.308 C  
HETATM   30  C   UNL     1     -12.394  13.306  64.373  1.00  0.00    -0.348 C  
HETATM   31  C   UNL     1     -10.271  14.463  65.010  1.00  0.00    -0.406 C  
HETATM   32  C   UNL     1     -10.268  12.088  64.248  1.00  0.00    -0.347 C  
HETATM   33  O   UNL     1     -13.383  12.478  64.793  1.00  0.00    -0.773 OA 
HETATM   34  O   UNL     1     -12.587  14.079  63.446  1.00  0.00    -0.845 OA 
ENDBRANCH  26  29
ENDBRANCH  22  23
ENDBRANCH  21  22
ENDBRANCH  19  21
ENDBRANCH   7  15
ENDBRANCH   5   6
ENDBRANCH   4   5
ENDBRANCH   3   4
ENDBRANCH   2   3
TORSDOF 9
ENDMDL
MODEL       10
REMARK 921   NORMALIZED FREE ENERGY PREDICTED BY IDOCK:   -7.61 KCAL/MOL
REMARK 922        TOTAL FREE ENERGY PREDICTED BY IDOCK:  -11.79 KCAL/MOL
REMARK 923 INTER-LIGAND FREE ENERGY PREDICTED BY IDOCK:  -11.22 KCAL/MOL
REMARK 924 INTRA-LIGAND FREE ENERGY PREDICTED BY IDOCK:   -0.57 KCAL/MOL
REMARK 927      BINDING AFFINITY PREDICTED BY RF-SCORE:    0.00 PKD
ROOT
HETATM    1  C   UNL     1     -12.996  15.542  71.278  1.00  0.00    -0.565 C  
HETATM    2  C   UNL     1     -12.816  14.123  70.775  1.00  0.00    -0.310 C  
ENDROOT
BRANCH   2   3
HETATM    3  O   UNL     1     -12.227  14.127  69.469  1.00  0.00    -0.326 OA 
BRANCH   3   4
HETATM    4  C   UNL     1     -11.710  15.429  69.159  1.00  0.00    -0.345 C  
BRANCH   4   5
HETATM    5  C   UNL     1     -10.520  15.327  68.206  1.00  0.00    -0.244 C  
BRANCH   5   6
HETATM    6  N   UNL     1     -10.531  16.351  67.172  1.00  0.00    -0.302 NA 
HETATM    7  C   UNL     1     -10.773  16.186  65.818  1.00  0.00    -0.280 A  
HETATM    8  N   UNL     1     -10.706  17.341  65.186  1.00  0.00    -0.651 NA 
HETATM    9  C   UNL     1      -9.948  18.432  68.535  1.00  0.00    -0.415 A  
HETATM   10  C   UNL     1     -10.402  18.277  66.138  1.00  0.00    -0.398 A  
HETATM   11  C   UNL     1     -10.271  17.689  67.391  1.00  0.00    -0.345 A  
HETATM   12  C   UNL     1      -9.776  19.812  68.379  1.00  0.00    -0.480 A  
HETATM   13  C   UNL     1     -10.215  19.660  65.997  1.00  0.00    -0.587 A  
HETATM   14  C   UNL     1      -9.906  20.420  67.131  1.00  0.00    -0.601 A  
BRANCH   7  15
HETATM   15  C   UNL     1     -11.048  14.870  65.163  1.00  0.00    -0.399 C  
HETATM   16  C   UNL     1     -10.202  12.702  64.298  1.00  0.00    -0.332 C  
HETATM   17  C   UNL     1     -12.527  12.888  65.015  1.00  0.00    -0.492 C  
HETATM   18  C   UNL     1     -12.189  14.122  65.852  1.00  0.00    -0.458 C  
HETATM   19  N   UNL     1     -11.390  11.978  64.793  1.00  0.00    -0.322 NA 
HETATM   20  C   UNL     1      -9.829  13.947  65.114  1.00  0.00    -0.135 C  
BRANCH  19  21
HETATM   21  C   UNL     1     -11.056  11.162  65.971  1.00  0.00    -0.048 C  
BRANCH  21  22
HETATM   22  C   UNL     1     -10.024  10.056  65.680  1.00  0.00    -0.355 C  
BRANCH  22  23
HETATM   23  C   UNL     1      -9.887   9.148  66.874  1.00  0.00    -0.280 A  
HETATM   24  C   UNL     1     -10.535   7.909  66.893  1.00  0.00    -0.388 A  
HETATM   25  C   UNL     1     -10.525   7.127  68.046  1.00  0.00    -0.251 A  
HETATM   26  C   UNL     1      -9.867   7.563  69.211  1.00  0.00    -0.170 A  
HETATM   27  C   UNL     1      -9.186   9.568  68.002  1.00  0.00    -0.136 A  
HETATM   28  C   UNL     1      -9.169   8.782  69.153  1.00  0.00    -0.149 A  
BRANCH  26  29
HETATM   29  C   UNL     1     -10.003   6.755  70.515  1.00  0.00    -0.197 C  
HETATM   30  C   UNL     1     -11.088   7.319  71.449  1.00  0.00    -0.243 C  
HETATM   31  C   UNL     1     -10.371   5.295  70.169  1.00  0.00    -0.354 C  
HETATM   32  C   UNL     1      -8.709   6.728  71.355  1.00  0.00    -0.131 C  
HETATM   33  O   UNL     1     -11.237   8.667  71.413  1.00  0.00    -0.245 OA 
HETATM   34  O   UNL     1     -11.744   6.645  72.230  1.00  0.00    -0.284 OA 
ENDBRANCH  26  29
ENDBRANCH  22  23
ENDBRANCH  21  22
ENDBRANCH  19  21
ENDBRANCH   7  15
ENDBRANCH   5   6
ENDBRANCH   4   5
ENDBRANCH   3   4
ENDBRANCH   2   3
TORSDOF 9
ENDMDL
MODEL       11
REMARK 921   NORMALIZED FREE ENERGY PREDICTED BY IDOCK:   -7.59 KCAL/MOL
REMARK 922        TOTAL FREE ENERGY PREDICTED BY IDOCK:  -11.77 KCAL/MOL
REMARK 923 INTER-LIGAND FREE ENERGY PREDICTED BY IDOCK:   -9.60 KCAL/MOL
REMARK 924 INTRA-LIGAND FREE ENERGY PREDICTED BY IDOCK:   -2.17 KCAL/MOL
REMARK 927      BINDING AFFINITY PREDICTED BY RF-SCORE:    0.00 PKD
ROOT
HETATM    1  C   UNL     1     -11.791  13.039  63.740  1.00  0.00    -0.566 C  
HETATM    2  C   UNL     1     -12.743  13.384  64.869  1.00  0.00    -0.304 C  
ENDROOT
BRANCH   2   3
HETATM    3  O   UNL     1     -12.285  14.543  65.574  1.00  0.00    -0.353 OA 
BRANCH   3   4
HETATM    4  C   UNL     1     -10.876  14.726  65.370  1.00  0.00    -0.363 C  
BRANCH   4   5
HETATM    5  C   UNL     1     -10.152  14.899  66.705  1.00  0.00    -0.258 C  
BRANCH   5   6
HETATM    6  N   UNL     1     -10.606  13.963  67.722  1.00  0.00    -0.244 NA 
HETATM    7  C   UNL     1     -10.411  12.592  67.760  1.00  0.00    -0.220 A  
HETATM    8  N   UNL     1     -10.960  12.070  68.839  1.00  0.00    -0.229 NA 
HETATM    9  C   UNL     1     -11.851  15.529  69.312  1.00  0.00    -0.372 A  
HETATM   10  C   UNL     1     -11.536  13.113  69.514  1.00  0.00    -0.283 A  
HETATM   11  C   UNL     1     -11.345  14.312  68.835  1.00  0.00    -0.274 A  
HETATM   12  C   UNL     1     -12.551  15.505  70.524  1.00  0.00    -0.462 A  
HETATM   13  C   UNL     1     -12.250  13.105  70.721  1.00  0.00    -0.375 A  
HETATM   14  C   UNL     1     -12.750  14.313  71.219  1.00  0.00    -0.427 A  
BRANCH   7  15
HETATM   15  C   UNL     1      -9.696  11.811  66.704  1.00  0.00    -0.219 C  
HETATM   16  C   UNL     1      -7.582  10.838  65.836  1.00  0.00    -0.106 C  
HETATM   17  C   UNL     1      -9.717   9.842  65.199  1.00  0.00    -0.306 C  
HETATM   18  C   UNL     1     -10.399  10.485  66.407  1.00  0.00    -0.283 C  
HETATM   19  N   UNL     1      -8.272   9.619  65.369  1.00  0.00    -0.123 NA 
HETATM   20  C   UNL     1      -8.236  11.512  67.050  1.00  0.00    -0.167 C  
BRANCH  19  21
HETATM   21  C   UNL     1      -7.955   8.471  66.233  1.00  0.00    -0.102 C  
BRANCH  21  22
HETATM   22  C   UNL     1      -9.099   7.444  66.335  1.00  0.00    -0.196 C  
BRANCH  22  23
HETATM   23  C   UNL     1      -9.586   7.350  67.757  1.00  0.00    -0.162 A  
HETATM   24  C   UNL     1     -10.763   6.656  68.054  1.00  0.00    -0.330 A  
HETATM   25  C   UNL     1     -11.291   6.684  69.343  1.00  0.00    -0.331 A  
HETATM   26  C   UNL     1     -10.655   7.405  70.371  1.00  0.00    -0.238 A  
HETATM   27  C   UNL     1      -8.917   8.024  68.777  1.00  0.00    -0.141 A  
HETATM   28  C   UNL     1      -9.440   8.044  70.069  1.00  0.00    -0.160 A  
BRANCH  26  29
HETATM   29  C   UNL     1     -11.339   7.546  71.743  1.00  0.00    -0.289 C  
HETATM   30  C   UNL     1     -12.438   8.625  71.747  1.00  0.00    -0.346 C  
HETATM   31  C   UNL     1     -11.984   6.195  72.128  1.00  0.00    -0.314 C  
HETATM   32  C   UNL     1     -10.367   7.943  72.873  1.00  0.00    -0.413 C  
HETATM   33  O   UNL     1     -12.203   9.690  70.941  1.00  0.00    -0.298 OA 
HETATM   34  O   UNL     1     -13.431   8.594  72.458  1.00  0.00    -0.351 OA 
ENDBRANCH  26  29
ENDBRANCH  22  23
ENDBRANCH  21  22
ENDBRANCH  19  21
ENDBRANCH   7  15
ENDBRANCH   5   6
ENDBRANCH   4   5
ENDBRANCH   3   4
ENDBRANCH   2   3
TORSDOF 9
ENDMDL
MODEL       12
REMARK 921   NORMALIZED FREE ENERGY PREDICTED BY IDOCK:   -7.57 KCAL/MOL
REMARK 922        TOTAL FREE ENERGY PREDICTED BY IDOCK:  -11.74 KCAL/MOL
REMARK 923 INTER-LIGAND FREE ENERGY PREDICTED BY IDOCK:  -10.16 KCAL/MOL
REMARK 924 INTRA-LIGAND FREE ENERGY PREDICTED BY IDOCK:   -1.59 KCAL/MOL
REMARK 927      BINDING AFFINITY PREDICTED BY RF-SCORE:    0.00 PKD
ROOT
HETATM    1  C   UNL     1      -9.618  20.030  66.469  1.00  0.00    -0.539 C  
HETATM    2  C   UNL     1     -10.595  19.067  67.115  1.00  0.00    -0.462 C  
ENDROOT
BRANCH   2   3
HETATM    3  O   UNL     1      -9.963  17.806  67.365  1.00  0.00    -0.301 OA 
BRANCH   3   4
HETATM    4  C   UNL     1     -10.861  16.928  68.060  1.00  0.00    -0.338 C  
BRANCH   4   5
HETATM    5  C   UNL     1     -10.094  16.002  69.003  1.00  0.00    -0.239 C  
BRANCH   5   6
HETATM    6  N   UNL     1     -10.935  14.975  69.598  1.00  0.00    -0.269 NA 
HETATM    7  C   UNL     1     -11.201  13.708  69.106  1.00  0.00    -0.261 A  
HETATM    8  N   UNL     1     -12.005  13.049  69.919  1.00  0.00    -0.330 NA 
HETATM    9  C   UNL     1     -11.769  16.176  71.694  1.00  0.00    -0.558 A  
HETATM   10  C   UNL     1     -12.280  13.903  70.953  1.00  0.00    -0.361 A  
HETATM   11  C   UNL     1     -11.638  15.123  70.778  1.00  0.00    -0.317 A  
HETATM   12  C   UNL     1     -12.567  15.951  72.822  1.00  0.00    -0.567 A  
HETATM   13  C   UNL     1     -13.086  13.698  72.083  1.00  0.00    -0.489 A  
HETATM   14  C   UNL     1     -13.217  14.734  73.016  1.00  0.00    -0.592 A  
BRANCH   7  15
HETATM   15  C   UNL     1     -10.668  13.172  67.816  1.00  0.00    -0.252 C  
HETATM   16  C   UNL     1      -8.984  11.802  66.610  1.00  0.00    -0.195 C  
HETATM   17  C   UNL     1     -11.181  12.166  65.610  1.00  0.00    -0.335 C  
HETATM   18  C   UNL     1     -11.766  12.515  66.979  1.00  0.00    -0.437 C  
HETATM   19  N   UNL     1      -9.998  11.291  65.665  1.00  0.00    -0.235 NA 
HETATM   20  C   UNL     1      -9.534  12.162  67.997  1.00  0.00    -0.201 C  
BRANCH  19  21
HETATM   21  C   UNL     1     -10.323   9.885  65.951  1.00  0.00    -0.113 C  
BRANCH  21  22
HETATM   22  C   UNL     1      -9.113   9.058  66.424  1.00  0.00    -0.213 C  
BRANCH  22  23
HETATM   23  C   UNL     1      -9.423   8.391  67.738  1.00  0.00    -0.171 A  
HETATM   24  C   UNL     1     -10.576   7.613  67.878  1.00  0.00    -0.233 A  
HETATM   25  C   UNL     1     -10.939   7.109  69.126  1.00  0.00    -0.142 A  
HETATM   26  C   UNL     1     -10.157   7.369  70.267  1.00  0.00    -0.197 A  
HETATM   27  C   UNL     1      -8.611   8.611  68.849  1.00  0.00    -0.130 A  
HETATM   28  C   UNL     1      -8.969   8.099  70.095  1.00  0.00    -0.146 A  
BRANCH  26  29
HETATM   29  C   UNL     1     -10.662   6.933  71.655  1.00  0.00    -0.246 C  
HETATM   30  C   UNL     1      -9.950   5.669  72.172  1.00  0.00    -0.178 C  
HETATM   31  C   UNL     1     -10.416   8.077  72.665  1.00  0.00    -0.408 C  
HETATM   32  C   UNL     1     -12.167   6.598  71.680  1.00  0.00    -0.401 C  
HETATM   33  O   UNL     1      -9.595   4.775  71.217  1.00  0.00    -0.150 OA 
HETATM   34  O   UNL     1      -9.759   5.421  73.353  1.00  0.00    -0.147 OA 
ENDBRANCH  26  29
ENDBRANCH  22  23
ENDBRANCH  21  22
ENDBRANCH  19  21
ENDBRANCH   7  15
ENDBRANCH   5   6
ENDBRANCH   4   5
ENDBRANCH   3   4
ENDBRANCH   2   3
TORSDOF 9
ENDMDL
MODEL       13
REMARK 921   NORMALIZED FREE ENERGY PREDICTED BY IDOCK:   -7.57 KCAL/MOL
REMARK 922        TOTAL FREE ENERGY PREDICTED BY IDOCK:  -11.73 KCAL/MOL
REMARK 923 INTER-LIGAND FREE ENERGY PREDICTED BY IDOCK:  -10.37 KCAL/MOL
REMARK 924 INTRA-LIGAND FREE ENERGY PREDICTED BY IDOCK:   -1.36 KCAL/MOL
REMARK 927      BINDING AFFINITY PREDICTED BY RF-SCORE:    0.00 PKD
ROOT
HETATM    1  C   UNL     1      -9.618  20.701  67.266  1.00  0.00    -0.558 C  
HETATM    2  C   UNL     1      -9.920  19.557  68.214  1.00  0.00    -0.433 C  
ENDROOT
BRANCH   2   3
HETATM    3  O   UNL     1      -9.797  18.300  67.537  1.00  0.00    -0.298 OA 
BRANCH   3   4
HETATM    4  C   UNL     1     -10.793  17.382  68.007  1.00  0.00    -0.281 C  
BRANCH   4   5
HETATM    5  C   UNL     1     -10.322  16.671  69.275  1.00  0.00    -0.318 C  
BRANCH   5   6
HETATM    6  N   UNL     1     -11.211  15.596  69.687  1.00  0.00    -0.283 NA 
HETATM    7  C   UNL     1     -11.619  14.501  68.943  1.00  0.00    -0.309 A  
HETATM    8  N   UNL     1     -12.425  13.730  69.647  1.00  0.00    -0.222 NA 
HETATM    9  C   UNL     1     -11.802  16.330  72.063  1.00  0.00    -0.568 A  
HETATM   10  C   UNL     1     -12.558  14.335  70.868  1.00  0.00    -0.356 A  
HETATM   11  C   UNL     1     -11.822  15.514  70.923  1.00  0.00    -0.371 A  
HETATM   12  C   UNL     1     -12.543  15.905  73.171  1.00  0.00    -0.622 A  
HETATM   13  C   UNL     1     -13.305  13.930  71.983  1.00  0.00    -0.523 A  
HETATM   14  C   UNL     1     -13.285  14.725  73.135  1.00  0.00    -0.543 A  
BRANCH   7  15
HETATM   15  C   UNL     1     -11.218  14.246  67.525  1.00  0.00    -0.322 C  
HETATM   16  C   UNL     1      -9.556  13.359  65.907  1.00  0.00    -0.109 C  
HETATM   17  C   UNL     1     -11.910  13.479  65.273  1.00  0.00    -0.352 C  
HETATM   18  C   UNL     1     -12.322  13.532  66.744  1.00  0.00    -0.326 C  
HETATM   19  N   UNL     1     -10.616  12.818  65.032  1.00  0.00    -0.298 NA 
HETATM   20  C   UNL     1      -9.932  13.427  67.393  1.00  0.00    -0.230 C  
BRANCH  19  21
HETATM   21  C   UNL     1     -10.681  11.352  65.129  1.00  0.00    -0.269 C  
BRANCH  21  22
HETATM   22  C   UNL     1      -9.334  10.699  65.493  1.00  0.00    -0.245 C  
BRANCH  22  23
HETATM   23  C   UNL     1      -9.464   9.925  66.778  1.00  0.00    -0.212 A  
HETATM   24  C   UNL     1      -8.364   9.238  67.301  1.00  0.00    -0.125 A  
HETATM   25  C   UNL     1      -8.513   8.410  68.412  1.00  0.00    -0.135 A  
HETATM   26  C   UNL     1      -9.767   8.248  69.031  1.00  0.00    -0.167 A  
HETATM   27  C   UNL     1     -10.699   9.816  67.413  1.00  0.00    -0.314 A  
HETATM   28  C   UNL     1     -10.847   8.994  68.530  1.00  0.00    -0.061 A  
BRANCH  26  29
HETATM   29  C   UNL     1      -9.935   7.211  70.156  1.00  0.00    -0.190 C  
HETATM   30  C   UNL     1     -10.232   7.861  71.520  1.00  0.00    -0.190 C  
HETATM   31  C   UNL     1     -11.107   6.267  69.803  1.00  0.00    -0.473 C  
HETATM   32  C   UNL     1      -8.681   6.342  70.379  1.00  0.00    -0.146 C  
HETATM   33  O   UNL     1      -9.642   9.065  71.726  1.00  0.00    -0.290 OA 
HETATM   34  O   UNL     1     -10.892   7.336  72.404  1.00  0.00    -0.229 OA 
ENDBRANCH  26  29
ENDBRANCH  22  23
ENDBRANCH  21  22
ENDBRANCH  19  21
ENDBRANCH   7  15
ENDBRANCH   5   6
ENDBRANCH   4   5
ENDBRANCH   3   4
ENDBRANCH   2   3
TORSDOF 9
ENDMDL
MODEL       14
REMARK 921   NORMALIZED FREE ENERGY PREDICTED BY IDOCK:   -7.55 KCAL/MOL
REMARK 922        TOTAL FREE ENERGY PREDICTED BY IDOCK:  -11.71 KCAL/MOL
REMARK 923 INTER-LIGAND FREE ENERGY PREDICTED BY IDOCK:  -10.29 KCAL/MOL
REMARK 924 INTRA-LIGAND FREE ENERGY PREDICTED BY IDOCK:   -1.42 KCAL/MOL
REMARK 927      BINDING AFFINITY PREDICTED BY RF-SCORE:    0.00 PKD
ROOT
HETATM    1  C   UNL     1     -14.250  14.772  71.488  1.00  0.00    -0.580 C  
HETATM    2  C   UNL     1     -13.601  13.919  72.561  1.00  0.00    -0.576 C  
ENDROOT
BRANCH   2   3
HETATM    3  O   UNL     1     -13.485  12.561  72.119  1.00  0.00    -0.532 OA 
BRANCH   3   4
HETATM    4  C   UNL     1     -12.474  12.452  71.106  1.00  0.00    -0.222 C  
BRANCH   4   5
HETATM    5  C   UNL     1     -12.523  11.079  70.436  1.00  0.00    -0.313 C  
BRANCH   5   6
HETATM    6  N   UNL     1     -11.270  10.717  69.793  1.00  0.00    -0.275 NA 
HETATM    7  C   UNL     1     -10.807  11.119  68.551  1.00  0.00    -0.203 A  
HETATM    8  N   UNL     1      -9.624  10.593  68.299  1.00  0.00    -0.157 NA 
HETATM    9  C   UNL     1     -10.257   9.150  71.539  1.00  0.00    -0.403 A  
HETATM   10  C   UNL     1      -9.312   9.823  69.387  1.00  0.00    -0.202 A  
HETATM   11  C   UNL     1     -10.327   9.866  70.336  1.00  0.00    -0.260 A  
HETATM   12  C   UNL     1      -9.104   8.391  71.769  1.00  0.00    -0.283 A  
HETATM   13  C   UNL     1      -8.168   9.048  69.628  1.00  0.00    -0.116 A  
HETATM   14  C   UNL     1      -8.074   8.337  70.830  1.00  0.00    -0.105 A  
BRANCH   7  15
HETATM   15  C   UNL     1     -11.561  12.009  67.615  1.00  0.00    -0.392 C  
HETATM   16  C   UNL     1     -12.272  14.295  66.956  1.00  0.00    -0.303 C  
HETATM   17  C   UNL     1     -12.149  12.538  65.267  1.00  0.00    -0.444 C  
HETATM   18  C   UNL     1     -11.207  11.725  66.155  1.00  0.00    -0.363 C  
HETATM   19  N   UNL     1     -12.116  13.988  65.520  1.00  0.00    -0.389 NA 
HETATM   20  C   UNL     1     -11.340  13.500  67.881  1.00  0.00    -0.320 C  
BRANCH  19  21
HETATM   21  C   UNL     1     -10.925  14.651  64.966  1.00  0.00    -0.405 C  
BRANCH  21  22
HETATM   22  C   UNL     1     -11.019  16.189  64.970  1.00  0.00    -0.357 C  
BRANCH  22  23
HETATM   23  C   UNL     1      -9.940  16.772  65.844  1.00  0.00    -0.299 A  
HETATM   24  C   UNL     1     -10.054  18.078  66.328  1.00  0.00    -0.363 A  
HETATM   25  C   UNL     1      -8.999  18.669  67.020  1.00  0.00    -0.289 A  
HETATM   26  C   UNL     1      -7.799  17.967  67.247  1.00  0.00    -0.225 A  
HETATM   27  C   UNL     1      -8.780  16.047  66.108  1.00  0.00    -0.348 A  
HETATM   28  C   UNL     1      -7.726  16.634  66.807  1.00  0.00    -0.292 A  
BRANCH  26  29
HETATM   29  C   UNL     1      -6.596  18.693  67.875  1.00  0.00    -0.219 C  
HETATM   30  C   UNL     1      -5.888  19.633  66.882  1.00  0.00    -0.173 C  
HETATM   31  C   UNL     1      -7.083  19.534  69.076  1.00  0.00    -0.399 C  
HETATM   32  C   UNL     1      -5.501  17.733  68.385  1.00  0.00    -0.158 C  
HETATM   33  O   UNL     1      -5.890  19.215  65.591  1.00  0.00    -0.158 OA 
HETATM   34  O   UNL     1      -5.300  20.655  67.200  1.00  0.00    -0.166 OA 
ENDBRANCH  26  29
ENDBRANCH  22  23
ENDBRANCH  21  22
ENDBRANCH  19  21
ENDBRANCH   7  15
ENDBRANCH   5   6
ENDBRANCH   4   5
ENDBRANCH   3   4
ENDBRANCH   2   3
TORSDOF 9
ENDMDL
MODEL       15
REMARK 921   NORMALIZED FREE ENERGY PREDICTED BY IDOCK:   -7.52 KCAL/MOL
REMARK 922        TOTAL FREE ENERGY PREDICTED BY IDOCK:  -11.66 KCAL/MOL
REMARK 923 INTER-LIGAND FREE ENERGY PREDICTED BY IDOCK:  -10.62 KCAL/MOL
REMARK 924 INTRA-LIGAND FREE ENERGY PREDICTED BY IDOCK:   -1.04 KCAL/MOL
REMARK 927      BINDING AFFINITY PREDICTED BY RF-SCORE:    0.00 PKD
ROOT
HETATM    1  C   UNL     1      -8.609  19.728  67.455  1.00  0.00    -0.374 C  
HETATM    2  C   UNL     1      -9.961  19.418  66.841  1.00  0.00    -0.369 C  
ENDROOT
BRANCH   2   3
HETATM    3  O   UNL     1     -10.849  18.882  67.830  1.00  0.00    -0.342 OA 
BRANCH   3   4
HETATM    4  C   UNL     1     -10.893  17.451  67.737  1.00  0.00    -0.257 C  
BRANCH   4   5
HETATM    5  C   UNL     1     -10.454  16.808  69.052  1.00  0.00    -0.336 C  
BRANCH   5   6
HETATM    6  N   UNL     1     -11.297  15.689  69.445  1.00  0.00    -0.304 NA 
HETATM    7  C   UNL     1     -11.704  14.619  68.665  1.00  0.00    -0.329 A  
HETATM    8  N   UNL     1     -12.460  13.792  69.362  1.00  0.00    -0.162 NA 
HETATM    9  C   UNL     1     -11.813  16.293  71.874  1.00  0.00    -0.538 A  
HETATM   10  C   UNL     1     -12.561  14.335  70.614  1.00  0.00    -0.355 A  
HETATM   11  C   UNL     1     -11.856  15.531  70.698  1.00  0.00    -0.365 A  
HETATM   12  C   UNL     1     -12.499  15.795  72.988  1.00  0.00    -0.581 A  
HETATM   13  C   UNL     1     -13.252  13.857  71.737  1.00  0.00    -0.455 A  
HETATM   14  C   UNL     1     -13.209  14.597  72.924  1.00  0.00    -0.609 A  
BRANCH   7  15
HETATM   15  C   UNL     1     -11.353  14.442  67.223  1.00  0.00    -0.357 C  
HETATM   16  C   UNL     1      -9.809  13.538  65.500  1.00  0.00    -0.143 C  
HETATM   17  C   UNL     1     -12.151  13.927  64.934  1.00  0.00    -0.414 C  
HETATM   18  C   UNL     1     -12.532  13.900  66.415  1.00  0.00    -0.414 C  
HETATM   19  N   UNL     1     -10.930  13.170  64.611  1.00  0.00    -0.336 NA 
HETATM   20  C   UNL     1     -10.152  13.521  66.996  1.00  0.00    -0.244 C  
BRANCH  19  21
HETATM   21  C   UNL     1     -11.132  11.713  64.594  1.00  0.00    -0.278 C  
BRANCH  21  22
HETATM   22  C   UNL     1      -9.834  10.914  64.372  1.00  0.00    -0.365 C  
BRANCH  22  23
HETATM   23  C   UNL     1      -9.702   9.839  65.419  1.00  0.00    -0.383 A  
HETATM   24  C   UNL     1      -8.762   8.817  65.264  1.00  0.00    -0.216 A  
HETATM   25  C   UNL     1      -8.729   7.747  66.157  1.00  0.00    -0.177 A  
HETATM   26  C   UNL     1      -9.636   7.673  67.231  1.00  0.00    -0.201 A  
HETATM   27  C   UNL     1     -10.570   9.807  66.508  1.00  0.00    -0.150 A  
HETATM   28  C   UNL     1     -10.532   8.741  67.407  1.00  0.00    -0.349 A  
BRANCH  26  29
HETATM   29  C   UNL     1      -9.681   6.409  68.108  1.00  0.00    -0.122 C  
HETATM   30  C   UNL     1     -10.007   5.140  67.300  1.00  0.00    -0.186 C  
HETATM   31  C   UNL     1      -8.305   6.213  68.785  1.00  0.00    -0.111 C  
HETATM   32  C   UNL     1     -10.747   6.474  69.220  1.00  0.00    -0.329 C  
HETATM   33  O   UNL     1     -10.847   5.324  66.251  1.00  0.00    -0.285 OA 
HETATM   34  O   UNL     1      -9.613   4.020  67.587  1.00  0.00    -0.180 OA 
ENDBRANCH  26  29
ENDBRANCH  22  23
ENDBRANCH  21  22
ENDBRANCH  19  21
ENDBRANCH   7  15
ENDBRANCH   5   6
ENDBRANCH   4   5
ENDBRANCH   3   4
ENDBRANCH   2   3
TORSDOF 9
ENDMDL
MODEL       16
REMARK 921   NORMALIZED FREE ENERGY PREDICTED BY IDOCK:   -7.50 KCAL/MOL
REMARK 922        TOTAL FREE ENERGY PREDICTED BY IDOCK:  -11.63 KCAL/MOL
REMARK 923 INTER-LIGAND FREE ENERGY PREDICTED BY IDOCK:  -10.22 KCAL/MOL
REMARK 924 INTRA-LIGAND FREE ENERGY PREDICTED BY IDOCK:   -1.40 KCAL/MOL
REMARK 927      BINDING AFFINITY PREDICTED BY RF-SCORE:    0.00 PKD
ROOT
HETATM    1  C   UNL     1      -7.940   9.521  66.694  1.00  0.00    -0.108 C  
HETATM    2  C   UNL     1      -8.775   8.982  65.548  1.00  0.00    -0.181 C  
ENDROOT
BRANCH   2   3
HETATM    3  O   UNL     1      -9.889   8.234  66.049  1.00  0.00    -0.147 OA 
BRANCH   3   4
HETATM    4  C   UNL     1      -9.539   7.581  67.278  1.00  0.00    -0.156 C  
BRANCH   4   5
HETATM    5  C   UNL     1     -10.736   6.824  67.851  1.00  0.00    -0.256 C  
BRANCH   5   6
HETATM    6  N   UNL     1     -10.348   5.723  68.720  1.00  0.00    -0.202 NA 
HETATM    7  C   UNL     1     -10.375   5.687  70.105  1.00  0.00    -0.271 A  
HETATM    8  N   UNL     1      -9.955   4.519  70.550  1.00  0.00    -0.223 NA 
HETATM    9  C   UNL     1      -9.594   3.985  67.005  1.00  0.00    -0.231 A  
HETATM   10  C   UNL     1      -9.636   3.782  69.441  1.00  0.00    -0.149 A  
HETATM   11  C   UNL     1      -9.857   4.511  68.278  1.00  0.00    -0.086 A  
HETATM   12  C   UNL     1      -9.111   2.673  66.938  1.00  0.00    -0.161 A  
HETATM   13  C   UNL     1      -9.141   2.473  69.357  1.00  0.00    -0.186 A  
HETATM   14  C   UNL     1      -8.886   1.926  68.094  1.00  0.00    -0.147 A  
BRANCH   7  15
HETATM   15  C   UNL     1     -10.798   6.828  70.973  1.00  0.00    -0.280 C  
HETATM   16  C   UNL     1     -10.527   9.199  71.658  1.00  0.00    -0.332 C  
HETATM   17  C   UNL     1     -12.677   8.091  71.979  1.00  0.00    -0.302 C  
HETATM   18  C   UNL     1     -12.312   7.039  70.932  1.00  0.00    -0.361 C  
HETATM   19  N   UNL     1     -11.985   9.380  71.808  1.00  0.00    -0.379 NA 
HETATM   20  C   UNL     1     -10.120   8.152  70.613  1.00  0.00    -0.209 C  
BRANCH  19  21
HETATM   21  C   UNL     1     -12.530  10.195  70.712  1.00  0.00    -0.326 C  
BRANCH  21  22
HETATM   22  C   UNL     1     -11.824  11.554  70.546  1.00  0.00    -0.363 C  
BRANCH  22  23
HETATM   23  C   UNL     1     -11.804  11.954  69.094  1.00  0.00    -0.371 A  
HETATM   24  C   UNL     1     -11.513  11.008  68.107  1.00  0.00    -0.374 A  
HETATM   25  C   UNL     1     -11.357  11.400  66.779  1.00  0.00    -0.252 A  
HETATM   26  C   UNL     1     -11.490  12.750  66.403  1.00  0.00    -0.409 A  
HETATM   27  C   UNL     1     -11.990  13.285  68.728  1.00  0.00    -0.335 A  
HETATM   28  C   UNL     1     -11.843  13.677  67.398  1.00  0.00    -0.429 A  
BRANCH  26  29
HETATM   29  C   UNL     1     -11.160  13.177  64.960  1.00  0.00    -0.322 C  
HETATM   30  C   UNL     1     -12.407  13.223  64.058  1.00  0.00    -0.346 C  
HETATM   31  C   UNL     1     -10.524  14.586  64.983  1.00  0.00    -0.454 C  
HETATM   32  C   UNL     1     -10.173  12.227  64.252  1.00  0.00    -0.356 C  
HETATM   33  O   UNL     1     -13.358  12.298  64.341  1.00  0.00    -0.786 OA 
HETATM   34  O   UNL     1     -12.541  13.977  63.106  1.00  0.00    -0.733 OA 
ENDBRANCH  26  29
ENDBRANCH  22  23
ENDBRANCH  21  22
ENDBRANCH  19  21
ENDBRANCH   7  15
ENDBRANCH   5   6
ENDBRANCH   4   5
ENDBRANCH   3   4
ENDBRANCH   2   3
TORSDOF 9
ENDMDL
MODEL       17
REMARK 921   NORMALIZED FREE ENERGY PREDICTED BY IDOCK:   -7.37 KCAL/MOL
REMARK 922        TOTAL FREE ENERGY PREDICTED BY IDOCK:  -11.43 KCAL/MOL
REMARK 923 INTER-LIGAND FREE ENERGY PREDICTED BY IDOCK:   -9.59 KCAL/MOL
REMARK 924 INTRA-LIGAND FREE ENERGY PREDICTED BY IDOCK:   -1.85 KCAL/MOL
REMARK 927      BINDING AFFINITY PREDICTED BY RF-SCORE:    0.00 PKD
ROOT
HETATM    1  C   UNL     1      -9.565   7.348  73.430  1.00  0.00    -0.298 C  
HETATM    2  C   UNL     1     -10.438   6.217  73.939  1.00  0.00    -0.280 C  
ENDROOT
BRANCH   2   3
HETATM    3  O   UNL     1     -10.913   5.420  72.848  1.00  0.00    -0.246 OA 
BRANCH   3   4
HETATM    4  C   UNL     1     -10.275   5.818  71.626  1.00  0.00    -0.203 C  
BRANCH   4   5
HETATM    5  C   UNL     1     -11.311   6.256  70.590  1.00  0.00    -0.343 C  
BRANCH   5   6
HETATM    6  N   UNL     1     -11.242   7.677  70.284  1.00  0.00    -0.250 NA 
HETATM    7  C   UNL     1     -10.433   8.305  69.351  1.00  0.00    -0.220 A  
HETATM    8  N   UNL     1     -10.647   9.606  69.347  1.00  0.00    -0.217 NA 
HETATM    9  C   UNL     1     -12.943   8.619  71.942  1.00  0.00    -0.409 A  
HETATM   10  C   UNL     1     -11.601   9.837  70.301  1.00  0.00    -0.220 A  
HETATM   11  C   UNL     1     -11.986   8.652  70.918  1.00  0.00    -0.191 A  
HETATM   12  C   UNL     1     -13.524   9.835  72.319  1.00  0.00    -0.443 A  
HETATM   13  C   UNL     1     -12.184  11.049  70.699  1.00  0.00    -0.481 A  
HETATM   14  C   UNL     1     -13.152  11.033  71.710  1.00  0.00    -0.554 A  
BRANCH   7  15
HETATM   15  C   UNL     1      -9.436   7.602  68.487  1.00  0.00    -0.147 C  
HETATM   16  C   UNL     1      -8.798   6.717  66.256  1.00  0.00    -0.147 C  
HETATM   17  C   UNL     1      -7.056   7.332  67.852  1.00  0.00    -0.085 C  
HETATM   18  C   UNL     1      -8.042   8.217  68.614  1.00  0.00    -0.120 C  
HETATM   19  N   UNL     1      -7.392   7.138  66.431  1.00  0.00    -0.078 NA 
HETATM   20  C   UNL     1      -9.819   7.584  67.006  1.00  0.00    -0.280 C  
BRANCH  19  21
HETATM   21  C   UNL     1      -7.084   8.306  65.593  1.00  0.00    -0.071 C  
BRANCH  21  22
HETATM   22  C   UNL     1      -8.034   8.468  64.390  1.00  0.00    -0.147 C  
BRANCH  22  23
HETATM   23  C   UNL     1      -8.724   9.806  64.452  1.00  0.00    -0.228 A  
HETATM   24  C   UNL     1      -8.540  10.643  65.556  1.00  0.00    -0.191 A  
HETATM   25  C   UNL     1      -9.281  11.816  65.682  1.00  0.00    -0.109 A  
HETATM   26  C   UNL     1     -10.227  12.184  64.706  1.00  0.00    -0.310 A  
HETATM   27  C   UNL     1      -9.617  10.184  63.452  1.00  0.00    -0.236 A  
HETATM   28  C   UNL     1     -10.354  11.361  63.573  1.00  0.00    -0.476 A  
BRANCH  26  29
HETATM   29  C   UNL     1     -11.141  13.400  64.945  1.00  0.00    -0.348 C  
HETATM   30  C   UNL     1     -11.918  13.303  66.271  1.00  0.00    -0.417 C  
HETATM   31  C   UNL     1     -10.278  14.682  64.981  1.00  0.00    -0.395 C  
HETATM   32  C   UNL     1     -12.213  13.584  63.852  1.00  0.00    -0.458 C  
HETATM   33  O   UNL     1     -12.270  12.047  66.642  1.00  0.00    -0.550 OA 
HETATM   34  O   UNL     1     -12.268  14.266  66.936  1.00  0.00    -0.438 OA 
ENDBRANCH  26  29
ENDBRANCH  22  23
ENDBRANCH  21  22
ENDBRANCH  19  21
ENDBRANCH   7  15
ENDBRANCH   5   6
ENDBRANCH   4   5
ENDBRANCH   3   4
ENDBRANCH   2   3
TORSDOF 9
ENDMDL
MODEL       18
REMARK 921   NORMALIZED FREE ENERGY PREDICTED BY IDOCK:   -7.32 KCAL/MOL
REMARK 922        TOTAL FREE ENERGY PREDICTED BY IDOCK:  -11.36 KCAL/MOL
REMARK 923 INTER-LIGAND FREE ENERGY PREDICTED BY IDOCK:   -9.93 KCAL/MOL
REMARK 924 INTRA-LIGAND FREE ENERGY PREDICTED BY IDOCK:   -1.43 KCAL/MOL
REMARK 927      BINDING AFFINITY PREDICTED BY RF-SCORE:    0.00 PKD
ROOT
HETATM    1  C   UNL     1     -11.418  14.919  64.960  1.00  0.00    -0.379 C  
HETATM    2  C   UNL     1     -11.242  16.404  64.709  1.00  0.00    -0.212 C  
ENDROOT
BRANCH   2   3
HETATM    3  O   UNL     1     -10.231  16.941  65.571  1.00  0.00    -0.580 OA 
BRANCH   3   4
HETATM    4  C   UNL     1     -10.522  18.310  65.887  1.00  0.00    -0.307 C  
BRANCH   4   5
HETATM    5  C   UNL     1     -10.529  18.528  67.399  1.00  0.00    -0.419 C  
BRANCH   5   6
HETATM    6  N   UNL     1      -9.473  17.799  68.083  1.00  0.00    -0.273 NA 
HETATM    7  C   UNL     1      -9.581  16.609  68.785  1.00  0.00    -0.254 A  
HETATM    8  N   UNL     1      -8.410  16.241  69.268  1.00  0.00    -0.200 NA 
HETATM    9  C   UNL     1      -7.468  19.326  67.662  1.00  0.00    -0.271 A  
HETATM   10  C   UNL     1      -7.522  17.211  68.888  1.00  0.00    -0.241 A  
HETATM   11  C   UNL     1      -8.156  18.210  68.156  1.00  0.00    -0.281 A  
HETATM   12  C   UNL     1      -6.093  19.398  67.914  1.00  0.00    -0.227 A  
HETATM   13  C   UNL     1      -6.146  17.305  69.142  1.00  0.00    -0.217 A  
HETATM   14  C   UNL     1      -5.440  18.406  68.644  1.00  0.00    -0.181 A  
BRANCH   7  15
HETATM   15  C   UNL     1     -10.859  15.860  68.987  1.00  0.00    -0.266 C  
HETATM   16  C   UNL     1     -12.126  13.729  68.847  1.00  0.00    -0.313 C  
HETATM   17  C   UNL     1     -12.813  15.435  70.451  1.00  0.00    -0.311 C  
HETATM   18  C   UNL     1     -11.426  16.076  70.391  1.00  0.00    -0.392 C  
HETATM   19  N   UNL     1     -12.831  14.002  70.116  1.00  0.00    -0.150 NA 
HETATM   20  C   UNL     1     -10.728  14.354  68.750  1.00  0.00    -0.258 C  
BRANCH  19  21
HETATM   21  C   UNL     1     -12.322  13.142  71.196  1.00  0.00    -0.202 C  
BRANCH  21  22
HETATM   22  C   UNL     1     -13.272  11.987  71.563  1.00  0.00    -0.276 C  
BRANCH  22  23
HETATM   23  C   UNL     1     -12.562  10.666  71.422  1.00  0.00    -0.526 A  
HETATM   24  C   UNL     1     -12.992   9.553  72.150  1.00  0.00    -0.497 A  
HETATM   25  C   UNL     1     -12.257   8.370  72.128  1.00  0.00    -0.434 A  
HETATM   26  C   UNL     1     -11.071   8.268  71.376  1.00  0.00    -0.302 A  
HETATM   27  C   UNL     1     -11.419  10.563  70.631  1.00  0.00    -0.418 A  
HETATM   28  C   UNL     1     -10.688   9.376  70.602  1.00  0.00    -0.353 A  
BRANCH  26  29
HETATM   29  C   UNL     1     -10.198   7.005  71.493  1.00  0.00    -0.211 C  
HETATM   30  C   UNL     1      -9.544   6.864  72.879  1.00  0.00    -0.148 C  
HETATM   31  C   UNL     1     -11.076   5.758  71.241  1.00  0.00    -0.267 C  
HETATM   32  C   UNL     1      -9.033   6.972  70.483  1.00  0.00    -0.155 C  
HETATM   33  O   UNL     1      -9.212   8.033  73.482  1.00  0.00    -0.272 OA 
HETATM   34  O   UNL     1      -9.268   5.797  73.406  1.00  0.00    -0.133 OA 
ENDBRANCH  26  29
ENDBRANCH  22  23
ENDBRANCH  21  22
ENDBRANCH  19  21
ENDBRANCH   7  15
ENDBRANCH   5   6
ENDBRANCH   4   5
ENDBRANCH   3   4
ENDBRANCH   2   3
TORSDOF 9
ENDMDL
MODEL       19
REMARK 921   NORMALIZED FREE ENERGY PREDICTED BY IDOCK:   -7.30 KCAL/MOL
REMARK 922        TOTAL FREE ENERGY PREDICTED BY IDOCK:  -11.33 KCAL/MOL
REMARK 923 INTER-LIGAND FREE ENERGY PREDICTED BY IDOCK:   -9.68 KCAL/MOL
REMARK 924 INTRA-LIGAND FREE ENERGY PREDICTED BY IDOCK:   -1.65 KCAL/MOL
REMARK 927      BINDING AFFINITY PREDICTED BY RF-SCORE:    0.00 PKD
ROOT
HETATM    1  C   UNL     1      -7.117   1.508  71.232  1.00  0.00    -0.032 C  
HETATM    2  C   UNL     1      -7.846   2.518  72.096  1.00  0.00    -0.053 C  
ENDROOT
BRANCH   2   3
HETATM    3  O   UNL     1      -7.349   3.839  71.850  1.00  0.00    -0.052 OA 
BRANCH   3   4
HETATM    4  C   UNL     1      -8.420   4.792  71.908  1.00  0.00    -0.119 C  
BRANCH   4   5
HETATM    5  C   UNL     1      -9.694   4.216  71.291  1.00  0.00    -0.185 C  
BRANCH   5   6
HETATM    6  N   UNL     1      -9.991   4.773  69.980  1.00  0.00    -0.233 NA 
HETATM    7  C   UNL     1     -10.601   5.984  69.692  1.00  0.00    -0.300 A  
HETATM    8  N   UNL     1     -10.702   6.159  68.389  1.00  0.00    -0.265 NA 
HETATM    9  C   UNL     1      -9.139   2.913  68.450  1.00  0.00    -0.217 A  
HETATM   10  C   UNL     1     -10.162   5.041  67.813  1.00  0.00    -0.096 A  
HETATM   11  C   UNL     1      -9.720   4.145  68.781  1.00  0.00    -0.096 A  
HETATM   12  C   UNL     1      -8.996   2.614  67.090  1.00  0.00    -0.178 A  
HETATM   13  C   UNL     1     -10.023   4.720  66.455  1.00  0.00    -0.264 A  
HETATM   14  C   UNL     1      -9.432   3.500  66.105  1.00  0.00    -0.149 A  
BRANCH   7  15
HETATM   15  C   UNL     1     -11.099   6.946  70.723  1.00  0.00    -0.317 C  
HETATM   16  C   UNL     1     -10.877   9.131  71.882  1.00  0.00    -0.283 C  
HETATM   17  C   UNL     1     -13.057   8.040  71.775  1.00  0.00    -0.336 C  
HETATM   18  C   UNL     1     -12.599   7.201  70.581  1.00  0.00    -0.087 C  
HETATM   19  N   UNL     1     -12.342   9.318  71.926  1.00  0.00    -0.372 NA 
HETATM   20  C   UNL     1     -10.378   8.296  70.695  1.00  0.00    -0.220 C  
BRANCH  19  21
HETATM   21  C   UNL     1     -12.771  10.345  70.964  1.00  0.00    -0.394 C  
BRANCH  21  22
HETATM   22  C   UNL     1     -11.706  11.427  70.704  1.00  0.00    -0.199 C  
BRANCH  22  23
HETATM   23  C   UNL     1     -11.687  11.795  69.243  1.00  0.00    -0.398 A  
HETATM   24  C   UNL     1     -11.250  10.871  68.289  1.00  0.00    -0.347 A  
HETATM   25  C   UNL     1     -11.100  11.251  66.957  1.00  0.00    -0.356 A  
HETATM   26  C   UNL     1     -11.385  12.566  66.543  1.00  0.00    -0.387 A  
HETATM   27  C   UNL     1     -12.024  13.085  68.838  1.00  0.00    -0.303 A  
HETATM   28  C   UNL     1     -11.883  13.463  67.503  1.00  0.00    -0.408 A  
BRANCH  26  29
HETATM   29  C   UNL     1     -11.064  13.000  65.101  1.00  0.00    -0.317 C  
HETATM   30  C   UNL     1     -12.327  13.159  64.236  1.00  0.00    -0.351 C  
HETATM   31  C   UNL     1     -10.324  14.357  65.134  1.00  0.00    -0.447 C  
HETATM   32  C   UNL     1     -10.171  11.995  64.345  1.00  0.00    -0.332 C  
HETATM   33  O   UNL     1     -13.337  12.301  64.527  1.00  0.00    -0.769 OA 
HETATM   34  O   UNL     1     -12.430  13.942  63.304  1.00  0.00    -0.817 OA 
ENDBRANCH  26  29
ENDBRANCH  22  23
ENDBRANCH  21  22
ENDBRANCH  19  21
ENDBRANCH   7  15
ENDBRANCH   5   6
ENDBRANCH   4   5
ENDBRANCH   3   4
ENDBRANCH   2   3
TORSDOF 9
ENDMDL
MODEL       20
REMARK 921   NORMALIZED FREE ENERGY PREDICTED BY IDOCK:   -7.30 KCAL/MOL
REMARK 922        TOTAL FREE ENERGY PREDICTED BY IDOCK:  -11.33 KCAL/MOL
REMARK 923 INTER-LIGAND FREE ENERGY PREDICTED BY IDOCK:  -10.08 KCAL/MOL
REMARK 924 INTRA-LIGAND FREE ENERGY PREDICTED BY IDOCK:   -1.25 KCAL/MOL
REMARK 927      BINDING AFFINITY PREDICTED BY RF-SCORE:    0.00 PKD
ROOT
HETATM    1  C   UNL     1     -14.046   7.250  71.590  1.00  0.00    -0.522 C  
HETATM    2  C   UNL     1     -13.827   8.748  71.683  1.00  0.00    -0.397 C  
ENDROOT
BRANCH   2   3
HETATM    3  O   UNL     1     -12.576   9.032  72.322  1.00  0.00    -0.380 OA 
BRANCH   3   4
HETATM    4  C   UNL     1     -11.778   7.842  72.404  1.00  0.00    -0.367 C  
BRANCH   4   5
HETATM    5  C   UNL     1     -10.337   8.125  71.978  1.00  0.00    -0.254 C  
BRANCH   5   6
HETATM    6  N   UNL     1     -10.021   7.597  70.660  1.00  0.00    -0.183 NA 
HETATM    7  C   UNL     1      -9.827   8.307  69.486  1.00  0.00    -0.181 A  
HETATM    8  N   UNL     1      -9.551   7.493  68.487  1.00  0.00    -0.149 NA 
HETATM    9  C   UNL     1      -9.984   5.086  71.133  1.00  0.00    -0.276 A  
HETATM   10  C   UNL     1      -9.577   6.228  69.010  1.00  0.00    -0.127 A  
HETATM   11  C   UNL     1      -9.882   6.255  70.366  1.00  0.00    -0.176 A  
HETATM   12  C   UNL     1      -9.746   3.868  70.485  1.00  0.00    -0.247 A  
HETATM   13  C   UNL     1      -9.353   4.998  68.373  1.00  0.00    -0.163 A  
HETATM   14  C   UNL     1      -9.437   3.821  69.126  1.00  0.00    -0.242 A  
BRANCH   7  15
HETATM   15  C   UNL     1      -9.941   9.793  69.369  1.00  0.00    -0.217 C  
HETATM   16  C   UNL     1      -9.326  11.891  68.192  1.00  0.00    -0.191 C  
HETATM   17  C   UNL     1     -11.423  11.778  69.435  1.00  0.00    -0.307 C  
HETATM   18  C   UNL     1     -11.400  10.251  69.370  1.00  0.00    -0.279 C  
HETATM   19  N   UNL     1     -10.688  12.441  68.344  1.00  0.00    -0.228 NA 
HETATM   20  C   UNL     1      -9.262  10.360  68.120  1.00  0.00    -0.145 C  
BRANCH  19  21
HETATM   21  C   UNL     1     -11.408  12.425  67.061  1.00  0.00    -0.327 C  
BRANCH  21  22
HETATM   22  C   UNL     1     -12.137  13.746  66.749  1.00  0.00    -0.460 C  
BRANCH  22  23
HETATM   23  C   UNL     1     -11.203  14.912  66.943  1.00  0.00    -0.343 A  
HETATM   24  C   UNL     1     -11.358  15.762  68.042  1.00  0.00    -0.310 A  
HETATM   25  C   UNL     1     -10.587  16.918  68.152  1.00  0.00    -0.360 A  
HETATM   26  C   UNL     1      -9.640  17.253  67.166  1.00  0.00    -0.257 A  
HETATM   27  C   UNL     1     -10.232  15.203  65.988  1.00  0.00    -0.325 A  
HETATM   28  C   UNL     1      -9.455  16.355  66.102  1.00  0.00    -0.363 A  
BRANCH  26  29
HETATM   29  C   UNL     1      -8.915  18.610  67.233  1.00  0.00    -0.283 C  
HETATM   30  C   UNL     1      -9.816  19.783  66.806  1.00  0.00    -0.411 C  
HETATM   31  C   UNL     1      -8.444  18.862  68.683  1.00  0.00    -0.381 C  
HETATM   32  C   UNL     1      -7.677  18.687  66.316  1.00  0.00    -0.290 C  
HETATM   33  O   UNL     1     -10.722  19.492  65.840  1.00  0.00    -0.483 OA 
HETATM   34  O   UNL     1      -9.711  20.923  67.233  1.00  0.00    -0.458 OA 
ENDBRANCH  26  29
ENDBRANCH  22  23
ENDBRANCH  21  22
ENDBRANCH  19  21
ENDBRANCH   7  15
ENDBRANCH   5   6
ENDBRANCH   4   5
ENDBRANCH   3   4
ENDBRANCH   2   3
TORSDOF 9
ENDMDL
MODEL       21
REMARK 921   NORMALIZED FREE ENERGY PREDICTED BY IDOCK:   -7.27 KCAL/MOL
REMARK 922        TOTAL FREE ENERGY PREDICTED BY IDOCK:  -11.28 KCAL/MOL
REMARK 923 INTER-LIGAND FREE ENERGY PREDICTED BY IDOCK:   -9.93 KCAL/MOL
REMARK 924 INTRA-LIGAND FREE ENERGY PREDICTED BY IDOCK:   -1.35 KCAL/MOL
REMARK 927      BINDING AFFINITY PREDICTED BY RF-SCORE:    0.00 PKD
ROOT
HETATM    1  C   UNL     1     -11.379  13.422  64.370  1.00  0.00    -0.419 C  
HETATM    2  C   UNL     1     -12.660  13.333  65.176  1.00  0.00    -0.453 C  
ENDROOT
BRANCH   2   3
HETATM    3  O   UNL     1     -12.611  14.228  66.294  1.00  0.00    -0.416 OA 
BRANCH   3   4
HETATM    4  C   UNL     1     -11.253  14.590  66.583  1.00  0.00    -0.346 C  
BRANCH   4   5
HETATM    5  C   UNL     1     -11.108  15.036  68.038  1.00  0.00    -0.300 C  
BRANCH   5   6
HETATM    6  N   UNL     1     -11.519  14.014  68.988  1.00  0.00    -0.275 NA 
HETATM    7  C   UNL     1     -11.230  12.660  68.955  1.00  0.00    -0.269 A  
HETATM    8  N   UNL     1     -11.768  12.040  69.988  1.00  0.00    -0.300 NA 
HETATM    9  C   UNL     1     -12.910  15.398  70.626  1.00  0.00    -0.484 A  
HETATM   10  C   UNL     1     -12.431  13.001  70.703  1.00  0.00    -0.268 A  
HETATM   11  C   UNL     1     -12.308  14.247  70.097  1.00  0.00    -0.353 A  
HETATM   12  C   UNL     1     -13.636  15.256  71.814  1.00  0.00    -0.581 A  
HETATM   13  C   UNL     1     -13.173  12.875  71.887  1.00  0.00    -0.521 A  
HETATM   14  C   UNL     1     -13.768  14.016  72.436  1.00  0.00    -0.669 A  
BRANCH   7  15
HETATM   15  C   UNL     1     -10.436  11.991  67.879  1.00  0.00    -0.221 C  
HETATM   16  C   UNL     1      -8.240  11.203  67.027  1.00  0.00    -0.146 C  
HETATM   17  C   UNL     1     -10.289  10.124  66.257  1.00  0.00    -0.175 C  
HETATM   18  C   UNL     1     -11.046  10.647  67.478  1.00  0.00    -0.367 C  
HETATM   19  N   UNL     1      -8.838   9.977  66.462  1.00  0.00    -0.138 NA 
HETATM   20  C   UNL     1      -8.971  11.759  68.256  1.00  0.00    -0.180 C  
BRANCH  19  21
HETATM   21  C   UNL     1      -8.478   8.798  67.265  1.00  0.00    -0.111 C  
BRANCH  21  22
HETATM   22  C   UNL     1      -9.588   7.730  67.323  1.00  0.00    -0.207 C  
BRANCH  22  23
HETATM   23  C   UNL     1      -9.862   7.346  68.753  1.00  0.00    -0.164 A  
HETATM   24  C   UNL     1      -9.104   7.899  69.789  1.00  0.00    -0.146 A  
HETATM   25  C   UNL     1      -9.260   7.444  71.097  1.00  0.00    -0.155 A  
HETATM   26  C   UNL     1     -10.181   6.424  71.404  1.00  0.00    -0.228 A  
HETATM   27  C   UNL     1     -10.815   6.374  69.050  1.00  0.00    -0.385 A  
HETATM   28  C   UNL     1     -10.979   5.925  70.360  1.00  0.00    -0.376 A  
BRANCH  26  29
HETATM   29  C   UNL     1     -10.223   5.834  72.825  1.00  0.00    -0.211 C  
HETATM   30  C   UNL     1      -9.016   4.928  73.125  1.00  0.00    -0.111 C  
HETATM   31  C   UNL     1     -10.231   6.989  73.852  1.00  0.00    -0.388 C  
HETATM   32  C   UNL     1     -11.468   4.963  73.089  1.00  0.00    -0.362 C  
HETATM   33  O   UNL     1      -8.542   4.229  72.064  1.00  0.00    -0.104 OA 
HETATM   34  O   UNL     1      -8.531   4.771  74.235  1.00  0.00    -0.104 OA 
ENDBRANCH  26  29
ENDBRANCH  22  23
ENDBRANCH  21  22
ENDBRANCH  19  21
ENDBRANCH   7  15
ENDBRANCH   5   6
ENDBRANCH   4   5
ENDBRANCH   3   4
ENDBRANCH   2   3
TORSDOF 9
ENDMDL
MODEL       22
REMARK 921   NORMALIZED FREE ENERGY PREDICTED BY IDOCK:   -7.27 KCAL/MOL
REMARK 922        TOTAL FREE ENERGY PREDICTED BY IDOCK:  -11.28 KCAL/MOL
REMARK 923 INTER-LIGAND FREE ENERGY PREDICTED BY IDOCK:  -10.04 KCAL/MOL
REMARK 924 INTRA-LIGAND FREE ENERGY PREDICTED BY IDOCK:   -1.23 KCAL/MOL
REMARK 927      BINDING AFFINITY PREDICTED BY RF-SCORE:    0.00 PKD
ROOT
HETATM    1  C   UNL     1     -13.893   8.860  72.303  1.00  0.00    -0.536 C  
HETATM    2  C   UNL     1     -14.286   7.607  71.545  1.00  0.00    -0.452 C  
ENDROOT
BRANCH   2   3
HETATM    3  O   UNL     1     -13.141   7.027  70.909  1.00  0.00    -0.240 OA 
BRANCH   3   4
HETATM    4  C   UNL     1     -12.085   6.839  71.861  1.00  0.00    -0.334 C  
BRANCH   4   5
HETATM    5  C   UNL     1     -10.787   6.437  71.160  1.00  0.00    -0.258 C  
BRANCH   5   6
HETATM    6  N   UNL     1      -9.712   7.395  71.363  1.00  0.00    -0.167 NA 
HETATM    7  C   UNL     1      -9.593   8.664  70.818  1.00  0.00    -0.188 A  
HETATM    8  N   UNL     1      -8.485   9.248  71.230  1.00  0.00    -0.315 NA 
HETATM    9  C   UNL     1      -8.163   6.077  72.909  1.00  0.00    -0.117 A  
HETATM   10  C   UNL     1      -7.861   8.345  72.048  1.00  0.00    -0.127 A  
HETATM   11  C   UNL     1      -8.595   7.167  72.142  1.00  0.00    -0.110 A  
HETATM   12  C   UNL     1      -6.958   6.218  73.607  1.00  0.00    -0.083 A  
HETATM   13  C   UNL     1      -6.649   8.465  72.743  1.00  0.00    -0.103 A  
HETATM   14  C   UNL     1      -6.209   7.391  73.526  1.00  0.00    -0.060 A  
BRANCH   7  15
HETATM   15  C   UNL     1     -10.577   9.273  69.871  1.00  0.00    -0.246 C  
HETATM   16  C   UNL     1     -12.373  10.932  69.440  1.00  0.00    -0.118 C  
HETATM   17  C   UNL     1     -11.014  10.118  67.583  1.00  0.00    -0.268 C  
HETATM   18  C   UNL     1      -9.916   9.682  68.554  1.00  0.00    -0.182 C  
HETATM   19  N   UNL     1     -11.862  11.213  68.083  1.00  0.00    -0.607 NA 
HETATM   20  C   UNL     1     -11.299  10.493  70.445  1.00  0.00    -0.411 C  
BRANCH  19  21
HETATM   21  C   UNL     1     -11.209  12.530  68.029  1.00  0.00    -0.270 C  
BRANCH  21  22
HETATM   22  C   UNL     1     -11.920  13.533  67.100  1.00  0.00    -0.426 C  
BRANCH  22  23
HETATM   23  C   UNL     1     -11.243  14.876  67.172  1.00  0.00    -0.345 A  
HETATM   24  C   UNL     1     -11.293  15.628  68.349  1.00  0.00    -0.365 A  
HETATM   25  C   UNL     1     -10.789  16.927  68.379  1.00  0.00    -0.347 A  
HETATM   26  C   UNL     1     -10.220  17.508  67.230  1.00  0.00    -0.335 A  
HETATM   27  C   UNL     1     -10.634  15.419  66.043  1.00  0.00    -0.330 A  
HETATM   28  C   UNL     1     -10.122  16.716  66.073  1.00  0.00    -0.359 A  
BRANCH  26  29
HETATM   29  C   UNL     1      -9.813  18.993  67.246  1.00  0.00    -0.386 C  
HETATM   30  C   UNL     1      -8.288  19.189  67.185  1.00  0.00    -0.279 C  
HETATM   31  C   UNL     1     -10.443  19.703  66.026  1.00  0.00    -0.622 C  
HETATM   32  C   UNL     1     -10.275  19.739  68.514  1.00  0.00    -0.547 C  
HETATM   33  O   UNL     1      -7.558  18.231  67.809  1.00  0.00    -0.221 OA 
HETATM   34  O   UNL     1      -7.737  20.156  66.680  1.00  0.00    -0.286 OA 
ENDBRANCH  26  29
ENDBRANCH  22  23
ENDBRANCH  21  22
ENDBRANCH  19  21
ENDBRANCH   7  15
ENDBRANCH   5   6
ENDBRANCH   4   5
ENDBRANCH   3   4
ENDBRANCH   2   3
TORSDOF 9
ENDMDL
MODEL       23
REMARK 921   NORMALIZED FREE ENERGY PREDICTED BY IDOCK:   -7.13 KCAL/MOL
REMARK 922        TOTAL FREE ENERGY PREDICTED BY IDOCK:  -11.07 KCAL/MOL
REMARK 923 INTER-LIGAND FREE ENERGY PREDICTED BY IDOCK:   -9.66 KCAL/MOL
REMARK 924 INTRA-LIGAND FREE ENERGY PREDICTED BY IDOCK:   -1.40 KCAL/MOL
REMARK 927      BINDING AFFINITY PREDICTED BY RF-SCORE:    0.00 PKD
ROOT
HETATM    1  C   UNL     1     -13.432   9.421  72.287  1.00  0.00    -0.539 C  
HETATM    2  C   UNL     1     -12.148   8.763  71.821  1.00  0.00    -0.350 C  
ENDROOT
BRANCH   2   3
HETATM    3  O   UNL     1     -11.824   9.184  70.490  1.00  0.00    -0.218 OA 
BRANCH   3   4
HETATM    4  C   UNL     1     -11.419  10.561  70.488  1.00  0.00    -0.345 C  
BRANCH   4   5
HETATM    5  C   UNL     1     -12.160  11.343  69.404  1.00  0.00    -0.291 C  
BRANCH   5   6
HETATM    6  N   UNL     1     -12.055  12.784  69.572  1.00  0.00    -0.251 NA 
HETATM    7  C   UNL     1     -11.470  13.698  68.711  1.00  0.00    -0.309 A  
HETATM    8  N   UNL     1     -11.567  14.923  69.191  1.00  0.00    -0.290 NA 
HETATM    9  C   UNL     1     -13.176  13.097  71.848  1.00  0.00    -0.526 A  
HETATM   10  C   UNL     1     -12.214  14.809  70.392  1.00  0.00    -0.336 A  
HETATM   11  C   UNL     1     -12.522  13.482  70.669  1.00  0.00    -0.333 A  
HETATM   12  C   UNL     1     -13.533  14.109  72.746  1.00  0.00    -0.592 A  
HETATM   13  C   UNL     1     -12.568  15.810  71.308  1.00  0.00    -0.504 A  
HETATM   14  C   UNL     1     -13.234  15.445  72.484  1.00  0.00    -0.543 A  
BRANCH   7  15
HETATM   15  C   UNL     1     -10.797  13.337  67.425  1.00  0.00    -0.279 C  
HETATM   16  C   UNL     1      -9.038  12.060  66.225  1.00  0.00    -0.165 C  
HETATM   17  C   UNL     1     -11.062  12.729  65.038  1.00  0.00    -0.285 C  
HETATM   18  C   UNL     1     -11.806  12.898  66.363  1.00  0.00    -0.478 C  
HETATM   19  N   UNL     1      -9.941  11.776  65.091  1.00  0.00    -0.249 NA 
HETATM   20  C   UNL     1      -9.748  12.234  67.575  1.00  0.00    -0.190 C  
BRANCH  19  21
HETATM   21  C   UNL     1     -10.369  10.369  65.099  1.00  0.00    -0.190 C  
BRANCH  21  22
HETATM   22  C   UNL     1      -9.205   9.372  65.256  1.00  0.00    -0.299 C  
BRANCH  22  23
HETATM   23  C   UNL     1      -9.305   8.664  66.582  1.00  0.00    -0.246 A  
HETATM   24  C   UNL     1      -8.281   8.787  67.525  1.00  0.00    -0.110 A  
HETATM   25  C   UNL     1      -8.303   8.026  68.693  1.00  0.00    -0.127 A  
HETATM   26  C   UNL     1      -9.352   7.123  68.949  1.00  0.00    -0.139 A  
HETATM   27  C   UNL     1     -10.377   7.814  66.847  1.00  0.00    -0.396 A  
HETATM   28  C   UNL     1     -10.404   7.059  68.019  1.00  0.00    -0.234 A  
BRANCH  26  29
HETATM   29  C   UNL     1      -9.273   6.185  70.167  1.00  0.00    -0.164 C  
HETATM   30  C   UNL     1      -8.255   5.046  69.971  1.00  0.00    -0.081 C  
HETATM   31  C   UNL     1      -8.853   7.003  71.409  1.00  0.00    -0.129 C  
HETATM   32  C   UNL     1     -10.611   5.490  70.491  1.00  0.00    -0.339 C  
HETATM   33  O   UNL     1      -8.134   4.593  68.699  1.00  0.00    -0.082 OA 
HETATM   34  O   UNL     1      -7.631   4.517  70.878  1.00  0.00    -0.054 OA 
ENDBRANCH  26  29
ENDBRANCH  22  23
ENDBRANCH  21  22
ENDBRANCH  19  21
ENDBRANCH   7  15
ENDBRANCH   5   6
ENDBRANCH   4   5
ENDBRANCH   3   4
ENDBRANCH   2   3
TORSDOF 9
ENDMDL
MODEL       24
REMARK 921   NORMALIZED FREE ENERGY PREDICTED BY IDOCK:   -7.11 KCAL/MOL
REMARK 922        TOTAL FREE ENERGY PREDICTED BY IDOCK:  -11.04 KCAL/MOL
REMARK 923 INTER-LIGAND FREE ENERGY PREDICTED BY IDOCK:  -10.00 KCAL/MOL
REMARK 924 INTRA-LIGAND FREE ENERGY PREDICTED BY IDOCK:   -1.04 KCAL/MOL
REMARK 927      BINDING AFFINITY PREDICTED BY RF-SCORE:    0.00 PKD
ROOT
HETATM    1  C   UNL     1     -13.687  13.964  72.267  1.00  0.00    -0.660 C  
HETATM    2  C   UNL     1     -12.949  14.558  71.083  1.00  0.00    -0.346 C  
ENDROOT
BRANCH   2   3
HETATM    3  O   UNL     1     -11.657  15.029  71.485  1.00  0.00    -0.347 OA 
BRANCH   3   4
HETATM    4  C   UNL     1     -10.882  15.400  70.336  1.00  0.00    -0.308 C  
BRANCH   4   5
HETATM    5  C   UNL     1     -11.753  16.110  69.300  1.00  0.00    -0.223 C  
BRANCH   5   6
HETATM    6  N   UNL     1     -11.015  16.498  68.108  1.00  0.00    -0.351 NA 
HETATM    7  C   UNL     1     -10.888  15.792  66.923  1.00  0.00    -0.265 A  
HETATM    8  N   UNL     1     -10.146  16.458  66.059  1.00  0.00    -0.336 NA 
HETATM    9  C   UNL     1     -10.032  18.738  68.846  1.00  0.00    -0.423 A  
HETATM   10  C   UNL     1      -9.770  17.612  66.692  1.00  0.00    -0.301 A  
HETATM   11  C   UNL     1     -10.284  17.663  67.983  1.00  0.00    -0.362 A  
HETATM   12  C   UNL     1      -9.247  19.787  68.354  1.00  0.00    -0.370 A  
HETATM   13  C   UNL     1      -8.974  18.666  66.219  1.00  0.00    -0.228 A  
HETATM   14  C   UNL     1      -8.724  19.754  67.062  1.00  0.00    -0.386 A  
BRANCH   7  15
HETATM   15  C   UNL     1     -11.491  14.448  66.670  1.00  0.00    -0.372 C  
HETATM   16  C   UNL     1     -12.434  12.801  65.068  1.00  0.00    -0.506 C  
HETATM   17  C   UNL     1     -11.434  12.018  67.152  1.00  0.00    -0.335 C  
HETATM   18  C   UNL     1     -10.657  13.328  67.293  1.00  0.00    -0.250 C  
HETATM   19  N   UNL     1     -11.787  11.671  65.765  1.00  0.00    -0.243 NA 
HETATM   20  C   UNL     1     -11.683  14.134  65.185  1.00  0.00    -0.361 C  
BRANCH  19  21
HETATM   21  C   UNL     1     -10.652  11.152  64.986  1.00  0.00    -0.273 C  
BRANCH  21  22
HETATM   22  C   UNL     1      -9.460  10.709  65.855  1.00  0.00    -0.239 C  
BRANCH  22  23
HETATM   23  C   UNL     1      -9.428   9.207  65.964  1.00  0.00    -0.321 A  
HETATM   24  C   UNL     1     -10.284   8.547  66.850  1.00  0.00    -0.375 A  
HETATM   25  C   UNL     1     -10.164   7.174  67.056  1.00  0.00    -0.339 A  
HETATM   26  C   UNL     1      -9.184   6.424  66.379  1.00  0.00    -0.176 A  
HETATM   27  C   UNL     1      -8.490   8.468  65.247  1.00  0.00    -0.192 A  
HETATM   28  C   UNL     1      -8.375   7.093  65.445  1.00  0.00    -0.122 A  
BRANCH  26  29
HETATM   29  C   UNL     1      -8.971   4.942  66.739  1.00  0.00    -0.110 C  
HETATM   30  C   UNL     1      -9.633   3.987  65.730  1.00  0.00    -0.191 C  
HETATM   31  C   UNL     1      -7.456   4.641  66.770  1.00  0.00    -0.086 C  
HETATM   32  C   UNL     1      -9.555   4.557  68.114  1.00  0.00    -0.203 C  
HETATM   33  O   UNL     1     -10.786   4.440  65.177  1.00  0.00    -0.255 OA 
HETATM   34  O   UNL     1      -9.219   2.868  65.466  1.00  0.00    -0.149 OA 
ENDBRANCH  26  29
ENDBRANCH  22  23
ENDBRANCH  21  22
ENDBRANCH  19  21
ENDBRANCH   7  15
ENDBRANCH   5   6
ENDBRANCH   4   5
ENDBRANCH   3   4
ENDBRANCH   2   3
TORSDOF 9
ENDMDL
MODEL       25
REMARK 921   NORMALIZED FREE ENERGY PREDICTED BY IDOCK:   -7.11 KCAL/MOL
REMARK 922        TOTAL FREE ENERGY PREDICTED BY IDOCK:  -11.04 KCAL/MOL
REMARK 923 INTER-LIGAND FREE ENERGY PREDICTED BY IDOCK:  -10.30 KCAL/MOL
REMARK 924 INTRA-LIGAND FREE ENERGY PREDICTED BY IDOCK:   -0.74 KCAL/MOL
REMARK 927      BINDING AFFINITY PREDICTED BY RF-SCORE:    0.00 PKD
ROOT
HETATM    1  C   UNL     1     -13.548  12.995  72.089  1.00  0.00    -0.618 C  
HETATM    2  C   UNL     1     -12.853  11.821  71.428  1.00  0.00    -0.335 C  
ENDROOT
BRANCH   2   3
HETATM    3  O   UNL     1     -13.194  10.599  72.093  1.00  0.00    -0.464 OA 
BRANCH   3   4
HETATM    4  C   UNL     1     -12.658   9.476  71.378  1.00  0.00    -0.359 C  
BRANCH   4   5
HETATM    5  C   UNL     1     -11.136   9.429  71.503  1.00  0.00    -0.376 C  
BRANCH   5   6
HETATM    6  N   UNL     1     -10.555   8.233  70.912  1.00  0.00    -0.203 NA 
HETATM    7  C   UNL     1      -9.928   8.113  69.682  1.00  0.00    -0.193 A  
HETATM    8  N   UNL     1      -9.521   6.874  69.483  1.00  0.00    -0.147 NA 
HETATM    9  C   UNL     1     -11.061   6.498  72.719  1.00  0.00    -0.279 A  
HETATM   10  C   UNL     1      -9.897   6.168  70.594  1.00  0.00    -0.179 A  
HETATM   11  C   UNL     1     -10.560   6.985  71.503  1.00  0.00    -0.212 A  
HETATM   12  C   UNL     1     -10.853   5.143  73.004  1.00  0.00    -0.336 A  
HETATM   13  C   UNL     1      -9.709   4.810  70.890  1.00  0.00    -0.260 A  
HETATM   14  C   UNL     1     -10.189   4.310  72.105  1.00  0.00    -0.234 A  
BRANCH   7  15
HETATM   15  C   UNL     1      -9.762   9.232  68.706  1.00  0.00    -0.162 C  
HETATM   16  C   UNL     1     -10.689  10.599  66.851  1.00  0.00    -0.237 C  
HETATM   17  C   UNL     1      -8.981  11.551  68.311  1.00  0.00    -0.177 C  
HETATM   18  C   UNL     1      -9.305  10.519  69.393  1.00  0.00    -0.139 C  
HETATM   19  N   UNL     1     -10.098  11.838  67.396  1.00  0.00    -0.194 NA 
HETATM   20  C   UNL     1     -11.030   9.539  67.907  1.00  0.00    -0.172 C  
BRANCH  19  21
HETATM   21  C   UNL     1     -11.134  12.698  67.990  1.00  0.00    -0.251 C  
BRANCH  21  22
HETATM   22  C   UNL     1     -11.784  13.664  66.981  1.00  0.00    -0.419 C  
BRANCH  22  23
HETATM   23  C   UNL     1     -11.143  15.024  67.079  1.00  0.00    -0.334 A  
HETATM   24  C   UNL     1     -11.211  15.751  68.271  1.00  0.00    -0.356 A  
HETATM   25  C   UNL     1     -10.742  17.062  68.324  1.00  0.00    -0.372 A  
HETATM   26  C   UNL     1     -10.190  17.680  67.187  1.00  0.00    -0.342 A  
HETATM   27  C   UNL     1     -10.550  15.604  65.960  1.00  0.00    -0.336 A  
HETATM   28  C   UNL     1     -10.072  16.913  66.015  1.00  0.00    -0.336 A  
BRANCH  26  29
HETATM   29  C   UNL     1      -9.823  19.175  67.231  1.00  0.00    -0.408 C  
HETATM   30  C   UNL     1      -8.302  19.410  67.242  1.00  0.00    -0.293 C  
HETATM   31  C   UNL     1     -10.415  19.878  65.989  1.00  0.00    -0.580 C  
HETATM   32  C   UNL     1     -10.361  19.899  68.482  1.00  0.00    -0.463 C  
HETATM   33  O   UNL     1      -7.577  18.466  67.892  1.00  0.00    -0.237 OA 
HETATM   34  O   UNL     1      -7.753  20.394  66.768  1.00  0.00    -0.294 OA 
ENDBRANCH  26  29
ENDBRANCH  22  23
ENDBRANCH  21  22
ENDBRANCH  19  21
ENDBRANCH   7  15
ENDBRANCH   5   6
ENDBRANCH   4   5
ENDBRANCH   3   4
ENDBRANCH   2   3
TORSDOF 9
ENDMDL
MODEL       26
REMARK 921   NORMALIZED FREE ENERGY PREDICTED BY IDOCK:   -7.11 KCAL/MOL
REMARK 922        TOTAL FREE ENERGY PREDICTED BY IDOCK:  -11.03 KCAL/MOL
REMARK 923 INTER-LIGAND FREE ENERGY PREDICTED BY IDOCK:   -9.73 KCAL/MOL
REMARK 924 INTRA-LIGAND FREE ENERGY PREDICTED BY IDOCK:   -1.30 KCAL/MOL
REMARK 927      BINDING AFFINITY PREDICTED BY RF-SCORE:    0.00 PKD
ROOT
HETATM    1  C   UNL     1     -10.583   4.965  66.238  1.00  0.00    -0.307 C  
HETATM    2  C   UNL     1     -10.179   6.208  67.007  1.00  0.00    -0.202 C  
ENDROOT
BRANCH   2   3
HETATM    3  O   UNL     1     -11.044   6.403  68.132  1.00  0.00    -0.311 OA 
BRANCH   3   4
HETATM    4  C   UNL     1     -10.523   5.725  69.284  1.00  0.00    -0.287 C  
BRANCH   4   5
HETATM    5  C   UNL     1     -11.217   6.207  70.558  1.00  0.00    -0.334 C  
BRANCH   5   6
HETATM    6  N   UNL     1     -10.412   7.145  71.324  1.00  0.00    -0.206 NA 
HETATM    7  C   UNL     1     -10.338   8.520  71.172  1.00  0.00    -0.215 A  
HETATM    8  N   UNL     1      -9.504   9.045  72.049  1.00  0.00    -0.336 NA 
HETATM    9  C   UNL     1      -9.195   5.562  72.918  1.00  0.00    -0.137 A  
HETATM   10  C   UNL     1      -9.013   7.996  72.779  1.00  0.00    -0.228 A  
HETATM   11  C   UNL     1      -9.549   6.790  72.342  1.00  0.00    -0.153 A  
HETATM   12  C   UNL     1      -8.283   5.589  73.980  1.00  0.00    -0.109 A  
HETATM   13  C   UNL     1      -8.091   8.004  73.835  1.00  0.00    -0.288 A  
HETATM   14  C   UNL     1      -7.737   6.789  74.433  1.00  0.00    -0.119 A  
BRANCH   7  15
HETATM   15  C   UNL     1     -11.086   9.298  70.136  1.00  0.00    -0.260 C  
HETATM   16  C   UNL     1     -12.509  11.246  69.548  1.00  0.00    -0.061 C  
HETATM   17  C   UNL     1     -11.102  10.222  67.837  1.00  0.00    -0.276 C  
HETATM   18  C   UNL     1     -10.216   9.596  68.915  1.00  0.00    -0.214 C  
HETATM   19  N   UNL     1     -11.803  11.444  68.266  1.00  0.00    -0.567 NA 
HETATM   20  C   UNL     1     -11.651  10.621  70.656  1.00  0.00    -0.432 C  
BRANCH  19  21
HETATM   21  C   UNL     1     -10.932  12.628  68.323  1.00  0.00    -0.248 C  
BRANCH  21  22
HETATM   22  C   UNL     1     -11.599  13.852  68.979  1.00  0.00    -0.351 C  
BRANCH  22  23
HETATM   23  C   UNL     1     -10.965  15.121  68.473  1.00  0.00    -0.263 A  
HETATM   24  C   UNL     1     -10.817  16.222  69.323  1.00  0.00    -0.318 A  
HETATM   25  C   UNL     1     -10.360  17.440  68.824  1.00  0.00    -0.357 A  
HETATM   26  C   UNL     1     -10.037  17.590  67.462  1.00  0.00    -0.326 A  
HETATM   27  C   UNL     1     -10.598  15.240  67.134  1.00  0.00    -0.302 A  
HETATM   28  C   UNL     1     -10.133  16.457  66.637  1.00  0.00    -0.290 A  
BRANCH  26  29
HETATM   29  C   UNL     1      -9.684  18.983  66.909  1.00  0.00    -0.372 C  
HETATM   30  C   UNL     1      -8.229  19.071  66.413  1.00  0.00    -0.305 C  
HETATM   31  C   UNL     1     -10.621  19.309  65.724  1.00  0.00    -0.450 C  
HETATM   32  C   UNL     1      -9.833  20.110  67.951  1.00  0.00    -0.525 C  
HETATM   33  O   UNL     1      -7.338  18.319  67.105  1.00  0.00    -0.198 OA 
HETATM   34  O   UNL     1      -7.852  19.801  65.510  1.00  0.00    -0.385 OA 
ENDBRANCH  26  29
ENDBRANCH  22  23
ENDBRANCH  21  22
ENDBRANCH  19  21
ENDBRANCH   7  15
ENDBRANCH   5   6
ENDBRANCH   4   5
ENDBRANCH   3   4
ENDBRANCH   2   3
TORSDOF 9
ENDMDL
MODEL       27
REMARK 921   NORMALIZED FREE ENERGY PREDICTED BY IDOCK:   -7.11 KCAL/MOL
REMARK 922        TOTAL FREE ENERGY PREDICTED BY IDOCK:  -11.03 KCAL/MOL
REMARK 923 INTER-LIGAND FREE ENERGY PREDICTED BY IDOCK:   -9.46 KCAL/MOL
REMARK 924 INTRA-LIGAND FREE ENERGY PREDICTED BY IDOCK:   -1.57 KCAL/MOL
REMARK 927      BINDING AFFINITY PREDICTED BY RF-SCORE:    0.00 PKD
ROOT
HETATM    1  C   UNL     1     -14.027   7.541  71.416  1.00  0.00    -0.468 C  
HETATM    2  C   UNL     1     -12.990   8.494  71.978  1.00  0.00    -0.371 C  
ENDROOT
BRANCH   2   3
HETATM    3  O   UNL     1     -13.358   9.852  71.705  1.00  0.00    -0.392 OA 
BRANCH   3   4
HETATM    4  C   UNL     1     -13.030  10.194  70.351  1.00  0.00    -0.059 C  
BRANCH   4   5
HETATM    5  C   UNL     1     -11.699  10.943  70.287  1.00  0.00    -0.347 C  
BRANCH   5   6
HETATM    6  N   UNL     1     -11.861  12.368  70.040  1.00  0.00    -0.320 NA 
HETATM    7  C   UNL     1     -11.395  13.099  68.959  1.00  0.00    -0.282 A  
HETATM    8  N   UNL     1     -11.737  14.368  69.070  1.00  0.00    -0.292 NA 
HETATM    9  C   UNL     1     -13.156  13.085  72.123  1.00  0.00    -0.465 A  
HETATM   10  C   UNL     1     -12.426  14.474  70.248  1.00  0.00    -0.348 A  
HETATM   11  C   UNL     1     -12.510  13.242  70.889  1.00  0.00    -0.342 A  
HETATM   12  C   UNL     1     -13.740  14.222  72.693  1.00  0.00    -0.555 A  
HETATM   13  C   UNL     1     -13.006  15.605  70.839  1.00  0.00    -0.471 A  
HETATM   14  C   UNL     1     -13.667  15.464  72.065  1.00  0.00    -0.613 A  
BRANCH   7  15
HETATM   15  C   UNL     1     -10.593  12.527  67.834  1.00  0.00    -0.233 C  
HETATM   16  C   UNL     1      -8.697  11.117  67.071  1.00  0.00    -0.148 C  
HETATM   17  C   UNL     1     -10.610  11.465  65.596  1.00  0.00    -0.258 C  
HETATM   18  C   UNL     1     -11.483  11.853  66.790  1.00  0.00    -0.384 C  
HETATM   19  N   UNL     1      -9.478  10.586  65.935  1.00  0.00    -0.180 NA 
HETATM   20  C   UNL     1      -9.539  11.516  68.290  1.00  0.00    -0.189 C  
BRANCH  19  21
HETATM   21  C   UNL     1      -9.874   9.189  66.176  1.00  0.00    -0.293 C  
BRANCH  21  22
HETATM   22  C   UNL     1      -8.692   8.268  66.532  1.00  0.00    -0.157 C  
BRANCH  22  23
HETATM   23  C   UNL     1      -8.927   7.618  67.871  1.00  0.00    -0.128 A  
HETATM   24  C   UNL     1     -10.173   7.724  68.496  1.00  0.00    -0.227 A  
HETATM   25  C   UNL     1     -10.354   7.245  69.792  1.00  0.00    -0.227 A  
HETATM   26  C   UNL     1      -9.293   6.644  70.496  1.00  0.00    -0.167 A  
HETATM   27  C   UNL     1      -7.883   6.978  68.535  1.00  0.00    -0.122 A  
HETATM   28  C   UNL     1      -8.066   6.490  69.829  1.00  0.00    -0.125 A  
BRANCH  26  29
HETATM   29  C   UNL     1      -9.477   6.265  71.978  1.00  0.00    -0.158 C  
HETATM   30  C   UNL     1      -9.591   7.497  72.893  1.00  0.00    -0.195 C  
HETATM   31  C   UNL     1     -10.766   5.426  72.129  1.00  0.00    -0.286 C  
HETATM   32  C   UNL     1      -8.306   5.437  72.546  1.00  0.00    -0.114 C  
HETATM   33  O   UNL     1      -8.863   8.574  72.506  1.00  0.00    -0.261 OA 
HETATM   34  O   UNL     1     -10.227   7.524  73.936  1.00  0.00    -0.280 OA 
ENDBRANCH  26  29
ENDBRANCH  22  23
ENDBRANCH  21  22
ENDBRANCH  19  21
ENDBRANCH   7  15
ENDBRANCH   5   6
ENDBRANCH   4   5
ENDBRANCH   3   4
ENDBRANCH   2   3
TORSDOF 9
ENDMDL
MODEL       28
REMARK 921   NORMALIZED FREE ENERGY PREDICTED BY IDOCK:   -7.10 KCAL/MOL
REMARK 922        TOTAL FREE ENERGY PREDICTED BY IDOCK:  -11.03 KCAL/MOL
REMARK 923 INTER-LIGAND FREE ENERGY PREDICTED BY IDOCK:  -10.05 KCAL/MOL
REMARK 924 INTRA-LIGAND FREE ENERGY PREDICTED BY IDOCK:   -0.97 KCAL/MOL
REMARK 927      BINDING AFFINITY PREDICTED BY RF-SCORE:    0.00 PKD
ROOT
HETATM    1  C   UNL     1     -14.397  14.581  72.046  1.00  0.00    -0.639 C  
HETATM    2  C   UNL     1     -13.084  13.833  72.171  1.00  0.00    -0.406 C  
ENDROOT
BRANCH   2   3
HETATM    3  O   UNL     1     -12.960  12.862  71.125  1.00  0.00    -0.279 OA 
BRANCH   3   4
HETATM    4  C   UNL     1     -12.960  11.536  71.673  1.00  0.00    -0.394 C  
BRANCH   4   5
HETATM    5  C   UNL     1     -12.803  10.492  70.568  1.00  0.00    -0.264 C  
BRANCH   5   6
HETATM    6  N   UNL     1     -11.412  10.189  70.267  1.00  0.00    -0.285 NA 
HETATM    7  C   UNL     1     -10.693  10.543  69.137  1.00  0.00    -0.231 A  
HETATM    8  N   UNL     1      -9.453  10.098  69.213  1.00  0.00    -0.208 NA 
HETATM    9  C   UNL     1     -10.748   8.830  72.327  1.00  0.00    -0.322 A  
HETATM   10  C   UNL     1      -9.362   9.431  70.405  1.00  0.00    -0.268 A  
HETATM   11  C   UNL     1     -10.575   9.455  71.084  1.00  0.00    -0.333 A  
HETATM   12  C   UNL     1      -9.638   8.183  72.882  1.00  0.00    -0.345 A  
HETATM   13  C   UNL     1      -8.262   8.768  70.970  1.00  0.00    -0.194 A  
HETATM   14  C   UNL     1      -8.413   8.150  72.216  1.00  0.00    -0.227 A  
BRANCH   7  15
HETATM   15  C   UNL     1     -11.256  11.304  67.980  1.00  0.00    -0.351 C  
HETATM   16  C   UNL     1     -12.244  13.399  67.085  1.00  0.00    -0.256 C  
HETATM   17  C   UNL     1     -11.063  11.884  65.579  1.00  0.00    -0.304 C  
HETATM   18  C   UNL     1     -10.334  11.247  66.762  1.00  0.00    -0.278 C  
HETATM   19  N   UNL     1     -11.502  13.270  65.815  1.00  0.00    -0.315 NA 
HETATM   20  C   UNL     1     -11.542  12.773  68.298  1.00  0.00    -0.375 C  
BRANCH  19  21
HETATM   21  C   UNL     1     -10.406  14.250  65.744  1.00  0.00    -0.327 C  
BRANCH  21  22
HETATM   22  C   UNL     1     -10.881  15.682  65.433  1.00  0.00    -0.394 C  
BRANCH  22  23
HETATM   23  C   UNL     1      -9.823  16.677  65.834  1.00  0.00    -0.301 A  
HETATM   24  C   UNL     1      -8.556  16.237  66.229  1.00  0.00    -0.374 A  
HETATM   25  C   UNL     1      -7.622  17.140  66.731  1.00  0.00    -0.274 A  
HETATM   26  C   UNL     1      -7.929  18.509  66.850  1.00  0.00    -0.250 A  
HETATM   27  C   UNL     1     -10.122  18.036  65.896  1.00  0.00    -0.167 A  
HETATM   28  C   UNL     1      -9.184  18.942  66.391  1.00  0.00    -0.324 A  
BRANCH  26  29
HETATM   29  C   UNL     1      -6.938  19.457  67.551  1.00  0.00    -0.226 C  
HETATM   30  C   UNL     1      -7.051  19.402  69.085  1.00  0.00    -0.349 C  
HETATM   31  C   UNL     1      -5.496  19.064  67.155  1.00  0.00    -0.153 C  
HETATM   32  C   UNL     1      -7.141  20.939  67.175  1.00  0.00    -0.413 C  
HETATM   33  O   UNL     1      -8.299  19.176  69.564  1.00  0.00     0.050 OA 
HETATM   34  O   UNL     1      -6.122  19.606  69.852  1.00  0.00    -0.276 OA 
ENDBRANCH  26  29
ENDBRANCH  22  23
ENDBRANCH  21  22
ENDBRANCH  19  21
ENDBRANCH   7  15
ENDBRANCH   5   6
ENDBRANCH   4   5
ENDBRANCH   3   4
ENDBRANCH   2   3
TORSDOF 9
ENDMDL
MODEL       29
REMARK 921   NORMALIZED FREE ENERGY PREDICTED BY IDOCK:   -7.09 KCAL/MOL
REMARK 922        TOTAL FREE ENERGY PREDICTED BY IDOCK:  -11.01 KCAL/MOL
REMARK 923 INTER-LIGAND FREE ENERGY PREDICTED BY IDOCK:  -10.30 KCAL/MOL
REMARK 924 INTRA-LIGAND FREE ENERGY PREDICTED BY IDOCK:   -0.71 KCAL/MOL
REMARK 927      BINDING AFFINITY PREDICTED BY RF-SCORE:    0.00 PKD
ROOT
HETATM    1  C   UNL     1     -13.134  11.997  71.935  1.00  0.00    -0.475 C  
HETATM    2  C   UNL     1     -12.867  10.613  71.376  1.00  0.00    -0.451 C  
ENDROOT
BRANCH   2   3
HETATM    3  O   UNL     1     -13.193   9.611  72.347  1.00  0.00    -0.422 OA 
BRANCH   3   4
HETATM    4  C   UNL     1     -12.655   8.341  71.951  1.00  0.00    -0.344 C  
BRANCH   4   5
HETATM    5  C   UNL     1     -11.128   8.355  72.018  1.00  0.00    -0.327 C  
BRANCH   5   6
HETATM    6  N   UNL     1     -10.526   7.135  71.501  1.00  0.00    -0.204 NA 
HETATM    7  C   UNL     1      -9.815   6.974  70.323  1.00  0.00    -0.175 A  
HETATM    8  N   UNL     1      -9.415   5.725  70.184  1.00  0.00    -0.156 NA 
HETATM    9  C   UNL     1     -11.188   5.456  73.309  1.00  0.00    -0.322 A  
HETATM   10  C   UNL     1      -9.882   5.053  71.282  1.00  0.00    -0.182 A  
HETATM   11  C   UNL     1     -10.594   5.903  72.121  1.00  0.00    -0.219 A  
HETATM   12  C   UNL     1     -11.024   4.106  73.642  1.00  0.00    -0.351 A  
HETATM   13  C   UNL     1      -9.737   3.701  71.625  1.00  0.00    -0.236 A  
HETATM   14  C   UNL     1     -10.311   3.240  72.815  1.00  0.00    -0.237 A  
BRANCH   7  15
HETATM   15  C   UNL     1      -9.561   8.065  69.333  1.00  0.00    -0.160 C  
HETATM   16  C   UNL     1     -10.356   9.438  67.423  1.00  0.00    -0.263 C  
HETATM   17  C   UNL     1      -8.655  10.336  68.925  1.00  0.00    -0.150 C  
HETATM   18  C   UNL     1      -9.066   9.342  70.013  1.00  0.00    -0.244 C  
HETATM   19  N   UNL     1      -9.725  10.658  67.966  1.00  0.00    -0.154 NA 
HETATM   20  C   UNL     1     -10.785   8.417  68.485  1.00  0.00    -0.069 C  
BRANCH  19  21
HETATM   21  C   UNL     1     -10.738  11.578  68.507  1.00  0.00    -0.209 C  
BRANCH  21  22
HETATM   22  C   UNL     1     -11.439  12.425  67.429  1.00  0.00    -0.418 C  
BRANCH  22  23
HETATM   23  C   UNL     1     -10.864  13.817  67.408  1.00  0.00    -0.285 A  
HETATM   24  C   UNL     1     -11.507  14.854  68.090  1.00  0.00    -0.348 A  
HETATM   25  C   UNL     1     -11.058  16.167  67.962  1.00  0.00    -0.317 A  
HETATM   26  C   UNL     1      -9.952  16.477  67.148  1.00  0.00    -0.266 A  
HETATM   27  C   UNL     1      -9.736  14.102  66.643  1.00  0.00    -0.297 A  
HETATM   28  C   UNL     1      -9.281  15.414  66.520  1.00  0.00    -0.323 A  
BRANCH  26  29
HETATM   29  C   UNL     1      -9.574  17.949  66.901  1.00  0.00    -0.300 C  
HETATM   30  C   UNL     1     -10.505  18.637  65.886  1.00  0.00    -0.356 C  
HETATM   31  C   UNL     1      -9.654  18.724  68.236  1.00  0.00    -0.395 C  
HETATM   32  C   UNL     1      -8.148  18.128  66.339  1.00  0.00    -0.291 C  
HETATM   33  O   UNL     1     -10.975  17.834  64.899  1.00  0.00    -0.866 OA 
HETATM   34  O   UNL     1     -10.773  19.829  65.894  1.00  0.00    -0.486 OA 
ENDBRANCH  26  29
ENDBRANCH  22  23
ENDBRANCH  21  22
ENDBRANCH  19  21
ENDBRANCH   7  15
ENDBRANCH   5   6
ENDBRANCH   4   5
ENDBRANCH   3   4
ENDBRANCH   2   3
TORSDOF 9
ENDMDL
MODEL       30
REMARK 921   NORMALIZED FREE ENERGY PREDICTED BY IDOCK:   -7.08 KCAL/MOL
REMARK 922        TOTAL FREE ENERGY PREDICTED BY IDOCK:  -10.99 KCAL/MOL
REMARK 923 INTER-LIGAND FREE ENERGY PREDICTED BY IDOCK:   -9.47 KCAL/MOL
REMARK 924 INTRA-LIGAND FREE ENERGY PREDICTED BY IDOCK:   -1.52 KCAL/MOL
REMARK 927      BINDING AFFINITY PREDICTED BY RF-SCORE:    0.00 PKD
ROOT
HETATM    1  C   UNL     1     -11.777  11.362  69.413  1.00  0.00    -0.406 C  
HETATM    2  C   UNL     1     -11.548  12.828  69.102  1.00  0.00    -0.319 C  
ENDROOT
BRANCH   2   3
HETATM    3  O   UNL     1     -10.235  13.027  68.566  1.00  0.00    -0.241 OA 
BRANCH   3   4
HETATM    4  C   UNL     1      -9.912  14.425  68.544  1.00  0.00    -0.237 C  
BRANCH   4   5
HETATM    5  C   UNL     1     -11.140  15.259  68.180  1.00  0.00    -0.308 C  
BRANCH   5   6
HETATM    6  N   UNL     1     -10.855  16.284  67.187  1.00  0.00    -0.248 NA 
HETATM    7  C   UNL     1     -10.892  16.162  65.808  1.00  0.00    -0.201 A  
HETATM    8  N   UNL     1     -10.579  17.304  65.228  1.00  0.00    -0.657 NA 
HETATM    9  C   UNL     1     -10.247  18.264  68.685  1.00  0.00    -0.377 A  
HETATM   10  C   UNL     1     -10.320  18.186  66.242  1.00  0.00    -0.397 A  
HETATM   11  C   UNL     1     -10.470  17.577  67.483  1.00  0.00    -0.355 A  
HETATM   12  C   UNL     1      -9.882  19.612  68.597  1.00  0.00    -0.519 A  
HETATM   13  C   UNL     1      -9.942  19.535  66.172  1.00  0.00    -0.526 A  
HETATM   14  C   UNL     1      -9.729  20.240  67.362  1.00  0.00    -0.584 A  
BRANCH   7  15
HETATM   15  C   UNL     1     -11.219  14.897  65.080  1.00  0.00    -0.408 C  
HETATM   16  C   UNL     1     -10.464  12.734  64.121  1.00  0.00    -0.413 C  
HETATM   17  C   UNL     1     -12.792  13.004  64.800  1.00  0.00    -0.265 C  
HETATM   18  C   UNL     1     -12.411  14.175  65.707  1.00  0.00    -0.490 C  
HETATM   19  N   UNL     1     -11.698  12.049  64.555  1.00  0.00    -0.329 NA 
HETATM   20  C   UNL     1     -10.047  13.915  65.008  1.00  0.00    -0.319 C  
BRANCH  19  21
HETATM   21  C   UNL     1     -11.433  11.158  65.695  1.00  0.00     0.358 C  
BRANCH  21  22
HETATM   22  C   UNL     1     -10.144  10.330  65.541  1.00  0.00    -0.351 C  
BRANCH  22  23
HETATM   23  C   UNL     1      -9.797   9.664  66.848  1.00  0.00    -0.257 A  
HETATM   24  C   UNL     1      -8.743  10.150  67.627  1.00  0.00    -0.121 A  
HETATM   25  C   UNL     1      -8.330   9.458  68.764  1.00  0.00    -0.117 A  
HETATM   26  C   UNL     1      -8.961   8.261  69.152  1.00  0.00    -0.147 A  
HETATM   27  C   UNL     1     -10.466   8.511  67.249  1.00  0.00    -0.366 A  
HETATM   28  C   UNL     1     -10.059   7.822  68.391  1.00  0.00    -0.215 A  
BRANCH  26  29
HETATM   29  C   UNL     1      -8.387   7.437  70.319  1.00  0.00    -0.134 C  
HETATM   30  C   UNL     1      -7.106   6.677  69.931  1.00  0.00    -0.068 C  
HETATM   31  C   UNL     1      -8.053   8.385  71.492  1.00  0.00    -0.172 C  
HETATM   32  C   UNL     1      -9.360   6.362  70.845  1.00  0.00    -0.168 C  
HETATM   33  O   UNL     1      -7.057   6.245  68.646  1.00  0.00    -0.077 OA 
HETATM   34  O   UNL     1      -6.204   6.404  70.710  1.00  0.00    -0.037 OA 
ENDBRANCH  26  29
ENDBRANCH  22  23
ENDBRANCH  21  22
ENDBRANCH  19  21
ENDBRANCH   7  15
ENDBRANCH   5   6
ENDBRANCH   4   5
ENDBRANCH   3   4
ENDBRANCH   2   3
TORSDOF 9
ENDMDL
MODEL       31
REMARK 921   NORMALIZED FREE ENERGY PREDICTED BY IDOCK:   -7.08 KCAL/MOL
REMARK 922        TOTAL FREE ENERGY PREDICTED BY IDOCK:  -10.99 KCAL/MOL
REMARK 923 INTER-LIGAND FREE ENERGY PREDICTED BY IDOCK:   -9.80 KCAL/MOL
REMARK 924 INTRA-LIGAND FREE ENERGY PREDICTED BY IDOCK:   -1.19 KCAL/MOL
REMARK 927      BINDING AFFINITY PREDICTED BY RF-SCORE:    0.00 PKD
ROOT
HETATM    1  C   UNL     1     -10.918  11.595  63.847  1.00  0.00    -0.478 C  
HETATM    2  C   UNL     1     -12.307  12.007  63.398  1.00  0.00    -0.523 C  
ENDROOT
BRANCH   2   3
HETATM    3  O   UNL     1     -12.476  13.423  63.531  1.00  0.00    -0.738 OA 
BRANCH   3   4
HETATM    4  C   UNL     1     -11.471  13.965  64.399  1.00  0.00    -0.361 C  
BRANCH   4   5
HETATM    5  C   UNL     1     -12.078  14.382  65.738  1.00  0.00    -0.355 C  
BRANCH   5   6
HETATM    6  N   UNL     1     -11.074  14.716  66.737  1.00  0.00    -0.328 NA 
HETATM    7  C   UNL     1     -10.624  13.927  67.783  1.00  0.00    -0.246 A  
HETATM    8  N   UNL     1      -9.702  14.558  68.484  1.00  0.00    -0.220 NA 
HETATM    9  C   UNL     1     -10.461  17.097  66.042  1.00  0.00    -0.271 A  
HETATM   10  C   UNL     1      -9.554  15.786  67.896  1.00  0.00    -0.214 A  
HETATM   11  C   UNL     1     -10.409  15.924  66.808  1.00  0.00    -0.298 A  
HETATM   12  C   UNL     1      -9.597  18.139  66.401  1.00  0.00    -0.298 A  
HETATM   13  C   UNL     1      -8.704  16.844  68.250  1.00  0.00    -0.235 A  
HETATM   14  C   UNL     1      -8.732  18.018  67.488  1.00  0.00    -0.248 A  
BRANCH   7  15
HETATM   15  C   UNL     1     -11.135  12.555  68.088  1.00  0.00    -0.282 C  
HETATM   16  C   UNL     1     -10.813  10.094  68.008  1.00  0.00    -0.270 C  
HETATM   17  C   UNL     1     -12.250  11.066  69.725  1.00  0.00    -0.318 C  
HETATM   18  C   UNL     1     -11.573  12.425  69.547  1.00  0.00    -0.353 C  
HETATM   19  N   UNL     1     -11.408   9.918  69.348  1.00  0.00    -0.151 NA 
HETATM   20  C   UNL     1     -10.122  11.447  67.791  1.00  0.00    -0.198 C  
BRANCH  19  21
HETATM   21  C   UNL     1     -10.373   9.601  70.345  1.00  0.00    -0.291 C  
BRANCH  21  22
HETATM   22  C   UNL     1     -10.943   9.252  71.733  1.00  0.00    -0.383 C  
BRANCH  22  23
HETATM   23  C   UNL     1     -10.829   7.770  71.983  1.00  0.00    -0.295 A  
HETATM   24  C   UNL     1     -10.811   7.276  73.290  1.00  0.00    -0.404 A  
HETATM   25  C   UNL     1     -10.568   5.925  73.529  1.00  0.00    -0.289 A  
HETATM   26  C   UNL     1     -10.338   5.031  72.465  1.00  0.00    -0.255 A  
HETATM   27  C   UNL     1     -10.657   6.888  70.918  1.00  0.00    -0.243 A  
HETATM   28  C   UNL     1     -10.422   5.535  71.156  1.00  0.00    -0.304 A  
BRANCH  26  29
HETATM   29  C   UNL     1      -9.919   3.580  72.763  1.00  0.00    -0.218 C  
HETATM   30  C   UNL     1      -8.514   3.485  73.384  1.00  0.00    -0.082 C  
HETATM   31  C   UNL     1     -10.930   2.954  73.751  1.00  0.00    -0.313 C  
HETATM   32  C   UNL     1      -9.876   2.687  71.506  1.00  0.00    -0.193 C  
HETATM   33  O   UNL     1      -7.630   4.421  72.956  1.00  0.00    -0.078 OA 
HETATM   34  O   UNL     1      -8.160   2.609  74.158  1.00  0.00    -0.064 OA 
ENDBRANCH  26  29
ENDBRANCH  22  23
ENDBRANCH  21  22
ENDBRANCH  19  21
ENDBRANCH   7  15
ENDBRANCH   5   6
ENDBRANCH   4   5
ENDBRANCH   3   4
ENDBRANCH   2   3
TORSDOF 9
ENDMDL
MODEL       32
REMARK 921   NORMALIZED FREE ENERGY PREDICTED BY IDOCK:   -7.00 KCAL/MOL
REMARK 922        TOTAL FREE ENERGY PREDICTED BY IDOCK:  -10.87 KCAL/MOL
REMARK 923 INTER-LIGAND FREE ENERGY PREDICTED BY IDOCK:  -10.13 KCAL/MOL
REMARK 924 INTRA-LIGAND FREE ENERGY PREDICTED BY IDOCK:   -0.74 KCAL/MOL
REMARK 927      BINDING AFFINITY PREDICTED BY RF-SCORE:    0.00 PKD
ROOT
HETATM    1  C   UNL     1      -8.445  19.113  69.202  1.00  0.00    -0.134 C  
HETATM    2  C   UNL     1      -9.858  19.656  69.121  1.00  0.00    -0.333 C  
ENDROOT
BRANCH   2   3
HETATM    3  O   UNL     1     -10.635  18.891  68.192  1.00  0.00    -0.346 OA 
BRANCH   3   4
HETATM    4  C   UNL     1     -10.914  19.667  67.018  1.00  0.00    -0.295 C  
BRANCH   4   5
HETATM    5  C   UNL     1     -10.510  18.906  65.755  1.00  0.00    -0.290 C  
BRANCH   5   6
HETATM    6  N   UNL     1      -9.347  18.054  65.954  1.00  0.00    -0.504 NA 
HETATM    7  C   UNL     1      -9.327  16.696  66.226  1.00  0.00    -0.292 A  
HETATM    8  N   UNL     1      -8.088  16.259  66.338  1.00  0.00    -0.309 NA 
HETATM    9  C   UNL     1      -7.450  19.749  65.712  1.00  0.00    -0.325 A  
HETATM   10  C   UNL     1      -7.282  17.350  66.150  1.00  0.00    -0.292 A  
HETATM   11  C   UNL     1      -8.038  18.494  65.921  1.00  0.00     0.044 A  
HETATM   12  C   UNL     1      -6.052  19.814  65.722  1.00  0.00    -0.207 A  
HETATM   13  C   UNL     1      -5.883  17.434  66.169  1.00  0.00    -0.173 A  
HETATM   14  C   UNL     1      -5.277  18.677  65.948  1.00  0.00    -0.185 A  
BRANCH   7  15
HETATM   15  C   UNL     1     -10.548  15.850  66.394  1.00  0.00    -0.298 C  
HETATM   16  C   UNL     1     -12.077  14.112  65.493  1.00  0.00    -0.414 C  
HETATM   17  C   UNL     1     -11.908  14.435  67.907  1.00  0.00    -0.349 C  
HETATM   18  C   UNL     1     -10.552  15.121  67.738  1.00  0.00    -0.264 C  
HETATM   19  N   UNL     1     -12.248  13.496  66.825  1.00  0.00    -0.374 NA 
HETATM   20  C   UNL     1     -10.727  14.810  65.285  1.00  0.00    -0.406 C  
BRANCH  19  21
HETATM   21  C   UNL     1     -11.523  12.218  66.910  1.00  0.00    -0.356 C  
BRANCH  21  22
HETATM   22  C   UNL     1     -10.414  12.210  67.978  1.00  0.00    -0.227 C  
BRANCH  22  23
HETATM   23  C   UNL     1     -10.709  11.168  69.025  1.00  0.00    -0.265 A  
HETATM   24  C   UNL     1      -9.770  10.174  69.313  1.00  0.00    -0.238 A  
HETATM   25  C   UNL     1     -10.092   9.129  70.178  1.00  0.00    -0.233 A  
HETATM   26  C   UNL     1     -11.363   9.053  70.778  1.00  0.00    -0.329 A  
HETATM   27  C   UNL     1     -11.952  11.134  69.654  1.00  0.00    -0.429 A  
HETATM   28  C   UNL     1     -12.272  10.094  70.525  1.00  0.00    -0.352 A  
BRANCH  26  29
HETATM   29  C   UNL     1     -11.745   7.810  71.604  1.00  0.00    -0.316 C  
HETATM   30  C   UNL     1     -11.411   6.494  70.879  1.00  0.00    -0.351 C  
HETATM   31  C   UNL     1     -10.975   7.837  72.943  1.00  0.00    -0.467 C  
HETATM   32  C   UNL     1     -13.251   7.732  71.928  1.00  0.00    -0.300 C  
HETATM   33  O   UNL     1     -11.532   6.532  69.529  1.00  0.00    -0.371 OA 
HETATM   34  O   UNL     1     -11.119   5.451  71.445  1.00  0.00    -0.149 OA 
ENDBRANCH  26  29
ENDBRANCH  22  23
ENDBRANCH  21  22
ENDBRANCH  19  21
ENDBRANCH   7  15
ENDBRANCH   5   6
ENDBRANCH   4   5
ENDBRANCH   3   4
ENDBRANCH   2   3
TORSDOF 9
ENDMDL
MODEL       33
REMARK 921   NORMALIZED FREE ENERGY PREDICTED BY IDOCK:   -6.99 KCAL/MOL
REMARK 922        TOTAL FREE ENERGY PREDICTED BY IDOCK:  -10.85 KCAL/MOL
REMARK 923 INTER-LIGAND FREE ENERGY PREDICTED BY IDOCK:  -10.03 KCAL/MOL
REMARK 924 INTRA-LIGAND FREE ENERGY PREDICTED BY IDOCK:   -0.81 KCAL/MOL
REMARK 927      BINDING AFFINITY PREDICTED BY RF-SCORE:    0.00 PKD
ROOT
HETATM    1  C   UNL     1     -13.559  13.380  72.205  1.00  0.00    -0.703 C  
HETATM    2  C   UNL     1     -12.810  12.642  71.113  1.00  0.00    -0.220 C  
ENDROOT
BRANCH   2   3
HETATM    3  O   UNL     1     -12.399  11.349  71.574  1.00  0.00    -0.228 OA 
BRANCH   3   4
HETATM    4  C   UNL     1     -12.269  10.445  70.468  1.00  0.00    -0.323 C  
BRANCH   4   5
HETATM    5  C   UNL     1     -10.837  10.445  69.932  1.00  0.00    -0.298 C  
BRANCH   5   6
HETATM    6  N   UNL     1     -10.681   9.638  68.731  1.00  0.00    -0.221 NA 
HETATM    7  C   UNL     1     -10.555  10.079  67.424  1.00  0.00    -0.271 A  
HETATM    8  N   UNL     1     -10.427   9.061  66.596  1.00  0.00    -0.216 NA 
HETATM    9  C   UNL     1     -10.758   7.279  69.710  1.00  0.00    -0.253 A  
HETATM   10  C   UNL     1     -10.483   7.933  67.370  1.00  0.00    -0.290 A  
HETATM   11  C   UNL     1     -10.656   8.258  68.711  1.00  0.00    -0.123 A  
HETATM   12  C   UNL     1     -10.659   5.941  69.312  1.00  0.00    -0.379 A  
HETATM   13  C   UNL     1     -10.398   6.587  66.987  1.00  0.00    -0.319 A  
HETATM   14  C   UNL     1     -10.483   5.597  67.972  1.00  0.00    -0.264 A  
BRANCH   7  15
HETATM   15  C   UNL     1     -10.586  11.516  67.010  1.00  0.00    -0.277 C  
HETATM   16  C   UNL     1     -11.846  13.646  66.797  1.00  0.00    -0.413 C  
HETATM   17  C   UNL     1      -9.412  13.698  66.976  1.00  0.00    -0.252 C  
HETATM   18  C   UNL     1      -9.410  12.299  67.593  1.00  0.00    -0.186 C  
HETATM   19  N   UNL     1     -10.664  14.446  67.179  1.00  0.00    -0.280 NA 
HETATM   20  C   UNL     1     -11.880  12.235  67.399  1.00  0.00    -0.327 C  
BRANCH  19  21
HETATM   21  C   UNL     1     -10.810  14.981  68.542  1.00  0.00    -0.250 C  
BRANCH  21  22
HETATM   22  C   UNL     1     -11.280  16.448  68.579  1.00  0.00    -0.334 C  
BRANCH  22  23
HETATM   23  C   UNL     1     -10.117  17.371  68.323  1.00  0.00    -0.339 A  
HETATM   24  C   UNL     1     -10.298  18.543  67.582  1.00  0.00    -0.442 A  
HETATM   25  C   UNL     1      -9.203  19.327  67.226  1.00  0.00    -0.357 A  
HETATM   26  C   UNL     1      -7.897  18.961  67.603  1.00  0.00    -0.265 A  
HETATM   27  C   UNL     1      -8.837  17.025  68.748  1.00  0.00    -0.244 A  
HETATM   28  C   UNL     1      -7.741  17.814  68.399  1.00  0.00    -0.278 A  
BRANCH  26  29
HETATM   29  C   UNL     1      -6.694  19.758  67.065  1.00  0.00    -0.219 C  
HETATM   30  C   UNL     1      -6.536  19.634  65.539  1.00  0.00    -0.269 C  
HETATM   31  C   UNL     1      -6.881  21.252  67.414  1.00  0.00    -0.329 C  
HETATM   32  C   UNL     1      -5.345  19.303  67.658  1.00  0.00    -0.172 C  
HETATM   33  O   UNL     1      -6.904  18.437  65.017  1.00  0.00    -0.457 OA 
HETATM   34  O   UNL     1      -6.058  20.501  64.823  1.00  0.00    -0.238 OA 
ENDBRANCH  26  29
ENDBRANCH  22  23
ENDBRANCH  21  22
ENDBRANCH  19  21
ENDBRANCH   7  15
ENDBRANCH   5   6
ENDBRANCH   4   5
ENDBRANCH   3   4
ENDBRANCH   2   3
TORSDOF 9
ENDMDL
MODEL       34
REMARK 921   NORMALIZED FREE ENERGY PREDICTED BY IDOCK:   -6.96 KCAL/MOL
REMARK 922        TOTAL FREE ENERGY PREDICTED BY IDOCK:  -10.80 KCAL/MOL
REMARK 923 INTER-LIGAND FREE ENERGY PREDICTED BY IDOCK:   -9.84 KCAL/MOL
REMARK 924 INTRA-LIGAND FREE ENERGY PREDICTED BY IDOCK:   -0.97 KCAL/MOL
REMARK 927      BINDING AFFINITY PREDICTED BY RF-SCORE:    0.00 PKD
ROOT
HETATM    1  C   UNL     1     -10.828   9.248  71.436  1.00  0.00    -0.434 C  
HETATM    2  C   UNL     1     -10.991   8.743  70.015  1.00  0.00    -0.209 C  
ENDROOT
BRANCH   2   3
HETATM    3  O   UNL     1     -10.834   9.817  69.081  1.00  0.00    -0.219 OA 
BRANCH   3   4
HETATM    4  C   UNL     1     -11.193  11.065  69.692  1.00  0.00    -0.278 C  
BRANCH   4   5
HETATM    5  C   UNL     1     -11.989  11.935  68.720  1.00  0.00    -0.249 C  
BRANCH   5   6
HETATM    6  N   UNL     1     -12.109  13.316  69.163  1.00  0.00    -0.284 NA 
HETATM    7  C   UNL     1     -11.837  14.465  68.438  1.00  0.00    -0.319 A  
HETATM    8  N   UNL     1     -12.065  15.542  69.164  1.00  0.00    -0.296 NA 
HETATM    9  C   UNL     1     -12.881  12.994  71.577  1.00  0.00    -0.386 A  
HETATM   10  C   UNL     1     -12.479  15.093  70.389  1.00  0.00    -0.368 A  
HETATM   11  C   UNL     1     -12.505  13.703  70.428  1.00  0.00    -0.294 A  
HETATM   12  C   UNL     1     -13.256  13.741  72.700  1.00  0.00    -0.571 A  
HETATM   13  C   UNL     1     -12.847  15.826  71.527  1.00  0.00    -0.512 A  
HETATM   14  C   UNL     1     -13.240  15.135  72.679  1.00  0.00    -0.536 A  
BRANCH   7  15
HETATM   15  C   UNL     1     -11.331  14.477  67.031  1.00  0.00    -0.359 C  
HETATM   16  C   UNL     1      -9.675  13.694  65.355  1.00  0.00    -0.025 C  
HETATM   17  C   UNL     1     -11.890  14.406  64.618  1.00  0.00    -0.451 C  
HETATM   18  C   UNL     1     -12.447  14.191  66.026  1.00  0.00    -0.454 C  
HETATM   19  N   UNL     1     -10.707  13.585  64.305  1.00  0.00    -0.376 NA 
HETATM   20  C   UNL     1     -10.195  13.483  66.783  1.00  0.00    -0.264 C  
BRANCH  19  21
HETATM   21  C   UNL     1     -11.030  12.177  64.027  1.00  0.00    -0.380 C  
BRANCH  21  22
HETATM   22  C   UNL     1      -9.847  11.378  63.447  1.00  0.00    -0.422 C  
BRANCH  22  23
HETATM   23  C   UNL     1      -9.528  10.205  64.338  1.00  0.00    -0.368 A  
HETATM   24  C   UNL     1      -8.527   9.299  63.977  1.00  0.00    -0.202 A  
HETATM   25  C   UNL     1      -8.322   8.141  64.724  1.00  0.00    -0.113 A  
HETATM   26  C   UNL     1      -9.113   7.859  65.853  1.00  0.00    -0.139 A  
HETATM   27  C   UNL     1     -10.282   9.966  65.484  1.00  0.00    -0.194 A  
HETATM   28  C   UNL     1     -10.072   8.811  66.237  1.00  0.00    -0.254 A  
BRANCH  26  29
HETATM   29  C   UNL     1      -8.971   6.502  66.567  1.00  0.00    -0.152 C  
HETATM   30  C   UNL     1      -8.284   6.625  67.939  1.00  0.00    -0.120 C  
HETATM   31  C   UNL     1     -10.375   5.892  66.780  1.00  0.00    -0.302 C  
HETATM   32  C   UNL     1      -8.129   5.480  65.775  1.00  0.00    -0.112 C  
HETATM   33  O   UNL     1      -7.337   7.592  68.025  1.00  0.00    -0.093 OA 
HETATM   34  O   UNL     1      -8.499   5.884  68.887  1.00  0.00    -0.105 OA 
ENDBRANCH  26  29
ENDBRANCH  22  23
ENDBRANCH  21  22
ENDBRANCH  19  21
ENDBRANCH   7  15
ENDBRANCH   5   6
ENDBRANCH   4   5
ENDBRANCH   3   4
ENDBRANCH   2   3
TORSDOF 9
ENDMDL
MODEL       35
REMARK 921   NORMALIZED FREE ENERGY PREDICTED BY IDOCK:   -6.95 KCAL/MOL
REMARK 922        TOTAL FREE ENERGY PREDICTED BY IDOCK:  -10.79 KCAL/MOL
REMARK 923 INTER-LIGAND FREE ENERGY PREDICTED BY IDOCK:   -9.39 KCAL/MOL
REMARK 924 INTRA-LIGAND FREE ENERGY PREDICTED BY IDOCK:   -1.40 KCAL/MOL
REMARK 927      BINDING AFFINITY PREDICTED BY RF-SCORE:    0.00 PKD
ROOT
HETATM    1  C   UNL     1      -9.550  20.318  66.532  1.00  0.00    -0.491 C  
HETATM    2  C   UNL     1     -10.235  19.696  67.733  1.00  0.00    -0.436 C  
ENDROOT
BRANCH   2   3
HETATM    3  O   UNL     1     -10.970  18.530  67.341  1.00  0.00    -0.376 OA 
BRANCH   3   4
HETATM    4  C   UNL     1     -10.534  18.076  66.052  1.00  0.00    -0.313 C  
BRANCH   4   5
HETATM    5  C   UNL     1      -9.973  16.657  66.137  1.00  0.00    -0.337 C  
BRANCH   5   6
HETATM    6  N   UNL     1      -9.102  16.459  67.285  1.00  0.00    -0.198 NA 
HETATM    7  C   UNL     1      -9.409  15.842  68.487  1.00  0.00    -0.206 A  
HETATM    8  N   UNL     1      -8.366  15.842  69.294  1.00  0.00    -0.247 NA 
HETATM    9  C   UNL     1      -6.956  17.585  66.474  1.00  0.00    -0.288 A  
HETATM   10  C   UNL     1      -7.363  16.481  68.617  1.00  0.00    -0.194 A  
HETATM   11  C   UNL     1      -7.793  16.894  67.361  1.00  0.00    -0.170 A  
HETATM   12  C   UNL     1      -5.643  17.835  66.891  1.00  0.00    -0.176 A  
HETATM   13  C   UNL     1      -6.048  16.751  69.024  1.00  0.00    -0.169 A  
HETATM   14  C   UNL     1      -5.194  17.427  68.146  1.00  0.00    -0.129 A  
BRANCH   7  15
HETATM   15  C   UNL     1     -10.751  15.277  68.828  1.00  0.00    -0.241 C  
HETATM   16  C   UNL     1     -12.251  13.306  69.003  1.00  0.00    -0.116 C  
HETATM   17  C   UNL     1     -12.664  15.262  70.403  1.00  0.00    -0.356 C  
HETATM   18  C   UNL     1     -11.219  15.725  70.212  1.00  0.00    -0.377 C  
HETATM   19  N   UNL     1     -12.858  13.810  70.252  1.00  0.00    -0.133 NA 
HETATM   20  C   UNL     1     -10.799  13.749  68.777  1.00  0.00    -0.281 C  
BRANCH  19  21
HETATM   21  C   UNL     1     -12.393  13.035  71.412  1.00  0.00    -0.012 C  
BRANCH  21  22
HETATM   22  C   UNL     1     -13.372  11.927  71.844  1.00  0.00    -0.405 C  
BRANCH  22  23
HETATM   23  C   UNL     1     -12.739  10.573  71.654  1.00  0.00    -0.550 A  
HETATM   24  C   UNL     1     -13.115   9.500  72.468  1.00  0.00    -0.324 A  
HETATM   25  C   UNL     1     -12.436   8.285  72.390  1.00  0.00    -0.355 A  
HETATM   26  C   UNL     1     -11.364   8.111  71.494  1.00  0.00    -0.308 A  
HETATM   27  C   UNL     1     -11.716  10.398  70.726  1.00  0.00    -0.464 A  
HETATM   28  C   UNL     1     -11.042   9.180  70.641  1.00  0.00    -0.320 A  
BRANCH  26  29
HETATM   29  C   UNL     1     -10.534   6.815  71.538  1.00  0.00    -0.236 C  
HETATM   30  C   UNL     1     -10.582   6.037  70.210  1.00  0.00    -0.273 C  
HETATM   31  C   UNL     1      -9.060   7.168  71.841  1.00  0.00    -0.144 C  
HETATM   32  C   UNL     1     -11.011   5.820  72.616  1.00  0.00    -0.311 C  
HETATM   33  O   UNL     1     -11.754   6.126  69.532  1.00  0.00    -0.298 OA 
HETATM   34  O   UNL     1      -9.679   5.328  69.794  1.00  0.00    -0.158 OA 
ENDBRANCH  26  29
ENDBRANCH  22  23
ENDBRANCH  21  22
ENDBRANCH  19  21
ENDBRANCH   7  15
ENDBRANCH   5   6
ENDBRANCH   4   5
ENDBRANCH   3   4
ENDBRANCH   2   3
TORSDOF 9
ENDMDL
MODEL       36
REMARK 921   NORMALIZED FREE ENERGY PREDICTED BY IDOCK:   -6.87 KCAL/MOL
REMARK 922        TOTAL FREE ENERGY PREDICTED BY IDOCK:  -10.67 KCAL/MOL
REMARK 923 INTER-LIGAND FREE ENERGY PREDICTED BY IDOCK:   -9.45 KCAL/MOL
REMARK 924 INTRA-LIGAND FREE ENERGY PREDICTED BY IDOCK:   -1.22 KCAL/MOL
REMARK 927      BINDING AFFINITY PREDICTED BY RF-SCORE:    0.00 PKD
ROOT
HETATM    1  C   UNL     1      -9.371   3.534  67.562  1.00  0.00    -0.249 C  
HETATM    2  C   UNL     1      -9.483   5.042  67.448  1.00  0.00    -0.137 C  
ENDROOT
BRANCH   2   3
HETATM    3  O   UNL     1     -10.661   5.402  66.716  1.00  0.00    -0.284 OA 
BRANCH   3   4
HETATM    4  C   UNL     1     -11.132   6.692  67.133  1.00  0.00    -0.357 C  
BRANCH   4   5
HETATM    5  C   UNL     1     -10.023   7.472  67.839  1.00  0.00    -0.165 C  
BRANCH   5   6
HETATM    6  N   UNL     1     -10.500   8.215  68.996  1.00  0.00    -0.217 NA 
HETATM    7  C   UNL     1     -10.848   9.554  69.058  1.00  0.00    -0.160 A  
HETATM    8  N   UNL     1     -11.242   9.880  70.274  1.00  0.00    -0.280 NA 
HETATM    9  C   UNL     1     -10.451   6.404  70.798  1.00  0.00    -0.270 A  
HETATM   10  C   UNL     1     -11.137   8.740  71.024  1.00  0.00    -0.270 A  
HETATM   11  C   UNL     1     -10.661   7.681  70.259  1.00  0.00    -0.239 A  
HETATM   12  C   UNL     1     -10.758   6.218  72.151  1.00  0.00    -0.269 A  
HETATM   13  C   UNL     1     -11.428   8.539  72.382  1.00  0.00    -0.419 A  
HETATM   14  C   UNL     1     -11.237   7.267  72.933  1.00  0.00    -0.336 A  
BRANCH   7  15
HETATM   15  C   UNL     1     -10.765  10.504  67.906  1.00  0.00    -0.305 C  
HETATM   16  C   UNL     1     -11.723  12.419  66.649  1.00  0.00    -0.372 C  
HETATM   17  C   UNL     1      -9.328  11.969  66.517  1.00  0.00    -0.223 C  
HETATM   18  C   UNL     1      -9.389  11.165  67.816  1.00  0.00    -0.166 C  
HETATM   19  N   UNL     1     -10.384  12.986  66.386  1.00  0.00    -0.276 NA 
HETATM   20  C   UNL     1     -11.825  11.607  67.947  1.00  0.00    -0.273 C  
BRANCH  19  21
HETATM   21  C   UNL     1     -10.148  14.183  67.207  1.00  0.00    -0.256 C  
BRANCH  21  22
HETATM   22  C   UNL     1     -10.764  15.466  66.617  1.00  0.00    -0.309 C  
BRANCH  22  23
HETATM   23  C   UNL     1      -9.699  16.515  66.433  1.00  0.00    -0.305 A  
HETATM   24  C   UNL     1      -8.348  16.155  66.434  1.00  0.00    -0.357 A  
HETATM   25  C   UNL     1      -7.358  17.135  66.403  1.00  0.00    -0.334 A  
HETATM   26  C   UNL     1      -7.693  18.502  66.370  1.00  0.00    -0.291 A  
HETATM   27  C   UNL     1     -10.045  17.862  66.347  1.00  0.00    -0.369 A  
HETATM   28  C   UNL     1      -9.054  18.842  66.308  1.00  0.00    -0.269 A  
BRANCH  26  29
HETATM   29  C   UNL     1      -6.584  19.564  66.494  1.00  0.00    -0.192 C  
HETATM   30  C   UNL     1      -6.094  20.068  65.125  1.00  0.00    -0.237 C  
HETATM   31  C   UNL     1      -7.127  20.772  67.291  1.00  0.00    -0.417 C  
HETATM   32  C   UNL     1      -5.324  19.050  67.220  1.00  0.00    -0.154 C  
HETATM   33  O   UNL     1      -6.105  19.144  64.132  1.00  0.00    -0.461 OA 
HETATM   34  O   UNL     1      -5.656  21.191  64.921  1.00  0.00    -0.231 OA 
ENDBRANCH  26  29
ENDBRANCH  22  23
ENDBRANCH  21  22
ENDBRANCH  19  21
ENDBRANCH   7  15
ENDBRANCH   5   6
ENDBRANCH   4   5
ENDBRANCH   3   4
ENDBRANCH   2   3
TORSDOF 9
ENDMDL
MODEL       37
REMARK 921   NORMALIZED FREE ENERGY PREDICTED BY IDOCK:   -6.87 KCAL/MOL
REMARK 922        TOTAL FREE ENERGY PREDICTED BY IDOCK:  -10.67 KCAL/MOL
REMARK 923 INTER-LIGAND FREE ENERGY PREDICTED BY IDOCK:   -9.45 KCAL/MOL
REMARK 924 INTRA-LIGAND FREE ENERGY PREDICTED BY IDOCK:   -1.22 KCAL/MOL
REMARK 927      BINDING AFFINITY PREDICTED BY RF-SCORE:    0.00 PKD
ROOT
HETATM    1  C   UNL     1     -14.410   7.846  71.750  1.00  0.00    -0.589 C  
HETATM    2  C   UNL     1     -12.989   7.456  71.392  1.00  0.00    -0.356 C  
ENDROOT
BRANCH   2   3
HETATM    3  O   UNL     1     -12.051   8.230  72.148  1.00  0.00    -0.324 OA 
BRANCH   3   4
HETATM    4  C   UNL     1     -10.962   7.405  72.586  1.00  0.00    -0.317 C  
BRANCH   4   5
HETATM    5  C   UNL     1      -9.669   7.784  71.864  1.00  0.00    -0.169 C  
BRANCH   5   6
HETATM    6  N   UNL     1      -9.643   7.343  70.478  1.00  0.00    -0.172 NA 
HETATM    7  C   UNL     1      -9.702   8.127  69.337  1.00  0.00    -0.170 A  
HETATM    8  N   UNL     1      -9.648   7.380  68.252  1.00  0.00    -0.149 NA 
HETATM    9  C   UNL     1      -9.514   4.808  70.772  1.00  0.00    -0.228 A  
HETATM   10  C   UNL     1      -9.565   6.084  68.687  1.00  0.00    -0.125 A  
HETATM   11  C   UNL     1      -9.574   6.023  70.076  1.00  0.00    -0.163 A  
HETATM   12  C   UNL     1      -9.423   3.636  70.012  1.00  0.00    -0.260 A  
HETATM   13  C   UNL     1      -9.486   4.900  67.941  1.00  0.00    -0.172 A  
HETATM   14  C   UNL     1      -9.410   3.677  68.618  1.00  0.00    -0.228 A  
BRANCH   7  15
HETATM   15  C   UNL     1      -9.834   9.616  69.341  1.00  0.00    -0.203 C  
HETATM   16  C   UNL     1      -9.223  11.813  68.358  1.00  0.00    -0.175 C  
HETATM   17  C   UNL     1     -11.345  11.570  69.539  1.00  0.00    -0.274 C  
HETATM   18  C   UNL     1     -11.299  10.054  69.347  1.00  0.00    -0.192 C  
HETATM   19  N   UNL     1     -10.596  12.331  68.524  1.00  0.00    -0.230 NA 
HETATM   20  C   UNL     1      -9.136  10.294  68.161  1.00  0.00    -0.136 C  
BRANCH  19  21
HETATM   21  C   UNL     1     -11.288  12.414  67.228  1.00  0.00    -0.323 C  
BRANCH  21  22
HETATM   22  C   UNL     1     -12.205  13.644  67.098  1.00  0.00    -0.340 C  
BRANCH  22  23
HETATM   23  C   UNL     1     -11.401  14.909  67.247  1.00  0.00    -0.355 A  
HETATM   24  C   UNL     1     -11.452  15.641  68.436  1.00  0.00    -0.374 A  
HETATM   25  C   UNL     1     -10.821  16.880  68.529  1.00  0.00    -0.335 A  
HETATM   26  C   UNL     1     -10.120  17.419  67.434  1.00  0.00    -0.321 A  
HETATM   27  C   UNL     1     -10.666  15.406  66.172  1.00  0.00    -0.316 A  
HETATM   28  C   UNL     1     -10.027  16.642  66.268  1.00  0.00    -0.336 A  
BRANCH  26  29
HETATM   29  C   UNL     1      -9.566  18.854  67.512  1.00  0.00    -0.347 C  
HETATM   30  C   UNL     1      -8.119  18.901  68.036  1.00  0.00    -0.292 C  
HETATM   31  C   UNL     1      -9.593  19.485  66.102  1.00  0.00    -0.431 C  
HETATM   32  C   UNL     1     -10.375  19.771  68.453  1.00  0.00    -0.513 C  
HETATM   33  O   UNL     1      -7.807  17.952  68.953  1.00  0.00    -0.267 OA 
HETATM   34  O   UNL     1      -7.301  19.753  67.724  1.00  0.00    -0.263 OA 
ENDBRANCH  26  29
ENDBRANCH  22  23
ENDBRANCH  21  22
ENDBRANCH  19  21
ENDBRANCH   7  15
ENDBRANCH   5   6
ENDBRANCH   4   5
ENDBRANCH   3   4
ENDBRANCH   2   3
TORSDOF 9
ENDMDL
MODEL       38
REMARK 921   NORMALIZED FREE ENERGY PREDICTED BY IDOCK:   -6.84 KCAL/MOL
REMARK 922        TOTAL FREE ENERGY PREDICTED BY IDOCK:  -10.63 KCAL/MOL
REMARK 923 INTER-LIGAND FREE ENERGY PREDICTED BY IDOCK:   -9.43 KCAL/MOL
REMARK 924 INTRA-LIGAND FREE ENERGY PREDICTED BY IDOCK:   -1.20 KCAL/MOL
REMARK 927      BINDING AFFINITY PREDICTED BY RF-SCORE:    0.00 PKD
ROOT
HETATM    1  C   UNL     1      -9.802  20.498  67.513  1.00  0.00    -0.534 C  
HETATM    2  C   UNL     1     -10.163  19.357  68.443  1.00  0.00    -0.418 C  
ENDROOT
BRANCH   2   3
HETATM    3  O   UNL     1     -10.785  18.293  67.712  1.00  0.00    -0.411 OA 
BRANCH   3   4
HETATM    4  C   UNL     1     -10.466  18.395  66.317  1.00  0.00    -0.393 C  
BRANCH   4   5
HETATM    5  C   UNL     1     -10.205  17.014  65.717  1.00  0.00    -0.245 C  
BRANCH   5   6
HETATM    6  N   UNL     1      -9.092  16.322  66.350  1.00  0.00    -0.274 NA 
HETATM    7  C   UNL     1      -9.089  15.054  66.907  1.00  0.00    -0.247 A  
HETATM    8  N   UNL     1      -7.896  14.755  67.385  1.00  0.00    -0.188 NA 
HETATM    9  C   UNL     1      -7.253  18.088  66.175  1.00  0.00    -0.325 A  
HETATM   10  C   UNL     1      -7.108  15.850  67.149  1.00  0.00    -0.204 A  
HETATM   11  C   UNL     1      -7.829  16.856  66.515  1.00  0.00    -0.294 A  
HETATM   12  C   UNL     1      -5.900  18.271  66.482  1.00  0.00    -0.188 A  
HETATM   13  C   UNL     1      -5.756  16.055  67.461  1.00  0.00    -0.157 A  
HETATM   14  C   UNL     1      -5.160  17.273  67.116  1.00  0.00    -0.166 A  
BRANCH   7  15
HETATM   15  C   UNL     1     -10.284  14.159  66.978  1.00  0.00    -0.260 C  
HETATM   16  C   UNL     1     -11.421  12.063  66.285  1.00  0.00    -0.345 C  
HETATM   17  C   UNL     1     -12.020  13.114  68.405  1.00  0.00    -0.289 C  
HETATM   18  C   UNL     1     -10.693  13.873  68.424  1.00  0.00    -0.267 C  
HETATM   19  N   UNL     1     -11.987  11.859  67.635  1.00  0.00    -0.583 NA 
HETATM   20  C   UNL     1     -10.087  12.821  66.263  1.00  0.00    -0.267 C  
BRANCH  19  21
HETATM   21  C   UNL     1     -11.299  10.762  68.333  1.00  0.00    -0.302 C  
BRANCH  21  22
HETATM   22  C   UNL     1     -11.755  10.582  69.794  1.00  0.00    -0.354 C  
BRANCH  22  23
HETATM   23  C   UNL     1     -10.751   9.751  70.551  1.00  0.00    -0.381 A  
HETATM   24  C   UNL     1     -11.111   9.133  71.751  1.00  0.00    -0.437 A  
HETATM   25  C   UNL     1     -10.152   8.480  72.523  1.00  0.00    -0.320 A  
HETATM   26  C   UNL     1      -8.806   8.429  72.114  1.00  0.00    -0.285 A  
HETATM   27  C   UNL     1      -9.433   9.662  70.107  1.00  0.00    -0.298 A  
HETATM   28  C   UNL     1      -8.475   9.003  70.875  1.00  0.00    -0.253 A  
BRANCH  26  29
HETATM   29  C   UNL     1      -7.742   7.839  73.058  1.00  0.00    -0.149 C  
HETATM   30  C   UNL     1      -7.437   6.361  72.756  1.00  0.00    -0.095 C  
HETATM   31  C   UNL     1      -6.431   8.645  72.910  1.00  0.00    -0.053 C  
HETATM   32  C   UNL     1      -8.153   7.880  74.544  1.00  0.00    -0.275 C  
HETATM   33  O   UNL     1      -8.492   5.635  72.309  1.00  0.00    -0.118 OA 
HETATM   34  O   UNL     1      -6.357   5.826  72.952  1.00  0.00    -0.057 OA 
ENDBRANCH  26  29
ENDBRANCH  22  23
ENDBRANCH  21  22
ENDBRANCH  19  21
ENDBRANCH   7  15
ENDBRANCH   5   6
ENDBRANCH   4   5
ENDBRANCH   3   4
ENDBRANCH   2   3
TORSDOF 9
ENDMDL
MODEL       39
REMARK 921   NORMALIZED FREE ENERGY PREDICTED BY IDOCK:   -6.84 KCAL/MOL
REMARK 922        TOTAL FREE ENERGY PREDICTED BY IDOCK:  -10.63 KCAL/MOL
REMARK 923 INTER-LIGAND FREE ENERGY PREDICTED BY IDOCK:   -9.28 KCAL/MOL
REMARK 924 INTRA-LIGAND FREE ENERGY PREDICTED BY IDOCK:   -1.35 KCAL/MOL
REMARK 927      BINDING AFFINITY PREDICTED BY RF-SCORE:    0.00 PKD
ROOT
HETATM    1  C   UNL     1     -11.169  11.796  63.704  1.00  0.00    -0.519 C  
HETATM    2  C   UNL     1     -12.135  12.934  63.438  1.00  0.00    -0.530 C  
ENDROOT
BRANCH   2   3
HETATM    3  O   UNL     1     -12.358  13.691  64.633  1.00  0.00    -0.466 OA 
BRANCH   3   4
HETATM    4  C   UNL     1     -11.907  15.042  64.459  1.00  0.00    -0.371 C  
BRANCH   4   5
HETATM    5  C   UNL     1     -10.467  15.200  64.946  1.00  0.00    -0.319 C  
BRANCH   5   6
HETATM    6  N   UNL     1     -10.380  15.674  66.319  1.00  0.00    -0.293 NA 
HETATM    7  C   UNL     1     -10.294  14.914  67.474  1.00  0.00    -0.239 A  
HETATM    8  N   UNL     1     -10.226  15.687  68.540  1.00  0.00    -0.208 NA 
HETATM    9  C   UNL     1     -10.482  18.203  65.973  1.00  0.00    -0.346 A  
HETATM   10  C   UNL     1     -10.282  16.975  68.078  1.00  0.00    -0.319 A  
HETATM   11  C   UNL     1     -10.393  17.003  66.692  1.00  0.00    -0.299 A  
HETATM   12  C   UNL     1     -10.436  19.396  66.705  1.00  0.00    -0.568 A  
HETATM   13  C   UNL     1     -10.250  18.179  68.796  1.00  0.00    -0.353 A  
HETATM   14  C   UNL     1     -10.323  19.387  68.094  1.00  0.00    -0.525 A  
BRANCH   7  15
HETATM   15  C   UNL     1     -10.303  13.419  67.505  1.00  0.00    -0.226 C  
HETATM   16  C   UNL     1      -9.317  11.299  68.342  1.00  0.00    -0.181 C  
HETATM   17  C   UNL     1     -11.656  11.348  67.646  1.00  0.00    -0.238 C  
HETATM   18  C   UNL     1     -11.694  12.867  67.817  1.00  0.00    -0.412 C  
HETATM   19  N   UNL     1     -10.647  10.671  68.478  1.00  0.00    -0.187 NA 
HETATM   20  C   UNL     1      -9.314  12.824  68.510  1.00  0.00    -0.078 C  
BRANCH  19  21
HETATM   21  C   UNL     1     -11.035  10.562  69.893  1.00  0.00    -0.298 C  
BRANCH  21  22
HETATM   22  C   UNL     1     -10.103   9.653  70.718  1.00  0.00    -0.293 C  
BRANCH  22  23
HETATM   23  C   UNL     1      -9.862   8.358  69.987  1.00  0.00    -0.182 A  
HETATM   24  C   UNL     1      -8.581   8.035  69.532  1.00  0.00    -0.136 A  
HETATM   25  C   UNL     1      -8.379   6.908  68.737  1.00  0.00    -0.121 A  
HETATM   26  C   UNL     1      -9.455   6.073  68.379  1.00  0.00    -0.124 A  
HETATM   27  C   UNL     1     -10.927   7.512  69.685  1.00  0.00    -0.164 A  
HETATM   28  C   UNL     1     -10.724   6.379  68.898  1.00  0.00    -0.339 A  
BRANCH  26  29
HETATM   29  C   UNL     1      -9.231   4.926  67.376  1.00  0.00    -0.136 C  
HETATM   30  C   UNL     1      -9.252   3.541  68.047  1.00  0.00    -0.178 C  
HETATM   31  C   UNL     1     -10.346   4.964  66.307  1.00  0.00    -0.336 C  
HETATM   32  C   UNL     1      -7.875   5.009  66.645  1.00  0.00    -0.100 C  
HETATM   33  O   UNL     1      -8.760   3.505  69.311  1.00  0.00    -0.072 OA 
HETATM   34  O   UNL     1      -9.615   2.513  67.496  1.00  0.00    -0.126 OA 
ENDBRANCH  26  29
ENDBRANCH  22  23
ENDBRANCH  21  22
ENDBRANCH  19  21
ENDBRANCH   7  15
ENDBRANCH   5   6
ENDBRANCH   4   5
ENDBRANCH   3   4
ENDBRANCH   2   3
TORSDOF 9
ENDMDL
MODEL       40
REMARK 921   NORMALIZED FREE ENERGY PREDICTED BY IDOCK:   -6.83 KCAL/MOL
REMARK 922        TOTAL FREE ENERGY PREDICTED BY IDOCK:  -10.61 KCAL/MOL
REMARK 923 INTER-LIGAND FREE ENERGY PREDICTED BY IDOCK:   -9.18 KCAL/MOL
REMARK 924 INTRA-LIGAND FREE ENERGY PREDICTED BY IDOCK:   -1.43 KCAL/MOL
REMARK 927      BINDING AFFINITY PREDICTED BY RF-SCORE:    0.00 PKD
ROOT
HETATM    1  C   UNL     1     -11.800  13.338  66.269  1.00  0.00    -0.444 C  
HETATM    2  C   UNL     1     -11.457  11.920  66.684  1.00  0.00    -0.314 C  
ENDROOT
BRANCH   2   3
HETATM    3  O   UNL     1     -12.261  11.517  67.799  1.00  0.00    -0.560 OA 
BRANCH   3   4
HETATM    4  C   UNL     1     -11.607  10.472  68.533  1.00  0.00    -0.148 C  
BRANCH   4   5
HETATM    5  C   UNL     1     -10.991  11.018  69.821  1.00  0.00    -0.193 C  
BRANCH   5   6
HETATM    6  N   UNL     1     -11.976  11.599  70.720  1.00  0.00    -0.278 NA 
HETATM    7  C   UNL     1     -12.704  10.959  71.710  1.00  0.00    -0.329 A  
HETATM    8  N   UNL     1     -13.501  11.807  72.329  1.00  0.00    -0.275 NA 
HETATM    9  C   UNL     1     -11.994  14.028  69.925  1.00  0.00    -0.399 A  
HETATM   10  C   UNL     1     -13.303  13.021  71.728  1.00  0.00    -0.378 A  
HETATM   11  C   UNL     1     -12.365  12.925  70.706  1.00  0.00    -0.299 A  
HETATM   12  C   UNL     1     -12.594  15.257  70.222  1.00  0.00    -0.388 A  
HETATM   13  C   UNL     1     -13.903  14.258  72.005  1.00  0.00    -0.564 A  
HETATM   14  C   UNL     1     -13.535  15.374  71.244  1.00  0.00    -0.598 A  
BRANCH   7  15
HETATM   15  C   UNL     1     -12.613   9.497  72.013  1.00  0.00    -0.456 C  
HETATM   16  C   UNL     1     -13.408   7.181  71.601  1.00  0.00    -0.331 C  
HETATM   17  C   UNL     1     -11.144   7.547  72.436  1.00  0.00    -0.301 C  
HETATM   18  C   UNL     1     -11.173   8.991  71.933  1.00  0.00    -0.438 C  
HETATM   19  N   UNL     1     -12.039   6.635  71.704  1.00  0.00    -0.346 NA 
HETATM   20  C   UNL     1     -13.478   8.629  71.097  1.00  0.00    -0.058 C  
BRANCH  19  21
HETATM   21  C   UNL     1     -11.526   6.248  70.381  1.00  0.00    -0.344 C  
BRANCH  21  22
HETATM   22  C   UNL     1     -10.069   5.748  70.409  1.00  0.00    -0.271 C  
BRANCH  22  23
HETATM   23  C   UNL     1      -9.275   6.402  69.308  1.00  0.00    -0.135 A  
HETATM   24  C   UNL     1      -8.822   7.716  69.452  1.00  0.00    -0.139 A  
HETATM   25  C   UNL     1      -8.210   8.371  68.385  1.00  0.00    -0.124 A  
HETATM   26  C   UNL     1      -8.032   7.727  67.146  1.00  0.00    -0.117 A  
HETATM   27  C   UNL     1      -9.058   5.734  68.105  1.00  0.00    -0.110 A  
HETATM   28  C   UNL     1      -8.437   6.386  67.040  1.00  0.00    -0.112 A  
BRANCH  26  29
HETATM   29  C   UNL     1      -7.495   8.522  65.941  1.00  0.00    -0.077 C  
HETATM   30  C   UNL     1      -8.530   9.512  65.378  1.00  0.00    -0.148 C  
HETATM   31  C   UNL     1      -6.246   9.320  66.378  1.00  0.00    -0.065 C  
HETATM   32  C   UNL     1      -7.090   7.628  64.751  1.00  0.00    -0.064 C  
HETATM   33  O   UNL     1      -9.822   9.106  65.461  1.00  0.00    -0.220 OA 
HETATM   34  O   UNL     1      -8.247  10.566  64.829  1.00  0.00    -0.162 OA 
ENDBRANCH  26  29
ENDBRANCH  22  23
ENDBRANCH  21  22
ENDBRANCH  19  21
ENDBRANCH   7  15
ENDBRANCH   5   6
ENDBRANCH   4   5
ENDBRANCH   3   4
ENDBRANCH   2   3
TORSDOF 9
ENDMDL
MODEL       41
REMARK 921   NORMALIZED FREE ENERGY PREDICTED BY IDOCK:   -6.80 KCAL/MOL
REMARK 922        TOTAL FREE ENERGY PREDICTED BY IDOCK:  -10.56 KCAL/MOL
REMARK 923 INTER-LIGAND FREE ENERGY PREDICTED BY IDOCK:   -9.53 KCAL/MOL
REMARK 924 INTRA-LIGAND FREE ENERGY PREDICTED BY IDOCK:   -1.03 KCAL/MOL
REMARK 927      BINDING AFFINITY PREDICTED BY RF-SCORE:    0.00 PKD
ROOT
HETATM    1  C   UNL     1     -11.406  11.734  63.542  1.00  0.00    -0.496 C  
HETATM    2  C   UNL     1     -12.381  12.587  64.330  1.00  0.00    -0.456 C  
ENDROOT
BRANCH   2   3
HETATM    3  O   UNL     1     -12.301  13.955  63.910  1.00  0.00    -0.662 OA 
BRANCH   3   4
HETATM    4  C   UNL     1     -12.173  14.818  65.049  1.00  0.00    -0.252 C  
BRANCH   4   5
HETATM    5  C   UNL     1     -10.715  14.918  65.494  1.00  0.00    -0.356 C  
BRANCH   5   6
HETATM    6  N   UNL     1     -10.538  15.743  66.679  1.00  0.00    -0.310 NA 
HETATM    7  C   UNL     1     -10.399  15.322  67.992  1.00  0.00    -0.244 A  
HETATM    8  N   UNL     1     -10.253  16.353  68.802  1.00  0.00    -0.242 NA 
HETATM    9  C   UNL     1     -10.609  18.086  65.663  1.00  0.00    -0.104 A  
HETATM   10  C   UNL     1     -10.310  17.468  68.009  1.00  0.00    -0.368 A  
HETATM   11  C   UNL     1     -10.502  17.123  66.676  1.00  0.00    -0.259 A  
HETATM   12  C   UNL     1     -10.496  19.430  66.038  1.00  0.00    -0.596 A  
HETATM   13  C   UNL     1     -10.211  18.820  68.370  1.00  0.00    -0.413 A  
HETATM   14  C   UNL     1     -10.301  19.794  67.369  1.00  0.00    -0.582 A  
BRANCH   7  15
HETATM   15  C   UNL     1     -10.436  13.893  68.430  1.00  0.00    -0.250 C  
HETATM   16  C   UNL     1     -11.753  11.839  68.895  1.00  0.00    -0.323 C  
HETATM   17  C   UNL     1      -9.394  11.648  68.299  1.00  0.00    -0.191 C  
HETATM   18  C   UNL     1      -9.423  13.040  67.666  1.00  0.00    -0.201 C  
HETATM   19  N   UNL     1     -10.701  10.971  68.328  1.00  0.00    -0.182 NA 
HETATM   20  C   UNL     1     -11.815  13.245  68.284  1.00  0.00    -0.389 C  
BRANCH  19  21
HETATM   21  C   UNL     1     -11.111  10.434  67.021  1.00  0.00    -0.067 C  
BRANCH  21  22
HETATM   22  C   UNL     1     -10.000   9.641  66.306  1.00  0.00    -0.335 C  
BRANCH  22  23
HETATM   23  C   UNL     1      -9.704   8.370  67.060  1.00  0.00    -0.268 A  
HETATM   24  C   UNL     1     -10.698   7.402  67.226  1.00  0.00    -0.379 A  
HETATM   25  C   UNL     1     -10.472   6.292  68.037  1.00  0.00    -0.278 A  
HETATM   26  C   UNL     1      -9.243   6.120  68.703  1.00  0.00    -0.123 A  
HETATM   27  C   UNL     1      -8.465   8.186  67.670  1.00  0.00    -0.131 A  
HETATM   28  C   UNL     1      -8.235   7.071  68.474  1.00  0.00    -0.124 A  
BRANCH  26  29
HETATM   29  C   UNL     1      -9.075   4.969  69.713  1.00  0.00    -0.155 C  
HETATM   30  C   UNL     1      -9.910   5.177  70.989  1.00  0.00    -0.196 C  
HETATM   31  C   UNL     1      -9.521   3.646  69.051  1.00  0.00    -0.226 C  
HETATM   32  C   UNL     1      -7.622   4.787  70.195  1.00  0.00    -0.055 C  
HETATM   33  O   UNL     1     -10.056   6.468  71.379  1.00  0.00    -0.190 OA 
HETATM   34  O   UNL     1     -10.368   4.270  71.668  1.00  0.00    -0.131 OA 
ENDBRANCH  26  29
ENDBRANCH  22  23
ENDBRANCH  21  22
ENDBRANCH  19  21
ENDBRANCH   7  15
ENDBRANCH   5   6
ENDBRANCH   4   5
ENDBRANCH   3   4
ENDBRANCH   2   3
TORSDOF 9
ENDMDL
MODEL       42
REMARK 921   NORMALIZED FREE ENERGY PREDICTED BY IDOCK:   -6.76 KCAL/MOL
REMARK 922        TOTAL FREE ENERGY PREDICTED BY IDOCK:  -10.50 KCAL/MOL
REMARK 923 INTER-LIGAND FREE ENERGY PREDICTED BY IDOCK:   -8.96 KCAL/MOL
REMARK 924 INTRA-LIGAND FREE ENERGY PREDICTED BY IDOCK:   -1.54 KCAL/MOL
REMARK 927      BINDING AFFINITY PREDICTED BY RF-SCORE:    0.00 PKD
ROOT
HETATM    1  C   UNL     1     -12.499  14.101  65.495  1.00  0.00    -0.495 C  
HETATM    2  C   UNL     1     -12.019  12.717  65.887  1.00  0.00    -0.449 C  
ENDROOT
BRANCH   2   3
HETATM    3  O   UNL     1     -11.972  12.590  67.313  1.00  0.00    -0.474 OA 
BRANCH   3   4
HETATM    4  C   UNL     1     -11.328  11.361  67.682  1.00  0.00    -0.290 C  
BRANCH   4   5
HETATM    5  C   UNL     1     -10.421  11.567  68.895  1.00  0.00    -0.187 C  
BRANCH   5   6
HETATM    6  N   UNL     1     -10.424  10.431  69.804  1.00  0.00    -0.254 NA 
HETATM    7  C   UNL     1      -9.409   9.514  70.019  1.00  0.00    -0.234 A  
HETATM    8  N   UNL     1      -9.766   8.622  70.922  1.00  0.00    -0.190 NA 
HETATM    9  C   UNL     1     -12.773  10.604  70.797  1.00  0.00    -0.468 A  
HETATM   10  C   UNL     1     -11.042   8.951  71.296  1.00  0.00    -0.297 A  
HETATM   11  C   UNL     1     -11.490  10.071  70.605  1.00  0.00    -0.345 A  
HETATM   12  C   UNL     1     -13.597   9.974  71.737  1.00  0.00    -0.330 A  
HETATM   13  C   UNL     1     -11.885   8.325  72.226  1.00  0.00    -0.451 A  
HETATM   14  C   UNL     1     -13.164   8.852  72.441  1.00  0.00    -0.482 A  
BRANCH   7  15
HETATM   15  C   UNL     1      -8.096   9.523  69.303  1.00  0.00    -0.103 C  
HETATM   16  C   UNL     1      -6.832   9.429  67.168  1.00  0.00    -0.084 C  
HETATM   17  C   UNL     1      -5.840  10.528  69.108  1.00  0.00    -0.040 C  
HETATM   18  C   UNL     1      -7.221  10.698  69.741  1.00  0.00    -0.135 C  
HETATM   19  N   UNL     1      -5.856  10.433  67.638  1.00  0.00    -0.045 NA 
HETATM   20  C   UNL     1      -8.233   9.568  67.780  1.00  0.00    -0.114 C  
BRANCH  19  21
HETATM   21  C   UNL     1      -6.069  11.727  66.971  1.00  0.00    -0.152 C  
BRANCH  21  22
HETATM   22  C   UNL     1      -5.557  12.930  67.785  1.00  0.00    -0.130 C  
BRANCH  22  23
HETATM   23  C   UNL     1      -6.641  13.969  67.911  1.00  0.00    -0.173 A  
HETATM   24  C   UNL     1      -7.896  13.751  67.336  1.00  0.00    -0.167 A  
HETATM   25  C   UNL     1      -8.854  14.763  67.330  1.00  0.00    -0.218 A  
HETATM   26  C   UNL     1      -8.582  16.021  67.900  1.00  0.00    -0.165 A  
HETATM   27  C   UNL     1      -6.377  15.191  68.526  1.00  0.00    -0.092 A  
HETATM   28  C   UNL     1      -7.338  16.201  68.528  1.00  0.00    -0.161 A  
BRANCH  26  29
HETATM   29  C   UNL     1      -9.597  17.167  67.742  1.00  0.00    -0.256 C  
HETATM   30  C   UNL     1      -9.581  17.782  66.331  1.00  0.00    -0.283 C  
HETATM   31  C   UNL     1     -11.018  16.627  68.020  1.00  0.00    -0.311 C  
HETATM   32  C   UNL     1      -9.345  18.344  68.706  1.00  0.00    -0.301 C  
HETATM   33  O   UNL     1      -8.368  17.799  65.723  1.00  0.00    -0.529 OA 
HETATM   34  O   UNL     1     -10.552  18.287  65.788  1.00  0.00    -0.554 OA 
ENDBRANCH  26  29
ENDBRANCH  22  23
ENDBRANCH  21  22
ENDBRANCH  19  21
ENDBRANCH   7  15
ENDBRANCH   5   6
ENDBRANCH   4   5
ENDBRANCH   3   4
ENDBRANCH   2   3
TORSDOF 9
ENDMDL
MODEL       43
REMARK 921   NORMALIZED FREE ENERGY PREDICTED BY IDOCK:   -6.75 KCAL/MOL
REMARK 922        TOTAL FREE ENERGY PREDICTED BY IDOCK:  -10.49 KCAL/MOL
REMARK 923 INTER-LIGAND FREE ENERGY PREDICTED BY IDOCK:   -9.09 KCAL/MOL
REMARK 924 INTRA-LIGAND FREE ENERGY PREDICTED BY IDOCK:   -1.40 KCAL/MOL
REMARK 927      BINDING AFFINITY PREDICTED BY RF-SCORE:    0.00 PKD
ROOT
HETATM    1  C   UNL     1     -10.399  11.164  64.727  1.00  0.00    -0.387 C  
HETATM    2  C   UNL     1      -9.958   9.873  65.389  1.00  0.00    -0.279 C  
ENDROOT
BRANCH   2   3
HETATM    3  O   UNL     1     -10.528   9.762  66.698  1.00  0.00    -0.218 OA 
BRANCH   3   4
HETATM    4  C   UNL     1     -10.344   8.434  67.210  1.00  0.00    -0.299 C  
BRANCH   4   5
HETATM    5  C   UNL     1      -9.523   8.457  68.499  1.00  0.00    -0.146 C  
BRANCH   5   6
HETATM    6  N   UNL     1      -9.048   7.140  68.893  1.00  0.00    -0.132 NA 
HETATM    7  C   UNL     1      -9.457   6.381  69.977  1.00  0.00    -0.156 A  
HETATM    8  N   UNL     1      -8.808   5.233  70.017  1.00  0.00    -0.118 NA 
HETATM    9  C   UNL     1      -7.282   6.697  67.100  1.00  0.00    -0.081 A  
HETATM   10  C   UNL     1      -7.950   5.246  68.950  1.00  0.00    -0.086 A  
HETATM   11  C   UNL     1      -8.064   6.431  68.233  1.00  0.00    -0.113 A  
HETATM   12  C   UNL     1      -6.380   5.707  66.694  1.00  0.00    -0.039 A  
HETATM   13  C   UNL     1      -7.033   4.269  68.536  1.00  0.00    -0.051 A  
HETATM   14  C   UNL     1      -6.254   4.511  67.399  1.00  0.00    -0.039 A  
BRANCH   7  15
HETATM   15  C   UNL     1     -10.478   6.818  70.979  1.00  0.00    -0.237 C  
HETATM   16  C   UNL     1     -11.329   8.555  72.536  1.00  0.00    -0.286 C  
HETATM   17  C   UNL     1     -12.875   6.915  71.600  1.00  0.00    -0.335 C  
HETATM   18  C   UNL     1     -11.902   6.623  70.457  1.00  0.00    -0.430 C  
HETATM   19  N   UNL     1     -12.733   8.258  72.186  1.00  0.00    -0.337 NA 
HETATM   20  C   UNL     1     -10.321   8.277  71.412  1.00  0.00    -0.270 C  
BRANCH  19  21
HETATM   21  C   UNL     1     -13.303   9.325  71.349  1.00  0.00    -0.325 C  
BRANCH  21  22
HETATM   22  C   UNL     1     -13.137  10.734  71.949  1.00  0.00    -0.557 C  
BRANCH  22  23
HETATM   23  C   UNL     1     -12.517  11.659  70.934  1.00  0.00    -0.440 A  
HETATM   24  C   UNL     1     -12.581  13.044  71.113  1.00  0.00    -0.388 A  
HETATM   25  C   UNL     1     -12.133  13.905  70.114  1.00  0.00    -0.418 A  
HETATM   26  C   UNL     1     -11.608  13.403  68.907  1.00  0.00    -0.356 A  
HETATM   27  C   UNL     1     -11.951  11.148  69.768  1.00  0.00    -0.428 A  
HETATM   28  C   UNL     1     -11.495  12.009  68.771  1.00  0.00    -0.355 A  
BRANCH  26  29
HETATM   29  C   UNL     1     -11.266  14.372  67.760  1.00  0.00    -0.316 C  
HETATM   30  C   UNL     1      -9.797  14.264  67.314  1.00  0.00    -0.244 C  
HETATM   31  C   UNL     1     -12.168  14.056  66.546  1.00  0.00    -0.485 C  
HETATM   32  C   UNL     1     -11.477  15.855  68.130  1.00  0.00    -0.281 C  
HETATM   33  O   UNL     1      -8.915  13.968  68.300  1.00  0.00    -0.180 OA 
HETATM   34  O   UNL     1      -9.405  14.485  66.178  1.00  0.00    -0.277 OA 
ENDBRANCH  26  29
ENDBRANCH  22  23
ENDBRANCH  21  22
ENDBRANCH  19  21
ENDBRANCH   7  15
ENDBRANCH   5   6
ENDBRANCH   4   5
ENDBRANCH   3   4
ENDBRANCH   2   3
TORSDOF 9
ENDMDL
MODEL       44
REMARK 921   NORMALIZED FREE ENERGY PREDICTED BY IDOCK:   -6.75 KCAL/MOL
REMARK 922        TOTAL FREE ENERGY PREDICTED BY IDOCK:  -10.49 KCAL/MOL
REMARK 923 INTER-LIGAND FREE ENERGY PREDICTED BY IDOCK:   -9.36 KCAL/MOL
REMARK 924 INTRA-LIGAND FREE ENERGY PREDICTED BY IDOCK:   -1.13 KCAL/MOL
REMARK 927      BINDING AFFINITY PREDICTED BY RF-SCORE:    0.00 PKD
ROOT
HETATM    1  C   UNL     1      -9.477   3.616  65.952  1.00  0.00    -0.163 C  
HETATM    2  C   UNL     1     -10.347   4.833  66.197  1.00  0.00    -0.300 C  
ENDROOT
BRANCH   2   3
HETATM    3  O   UNL     1      -9.682   5.756  67.068  1.00  0.00    -0.127 OA 
BRANCH   3   4
HETATM    4  C   UNL     1      -9.885   5.382  68.438  1.00  0.00    -0.147 C  
BRANCH   4   5
HETATM    5  C   UNL     1     -11.000   6.215  69.070  1.00  0.00    -0.367 C  
BRANCH   5   6
HETATM    6  N   UNL     1     -10.543   7.015  70.196  1.00  0.00    -0.221 NA 
HETATM    7  C   UNL     1     -10.017   8.296  70.168  1.00  0.00    -0.187 A  
HETATM    8  N   UNL     1      -9.716   8.705  71.385  1.00  0.00    -0.219 NA 
HETATM    9  C   UNL     1     -10.936   5.399  72.137  1.00  0.00    -0.265 A  
HETATM   10  C   UNL     1     -10.037   7.671  72.223  1.00  0.00    -0.208 A  
HETATM   11  C   UNL     1     -10.544   6.591  71.510  1.00  0.00    -0.229 A  
HETATM   12  C   UNL     1     -10.816   5.336  73.530  1.00  0.00    -0.358 A  
HETATM   13  C   UNL     1      -9.912   7.586  73.618  1.00  0.00    -0.347 A  
HETATM   14  C   UNL     1     -10.312   6.410  74.262  1.00  0.00    -0.311 A  
BRANCH   7  15
HETATM   15  C   UNL     1      -9.798   9.093  68.922  1.00  0.00    -0.179 C  
HETATM   16  C   UNL     1     -10.743  10.427  67.053  1.00  0.00    -0.235 C  
HETATM   17  C   UNL     1      -8.439  10.809  67.761  1.00  0.00    -0.120 C  
HETATM   18  C   UNL     1      -8.732  10.171  69.119  1.00  0.00    -0.173 C  
HETATM   19  N   UNL     1      -9.620  11.386  67.097  1.00  0.00    -0.178 NA 
HETATM   20  C   UNL     1     -11.069   9.767  68.399  1.00  0.00    -0.142 C  
BRANCH  19  21
HETATM   21  C   UNL     1     -10.046  12.669  67.675  1.00  0.00    -0.218 C  
BRANCH  21  22
HETATM   22  C   UNL     1     -11.154  13.371  66.866  1.00  0.00    -0.309 C  
BRANCH  22  23
HETATM   23  C   UNL     1     -10.969  14.865  66.923  1.00  0.00    -0.327 A  
HETATM   24  C   UNL     1     -10.643  15.578  65.765  1.00  0.00    -0.370 A  
HETATM   25  C   UNL     1     -10.337  16.936  65.837  1.00  0.00    -0.327 A  
HETATM   26  C   UNL     1     -10.349  17.616  67.070  1.00  0.00    -0.330 A  
HETATM   27  C   UNL     1     -11.038  15.537  68.141  1.00  0.00    -0.325 A  
HETATM   28  C   UNL     1     -10.740  16.898  68.212  1.00  0.00    -0.377 A  
BRANCH  26  29
HETATM   29  C   UNL     1      -9.857  19.074  67.143  1.00  0.00    -0.383 C  
HETATM   30  C   UNL     1      -8.322  19.182  67.097  1.00  0.00    -0.279 C  
HETATM   31  C   UNL     1     -10.436  19.864  65.948  1.00  0.00    -0.567 C  
HETATM   32  C   UNL     1     -10.283  19.798  68.437  1.00  0.00    -0.568 C  
HETATM   33  O   UNL     1      -7.654  18.161  67.688  1.00  0.00    -0.215 OA 
HETATM   34  O   UNL     1      -7.713  20.133  66.630  1.00  0.00    -0.286 OA 
ENDBRANCH  26  29
ENDBRANCH  22  23
ENDBRANCH  21  22
ENDBRANCH  19  21
ENDBRANCH   7  15
ENDBRANCH   5   6
ENDBRANCH   4   5
ENDBRANCH   3   4
ENDBRANCH   2   3
TORSDOF 9
ENDMDL
MODEL       45
REMARK 921   NORMALIZED FREE ENERGY PREDICTED BY IDOCK:   -6.75 KCAL/MOL
REMARK 922        TOTAL FREE ENERGY PREDICTED BY IDOCK:  -10.48 KCAL/MOL
REMARK 923 INTER-LIGAND FREE ENERGY PREDICTED BY IDOCK:   -8.97 KCAL/MOL
REMARK 924 INTRA-LIGAND FREE ENERGY PREDICTED BY IDOCK:   -1.51 KCAL/MOL
REMARK 927      BINDING AFFINITY PREDICTED BY RF-SCORE:    0.00 PKD
ROOT
HETATM    1  C   UNL     1      -6.051  11.755  70.136  1.00  0.00    -0.147 C  
HETATM    2  C   UNL     1      -6.496  10.338  69.833  1.00  0.00    -0.096 C  
ENDROOT
BRANCH   2   3
HETATM    3  O   UNL     1      -7.109   9.748  70.986  1.00  0.00    -0.325 OA 
BRANCH   3   4
HETATM    4  C   UNL     1      -6.808   8.347  71.048  1.00  0.00    -0.050 C  
BRANCH   4   5
HETATM    5  C   UNL     1      -7.620   7.571  70.012  1.00  0.00    -0.088 C  
BRANCH   5   6
HETATM    6  N   UNL     1      -9.040   7.521  70.324  1.00  0.00    -0.153 NA 
HETATM    7  C   UNL     1     -10.059   8.274  69.763  1.00  0.00    -0.197 A  
HETATM    8  N   UNL     1     -11.224   7.953  70.291  1.00  0.00    -0.241 NA 
HETATM    9  C   UNL     1      -9.076   5.750  72.166  1.00  0.00    -0.147 A  
HETATM   10  C   UNL     1     -10.964   6.984  71.223  1.00  0.00    -0.243 A  
HETATM   11  C   UNL     1      -9.604   6.699  71.280  1.00  0.00    -0.169 A  
HETATM   12  C   UNL     1      -9.978   5.072  72.994  1.00  0.00    -0.189 A  
HETATM   13  C   UNL     1     -11.852   6.304  72.068  1.00  0.00    -0.370 A  
HETATM   14  C   UNL     1     -11.344   5.342  72.949  1.00  0.00    -0.365 A  
BRANCH   7  15
HETATM   15  C   UNL     1      -9.856   9.324  68.718  1.00  0.00    -0.174 C  
HETATM   16  C   UNL     1     -10.357  10.196  66.447  1.00  0.00    -0.188 C  
HETATM   17  C   UNL     1      -9.668  11.741  68.206  1.00  0.00    -0.199 C  
HETATM   18  C   UNL     1     -10.074  10.730  69.279  1.00  0.00    -0.200 C  
HETATM   19  N   UNL     1     -10.389  11.591  66.931  1.00  0.00    -0.216 NA 
HETATM   20  C   UNL     1     -10.760   9.150  67.496  1.00  0.00    -0.255 C  
BRANCH  19  21
HETATM   21  C   UNL     1     -11.768  12.101  66.975  1.00  0.00    -0.303 C  
BRANCH  21  22
HETATM   22  C   UNL     1     -12.086  13.113  65.858  1.00  0.00    -0.501 C  
BRANCH  22  23
HETATM   23  C   UNL     1     -11.395  14.423  66.133  1.00  0.00    -0.350 A  
HETATM   24  C   UNL     1     -11.242  14.876  67.447  1.00  0.00    -0.343 A  
HETATM   25  C   UNL     1     -10.729  16.147  67.699  1.00  0.00    -0.318 A  
HETATM   26  C   UNL     1     -10.355  16.999  66.642  1.00  0.00    -0.299 A  
HETATM   27  C   UNL     1     -10.979  15.235  65.080  1.00  0.00    -0.450 A  
HETATM   28  C   UNL     1     -10.458  16.503  65.332  1.00  0.00    -0.291 A  
BRANCH  26  29
HETATM   29  C   UNL     1      -9.939  18.451  66.942  1.00  0.00    -0.367 C  
HETATM   30  C   UNL     1      -8.447  18.707  66.668  1.00  0.00    -0.292 C  
HETATM   31  C   UNL     1     -10.767  19.408  66.054  1.00  0.00    -0.512 C  
HETATM   32  C   UNL     1     -10.164  18.860  68.412  1.00  0.00    -0.433 C  
HETATM   33  O   UNL     1      -7.627  17.654  66.910  1.00  0.00    -0.193 OA 
HETATM   34  O   UNL     1      -7.984  19.783  66.320  1.00  0.00    -0.305 OA 
ENDBRANCH  26  29
ENDBRANCH  22  23
ENDBRANCH  21  22
ENDBRANCH  19  21
ENDBRANCH   7  15
ENDBRANCH   5   6
ENDBRANCH   4   5
ENDBRANCH   3   4
ENDBRANCH   2   3
TORSDOF 9
ENDMDL
MODEL       46
REMARK 921   NORMALIZED FREE ENERGY PREDICTED BY IDOCK:   -6.74 KCAL/MOL
REMARK 922        TOTAL FREE ENERGY PREDICTED BY IDOCK:  -10.48 KCAL/MOL
REMARK 923 INTER-LIGAND FREE ENERGY PREDICTED BY IDOCK:   -9.00 KCAL/MOL
REMARK 924 INTRA-LIGAND FREE ENERGY PREDICTED BY IDOCK:   -1.48 KCAL/MOL
REMARK 927      BINDING AFFINITY PREDICTED BY RF-SCORE:    0.00 PKD
ROOT
HETATM    1  C   UNL     1      -9.388   2.229  68.332  1.00  0.00    -0.260 C  
HETATM    2  C   UNL     1      -9.212   3.373  67.352  1.00  0.00    -0.195 C  
ENDROOT
BRANCH   2   3
HETATM    3  O   UNL     1      -8.140   4.227  67.767  1.00  0.00    -0.093 OA 
BRANCH   3   4
HETATM    4  C   UNL     1      -8.495   5.604  67.572  1.00  0.00    -0.102 C  
BRANCH   4   5
HETATM    5  C   UNL     1      -8.086   6.447  68.779  1.00  0.00    -0.114 C  
BRANCH   5   6
HETATM    6  N   UNL     1      -9.211   6.798  69.633  1.00  0.00    -0.146 NA 
HETATM    7  C   UNL     1      -9.972   7.955  69.599  1.00  0.00    -0.191 A  
HETATM    8  N   UNL     1     -10.913   7.924  70.522  1.00  0.00    -0.246 NA 
HETATM    9  C   UNL     1      -9.315   4.760  71.171  1.00  0.00    -0.206 A  
HETATM   10  C   UNL     1     -10.758   6.734  71.182  1.00  0.00    -0.229 A  
HETATM   11  C   UNL     1      -9.692   6.010  70.660  1.00  0.00    -0.174 A  
HETATM   12  C   UNL     1     -10.071   4.244  72.230  1.00  0.00    -0.249 A  
HETATM   13  C   UNL     1     -11.497   6.208  72.251  1.00  0.00    -0.360 A  
HETATM   14  C   UNL     1     -11.145   4.955  72.765  1.00  0.00    -0.283 A  
BRANCH   7  15
HETATM   15  C   UNL     1      -9.740   9.093  68.657  1.00  0.00    -0.164 C  
HETATM   16  C   UNL     1     -10.062  10.100  66.410  1.00  0.00    -0.236 C  
HETATM   17  C   UNL     1      -9.677  11.549  68.336  1.00  0.00    -0.202 C  
HETATM   18  C   UNL     1     -10.117  10.434  69.285  1.00  0.00    -0.248 C  
HETATM   19  N   UNL     1     -10.247  11.449  66.982  1.00  0.00    -0.207 NA 
HETATM   20  C   UNL     1     -10.495   8.953  67.334  1.00  0.00    -0.347 C  
BRANCH  19  21
HETATM   21  C   UNL     1     -11.657  11.862  66.909  1.00  0.00    -0.285 C  
BRANCH  21  22
HETATM   22  C   UNL     1     -11.935  12.913  65.817  1.00  0.00    -0.496 C  
BRANCH  22  23
HETATM   23  C   UNL     1     -11.329  14.236  66.205  1.00  0.00    -0.342 A  
HETATM   24  C   UNL     1     -10.515  14.929  65.304  1.00  0.00    -0.427 A  
HETATM   25  C   UNL     1      -9.842  16.081  65.705  1.00  0.00    -0.357 A  
HETATM   26  C   UNL     1      -9.968  16.573  67.018  1.00  0.00    -0.268 A  
HETATM   27  C   UNL     1     -11.506  14.741  67.491  1.00  0.00    -0.369 A  
HETATM   28  C   UNL     1     -10.840  15.899  67.890  1.00  0.00    -0.327 A  
BRANCH  26  29
HETATM   29  C   UNL     1      -9.095  17.755  67.479  1.00  0.00    -0.244 C  
HETATM   30  C   UNL     1      -9.930  18.988  67.872  1.00  0.00    -0.358 C  
HETATM   31  C   UNL     1      -8.262  17.321  68.706  1.00  0.00    -0.231 C  
HETATM   32  C   UNL     1      -8.115  18.250  66.395  1.00  0.00    -0.285 C  
HETATM   33  O   UNL     1     -11.070  19.163  67.159  1.00  0.00    -0.396 OA 
HETATM   34  O   UNL     1      -9.593  19.809  68.712  1.00  0.00    -0.361 OA 
ENDBRANCH  26  29
ENDBRANCH  22  23
ENDBRANCH  21  22
ENDBRANCH  19  21
ENDBRANCH   7  15
ENDBRANCH   5   6
ENDBRANCH   4   5
ENDBRANCH   3   4
ENDBRANCH   2   3
TORSDOF 9
ENDMDL
MODEL       47
REMARK 921   NORMALIZED FREE ENERGY PREDICTED BY IDOCK:   -6.74 KCAL/MOL
REMARK 922        TOTAL FREE ENERGY PREDICTED BY IDOCK:  -10.47 KCAL/MOL
REMARK 923 INTER-LIGAND FREE ENERGY PREDICTED BY IDOCK:   -9.52 KCAL/MOL
REMARK 924 INTRA-LIGAND FREE ENERGY PREDICTED BY IDOCK:   -0.95 KCAL/MOL
REMARK 927      BINDING AFFINITY PREDICTED BY RF-SCORE:    0.00 PKD
ROOT
HETATM    1  C   UNL     1      -6.976  16.199  69.435  1.00  0.00    -0.220 C  
HETATM    2  C   UNL     1      -5.838  15.953  68.463  1.00  0.00    -0.103 C  
ENDROOT
BRANCH   2   3
HETATM    3  O   UNL     1      -6.349  15.711  67.147  1.00  0.00    -0.308 OA 
BRANCH   3   4
HETATM    4  C   UNL     1      -7.561  14.947  67.216  1.00  0.00    -0.181 C  
BRANCH   4   5
HETATM    5  C   UNL     1      -8.588  15.467  66.210  1.00  0.00    -0.173 C  
BRANCH   5   6
HETATM    6  N   UNL     1      -9.497  16.449  66.783  1.00  0.00    -0.236 NA 
HETATM    7  C   UNL     1     -10.744  16.224  67.343  1.00  0.00    -0.287 A  
HETATM    8  N   UNL     1     -11.278  17.353  67.765  1.00  0.00     0.001 NA 
HETATM    9  C   UNL     1      -8.183  18.609  66.414  1.00  0.00    -0.295 A  
HETATM   10  C   UNL     1     -10.373  18.336  67.465  1.00  0.00    -0.398 A  
HETATM   11  C   UNL     1      -9.252  17.807  66.836  1.00  0.00    -0.258 A  
HETATM   12  C   UNL     1      -8.272  19.983  66.665  1.00  0.00    -0.355 A  
HETATM   13  C   UNL     1     -10.451  19.717  67.699  1.00  0.00    -0.564 A  
HETATM   14  C   UNL     1      -9.387  20.532  67.297  1.00  0.00    -0.526 A  
BRANCH   7  15
HETATM   15  C   UNL     1     -11.401  14.884  67.433  1.00  0.00    -0.354 C  
HETATM   16  C   UNL     1     -11.982  12.719  66.363  1.00  0.00    -0.375 C  
HETATM   17  C   UNL     1     -11.816  12.856  68.794  1.00  0.00    -0.315 C  
HETATM   18  C   UNL     1     -10.964  14.121  68.683  1.00  0.00    -0.275 C  
HETATM   19  N   UNL     1     -11.745  11.975  67.617  1.00  0.00    -0.503 NA 
HETATM   20  C   UNL     1     -11.143  13.996  66.214  1.00  0.00    -0.307 C  
BRANCH  19  21
HETATM   21  C   UNL     1     -10.496  11.200  67.540  1.00  0.00    -0.204 C  
BRANCH  21  22
HETATM   22  C   UNL     1     -10.719   9.697  67.287  1.00  0.00    -0.284 C  
BRANCH  22  23
HETATM   23  C   UNL     1     -10.433   8.912  68.540  1.00  0.00    -0.218 A  
HETATM   24  C   UNL     1     -10.425   7.514  68.509  1.00  0.00    -0.211 A  
HETATM   25  C   UNL     1     -10.298   6.784  69.688  1.00  0.00    -0.223 A  
HETATM   26  C   UNL     1     -10.173   7.432  70.932  1.00  0.00    -0.195 A  
HETATM   27  C   UNL     1     -10.257   9.567  69.756  1.00  0.00    -0.249 A  
HETATM   28  C   UNL     1     -10.121   8.836  70.936  1.00  0.00    -0.276 A  
BRANCH  26  29
HETATM   29  C   UNL     1     -10.191   6.606  72.231  1.00  0.00    -0.206 C  
HETATM   30  C   UNL     1     -11.557   5.946  72.493  1.00  0.00    -0.277 C  
HETATM   31  C   UNL     1      -9.124   5.492  72.136  1.00  0.00    -0.152 C  
HETATM   32  C   UNL     1      -9.888   7.441  73.491  1.00  0.00    -0.363 C  
HETATM   33  O   UNL     1     -12.632   6.659  72.073  1.00  0.00    -0.317 OA 
HETATM   34  O   UNL     1     -11.709   4.892  73.091  1.00  0.00    -0.315 OA 
ENDBRANCH  26  29
ENDBRANCH  22  23
ENDBRANCH  21  22
ENDBRANCH  19  21
ENDBRANCH   7  15
ENDBRANCH   5   6
ENDBRANCH   4   5
ENDBRANCH   3   4
ENDBRANCH   2   3
TORSDOF 9
ENDMDL
MODEL       48
REMARK 921   NORMALIZED FREE ENERGY PREDICTED BY IDOCK:   -6.71 KCAL/MOL
REMARK 922        TOTAL FREE ENERGY PREDICTED BY IDOCK:  -10.43 KCAL/MOL
REMARK 923 INTER-LIGAND FREE ENERGY PREDICTED BY IDOCK:   -8.94 KCAL/MOL
REMARK 924 INTRA-LIGAND FREE ENERGY PREDICTED BY IDOCK:   -1.49 KCAL/MOL
REMARK 927      BINDING AFFINITY PREDICTED BY RF-SCORE:    0.00 PKD
ROOT
HETATM    1  C   UNL     1      -9.095   2.486  68.482  1.00  0.00    -0.211 C  
HETATM    2  C   UNL     1      -9.221   3.770  67.685  1.00  0.00    -0.174 C  
ENDROOT
BRANCH   2   3
HETATM    3  O   UNL     1      -8.078   4.607  67.899  1.00  0.00    -0.092 OA 
BRANCH   3   4
HETATM    4  C   UNL     1      -8.411   5.979  67.647  1.00  0.00    -0.108 C  
BRANCH   4   5
HETATM    5  C   UNL     1      -8.112   6.844  68.871  1.00  0.00    -0.120 C  
BRANCH   5   6
HETATM    6  N   UNL     1      -9.304   7.173  69.638  1.00  0.00    -0.150 NA 
HETATM    7  C   UNL     1     -10.094   8.307  69.533  1.00  0.00    -0.197 A  
HETATM    8  N   UNL     1     -11.097   8.259  70.388  1.00  0.00    -0.249 NA 
HETATM    9  C   UNL     1      -9.460   5.152  71.194  1.00  0.00    -0.205 A  
HETATM   10  C   UNL     1     -10.955   7.083  71.073  1.00  0.00    -0.251 A  
HETATM   11  C   UNL     1      -9.835   6.384  70.639  1.00  0.00    -0.184 A  
HETATM   12  C   UNL     1     -10.275   4.627  72.204  1.00  0.00    -0.259 A  
HETATM   13  C   UNL     1     -11.754   6.549  72.095  1.00  0.00    -0.353 A  
HETATM   14  C   UNL     1     -11.404   5.313  72.651  1.00  0.00    -0.296 A  
BRANCH   7  15
HETATM   15  C   UNL     1      -9.827   9.439  68.594  1.00  0.00    -0.174 C  
HETATM   16  C   UNL     1     -10.298  10.575  66.436  1.00  0.00    -0.221 C  
HETATM   17  C   UNL     1      -9.452  11.873  68.322  1.00  0.00    -0.197 C  
HETATM   18  C   UNL     1      -9.918  10.792  69.298  1.00  0.00    -0.182 C  
HETATM   19  N   UNL     1     -10.207  11.912  67.058  1.00  0.00    -0.208 NA 
HETATM   20  C   UNL     1     -10.765   9.463  67.385  1.00  0.00    -0.280 C  
BRANCH  19  21
HETATM   21  C   UNL     1     -11.539  12.522  67.191  1.00  0.00    -0.368 C  
BRANCH  21  22
HETATM   22  C   UNL     1     -11.789  13.676  66.202  1.00  0.00    -0.424 C  
BRANCH  22  23
HETATM   23  C   UNL     1     -11.036  14.906  66.639  1.00  0.00    -0.325 A  
HETATM   24  C   UNL     1     -11.314  15.499  67.874  1.00  0.00    -0.309 A  
HETATM   25  C   UNL     1     -10.721  16.711  68.223  1.00  0.00    -0.351 A  
HETATM   26  C   UNL     1      -9.833  17.361  67.345  1.00  0.00    -0.281 A  
HETATM   27  C   UNL     1     -10.118  15.511  65.784  1.00  0.00    -0.388 A  
HETATM   28  C   UNL     1      -9.518  16.719  66.136  1.00  0.00    -0.295 A  
BRANCH  26  29
HETATM   29  C   UNL     1      -9.315  18.771  67.688  1.00  0.00    -0.320 C  
HETATM   30  C   UNL     1      -7.805  18.789  67.984  1.00  0.00    -0.272 C  
HETATM   31  C   UNL     1      -9.587  19.714  66.494  1.00  0.00    -0.483 C  
HETATM   32  C   UNL     1      -9.987  19.383  68.934  1.00  0.00    -0.519 C  
HETATM   33  O   UNL     1      -7.321  17.673  68.585  1.00  0.00    -0.239 OA 
HETATM   34  O   UNL     1      -7.072  19.743  67.771  1.00  0.00    -0.253 OA 
ENDBRANCH  26  29
ENDBRANCH  22  23
ENDBRANCH  21  22
ENDBRANCH  19  21
ENDBRANCH   7  15
ENDBRANCH   5   6
ENDBRANCH   4   5
ENDBRANCH   3   4
ENDBRANCH   2   3
TORSDOF 9
ENDMDL
MODEL       49
REMARK 921   NORMALIZED FREE ENERGY PREDICTED BY IDOCK:   -6.70 KCAL/MOL
REMARK 922        TOTAL FREE ENERGY PREDICTED BY IDOCK:  -10.42 KCAL/MOL
REMARK 923 INTER-LIGAND FREE ENERGY PREDICTED BY IDOCK:   -9.13 KCAL/MOL
REMARK 924 INTRA-LIGAND FREE ENERGY PREDICTED BY IDOCK:   -1.28 KCAL/MOL
REMARK 927      BINDING AFFINITY PREDICTED BY RF-SCORE:    0.00 PKD
ROOT
HETATM    1  C   UNL     1      -9.695   4.242  67.385  1.00  0.00    -0.210 C  
HETATM    2  C   UNL     1     -10.188   5.663  67.195  1.00  0.00    -0.212 C  
ENDROOT
BRANCH   2   3
HETATM    3  O   UNL     1     -10.861   6.122  68.375  1.00  0.00    -0.262 OA 
BRANCH   3   4
HETATM    4  C   UNL     1     -10.400   5.396  69.524  1.00  0.00    -0.280 C  
BRANCH   4   5
HETATM    5  C   UNL     1     -11.056   5.926  70.799  1.00  0.00    -0.254 C  
BRANCH   5   6
HETATM    6  N   UNL     1     -10.223   6.884  71.509  1.00  0.00    -0.196 NA 
HETATM    7  C   UNL     1     -10.164   8.256  71.325  1.00  0.00    -0.202 A  
HETATM    8  N   UNL     1      -9.296   8.803  72.154  1.00  0.00    -0.351 NA 
HETATM    9  C   UNL     1      -8.932   5.341  73.084  1.00  0.00    -0.118 A  
HETATM   10  C   UNL     1      -8.768   7.773  72.884  1.00  0.00    -0.166 A  
HETATM   11  C   UNL     1      -9.316   6.555  72.497  1.00  0.00    -0.141 A  
HETATM   12  C   UNL     1      -7.976   5.395  74.105  1.00  0.00    -0.103 A  
HETATM   13  C   UNL     1      -7.802   7.807  73.901  1.00  0.00    -0.213 A  
HETATM   14  C   UNL     1      -7.417   6.607  74.508  1.00  0.00    -0.104 A  
BRANCH   7  15
HETATM   15  C   UNL     1     -10.959   9.007  70.305  1.00  0.00    -0.274 C  
HETATM   16  C   UNL     1     -12.500  10.876  69.758  1.00  0.00    -0.182 C  
HETATM   17  C   UNL     1     -11.033   9.978  68.027  1.00  0.00    -0.240 C  
HETATM   18  C   UNL     1     -10.110   9.385  69.091  1.00  0.00    -0.200 C  
HETATM   19  N   UNL     1     -11.809  11.145  68.481  1.00  0.00    -0.525 NA 
HETATM   20  C   UNL     1     -11.605  10.281  70.853  1.00  0.00    -0.454 C  
BRANCH  19  21
HETATM   21  C   UNL     1     -11.013  12.379  68.564  1.00  0.00    -0.245 C  
BRANCH  21  22
HETATM   22  C   UNL     1     -11.835  13.615  68.975  1.00  0.00    -0.393 C  
BRANCH  22  23
HETATM   23  C   UNL     1     -11.208  14.865  68.414  1.00  0.00    -0.304 A  
HETATM   24  C   UNL     1     -10.441  14.805  67.247  1.00  0.00    -0.264 A  
HETATM   25  C   UNL     1      -9.746  15.928  66.802  1.00  0.00    -0.252 A  
HETATM   26  C   UNL     1      -9.803  17.142  67.512  1.00  0.00    -0.266 A  
HETATM   27  C   UNL     1     -11.316  16.074  69.097  1.00  0.00    -0.352 A  
HETATM   28  C   UNL     1     -10.629  17.201  68.648  1.00  0.00    -0.352 A  
BRANCH  26  29
HETATM   29  C   UNL     1      -8.905  18.319  67.087  1.00  0.00    -0.260 C  
HETATM   30  C   UNL     1      -9.655  19.353  66.226  1.00  0.00    -0.375 C  
HETATM   31  C   UNL     1      -8.374  19.033  68.350  1.00  0.00    -0.383 C  
HETATM   32  C   UNL     1      -7.688  17.886  66.244  1.00  0.00    -0.302 C  
HETATM   33  O   UNL     1     -10.613  18.841  65.414  1.00  0.00    -0.552 OA 
HETATM   34  O   UNL     1      -9.393  20.546  66.199  1.00  0.00    -0.146 OA 
ENDBRANCH  26  29
ENDBRANCH  22  23
ENDBRANCH  21  22
ENDBRANCH  19  21
ENDBRANCH   7  15
ENDBRANCH   5   6
ENDBRANCH   4   5
ENDBRANCH   3   4
ENDBRANCH   2   3
TORSDOF 9
ENDMDL
MODEL       50
REMARK 921   NORMALIZED FREE ENERGY PREDICTED BY IDOCK:   -6.70 KCAL/MOL
REMARK 922        TOTAL FREE ENERGY PREDICTED BY IDOCK:  -10.42 KCAL/MOL
REMARK 923 INTER-LIGAND FREE ENERGY PREDICTED BY IDOCK:   -9.07 KCAL/MOL
REMARK 924 INTRA-LIGAND FREE ENERGY PREDICTED BY IDOCK:   -1.34 KCAL/MOL
REMARK 927      BINDING AFFINITY PREDICTED BY RF-SCORE:    0.00 PKD
ROOT
HETATM    1  C   UNL     1      -9.681  20.410  67.200  1.00  0.00    -0.601 C  
HETATM    2  C   UNL     1     -10.779  19.433  66.828  1.00  0.00    -0.448 C  
ENDROOT
BRANCH   2   3
HETATM    3  O   UNL     1     -10.398  18.663  65.681  1.00  0.00    -0.572 OA 
BRANCH   3   4
HETATM    4  C   UNL     1     -10.764  17.288  65.860  1.00  0.00    -0.126 C  
BRANCH   4   5
HETATM    5  C   UNL     1      -9.527  16.390  65.842  1.00  0.00    -0.254 C  
BRANCH   5   6
HETATM    6  N   UNL     1      -8.885  16.281  67.143  1.00  0.00    -0.187 NA 
HETATM    7  C   UNL     1      -9.222  15.435  68.187  1.00  0.00    -0.186 A  
HETATM    8  N   UNL     1      -8.413  15.611  69.213  1.00  0.00    -0.254 NA 
HETATM    9  C   UNL     1      -7.072  18.071  66.948  1.00  0.00    -0.216 A  
HETATM   10  C   UNL     1      -7.540  16.598  68.842  1.00  0.00    -0.240 A  
HETATM   11  C   UNL     1      -7.816  17.051  67.557  1.00  0.00    -0.170 A  
HETATM   12  C   UNL     1      -6.011  18.618  67.679  1.00  0.00    -0.183 A  
HETATM   13  C   UNL     1      -6.481  17.166  69.566  1.00  0.00    -0.210 A  
HETATM   14  C   UNL     1      -5.718  18.176  68.968  1.00  0.00    -0.203 A  
BRANCH   7  15
HETATM   15  C   UNL     1     -10.365  14.471  68.158  1.00  0.00    -0.232 C  
HETATM   16  C   UNL     1     -11.288  12.281  67.440  1.00  0.00    -0.325 C  
HETATM   17  C   UNL     1     -12.202  13.383  69.416  1.00  0.00    -0.195 C  
HETATM   18  C   UNL     1     -10.932  14.224  69.556  1.00  0.00    -0.206 C  
HETATM   19  N   UNL     1     -12.004  12.101  68.719  1.00  0.00    -0.288 NA 
HETATM   20  C   UNL     1     -10.006  13.118  67.540  1.00  0.00    -0.223 C  
BRANCH  19  21
HETATM   21  C   UNL     1     -11.347  11.080  69.550  1.00  0.00    -0.287 C  
BRANCH  21  22
HETATM   22  C   UNL     1     -12.201  10.619  70.747  1.00  0.00    -0.474 C  
BRANCH  22  23
HETATM   23  C   UNL     1     -11.831   9.211  71.136  1.00  0.00    -0.374 A  
HETATM   24  C   UNL     1     -12.002   8.776  72.453  1.00  0.00    -0.369 A  
HETATM   25  C   UNL     1     -11.535   7.525  72.848  1.00  0.00    -0.311 A  
HETATM   26  C   UNL     1     -10.885   6.673  71.935  1.00  0.00    -0.267 A  
HETATM   27  C   UNL     1     -11.239   8.357  70.208  1.00  0.00    -0.175 A  
HETATM   28  C   UNL     1     -10.779   7.101  70.601  1.00  0.00    -0.255 A  
BRANCH  26  29
HETATM   29  C   UNL     1     -10.242   5.365  72.432  1.00  0.00    -0.241 C  
HETATM   30  C   UNL     1      -8.903   5.602  73.154  1.00  0.00    -0.122 C  
HETATM   31  C   UNL     1     -11.209   4.669  73.417  1.00  0.00    -0.423 C  
HETATM   32  C   UNL     1      -9.929   4.368  71.298  1.00  0.00    -0.245 C  
HETATM   33  O   UNL     1      -8.166   6.636  72.678  1.00  0.00    -0.109 OA 
HETATM   34  O   UNL     1      -8.469   4.894  74.050  1.00  0.00    -0.103 OA 
ENDBRANCH  26  29
ENDBRANCH  22  23
ENDBRANCH  21  22
ENDBRANCH  19  21
ENDBRANCH   7  15
ENDBRANCH   5   6
ENDBRANCH   4   5
ENDBRANCH   3   4
ENDBRANCH   2   3
TORSDOF 9
ENDMDL
MODEL       51
REMARK 921   NORMALIZED FREE ENERGY PREDICTED BY IDOCK:   -6.69 KCAL/MOL
REMARK 922        TOTAL FREE ENERGY PREDICTED BY IDOCK:  -10.40 KCAL/MOL
REMARK 923 INTER-LIGAND FREE ENERGY PREDICTED BY IDOCK:   -8.75 KCAL/MOL
REMARK 924 INTRA-LIGAND FREE ENERGY PREDICTED BY IDOCK:   -1.65 KCAL/MOL
REMARK 927      BINDING AFFINITY PREDICTED BY RF-SCORE:    0.00 PKD
ROOT
HETATM    1  C   UNL     1     -10.017   3.844  74.108  1.00  0.00    -0.181 C  
HETATM    2  C   UNL     1      -9.643   3.108  72.836  1.00  0.00    -0.108 C  
ENDROOT
BRANCH   2   3
HETATM    3  O   UNL     1      -8.361   3.542  72.366  1.00  0.00    -0.081 OA 
BRANCH   3   4
HETATM    4  C   UNL     1      -8.137   3.073  71.028  1.00  0.00    -0.054 C  
BRANCH   4   5
HETATM    5  C   UNL     1      -9.462   2.879  70.292  1.00  0.00    -0.129 C  
BRANCH   5   6
HETATM    6  N   UNL     1      -9.629   3.795  69.173  1.00  0.00    -0.167 NA 
HETATM    7  C   UNL     1     -10.131   5.085  69.201  1.00  0.00    -0.187 A  
HETATM    8  N   UNL     1     -10.129   5.615  67.994  1.00  0.00    -0.158 NA 
HETATM    9  C   UNL     1      -8.804   2.353  67.231  1.00  0.00    -0.157 A  
HETATM   10  C   UNL     1      -9.630   4.653  67.158  1.00  0.00    -0.176 A  
HETATM   11  C   UNL     1      -9.320   3.494  67.861  1.00  0.00    -0.187 A  
HETATM   12  C   UNL     1      -8.589   2.422  65.850  1.00  0.00    -0.113 A  
HETATM   13  C   UNL     1      -9.420   4.701  65.772  1.00  0.00    -0.176 A  
HETATM   14  C   UNL     1      -8.892   3.576  65.128  1.00  0.00    -0.122 A  
BRANCH   7  15
HETATM   15  C   UNL     1     -10.630   5.771  70.433  1.00  0.00    -0.365 C  
HETATM   16  C   UNL     1     -10.171   7.201  72.411  1.00  0.00    -0.189 C  
HETATM   17  C   UNL     1     -12.426   7.119  71.481  1.00  0.00    -0.381 C  
HETATM   18  C   UNL     1     -11.877   6.609  70.148  1.00  0.00    -0.347 C  
HETATM   19  N   UNL     1     -11.462   7.904  72.270  1.00  0.00    -0.322 NA 
HETATM   20  C   UNL     1      -9.587   6.675  71.093  1.00  0.00    -0.177 C  
BRANCH  19  21
HETATM   21  C   UNL     1     -11.264   9.270  71.760  1.00  0.00    -0.343 C  
BRANCH  21  22
HETATM   22  C   UNL     1     -12.564  10.095  71.689  1.00  0.00    -0.533 C  
BRANCH  22  23
HETATM   23  C   UNL     1     -12.428  11.188  70.662  1.00  0.00    -0.448 A  
HETATM   24  C   UNL     1     -12.131  10.873  69.333  1.00  0.00    -0.362 A  
HETATM   25  C   UNL     1     -11.868  11.884  68.411  1.00  0.00    -0.352 A  
HETATM   26  C   UNL     1     -11.898  13.239  68.794  1.00  0.00    -0.371 A  
HETATM   27  C   UNL     1     -12.513  12.526  71.042  1.00  0.00    -0.353 A  
HETATM   28  C   UNL     1     -12.259  13.538  70.118  1.00  0.00    -0.400 A  
BRANCH  26  29
HETATM   29  C   UNL     1     -11.453  14.325  67.797  1.00  0.00    -0.354 C  
HETATM   30  C   UNL     1      -9.967  14.203  67.413  1.00  0.00    -0.240 C  
HETATM   31  C   UNL     1     -12.299  14.206  66.508  1.00  0.00    -0.405 C  
HETATM   32  C   UNL     1     -11.622  15.759  68.340  1.00  0.00    -0.343 C  
HETATM   33  O   UNL     1      -9.154  13.745  68.397  1.00  0.00    -0.192 OA 
HETATM   34  O   UNL     1      -9.503  14.544  66.336  1.00  0.00    -0.276 OA 
ENDBRANCH  26  29
ENDBRANCH  22  23
ENDBRANCH  21  22
ENDBRANCH  19  21
ENDBRANCH   7  15
ENDBRANCH   5   6
ENDBRANCH   4   5
ENDBRANCH   3   4
ENDBRANCH   2   3
TORSDOF 9
ENDMDL
MODEL       52
REMARK 921   NORMALIZED FREE ENERGY PREDICTED BY IDOCK:   -6.66 KCAL/MOL
REMARK 922        TOTAL FREE ENERGY PREDICTED BY IDOCK:  -10.35 KCAL/MOL
REMARK 923 INTER-LIGAND FREE ENERGY PREDICTED BY IDOCK:   -9.26 KCAL/MOL
REMARK 924 INTRA-LIGAND FREE ENERGY PREDICTED BY IDOCK:   -1.10 KCAL/MOL
REMARK 927      BINDING AFFINITY PREDICTED BY RF-SCORE:    0.00 PKD
ROOT
HETATM    1  C   UNL     1      -8.951   3.208  66.671  1.00  0.00    -0.168 C  
HETATM    2  C   UNL     1      -9.636   4.332  67.424  1.00  0.00    -0.180 C  
ENDROOT
BRANCH   2   3
HETATM    3  O   UNL     1     -10.470   5.091  66.540  1.00  0.00    -0.271 OA 
BRANCH   3   4
HETATM    4  C   UNL     1     -11.026   6.220  67.228  1.00  0.00    -0.366 C  
BRANCH   4   5
HETATM    5  C   UNL     1      -9.925   7.054  67.882  1.00  0.00    -0.154 C  
BRANCH   5   6
HETATM    6  N   UNL     1     -10.424   7.932  68.929  1.00  0.00    -0.211 NA 
HETATM    7  C   UNL     1     -10.784   9.265  68.818  1.00  0.00    -0.154 A  
HETATM    8  N   UNL     1     -11.197   9.738  69.978  1.00  0.00    -0.251 NA 
HETATM    9  C   UNL     1     -10.387   6.362  70.945  1.00  0.00    -0.246 A  
HETATM   10  C   UNL     1     -11.094   8.702  70.867  1.00  0.00    -0.264 A  
HETATM   11  C   UNL     1     -10.600   7.559  70.247  1.00  0.00    -0.229 A  
HETATM   12  C   UNL     1     -10.712   6.345  72.307  1.00  0.00    -0.253 A  
HETATM   13  C   UNL     1     -11.403   8.671  72.235  1.00  0.00    -0.411 A  
HETATM   14  C   UNL     1     -11.211   7.480  72.945  1.00  0.00    -0.396 A  
BRANCH   7  15
HETATM   15  C   UNL     1     -10.691  10.064  67.557  1.00  0.00    -0.339 C  
HETATM   16  C   UNL     1     -11.466  11.986  66.189  1.00  0.00    -0.339 C  
HETATM   17  C   UNL     1      -9.219  11.095  65.851  1.00  0.00    -0.206 C  
HETATM   18  C   UNL     1      -9.247  10.451  67.238  1.00  0.00    -0.157 C  
HETATM   19  N   UNL     1     -10.097  12.270  65.714  1.00  0.00    -0.248 NA 
HETATM   20  C   UNL     1     -11.535  11.339  67.579  1.00  0.00    -0.324 C  
BRANCH  19  21
HETATM   21  C   UNL     1      -9.559  13.480  66.353  1.00  0.00    -0.259 C  
BRANCH  21  22
HETATM   22  C   UNL     1     -10.616  14.576  66.584  1.00  0.00    -0.283 C  
BRANCH  22  23
HETATM   23  C   UNL     1      -9.944  15.900  66.840  1.00  0.00    -0.253 A  
HETATM   24  C   UNL     1     -10.628  16.920  67.507  1.00  0.00    -0.307 A  
HETATM   25  C   UNL     1     -10.063  18.188  67.624  1.00  0.00    -0.367 A  
HETATM   26  C   UNL     1      -8.796  18.470  67.076  1.00  0.00    -0.278 A  
HETATM   27  C   UNL     1      -8.667  16.149  66.340  1.00  0.00    -0.360 A  
HETATM   28  C   UNL     1      -8.098  17.415  66.464  1.00  0.00    -0.312 A  
BRANCH  26  29
HETATM   29  C   UNL     1      -8.265  19.915  67.083  1.00  0.00    -0.351 C  
HETATM   30  C   UNL     1      -7.231  20.159  68.197  1.00  0.00    -0.258 C  
HETATM   31  C   UNL     1      -7.593  20.213  65.723  1.00  0.00    -0.240 C  
HETATM   32  C   UNL     1      -9.367  20.970  67.305  1.00  0.00    -0.210 C  
HETATM   33  O   UNL     1      -7.437  19.457  69.339  1.00  0.00    -0.295 OA 
HETATM   34  O   UNL     1      -6.315  20.965  68.123  1.00  0.00    -0.317 OA 
ENDBRANCH  26  29
ENDBRANCH  22  23
ENDBRANCH  21  22
ENDBRANCH  19  21
ENDBRANCH   7  15
ENDBRANCH   5   6
ENDBRANCH   4   5
ENDBRANCH   3   4
ENDBRANCH   2   3
TORSDOF 9
ENDMDL
MODEL       53
REMARK 921   NORMALIZED FREE ENERGY PREDICTED BY IDOCK:   -6.65 KCAL/MOL
REMARK 922        TOTAL FREE ENERGY PREDICTED BY IDOCK:  -10.34 KCAL/MOL
REMARK 923 INTER-LIGAND FREE ENERGY PREDICTED BY IDOCK:   -8.95 KCAL/MOL
REMARK 924 INTRA-LIGAND FREE ENERGY PREDICTED BY IDOCK:   -1.39 KCAL/MOL
REMARK 927      BINDING AFFINITY PREDICTED BY RF-SCORE:    0.00 PKD
ROOT
HETATM    1  C   UNL     1     -11.961  12.725  63.038  1.00  0.00    -0.095 C  
HETATM    2  C   UNL     1     -12.734  11.999  64.122  1.00  0.00    -0.254 C  
ENDROOT
BRANCH   2   3
HETATM    3  O   UNL     1     -13.347  12.937  65.014  1.00  0.00    -0.682 OA 
BRANCH   3   4
HETATM    4  C   UNL     1     -12.464  14.041  65.259  1.00  0.00    -0.475 C  
BRANCH   4   5
HETATM    5  C   UNL     1     -12.169  14.178  66.753  1.00  0.00    -0.394 C  
BRANCH   5   6
HETATM    6  N   UNL     1     -10.745  14.216  67.049  1.00  0.00    -0.283 NA 
HETATM    7  C   UNL     1      -9.809  13.216  66.841  1.00  0.00    -0.249 A  
HETATM    8  N   UNL     1      -8.610  13.608  67.226  1.00  0.00    -0.208 NA 
HETATM    9  C   UNL     1     -10.515  16.550  68.064  1.00  0.00    -0.313 A  
HETATM   10  C   UNL     1      -8.764  14.881  67.706  1.00  0.00    -0.167 A  
HETATM   11  C   UNL     1     -10.091  15.288  67.623  1.00  0.00    -0.235 A  
HETATM   12  C   UNL     1      -9.541  17.411  68.582  1.00  0.00    -0.295 A  
HETATM   13  C   UNL     1      -7.803  15.752  68.239  1.00  0.00    -0.129 A  
HETATM   14  C   UNL     1      -8.206  17.021  68.671  1.00  0.00    -0.261 A  
BRANCH   7  15
HETATM   15  C   UNL     1     -10.124  11.866  66.280  1.00  0.00    -0.249 C  
HETATM   16  C   UNL     1      -9.548  10.016  64.727  1.00  0.00    -0.308 C  
HETATM   17  C   UNL     1     -10.853   9.542  66.735  1.00  0.00     0.039 C  
HETATM   18  C   UNL     1     -10.357  10.834  67.384  1.00  0.00    -0.251 C  
HETATM   19  N   UNL     1      -9.945   8.991  65.715  1.00  0.00    -0.146 NA 
HETATM   20  C   UNL     1      -9.042  11.328  65.341  1.00  0.00    -0.162 C  
BRANCH  19  21
HETATM   21  C   UNL     1      -8.764   8.323  66.283  1.00  0.00    -0.151 C  
BRANCH  21  22
HETATM   22  C   UNL     1      -9.043   6.888  66.770  1.00  0.00    -0.162 C  
BRANCH  22  23
HETATM   23  C   UNL     1      -9.577   6.914  68.178  1.00  0.00    -0.124 A  
HETATM   24  C   UNL     1     -10.791   6.291  68.482  1.00  0.00    -0.394 A  
HETATM   25  C   UNL     1     -11.356   6.429  69.748  1.00  0.00    -0.494 A  
HETATM   26  C   UNL     1     -10.722   7.194  70.745  1.00  0.00    -0.251 A  
HETATM   27  C   UNL     1      -8.912   7.630  69.171  1.00  0.00    -0.135 A  
HETATM   28  C   UNL     1      -9.473   7.762  70.440  1.00  0.00    -0.164 A  
BRANCH  26  29
HETATM   29  C   UNL     1     -11.441   7.459  72.080  1.00  0.00    -0.322 C  
HETATM   30  C   UNL     1     -12.322   8.720  72.038  1.00  0.00    -0.377 C  
HETATM   31  C   UNL     1     -12.342   6.249  72.418  1.00  0.00    -0.072 C  
HETATM   32  C   UNL     1     -10.475   7.670  73.264  1.00  0.00    -0.414 C  
HETATM   33  O   UNL     1     -11.853   9.725  71.256  1.00  0.00    -0.340 OA 
HETATM   34  O   UNL     1     -13.341   8.872  72.695  1.00  0.00    -0.433 OA 
ENDBRANCH  26  29
ENDBRANCH  22  23
ENDBRANCH  21  22
ENDBRANCH  19  21
ENDBRANCH   7  15
ENDBRANCH   5   6
ENDBRANCH   4   5
ENDBRANCH   3   4
ENDBRANCH   2   3
TORSDOF 9
ENDMDL
MODEL       54
REMARK 921   NORMALIZED FREE ENERGY PREDICTED BY IDOCK:   -6.64 KCAL/MOL
REMARK 922        TOTAL FREE ENERGY PREDICTED BY IDOCK:  -10.32 KCAL/MOL
REMARK 923 INTER-LIGAND FREE ENERGY PREDICTED BY IDOCK:   -9.59 KCAL/MOL
REMARK 924 INTRA-LIGAND FREE ENERGY PREDICTED BY IDOCK:   -0.73 KCAL/MOL
REMARK 927      BINDING AFFINITY PREDICTED BY RF-SCORE:    0.00 PKD
ROOT
HETATM    1  C   UNL     1     -12.565  11.380  70.975  1.00  0.00    -0.487 C  
HETATM    2  C   UNL     1     -13.090  10.342  71.947  1.00  0.00    -0.463 C  
ENDROOT
BRANCH   2   3
HETATM    3  O   UNL     1     -12.180   9.238  72.040  1.00  0.00    -0.364 OA 
BRANCH   3   4
HETATM    4  C   UNL     1     -11.669   8.905  70.741  1.00  0.00    -0.230 C  
BRANCH   4   5
HETATM    5  C   UNL     1     -10.168   8.621  70.806  1.00  0.00    -0.204 C  
BRANCH   5   6
HETATM    6  N   UNL     1      -9.743   7.600  69.861  1.00  0.00    -0.175 NA 
HETATM    7  C   UNL     1      -9.333   7.776  68.549  1.00  0.00    -0.147 A  
HETATM    8  N   UNL     1      -9.016   6.621  67.997  1.00  0.00    -0.118 NA 
HETATM    9  C   UNL     1     -10.017   5.484  71.267  1.00  0.00    -0.249 A  
HETATM   10  C   UNL     1      -9.234   5.670  68.958  1.00  0.00    -0.122 A  
HETATM   11  C   UNL     1      -9.703   6.247  70.133  1.00  0.00    -0.163 A  
HETATM   12  C   UNL     1      -9.822   4.100  71.185  1.00  0.00    -0.244 A  
HETATM   13  C   UNL     1      -9.056   4.280  68.889  1.00  0.00    -0.183 A  
HETATM   14  C   UNL     1      -9.350   3.505  70.017  1.00  0.00    -0.246 A  
BRANCH   7  15
HETATM   15  C   UNL     1      -9.283   9.097  67.849  1.00  0.00    -0.144 C  
HETATM   16  C   UNL     1     -10.405  10.806  66.439  1.00  0.00    -0.248 C  
HETATM   17  C   UNL     1      -8.607  11.478  67.946  1.00  0.00    -0.143 C  
HETATM   18  C   UNL     1      -8.807  10.212  68.780  1.00  0.00    -0.146 C  
HETATM   19  N   UNL     1      -9.806  11.914  67.211  1.00  0.00    -0.186 NA 
HETATM   20  C   UNL     1     -10.624   9.517  67.243  1.00  0.00    -0.317 C  
BRANCH  19  21
HETATM   21  C   UNL     1     -10.812  12.564  68.066  1.00  0.00    -0.225 C  
BRANCH  21  22
HETATM   22  C   UNL     1     -11.718  13.552  67.307  1.00  0.00    -0.423 C  
BRANCH  22  23
HETATM   23  C   UNL     1     -11.099  14.925  67.301  1.00  0.00    -0.336 A  
HETATM   24  C   UNL     1     -11.122  15.712  68.456  1.00  0.00    -0.322 A  
HETATM   25  C   UNL     1     -10.676  17.032  68.419  1.00  0.00    -0.361 A  
HETATM   26  C   UNL     1     -10.192  17.598  67.224  1.00  0.00    -0.343 A  
HETATM   27  C   UNL     1     -10.573  15.455  66.126  1.00  0.00    -0.321 A  
HETATM   28  C   UNL     1     -10.118  16.773  66.090  1.00  0.00    -0.360 A  
BRANCH  26  29
HETATM   29  C   UNL     1      -9.851  19.099  67.173  1.00  0.00    -0.411 C  
HETATM   30  C   UNL     1      -8.335  19.361  67.168  1.00  0.00    -0.287 C  
HETATM   31  C   UNL     1     -10.454  19.711  65.888  1.00  0.00    -0.591 C  
HETATM   32  C   UNL     1     -10.403  19.892  68.376  1.00  0.00    -0.507 C  
HETATM   33  O   UNL     1      -7.594  18.474  67.877  1.00  0.00    -0.232 OA 
HETATM   34  O   UNL     1      -7.803  20.323  66.633  1.00  0.00    -0.291 OA 
ENDBRANCH  26  29
ENDBRANCH  22  23
ENDBRANCH  21  22
ENDBRANCH  19  21
ENDBRANCH   7  15
ENDBRANCH   5   6
ENDBRANCH   4   5
ENDBRANCH   3   4
ENDBRANCH   2   3
TORSDOF 9
ENDMDL
MODEL       55
REMARK 921   NORMALIZED FREE ENERGY PREDICTED BY IDOCK:   -6.64 KCAL/MOL
REMARK 922        TOTAL FREE ENERGY PREDICTED BY IDOCK:  -10.31 KCAL/MOL
REMARK 923 INTER-LIGAND FREE ENERGY PREDICTED BY IDOCK:   -9.77 KCAL/MOL
REMARK 924 INTRA-LIGAND FREE ENERGY PREDICTED BY IDOCK:   -0.54 KCAL/MOL
REMARK 927      BINDING AFFINITY PREDICTED BY RF-SCORE:    0.00 PKD
ROOT
HETATM    1  C   UNL     1      -9.475   4.115  67.627  1.00  0.00    -0.225 C  
HETATM    2  C   UNL     1     -10.116   5.173  66.750  1.00  0.00    -0.232 C  
ENDROOT
BRANCH   2   3
HETATM    3  O   UNL     1     -10.972   6.017  67.529  1.00  0.00    -0.304 OA 
BRANCH   3   4
HETATM    4  C   UNL     1     -10.445   6.174  68.854  1.00  0.00    -0.238 C  
BRANCH   4   5
HETATM    5  C   UNL     1     -11.492   6.781  69.787  1.00  0.00    -0.263 C  
BRANCH   5   6
HETATM    6  N   UNL     1     -10.973   7.063  71.117  1.00  0.00    -0.242 NA 
HETATM    7  C   UNL     1     -10.525   8.277  71.612  1.00  0.00    -0.238 A  
HETATM    8  N   UNL     1     -10.130   8.156  72.864  1.00  0.00    -0.301 NA 
HETATM    9  C   UNL     1     -11.082   4.747  72.190  1.00  0.00     0.072 A  
HETATM   10  C   UNL     1     -10.309   6.838  73.192  1.00  0.00    -0.247 A  
HETATM   11  C   UNL     1     -10.822   6.122  72.116  1.00  0.00    -0.247 A  
HETATM   12  C   UNL     1     -10.824   4.107  73.408  1.00  0.00    -0.331 A  
HETATM   13  C   UNL     1     -10.044   6.180  74.402  1.00  0.00    -0.337 A  
HETATM   14  C   UNL     1     -10.312   4.809  74.498  1.00  0.00    -0.324 A  
BRANCH   7  15
HETATM   15  C   UNL     1     -10.475   9.546  70.822  1.00  0.00    -0.384 C  
HETATM   16  C   UNL     1      -9.386  10.920  69.063  1.00  0.00    -0.131 C  
HETATM   17  C   UNL     1     -11.743  11.278  69.584  1.00  0.00    -0.350 C  
HETATM   18  C   UNL     1     -11.835   9.886  70.211  1.00  0.00    -0.255 C  
HETATM   19  N   UNL     1     -10.687  11.414  68.568  1.00  0.00    -0.190 NA 
HETATM   20  C   UNL     1      -9.437   9.524  69.698  1.00  0.00    -0.213 C  
BRANCH  19  21
HETATM   21  C   UNL     1     -11.030  10.791  67.280  1.00  0.00    -0.297 C  
BRANCH  21  22
HETATM   22  C   UNL     1     -11.507  11.799  66.217  1.00  0.00    -0.296 C  
BRANCH  22  23
HETATM   23  C   UNL     1     -10.984  13.175  66.535  1.00  0.00    -0.303 A  
HETATM   24  C   UNL     1     -11.756  14.065  67.287  1.00  0.00    -0.420 A  
HETATM   25  C   UNL     1     -11.338  15.382  67.467  1.00  0.00    -0.269 A  
HETATM   26  C   UNL     1     -10.135  15.844  66.900  1.00  0.00    -0.267 A  
HETATM   27  C   UNL     1      -9.765  13.603  66.014  1.00  0.00    -0.239 A  
HETATM   28  C   UNL     1      -9.342  14.918  66.201  1.00  0.00    -0.307 A  
BRANCH  26  29
HETATM   29  C   UNL     1      -9.775  17.339  66.983  1.00  0.00    -0.267 C  
HETATM   30  C   UNL     1     -10.626  18.205  66.037  1.00  0.00    -0.264 C  
HETATM   31  C   UNL     1      -9.999  17.834  68.429  1.00  0.00    -0.362 C  
HETATM   32  C   UNL     1      -8.309  17.636  66.606  1.00  0.00    -0.288 C  
HETATM   33  O   UNL     1     -10.982  17.608  64.872  1.00  0.00    -0.886 OA 
HETATM   34  O   UNL     1     -10.926  19.370  66.252  1.00  0.00    -0.332 OA 
ENDBRANCH  26  29
ENDBRANCH  22  23
ENDBRANCH  21  22
ENDBRANCH  19  21
ENDBRANCH   7  15
ENDBRANCH   5   6
ENDBRANCH   4   5
ENDBRANCH   3   4
ENDBRANCH   2   3
TORSDOF 9
ENDMDL
MODEL       56
REMARK 921   NORMALIZED FREE ENERGY PREDICTED BY IDOCK:   -6.63 KCAL/MOL
REMARK 922        TOTAL FREE ENERGY PREDICTED BY IDOCK:  -10.31 KCAL/MOL
REMARK 923 INTER-LIGAND FREE ENERGY PREDICTED BY IDOCK:   -9.59 KCAL/MOL
REMARK 924 INTRA-LIGAND FREE ENERGY PREDICTED BY IDOCK:   -0.72 KCAL/MOL
REMARK 927      BINDING AFFINITY PREDICTED BY RF-SCORE:    0.00 PKD
ROOT
HETATM    1  C   UNL     1     -13.346  10.996  71.763  1.00  0.00    -0.400 C  
HETATM    2  C   UNL     1     -13.313   9.541  72.190  1.00  0.00    -0.461 C  
ENDROOT
BRANCH   2   3
HETATM    3  O   UNL     1     -11.968   9.048  72.182  1.00  0.00    -0.357 OA 
BRANCH   3   4
HETATM    4  C   UNL     1     -11.263   9.544  71.035  1.00  0.00    -0.362 C  
BRANCH   4   5
HETATM    5  C   UNL     1      -9.830   9.013  71.008  1.00  0.00    -0.282 C  
BRANCH   5   6
HETATM    6  N   UNL     1      -9.691   7.792  70.229  1.00  0.00    -0.179 NA 
HETATM    7  C   UNL     1      -9.439   7.677  68.872  1.00  0.00    -0.149 A  
HETATM    8  N   UNL     1      -9.374   6.409  68.513  1.00  0.00    -0.123 NA 
HETATM    9  C   UNL     1     -10.087   6.016  72.023  1.00  0.00    -0.215 A  
HETATM   10  C   UNL     1      -9.601   5.681  69.650  1.00  0.00    -0.151 A  
HETATM   11  C   UNL     1      -9.818   6.516  70.741  1.00  0.00    -0.184 A  
HETATM   12  C   UNL     1     -10.113   4.625  72.179  1.00  0.00    -0.256 A  
HETATM   13  C   UNL     1      -9.642   4.290  69.821  1.00  0.00    -0.279 A  
HETATM   14  C   UNL     1      -9.896   3.773  71.097  1.00  0.00    -0.213 A  
BRANCH   7  15
HETATM   15  C   UNL     1      -9.286   8.835  67.939  1.00  0.00    -0.155 C  
HETATM   16  C   UNL     1     -10.335  10.552  66.483  1.00  0.00    -0.233 C  
HETATM   17  C   UNL     1      -8.132  10.972  67.446  1.00  0.00    -0.122 C  
HETATM   18  C   UNL     1      -8.385   9.921  68.527  1.00  0.00    -0.108 C  
HETATM   19  N   UNL     1      -9.356  11.578  66.895  1.00  0.00    -0.177 NA 
HETATM   20  C   UNL     1     -10.617   9.479  67.543  1.00  0.00    -0.338 C  
BRANCH  19  21
HETATM   21  C   UNL     1      -9.975  12.565  67.794  1.00  0.00    -0.210 C  
BRANCH  21  22
HETATM   22  C   UNL     1     -11.226  13.239  67.199  1.00  0.00    -0.327 C  
BRANCH  22  23
HETATM   23  C   UNL     1     -11.033  14.732  67.145  1.00  0.00    -0.320 A  
HETATM   24  C   UNL     1     -10.690  15.355  65.941  1.00  0.00    -0.343 A  
HETATM   25  C   UNL     1     -10.377  16.712  65.915  1.00  0.00    -0.355 A  
HETATM   26  C   UNL     1     -10.399  17.484  67.092  1.00  0.00    -0.330 A  
HETATM   27  C   UNL     1     -11.112  15.495  68.308  1.00  0.00    -0.322 A  
HETATM   28  C   UNL     1     -10.807  16.855  68.281  1.00  0.00    -0.357 A  
BRANCH  26  29
HETATM   29  C   UNL     1      -9.899  18.940  67.062  1.00  0.00    -0.368 C  
HETATM   30  C   UNL     1      -8.388  19.040  66.790  1.00  0.00    -0.288 C  
HETATM   31  C   UNL     1     -10.646  19.708  65.948  1.00  0.00    -0.566 C  
HETATM   32  C   UNL     1     -10.130  19.693  68.389  1.00  0.00    -0.557 C  
HETATM   33  O   UNL     1      -7.642  18.029  67.299  1.00  0.00    -0.197 OA 
HETATM   34  O   UNL     1      -7.851  19.978  66.220  1.00  0.00    -0.303 OA 
ENDBRANCH  26  29
ENDBRANCH  22  23
ENDBRANCH  21  22
ENDBRANCH  19  21
ENDBRANCH   7  15
ENDBRANCH   5   6
ENDBRANCH   4   5
ENDBRANCH   3   4
ENDBRANCH   2   3
TORSDOF 9
ENDMDL
MODEL       57
REMARK 921   NORMALIZED FREE ENERGY PREDICTED BY IDOCK:   -6.61 KCAL/MOL
REMARK 922        TOTAL FREE ENERGY PREDICTED BY IDOCK:  -10.27 KCAL/MOL
REMARK 923 INTER-LIGAND FREE ENERGY PREDICTED BY IDOCK:   -9.30 KCAL/MOL
REMARK 924 INTRA-LIGAND FREE ENERGY PREDICTED BY IDOCK:   -0.97 KCAL/MOL
REMARK 927      BINDING AFFINITY PREDICTED BY RF-SCORE:    0.00 PKD
ROOT
HETATM    1  C   UNL     1      -7.205  11.687  68.720  1.00  0.00    -0.116 C  
HETATM    2  C   UNL     1      -6.531  12.927  68.166  1.00  0.00    -0.096 C  
ENDROOT
BRANCH   2   3
HETATM    3  O   UNL     1      -6.665  14.022  69.081  1.00  0.00    -0.104 OA 
BRANCH   3   4
HETATM    4  C   UNL     1      -6.822  15.254  68.363  1.00  0.00    -0.112 C  
BRANCH   4   5
HETATM    5  C   UNL     1      -7.682  16.238  69.155  1.00  0.00    -0.229 C  
BRANCH   5   6
HETATM    6  N   UNL     1      -8.021  17.433  68.398  1.00  0.00    -0.250 NA 
HETATM    7  C   UNL     1      -9.120  17.634  67.578  1.00  0.00    -0.239 A  
HETATM    8  N   UNL     1      -9.101  18.846  67.058  1.00  0.00    -0.287 NA 
HETATM    9  C   UNL     1      -6.049  18.953  68.970  1.00  0.00    -0.248 A  
HETATM   10  C   UNL     1      -7.965  19.445  67.534  1.00  0.00    -0.268 A  
HETATM   11  C   UNL     1      -7.258  18.583  68.365  1.00  0.00    -0.276 A  
HETATM   12  C   UNL     1      -5.575  20.247  68.723  1.00  0.00    -0.300 A  
HETATM   13  C   UNL     1      -7.470  20.734  67.287  1.00  0.00    -0.381 A  
HETATM   14  C   UNL     1      -6.272  21.125  67.894  1.00  0.00    -0.387 A  
BRANCH   7  15
HETATM   15  C   UNL     1     -10.169  16.605  67.303  1.00  0.00    -0.290 C  
HETATM   16  C   UNL     1     -10.989  14.716  65.915  1.00  0.00    -0.332 C  
HETATM   17  C   UNL     1     -11.717  14.910  68.236  1.00  0.00    -0.315 C  
HETATM   18  C   UNL     1     -10.517  15.803  68.557  1.00  0.00    -0.236 C  
HETATM   19  N   UNL     1     -11.506  13.999  67.099  1.00  0.00    -0.333 NA 
HETATM   20  C   UNL     1      -9.782  15.621  66.196  1.00  0.00    -0.348 C  
BRANCH  19  21
HETATM   21  C   UNL     1     -10.658  12.843  67.426  1.00  0.00    -0.233 C  
BRANCH  21  22
HETATM   22  C   UNL     1     -11.231  11.500  66.934  1.00  0.00    -0.363 C  
BRANCH  22  23
HETATM   23  C   UNL     1     -11.177  10.478  68.039  1.00  0.00    -0.361 A  
HETATM   24  C   UNL     1     -11.652  10.794  69.315  1.00  0.00    -0.376 A  
HETATM   25  C   UNL     1     -11.479   9.903  70.372  1.00  0.00    -0.372 A  
HETATM   26  C   UNL     1     -10.827   8.671  70.181  1.00  0.00    -0.242 A  
HETATM   27  C   UNL     1     -10.578   9.239  67.823  1.00  0.00    -0.307 A  
HETATM   28  C   UNL     1     -10.412   8.343  68.879  1.00  0.00    -0.208 A  
BRANCH  26  29
HETATM   29  C   UNL     1     -10.512   7.776  71.394  1.00  0.00    -0.237 C  
HETATM   30  C   UNL     1      -9.420   8.372  72.300  1.00  0.00    -0.297 C  
HETATM   31  C   UNL     1     -11.795   7.593  72.235  1.00  0.00    -0.354 C  
HETATM   32  C   UNL     1     -10.002   6.374  71.003  1.00  0.00    -0.205 C  
HETATM   33  O   UNL     1      -8.462   9.085  71.657  1.00  0.00    -0.339 OA 
HETATM   34  O   UNL     1      -9.348   8.187  73.506  1.00  0.00    -0.255 OA 
ENDBRANCH  26  29
ENDBRANCH  22  23
ENDBRANCH  21  22
ENDBRANCH  19  21
ENDBRANCH   7  15
ENDBRANCH   5   6
ENDBRANCH   4   5
ENDBRANCH   3   4
ENDBRANCH   2   3
TORSDOF 9
ENDMDL
MODEL       58
REMARK 921   NORMALIZED FREE ENERGY PREDICTED BY IDOCK:   -6.56 KCAL/MOL
REMARK 922        TOTAL FREE ENERGY PREDICTED BY IDOCK:  -10.20 KCAL/MOL
REMARK 923 INTER-LIGAND FREE ENERGY PREDICTED BY IDOCK:   -9.15 KCAL/MOL
REMARK 924 INTRA-LIGAND FREE ENERGY PREDICTED BY IDOCK:   -1.05 KCAL/MOL
REMARK 927      BINDING AFFINITY PREDICTED BY RF-SCORE:    0.00 PKD
ROOT
HETATM    1  C   UNL     1     -11.098   7.777  72.879  1.00  0.00    -0.457 C  
HETATM    2  C   UNL     1     -11.366   8.777  71.772  1.00  0.00    -0.339 C  
ENDROOT
BRANCH   2   3
HETATM    3  O   UNL     1     -12.775   8.989  71.619  1.00  0.00    -0.324 OA 
BRANCH   3   4
HETATM    4  C   UNL     1     -13.019  10.082  70.722  1.00  0.00    -0.257 C  
BRANCH   4   5
HETATM    5  C   UNL     1     -11.714  10.791  70.362  1.00  0.00    -0.351 C  
BRANCH   5   6
HETATM    6  N   UNL     1     -11.901  12.199  70.048  1.00  0.00    -0.330 NA 
HETATM    7  C   UNL     1     -11.431  12.891  68.943  1.00  0.00    -0.304 A  
HETATM    8  N   UNL     1     -11.800  14.156  68.991  1.00  0.00    -0.329 NA 
HETATM    9  C   UNL     1     -13.247  12.980  72.074  1.00  0.00    -0.543 A  
HETATM   10  C   UNL     1     -12.512  14.300  70.151  1.00  0.00    -0.335 A  
HETATM   11  C   UNL     1     -12.583  13.097  70.845  1.00  0.00    -0.295 A  
HETATM   12  C   UNL     1     -13.865  14.129  72.582  1.00  0.00    -0.504 A  
HETATM   13  C   UNL     1     -13.127  15.444  70.681  1.00  0.00    -0.405 A  
HETATM   14  C   UNL     1     -13.807  15.343  71.900  1.00  0.00    -0.619 A  
BRANCH   7  15
HETATM   15  C   UNL     1     -10.597  12.287  67.859  1.00  0.00    -0.232 C  
HETATM   16  C   UNL     1      -8.376  11.517  67.057  1.00  0.00    -0.165 C  
HETATM   17  C   UNL     1     -10.403  10.542  66.110  1.00  0.00    -0.210 C  
HETATM   18  C   UNL     1     -11.210  10.990  67.329  1.00  0.00    -0.330 C  
HETATM   19  N   UNL     1      -8.967  10.349  66.373  1.00  0.00    -0.147 NA 
HETATM   20  C   UNL     1      -9.157  11.996  68.288  1.00  0.00    -0.190 C  
BRANCH  19  21
HETATM   21  C   UNL     1      -8.669   9.106  67.102  1.00  0.00    -0.123 C  
BRANCH  21  22
HETATM   22  C   UNL     1      -9.861   8.134  67.175  1.00  0.00    -0.281 C  
BRANCH  22  23
HETATM   23  C   UNL     1      -9.761   7.283  68.413  1.00  0.00    -0.151 A  
HETATM   24  C   UNL     1      -8.557   7.207  69.120  1.00  0.00    -0.133 A  
HETATM   25  C   UNL     1      -8.418   6.316  70.182  1.00  0.00    -0.134 A  
HETATM   26  C   UNL     1      -9.481   5.478  70.568  1.00  0.00    -0.209 A  
HETATM   27  C   UNL     1     -10.838   6.498  68.817  1.00  0.00    -0.357 A  
HETATM   28  C   UNL     1     -10.703   5.612  69.886  1.00  0.00    -0.399 A  
BRANCH  26  29
HETATM   29  C   UNL     1      -9.253   4.397  71.640  1.00  0.00    -0.186 C  
HETATM   30  C   UNL     1      -8.725   3.078  71.047  1.00  0.00    -0.075 C  
HETATM   31  C   UNL     1      -8.222   4.915  72.669  1.00  0.00    -0.115 C  
HETATM   32  C   UNL     1     -10.535   4.018  72.409  1.00  0.00    -0.156 C  
HETATM   33  O   UNL     1      -9.180   2.781  69.805  1.00  0.00    -0.115 OA 
HETATM   34  O   UNL     1      -8.000   2.296  71.644  1.00  0.00    -0.044 OA 
ENDBRANCH  26  29
ENDBRANCH  22  23
ENDBRANCH  21  22
ENDBRANCH  19  21
ENDBRANCH   7  15
ENDBRANCH   5   6
ENDBRANCH   4   5
ENDBRANCH   3   4
ENDBRANCH   2   3
TORSDOF 9
ENDMDL
MODEL       59
REMARK 921   NORMALIZED FREE ENERGY PREDICTED BY IDOCK:   -6.56 KCAL/MOL
REMARK 922        TOTAL FREE ENERGY PREDICTED BY IDOCK:  -10.19 KCAL/MOL
REMARK 923 INTER-LIGAND FREE ENERGY PREDICTED BY IDOCK:   -9.11 KCAL/MOL
REMARK 924 INTRA-LIGAND FREE ENERGY PREDICTED BY IDOCK:   -1.08 KCAL/MOL
REMARK 927      BINDING AFFINITY PREDICTED BY RF-SCORE:    0.00 PKD
ROOT
HETATM    1  C   UNL     1      -9.736   3.197  71.777  1.00  0.00    -0.234 C  
HETATM    2  C   UNL     1     -10.444   4.388  72.393  1.00  0.00    -0.149 C  
ENDROOT
BRANCH   2   3
HETATM    3  O   UNL     1     -10.599   5.433  71.425  1.00  0.00    -0.236 OA 
BRANCH   3   4
HETATM    4  C   UNL     1     -11.643   6.332  71.826  1.00  0.00    -0.304 C  
BRANCH   4   5
HETATM    5  C   UNL     1     -11.110   7.387  72.794  1.00  0.00    -0.346 C  
BRANCH   5   6
HETATM    6  N   UNL     1      -9.827   7.938  72.384  1.00  0.00    -0.203 NA 
HETATM    7  C   UNL     1      -9.569   8.776  71.311  1.00  0.00    -0.253 A  
HETATM    8  N   UNL     1      -8.286   9.076  71.250  1.00  0.00    -0.295 NA 
HETATM    9  C   UNL     1      -8.268   6.900  74.122  1.00  0.00    -0.153 A  
HETATM   10  C   UNL     1      -7.692   8.414  72.291  1.00  0.00    -0.105 A  
HETATM   11  C   UNL     1      -8.626   7.680  73.013  1.00  0.00    -0.148 A  
HETATM   12  C   UNL     1      -6.920   6.899  74.499  1.00  0.00    -0.094 A  
HETATM   13  C   UNL     1      -6.343   8.392  72.675  1.00  0.00    -0.087 A  
HETATM   14  C   UNL     1      -5.970   7.631  73.788  1.00  0.00    -0.064 A  
BRANCH   7  15
HETATM   15  C   UNL     1     -10.603   9.252  70.342  1.00  0.00    -0.298 C  
HETATM   16  C   UNL     1     -12.581  10.677  69.865  1.00  0.00    -0.101 C  
HETATM   17  C   UNL     1     -11.101  10.018  68.039  1.00  0.00    -0.201 C  
HETATM   18  C   UNL     1      -9.975   9.727  69.032  1.00  0.00    -0.189 C  
HETATM   19  N   UNL     1     -12.085  11.006  68.513  1.00  0.00    -0.565 NA 
HETATM   20  C   UNL     1     -11.479  10.381  70.891  1.00  0.00    -0.385 C  
BRANCH  19  21
HETATM   21  C   UNL     1     -11.595  12.392  68.455  1.00  0.00    -0.324 C  
BRANCH  21  22
HETATM   22  C   UNL     1     -12.017  13.140  67.176  1.00  0.00    -0.397 C  
BRANCH  22  23
HETATM   23  C   UNL     1     -11.248  14.431  67.054  1.00  0.00    -0.336 A  
HETATM   24  C   UNL     1     -10.256  14.569  66.079  1.00  0.00    -0.329 A  
HETATM   25  C   UNL     1      -9.450  15.706  66.051  1.00  0.00    -0.390 A  
HETATM   26  C   UNL     1      -9.617  16.735  66.997  1.00  0.00    -0.244 A  
HETATM   27  C   UNL     1     -11.460  15.465  67.962  1.00  0.00    -0.333 A  
HETATM   28  C   UNL     1     -10.660  16.606  67.929  1.00  0.00    -0.342 A  
BRANCH  26  29
HETATM   29  C   UNL     1      -8.615  17.904  67.039  1.00  0.00    -0.248 C  
HETATM   30  C   UNL     1      -9.259  19.248  66.654  1.00  0.00    -0.338 C  
HETATM   31  C   UNL     1      -8.046  18.031  68.471  1.00  0.00    -0.306 C  
HETATM   32  C   UNL     1      -7.426  17.725  66.074  1.00  0.00    -0.284 C  
HETATM   33  O   UNL     1     -10.243  19.171  65.725  1.00  0.00    -0.498 OA 
HETATM   34  O   UNL     1      -8.896  20.334  67.081  1.00  0.00    -0.336 OA 
ENDBRANCH  26  29
ENDBRANCH  22  23
ENDBRANCH  21  22
ENDBRANCH  19  21
ENDBRANCH   7  15
ENDBRANCH   5   6
ENDBRANCH   4   5
ENDBRANCH   3   4
ENDBRANCH   2   3
TORSDOF 9
ENDMDL
MODEL       60
REMARK 921   NORMALIZED FREE ENERGY PREDICTED BY IDOCK:   -6.55 KCAL/MOL
REMARK 922        TOTAL FREE ENERGY PREDICTED BY IDOCK:  -10.18 KCAL/MOL
REMARK 923 INTER-LIGAND FREE ENERGY PREDICTED BY IDOCK:   -9.14 KCAL/MOL
REMARK 924 INTRA-LIGAND FREE ENERGY PREDICTED BY IDOCK:   -1.04 KCAL/MOL
REMARK 927      BINDING AFFINITY PREDICTED BY RF-SCORE:    0.00 PKD
ROOT
HETATM    1  C   UNL     1     -11.851   8.281  72.327  1.00  0.00    -0.451 C  
HETATM    2  C   UNL     1     -12.731   7.392  71.470  1.00  0.00    -0.372 C  
ENDROOT
BRANCH   2   3
HETATM    3  O   UNL     1     -12.013   6.942  70.315  1.00  0.00    -0.305 OA 
BRANCH   3   4
HETATM    4  C   UNL     1     -10.937   6.076  70.702  1.00  0.00    -0.307 C  
BRANCH   4   5
HETATM    5  C   UNL     1      -9.612   6.559  70.113  1.00  0.00    -0.160 C  
BRANCH   5   6
HETATM    6  N   UNL     1      -9.395   6.097  68.751  1.00  0.00    -0.123 NA 
HETATM    7  C   UNL     1      -9.243   6.866  67.608  1.00  0.00    -0.119 A  
HETATM    8  N   UNL     1      -9.059   6.102  66.550  1.00  0.00    -0.144 NA 
HETATM    9  C   UNL     1      -9.431   3.563  69.079  1.00  0.00    -0.213 A  
HETATM   10  C   UNL     1      -9.104   4.811  67.002  1.00  0.00    -0.118 A  
HETATM   11  C   UNL     1      -9.328   4.770  68.374  1.00  0.00    -0.132 A  
HETATM   12  C   UNL     1      -9.280   2.378  68.351  1.00  0.00    -0.253 A  
HETATM   13  C   UNL     1      -8.967   3.613  66.285  1.00  0.00    -0.144 A  
HETATM   14  C   UNL     1      -9.053   2.398  66.976  1.00  0.00    -0.148 A  
BRANCH   7  15
HETATM   15  C   UNL     1      -9.305   8.360  67.581  1.00  0.00    -0.158 C  
HETATM   16  C   UNL     1      -8.559  10.506  66.578  1.00  0.00    -0.137 C  
HETATM   17  C   UNL     1     -10.727  10.386  67.694  1.00  0.00    -0.286 C  
HETATM   18  C   UNL     1     -10.747   8.866  67.531  1.00  0.00    -0.223 C  
HETATM   19  N   UNL     1      -9.911  11.091  66.690  1.00  0.00    -0.203 NA 
HETATM   20  C   UNL     1      -8.538   8.981  66.411  1.00  0.00    -0.136 C  
BRANCH  19  21
HETATM   21  C   UNL     1     -10.557  11.181  65.371  1.00  0.00    -0.227 C  
BRANCH  21  22
HETATM   22  C   UNL     1     -11.793  12.099  65.352  1.00  0.00    -0.357 C  
BRANCH  22  23
HETATM   23  C   UNL     1     -11.391  13.516  65.670  1.00  0.00    -0.312 A  
HETATM   24  C   UNL     1     -10.524  14.209  64.820  1.00  0.00    -0.432 A  
HETATM   25  C   UNL     1     -10.041  15.466  65.179  1.00  0.00    -0.299 A  
HETATM   26  C   UNL     1     -10.413  16.063  66.398  1.00  0.00    -0.313 A  
HETATM   27  C   UNL     1     -11.810  14.118  66.854  1.00  0.00    -0.458 A  
HETATM   28  C   UNL     1     -11.333  15.379  67.210  1.00  0.00    -0.220 A  
BRANCH  26  29
HETATM   29  C   UNL     1      -9.745  17.379  66.841  1.00  0.00    -0.286 C  
HETATM   30  C   UNL     1     -10.458  18.622  66.279  1.00  0.00    -0.424 C  
HETATM   31  C   UNL     1      -9.766  17.463  68.384  1.00  0.00    -0.304 C  
HETATM   32  C   UNL     1      -8.278  17.503  66.383  1.00  0.00    -0.305 C  
HETATM   33  O   UNL     1     -11.006  18.465  65.048  1.00  0.00    -0.644 OA 
HETATM   34  O   UNL     1     -10.494  19.707  66.838  1.00  0.00    -0.429 OA 
ENDBRANCH  26  29
ENDBRANCH  22  23
ENDBRANCH  21  22
ENDBRANCH  19  21
ENDBRANCH   7  15
ENDBRANCH   5   6
ENDBRANCH   4   5
ENDBRANCH   3   4
ENDBRANCH   2   3
TORSDOF 9
ENDMDL
MODEL       61
REMARK 921   NORMALIZED FREE ENERGY PREDICTED BY IDOCK:   -6.54 KCAL/MOL
REMARK 922        TOTAL FREE ENERGY PREDICTED BY IDOCK:  -10.16 KCAL/MOL
REMARK 923 INTER-LIGAND FREE ENERGY PREDICTED BY IDOCK:   -8.80 KCAL/MOL
REMARK 924 INTRA-LIGAND FREE ENERGY PREDICTED BY IDOCK:   -1.35 KCAL/MOL
REMARK 927      BINDING AFFINITY PREDICTED BY RF-SCORE:    0.00 PKD
ROOT
HETATM    1  C   UNL     1      -6.006   9.371  68.128  1.00  0.00    -0.041 C  
HETATM    2  C   UNL     1      -6.295   7.929  68.494  1.00  0.00    -0.048 C  
ENDROOT
BRANCH   2   3
HETATM    3  O   UNL     1      -6.386   7.782  69.917  1.00  0.00    -0.030 OA 
BRANCH   3   4
HETATM    4  C   UNL     1      -6.579   6.403  70.264  1.00  0.00    -0.045 C  
BRANCH   4   5
HETATM    5  C   UNL     1      -7.840   5.848  69.601  1.00  0.00    -0.097 C  
BRANCH   5   6
HETATM    6  N   UNL     1      -9.058   6.206  70.310  1.00  0.00    -0.152 NA 
HETATM    7  C   UNL     1      -9.847   7.330  70.126  1.00  0.00    -0.179 A  
HETATM    8  N   UNL     1     -10.879   7.318  70.947  1.00  0.00    -0.239 NA 
HETATM    9  C   UNL     1      -9.263   4.258  71.951  1.00  0.00    -0.173 A  
HETATM   10  C   UNL     1     -10.759   6.175  71.690  1.00  0.00    -0.245 A  
HETATM   11  C   UNL     1      -9.621   5.462  71.328  1.00  0.00    -0.157 A  
HETATM   12  C   UNL     1     -10.111   3.777  72.955  1.00  0.00    -0.217 A  
HETATM   13  C   UNL     1     -11.591   5.684  72.707  1.00  0.00    -0.289 A  
HETATM   14  C   UNL     1     -11.257   4.477  73.331  1.00  0.00    -0.404 A  
BRANCH   7  15
HETATM   15  C   UNL     1      -9.551   8.420  69.146  1.00  0.00    -0.164 C  
HETATM   16  C   UNL     1      -9.852   9.387  66.878  1.00  0.00    -0.201 C  
HETATM   17  C   UNL     1      -9.304  10.853  68.750  1.00  0.00    -0.185 C  
HETATM   18  C   UNL     1      -9.806   9.804  69.743  1.00  0.00    -0.262 C  
HETATM   19  N   UNL     1      -9.916  10.762  67.414  1.00  0.00    -0.180 NA 
HETATM   20  C   UNL     1     -10.349   8.304  67.846  1.00  0.00    -0.278 C  
BRANCH  19  21
HETATM   21  C   UNL     1     -11.291  11.283  67.363  1.00  0.00    -0.276 C  
BRANCH  21  22
HETATM   22  C   UNL     1     -11.540  12.248  66.188  1.00  0.00    -0.450 C  
BRANCH  22  23
HETATM   23  C   UNL     1     -10.989  13.612  66.513  1.00  0.00    -0.295 A  
HETATM   24  C   UNL     1     -11.663  14.449  67.407  1.00  0.00    -0.424 A  
HETATM   25  C   UNL     1     -11.235  15.760  67.605  1.00  0.00    -0.246 A  
HETATM   26  C   UNL     1     -10.120  16.269  66.913  1.00  0.00    -0.278 A  
HETATM   27  C   UNL     1      -9.852  14.086  65.862  1.00  0.00    -0.302 A  
HETATM   28  C   UNL     1      -9.418  15.395  66.065  1.00  0.00    -0.381 A  
BRANCH  26  29
HETATM   29  C   UNL     1      -9.763  17.763  67.031  1.00  0.00    -0.290 C  
HETATM   30  C   UNL     1     -10.607  18.648  66.098  1.00  0.00    -0.363 C  
HETATM   31  C   UNL     1     -10.001  18.226  68.487  1.00  0.00    -0.413 C  
HETATM   32  C   UNL     1      -8.294  18.070  66.674  1.00  0.00    -0.284 C  
HETATM   33  O   UNL     1     -10.952  18.077  64.917  1.00  0.00    -0.776 OA 
HETATM   34  O   UNL     1     -10.911  19.807  66.336  1.00  0.00    -0.440 OA 
ENDBRANCH  26  29
ENDBRANCH  22  23
ENDBRANCH  21  22
ENDBRANCH  19  21
ENDBRANCH   7  15
ENDBRANCH   5   6
ENDBRANCH   4   5
ENDBRANCH   3   4
ENDBRANCH   2   3
TORSDOF 9
ENDMDL
MODEL       62
REMARK 921   NORMALIZED FREE ENERGY PREDICTED BY IDOCK:   -6.44 KCAL/MOL
REMARK 922        TOTAL FREE ENERGY PREDICTED BY IDOCK:  -10.01 KCAL/MOL
REMARK 923 INTER-LIGAND FREE ENERGY PREDICTED BY IDOCK:   -8.80 KCAL/MOL
REMARK 924 INTRA-LIGAND FREE ENERGY PREDICTED BY IDOCK:   -1.21 KCAL/MOL
REMARK 927      BINDING AFFINITY PREDICTED BY RF-SCORE:    0.00 PKD
ROOT
HETATM    1  C   UNL     1     -10.867   8.842  71.939  1.00  0.00    -0.433 C  
HETATM    2  C   UNL     1     -12.086   7.997  71.626  1.00  0.00    -0.303 C  
ENDROOT
BRANCH   2   3
HETATM    3  O   UNL     1     -11.842   7.172  70.480  1.00  0.00    -0.299 OA 
BRANCH   3   4
HETATM    4  C   UNL     1     -10.907   6.133  70.804  1.00  0.00    -0.288 C  
BRANCH   4   5
HETATM    5  C   UNL     1      -9.520   6.462  70.253  1.00  0.00    -0.161 C  
BRANCH   5   6
HETATM    6  N   UNL     1      -9.473   6.470  68.799  1.00  0.00    -0.129 NA 
HETATM    7  C   UNL     1      -9.478   7.570  67.957  1.00  0.00    -0.142 A  
HETATM    8  N   UNL     1      -9.421   7.194  66.695  1.00  0.00    -0.168 NA 
HETATM    9  C   UNL     1      -9.434   3.965  68.294  1.00  0.00    -0.212 A  
HETATM   10  C   UNL     1      -9.392   5.825  66.708  1.00  0.00    -0.133 A  
HETATM   11  C   UNL     1      -9.438   5.338  68.009  1.00  0.00    -0.122 A  
HETATM   12  C   UNL     1      -9.363   3.083  67.210  1.00  0.00    -0.198 A  
HETATM   13  C   UNL     1      -9.334   4.927  65.632  1.00  0.00    -0.167 A  
HETATM   14  C   UNL     1      -9.315   3.553  65.898  1.00  0.00    -0.159 A  
BRANCH   7  15
HETATM   15  C   UNL     1      -9.561   8.989  68.421  1.00  0.00    -0.163 C  
HETATM   16  C   UNL     1      -8.527  11.240  68.590  1.00  0.00    -0.143 C  
HETATM   17  C   UNL     1     -10.957  11.023  68.655  1.00  0.00    -0.224 C  
HETATM   18  C   UNL     1     -10.870   9.650  67.987  1.00  0.00    -0.250 C  
HETATM   19  N   UNL     1      -9.822  11.912  68.357  1.00  0.00    -0.203 NA 
HETATM   20  C   UNL     1      -8.401   9.859  67.934  1.00  0.00    -0.114 C  
BRANCH  19  21
HETATM   21  C   UNL     1      -9.875  12.498  67.009  1.00  0.00    -0.217 C  
BRANCH  21  22
HETATM   22  C   UNL     1     -11.199  13.224  66.706  1.00  0.00    -0.331 C  
BRANCH  22  23
HETATM   23  C   UNL     1     -10.993  14.716  66.746  1.00  0.00    -0.323 A  
HETATM   24  C   UNL     1     -10.647  15.411  65.584  1.00  0.00    -0.379 A  
HETATM   25  C   UNL     1     -10.321  16.764  65.642  1.00  0.00    -0.284 A  
HETATM   26  C   UNL     1     -10.334  17.460  66.867  1.00  0.00    -0.317 A  
HETATM   27  C   UNL     1     -11.062  15.404  67.956  1.00  0.00    -0.312 A  
HETATM   28  C   UNL     1     -10.744  16.760  68.014  1.00  0.00    -0.355 A  
BRANCH  26  29
HETATM   29  C   UNL     1      -9.821  18.910  66.927  1.00  0.00    -0.371 C  
HETATM   30  C   UNL     1      -8.321  19.021  66.600  1.00  0.00    -0.301 C  
HETATM   31  C   UNL     1     -10.605  19.767  65.908  1.00  0.00    -0.557 C  
HETATM   32  C   UNL     1      -9.988  19.560  68.316  1.00  0.00    -0.533 C  
HETATM   33  O   UNL     1      -7.564  17.967  66.997  1.00  0.00    -0.191 OA 
HETATM   34  O   UNL     1      -7.799  19.996  66.081  1.00  0.00    -0.315 OA 
ENDBRANCH  26  29
ENDBRANCH  22  23
ENDBRANCH  21  22
ENDBRANCH  19  21
ENDBRANCH   7  15
ENDBRANCH   5   6
ENDBRANCH   4   5
ENDBRANCH   3   4
ENDBRANCH   2   3
TORSDOF 9
ENDMDL
MODEL       63
REMARK 921   NORMALIZED FREE ENERGY PREDICTED BY IDOCK:   -6.39 KCAL/MOL
REMARK 922        TOTAL FREE ENERGY PREDICTED BY IDOCK:   -9.94 KCAL/MOL
REMARK 923 INTER-LIGAND FREE ENERGY PREDICTED BY IDOCK:   -8.78 KCAL/MOL
REMARK 924 INTRA-LIGAND FREE ENERGY PREDICTED BY IDOCK:   -1.16 KCAL/MOL
REMARK 927      BINDING AFFINITY PREDICTED BY RF-SCORE:    0.00 PKD
ROOT
HETATM    1  C   UNL     1     -11.659   7.876  72.405  1.00  0.00    -0.436 C  
HETATM    2  C   UNL     1     -12.446   6.739  71.783  1.00  0.00    -0.349 C  
ENDROOT
BRANCH   2   3
HETATM    3  O   UNL     1     -12.385   6.811  70.353  1.00  0.00    -0.275 OA 
BRANCH   3   4
HETATM    4  C   UNL     1     -11.094   6.391  69.888  1.00  0.00    -0.381 C  
BRANCH   4   5
HETATM    5  C   UNL     1     -11.050   6.363  68.361  1.00  0.00    -0.285 C  
BRANCH   5   6
HETATM    6  N   UNL     1      -9.806   6.886  67.819  1.00  0.00    -0.132 NA 
HETATM    7  C   UNL     1      -9.533   8.185  67.422  1.00  0.00    -0.155 A  
HETATM    8  N   UNL     1      -8.293   8.292  66.986  1.00  0.00    -0.121 NA 
HETATM    9  C   UNL     1      -8.363   4.777  67.776  1.00  0.00    -0.103 A  
HETATM   10  C   UNL     1      -7.748   7.040  67.085  1.00  0.00    -0.108 A  
HETATM   11  C   UNL     1      -8.672   6.132  67.590  1.00  0.00    -0.105 A  
HETATM   12  C   UNL     1      -7.067   4.361  67.450  1.00  0.00    -0.064 A  
HETATM   13  C   UNL     1      -6.457   6.604  66.752  1.00  0.00    -0.043 A  
HETATM   14  C   UNL     1      -6.127   5.258  66.944  1.00  0.00    -0.030 A  
BRANCH   7  15
HETATM   15  C   UNL     1     -10.522   9.306  67.461  1.00  0.00    -0.338 C  
HETATM   16  C   UNL     1     -11.757  11.014  68.774  1.00  0.00    -0.314 C  
HETATM   17  C   UNL     1     -11.363  11.378  66.393  1.00  0.00    -0.096 C  
HETATM   18  C   UNL     1     -10.210  10.373  66.412  1.00  0.00    -0.292 C  
HETATM   19  N   UNL     1     -11.631  12.014  67.694  1.00  0.00    -0.415 NA 
HETATM   20  C   UNL     1     -10.616   9.989  68.827  1.00  0.00    -0.241 C  
BRANCH  19  21
HETATM   21  C   UNL     1     -10.652  13.053  68.050  1.00  0.00    -0.235 C  
BRANCH  21  22
HETATM   22  C   UNL     1      -9.958  13.688  66.830  1.00  0.00    -0.270 C  
BRANCH  22  23
HETATM   23  C   UNL     1      -9.668  15.142  67.097  1.00  0.00    -0.230 A  
HETATM   24  C   UNL     1     -10.097  15.738  68.286  1.00  0.00    -0.222 A  
HETATM   25  C   UNL     1      -9.954  17.111  68.478  1.00  0.00    -0.309 A  
HETATM   26  C   UNL     1      -9.376  17.924  67.484  1.00  0.00    -0.253 A  
HETATM   27  C   UNL     1      -9.046  15.925  66.128  1.00  0.00    -0.385 A  
HETATM   28  C   UNL     1      -8.894  17.297  66.322  1.00  0.00    -0.250 A  
BRANCH  26  29
HETATM   29  C   UNL     1      -9.371  19.454  67.656  1.00  0.00    -0.382 C  
HETATM   30  C   UNL     1      -7.950  20.027  67.809  1.00  0.00    -0.289 C  
HETATM   31  C   UNL     1     -10.026  20.104  66.416  1.00  0.00    -0.573 C  
HETATM   32  C   UNL     1     -10.145  19.932  68.901  1.00  0.00    -0.438 C  
HETATM   33  O   UNL     1      -7.071  19.223  68.456  1.00  0.00    -0.277 OA 
HETATM   34  O   UNL     1      -7.616  21.146  67.448  1.00  0.00    -0.380 OA 
ENDBRANCH  26  29
ENDBRANCH  22  23
ENDBRANCH  21  22
ENDBRANCH  19  21
ENDBRANCH   7  15
ENDBRANCH   5   6
ENDBRANCH   4   5
ENDBRANCH   3   4
ENDBRANCH   2   3
TORSDOF 9
ENDMDL
MODEL       64
REMARK 921   NORMALIZED FREE ENERGY PREDICTED BY IDOCK:   -6.36 KCAL/MOL
REMARK 922        TOTAL FREE ENERGY PREDICTED BY IDOCK:   -9.89 KCAL/MOL
REMARK 923 INTER-LIGAND FREE ENERGY PREDICTED BY IDOCK:   -9.16 KCAL/MOL
REMARK 924 INTRA-LIGAND FREE ENERGY PREDICTED BY IDOCK:   -0.72 KCAL/MOL
REMARK 927      BINDING AFFINITY PREDICTED BY RF-SCORE:    0.00 PKD
ROOT
HETATM    1  C   UNL     1     -11.145  15.185  69.240  1.00  0.00    -0.279 C  
HETATM    2  C   UNL     1     -11.830  13.840  69.389  1.00  0.00    -0.341 C  
ENDROOT
BRANCH   2   3
HETATM    3  O   UNL     1     -10.948  12.783  68.992  1.00  0.00    -0.242 OA 
BRANCH   3   4
HETATM    4  C   UNL     1     -11.539  11.507  69.280  1.00  0.00    -0.322 C  
BRANCH   4   5
HETATM    5  C   UNL     1     -10.460  10.452  69.523  1.00  0.00    -0.247 C  
BRANCH   5   6
HETATM    6  N   UNL     1     -11.003   9.175  69.960  1.00  0.00    -0.232 NA 
HETATM    7  C   UNL     1     -10.593   7.906  69.584  1.00  0.00    -0.234 A  
HETATM    8  N   UNL     1     -11.315   6.983  70.188  1.00  0.00    -0.289 NA 
HETATM    9  C   UNL     1     -12.881   9.945  71.513  1.00  0.00    -0.522 A  
HETATM   10  C   UNL     1     -12.222   7.656  70.962  1.00  0.00    -0.236 A  
HETATM   11  C   UNL     1     -12.064   9.032  70.832  1.00  0.00    -0.198 A  
HETATM   12  C   UNL     1     -13.866   9.422  72.358  1.00  0.00    -0.422 A  
HETATM   13  C   UNL     1     -13.222   7.149  71.804  1.00  0.00    -0.355 A  
HETATM   14  C   UNL     1     -14.038   8.046  72.502  1.00  0.00    -0.031 A  
BRANCH   7  15
HETATM   15  C   UNL     1      -9.497   7.627  68.606  1.00  0.00    -0.151 C  
HETATM   16  C   UNL     1      -8.710   7.548  66.252  1.00  0.00    -0.149 C  
HETATM   17  C   UNL     1      -7.093   7.857  68.054  1.00  0.00    -0.085 C  
HETATM   18  C   UNL     1      -8.201   8.340  68.990  1.00  0.00    -0.119 C  
HETATM   19  N   UNL     1      -7.376   8.064  66.624  1.00  0.00    -0.087 NA 
HETATM   20  C   UNL     1      -9.850   8.014  67.168  1.00  0.00    -0.274 C  
BRANCH  19  21
HETATM   21  C   UNL     1      -7.214   9.461  66.192  1.00  0.00    -0.092 C  
BRANCH  21  22
HETATM   22  C   UNL     1      -7.708   9.723  64.757  1.00  0.00    -0.128 C  
BRANCH  22  23
HETATM   23  C   UNL     1      -8.845  10.711  64.772  1.00  0.00    -0.196 A  
HETATM   24  C   UNL     1      -9.492  11.059  63.583  1.00  0.00    -0.298 A  
HETATM   25  C   UNL     1     -10.448  12.072  63.571  1.00  0.00    -0.505 A  
HETATM   26  C   UNL     1     -10.784  12.764  64.750  1.00  0.00    -0.340 A  
HETATM   27  C   UNL     1      -9.206  11.351  65.956  1.00  0.00    -0.229 A  
HETATM   28  C   UNL     1     -10.169  12.359  65.946  1.00  0.00    -0.273 A  
BRANCH  26  29
HETATM   29  C   UNL     1     -11.727  13.980  64.681  1.00  0.00    -0.417 C  
HETATM   30  C   UNL     1     -10.970  15.319  64.743  1.00  0.00    -0.386 C  
HETATM   31  C   UNL     1     -12.519  13.930  63.355  1.00  0.00     0.185 C  
HETATM   32  C   UNL     1     -12.747  14.029  65.837  1.00  0.00    -0.436 C  
HETATM   33  O   UNL     1      -9.850  15.313  65.507  1.00  0.00    -0.341 OA 
HETATM   34  O   UNL     1     -11.352  16.351  64.212  1.00  0.00    -0.892 OA 
ENDBRANCH  26  29
ENDBRANCH  22  23
ENDBRANCH  21  22
ENDBRANCH  19  21
ENDBRANCH   7  15
ENDBRANCH   5   6
ENDBRANCH   4   5
ENDBRANCH   3   4
ENDBRANCH   2   3
TORSDOF 9
ENDMDL
MODEL       65
REMARK 921   NORMALIZED FREE ENERGY PREDICTED BY IDOCK:   -6.35 KCAL/MOL
REMARK 922        TOTAL FREE ENERGY PREDICTED BY IDOCK:   -9.87 KCAL/MOL
REMARK 923 INTER-LIGAND FREE ENERGY PREDICTED BY IDOCK:   -8.74 KCAL/MOL
REMARK 924 INTRA-LIGAND FREE ENERGY PREDICTED BY IDOCK:   -1.13 KCAL/MOL
REMARK 927      BINDING AFFINITY PREDICTED BY RF-SCORE:    0.00 PKD
ROOT
HETATM    1  C   UNL     1     -12.460  11.970  63.467  1.00  0.00    -0.654 C  
HETATM    2  C   UNL     1     -11.524  12.066  64.656  1.00  0.00    -0.308 C  
ENDROOT
BRANCH   2   3
HETATM    3  O   UNL     1     -10.676  13.214  64.534  1.00  0.00    -0.353 OA 
BRANCH   3   4
HETATM    4  C   UNL     1     -11.441  14.418  64.695  1.00  0.00    -0.387 C  
BRANCH   4   5
HETATM    5  C   UNL     1     -12.112  14.455  66.068  1.00  0.00    -0.357 C  
BRANCH   5   6
HETATM    6  N   UNL     1     -11.201  14.842  67.134  1.00  0.00    -0.336 NA 
HETATM    7  C   UNL     1     -10.878  14.126  68.276  1.00  0.00    -0.247 A  
HETATM    8  N   UNL     1     -10.011  14.790  69.016  1.00  0.00    -0.230 NA 
HETATM    9  C   UNL     1     -10.453  17.149  66.328  1.00  0.00    -0.260 A  
HETATM   10  C   UNL     1      -9.771  15.965  68.356  1.00  0.00    -0.214 A  
HETATM   11  C   UNL     1     -10.510  16.037  67.180  1.00  0.00    -0.308 A  
HETATM   12  C   UNL     1      -9.598  18.196  66.693  1.00  0.00    -0.306 A  
HETATM   13  C   UNL     1      -8.929  17.028  68.713  1.00  0.00    -0.249 A  
HETATM   14  C   UNL     1      -8.848  18.140  67.866  1.00  0.00    -0.273 A  
BRANCH   7  15
HETATM   15  C   UNL     1     -11.457  12.794  68.629  1.00  0.00    -0.341 C  
HETATM   16  C   UNL     1     -11.272  10.317  68.612  1.00  0.00    -0.208 C  
HETATM   17  C   UNL     1     -12.616  11.413  70.330  1.00  0.00    -0.185 C  
HETATM   18  C   UNL     1     -11.870  12.728  70.100  1.00  0.00    -0.326 C  
HETATM   19  N   UNL     1     -11.846  10.211  69.969  1.00  0.00    -0.215 NA 
HETATM   20  C   UNL     1     -10.513  11.624  68.343  1.00  0.00    -0.230 C  
BRANCH  19  21
HETATM   21  C   UNL     1     -10.809   9.864  70.953  1.00  0.00    -0.286 C  
BRANCH  21  22
HETATM   22  C   UNL     1     -11.137   8.602  71.774  1.00  0.00    -0.396 C  
BRANCH  22  23
HETATM   23  C   UNL     1     -10.561   7.383  71.102  1.00  0.00    -0.235 A  
HETATM   24  C   UNL     1      -9.252   6.978  71.379  1.00  0.00    -0.151 A  
HETATM   25  C   UNL     1      -8.669   5.937  70.660  1.00  0.00    -0.137 A  
HETATM   26  C   UNL     1      -9.381   5.270  69.645  1.00  0.00    -0.174 A  
HETATM   27  C   UNL     1     -11.296   6.697  70.137  1.00  0.00    -0.440 A  
HETATM   28  C   UNL     1     -10.716   5.649  69.423  1.00  0.00    -0.365 A  
BRANCH  26  29
HETATM   29  C   UNL     1      -8.664   4.231  68.764  1.00  0.00    -0.124 C  
HETATM   30  C   UNL     1      -7.885   4.877  67.603  1.00  0.00    -0.094 C  
HETATM   31  C   UNL     1      -7.666   3.432  69.633  1.00  0.00    -0.050 C  
HETATM   32  C   UNL     1      -9.626   3.222  68.103  1.00  0.00    -0.147 C  
HETATM   33  O   UNL     1      -8.443   6.001  67.090  1.00  0.00    -0.106 OA 
HETATM   34  O   UNL     1      -6.871   4.408  67.108  1.00  0.00    -0.050 OA 
ENDBRANCH  26  29
ENDBRANCH  22  23
ENDBRANCH  21  22
ENDBRANCH  19  21
ENDBRANCH   7  15
ENDBRANCH   5   6
ENDBRANCH   4   5
ENDBRANCH   3   4
ENDBRANCH   2   3
TORSDOF 9
ENDMDL
MODEL       66
REMARK 921   NORMALIZED FREE ENERGY PREDICTED BY IDOCK:   -6.35 KCAL/MOL
REMARK 922        TOTAL FREE ENERGY PREDICTED BY IDOCK:   -9.87 KCAL/MOL
REMARK 923 INTER-LIGAND FREE ENERGY PREDICTED BY IDOCK:   -9.49 KCAL/MOL
REMARK 924 INTRA-LIGAND FREE ENERGY PREDICTED BY IDOCK:   -0.38 KCAL/MOL
REMARK 927      BINDING AFFINITY PREDICTED BY RF-SCORE:    0.00 PKD
ROOT
HETATM    1  C   UNL     1     -13.815   7.409  71.521  1.00  0.00    -0.483 C  
HETATM    2  C   UNL     1     -13.717   8.898  71.788  1.00  0.00    -0.422 C  
ENDROOT
BRANCH   2   3
HETATM    3  O   UNL     1     -12.853   9.522  70.831  1.00  0.00    -0.253 OA 
BRANCH   3   4
HETATM    4  C   UNL     1     -11.613   9.894  71.448  1.00  0.00    -0.352 C  
BRANCH   4   5
HETATM    5  C   UNL     1     -10.478   9.900  70.424  1.00  0.00    -0.285 C  
BRANCH   5   6
HETATM    6  N   UNL     1     -10.361   8.645  69.699  1.00  0.00    -0.209 NA 
HETATM    7  C   UNL     1     -10.266   8.463  68.329  1.00  0.00    -0.205 A  
HETATM    8  N   UNL     1     -10.169   7.182  68.031  1.00  0.00    -0.176 NA 
HETATM    9  C   UNL     1     -10.433   6.959  71.618  1.00  0.00    -0.224 A  
HETATM   10  C   UNL     1     -10.215   6.511  69.224  1.00  0.00    -0.187 A  
HETATM   11  C   UNL     1     -10.349   7.396  70.289  1.00  0.00    -0.212 A  
HETATM   12  C   UNL     1     -10.357   5.581  71.848  1.00  0.00    -0.270 A  
HETATM   13  C   UNL     1     -10.153   5.132  69.472  1.00  0.00    -0.316 A  
HETATM   14  C   UNL     1     -10.220   4.679  70.794  1.00  0.00    -0.214 A  
BRANCH   7  15
HETATM   15  C   UNL     1     -10.296   9.571  67.325  1.00  0.00    -0.319 C  
HETATM   16  C   UNL     1     -11.282  11.711  66.541  1.00  0.00    -0.294 C  
HETATM   17  C   UNL     1      -8.992  11.140  65.919  1.00  0.00    -0.199 C  
HETATM   18  C   UNL     1      -8.903  10.152  67.083  1.00  0.00    -0.138 C  
HETATM   19  N   UNL     1      -9.963  12.228  66.123  1.00  0.00    -0.238 NA 
HETATM   20  C   UNL     1     -11.234  10.717  67.709  1.00  0.00    -0.383 C  
BRANCH  19  21
HETATM   21  C   UNL     1      -9.489  13.269  67.049  1.00  0.00    -0.243 C  
BRANCH  21  22
HETATM   22  C   UNL     1     -10.571  14.299  67.424  1.00  0.00    -0.276 C  
BRANCH  22  23
HETATM   23  C   UNL     1     -10.058  15.697  67.197  1.00  0.00    -0.256 A  
HETATM   24  C   UNL     1      -8.897  15.907  66.447  1.00  0.00    -0.368 A  
HETATM   25  C   UNL     1      -8.342  17.182  66.350  1.00  0.00    -0.315 A  
HETATM   26  C   UNL     1      -8.935  18.281  67.001  1.00  0.00    -0.274 A  
HETATM   27  C   UNL     1     -10.685  16.784  67.802  1.00  0.00    -0.321 A  
HETATM   28  C   UNL     1     -10.134  18.061  67.699  1.00  0.00    -0.352 A  
BRANCH  26  29
HETATM   29  C   UNL     1      -8.218  19.644  67.007  1.00  0.00    -0.319 C  
HETATM   30  C   UNL     1      -7.102  19.720  68.064  1.00  0.00    -0.277 C  
HETATM   31  C   UNL     1      -7.588  19.890  65.617  1.00  0.00    -0.242 C  
HETATM   32  C   UNL     1      -9.158  20.827  67.314  1.00  0.00    -0.328 C  
HETATM   33  O   UNL     1      -7.337  19.020  69.202  1.00  0.00    -0.320 OA 
HETATM   34  O   UNL     1      -6.094  20.402  67.954  1.00  0.00    -0.219 OA 
ENDBRANCH  26  29
ENDBRANCH  22  23
ENDBRANCH  21  22
ENDBRANCH  19  21
ENDBRANCH   7  15
ENDBRANCH   5   6
ENDBRANCH   4   5
ENDBRANCH   3   4
ENDBRANCH   2   3
TORSDOF 9
ENDMDL
MODEL       67
REMARK 921   NORMALIZED FREE ENERGY PREDICTED BY IDOCK:   -6.28 KCAL/MOL
REMARK 922        TOTAL FREE ENERGY PREDICTED BY IDOCK:   -9.77 KCAL/MOL
REMARK 923 INTER-LIGAND FREE ENERGY PREDICTED BY IDOCK:   -8.65 KCAL/MOL
REMARK 924 INTRA-LIGAND FREE ENERGY PREDICTED BY IDOCK:   -1.11 KCAL/MOL
REMARK 927      BINDING AFFINITY PREDICTED BY RF-SCORE:    0.00 PKD
ROOT
HETATM    1  C   UNL     1     -11.421  13.611  64.364  1.00  0.00    -0.410 C  
HETATM    2  C   UNL     1     -12.705  13.383  65.137  1.00  0.00    -0.399 C  
ENDROOT
BRANCH   2   3
HETATM    3  O   UNL     1     -12.740  14.213  66.304  1.00  0.00    -0.401 OA 
BRANCH   3   4
HETATM    4  C   UNL     1     -11.439  14.760  66.565  1.00  0.00    -0.327 C  
BRANCH   4   5
HETATM    5  C   UNL     1     -11.302  15.156  68.035  1.00  0.00    -0.337 C  
BRANCH   5   6
HETATM    6  N   UNL     1     -11.577  14.056  68.947  1.00  0.00    -0.291 NA 
HETATM    7  C   UNL     1     -11.127  12.748  68.858  1.00  0.00    -0.262 A  
HETATM    8  N   UNL     1     -11.575  12.029  69.869  1.00  0.00    -0.275 NA 
HETATM    9  C   UNL     1     -13.105  15.197  70.648  1.00  0.00    -0.385 A  
HETATM   10  C   UNL     1     -12.341  12.874  70.626  1.00  0.00    -0.302 A  
HETATM   11  C   UNL     1     -12.375  14.148  70.070  1.00  0.00    -0.344 A  
HETATM   12  C   UNL     1     -13.794  14.923  71.835  1.00  0.00    -0.557 A  
HETATM   13  C   UNL     1     -13.047  12.613  71.809  1.00  0.00    -0.461 A  
HETATM   14  C   UNL     1     -13.769  13.652  72.408  1.00  0.00    -0.697 A  
BRANCH   7  15
HETATM   15  C   UNL     1     -10.271  12.222  67.750  1.00  0.00    -0.206 C  
HETATM   16  C   UNL     1      -8.026  11.557  66.924  1.00  0.00    -0.164 C  
HETATM   17  C   UNL     1     -10.021  10.573  65.918  1.00  0.00    -0.254 C  
HETATM   18  C   UNL     1     -10.845  10.937  67.153  1.00  0.00    -0.337 C  
HETATM   19  N   UNL     1      -8.581  10.408  66.179  1.00  0.00    -0.140 NA 
HETATM   20  C   UNL     1      -8.826  11.951  68.173  1.00  0.00    -0.178 C  
BRANCH  19  21
HETATM   21  C   UNL     1      -8.250   9.139  66.847  1.00  0.00    -0.116 C  
BRANCH  21  22
HETATM   22  C   UNL     1      -8.944   7.915  66.221  1.00  0.00    -0.207 C  
BRANCH  22  23
HETATM   23  C   UNL     1      -8.954   6.768  67.198  1.00  0.00    -0.116 A  
HETATM   24  C   UNL     1      -7.823   6.494  67.973  1.00  0.00    -0.105 A  
HETATM   25  C   UNL     1      -7.778   5.355  68.774  1.00  0.00    -0.083 A  
HETATM   26  C   UNL     1      -8.864   4.460  68.823  1.00  0.00    -0.133 A  
HETATM   27  C   UNL     1     -10.057   5.921  67.277  1.00  0.00    -0.208 A  
HETATM   28  C   UNL     1     -10.015   4.785  68.086  1.00  0.00    -0.152 A  
BRANCH  26  29
HETATM   29  C   UNL     1      -8.728   3.134  69.593  1.00  0.00    -0.130 C  
HETATM   30  C   UNL     1      -9.556   3.116  70.890  1.00  0.00    -0.155 C  
HETATM   31  C   UNL     1      -9.210   1.974  68.693  1.00  0.00    -0.223 C  
HETATM   32  C   UNL     1      -7.280   2.824  70.025  1.00  0.00    -0.040 C  
HETATM   33  O   UNL     1      -9.667   4.312  71.521  1.00  0.00    -0.155 OA 
HETATM   34  O   UNL     1     -10.040   2.109  71.385  1.00  0.00    -0.104 OA 
ENDBRANCH  26  29
ENDBRANCH  22  23
ENDBRANCH  21  22
ENDBRANCH  19  21
ENDBRANCH   7  15
ENDBRANCH   5   6
ENDBRANCH   4   5
ENDBRANCH   3   4
ENDBRANCH   2   3
TORSDOF 9
ENDMDL
MODEL       68
REMARK 921   NORMALIZED FREE ENERGY PREDICTED BY IDOCK:   -6.27 KCAL/MOL
REMARK 922        TOTAL FREE ENERGY PREDICTED BY IDOCK:   -9.75 KCAL/MOL
REMARK 923 INTER-LIGAND FREE ENERGY PREDICTED BY IDOCK:   -8.65 KCAL/MOL
REMARK 924 INTRA-LIGAND FREE ENERGY PREDICTED BY IDOCK:   -1.10 KCAL/MOL
REMARK 927      BINDING AFFINITY PREDICTED BY RF-SCORE:    0.00 PKD
ROOT
HETATM    1  C   UNL     1     -12.442  11.878  63.469  1.00  0.00    -0.609 C  
HETATM    2  C   UNL     1     -12.128  13.339  63.214  1.00  0.00    -0.337 C  
ENDROOT
BRANCH   2   3
HETATM    3  O   UNL     1     -12.612  14.151  64.291  1.00  0.00    -0.676 OA 
BRANCH   3   4
HETATM    4  C   UNL     1     -12.718  13.373  65.492  1.00  0.00    -0.410 C  
BRANCH   4   5
HETATM    5  C   UNL     1     -12.202  14.161  66.696  1.00  0.00    -0.418 C  
BRANCH   5   6
HETATM    6  N   UNL     1     -10.753  14.284  66.714  1.00  0.00    -0.284 NA 
HETATM    7  C   UNL     1      -9.814  13.287  66.507  1.00  0.00    -0.281 A  
HETATM    8  N   UNL     1      -8.590  13.770  66.594  1.00  0.00    -0.026 NA 
HETATM    9  C   UNL     1     -10.478  16.764  67.269  1.00  0.00    -0.310 A  
HETATM   10  C   UNL     1      -8.727  15.103  66.877  1.00  0.00    -0.259 A  
HETATM   11  C   UNL     1     -10.069  15.456  66.973  1.00  0.00    -0.249 A  
HETATM   12  C   UNL     1      -9.477  17.725  67.450  1.00  0.00    -0.254 A  
HETATM   13  C   UNL     1      -7.737  16.076  67.073  1.00  0.00    -0.264 A  
HETATM   14  C   UNL     1      -8.127  17.390  67.355  1.00  0.00    -0.213 A  
BRANCH   7  15
HETATM   15  C   UNL     1     -10.148  11.853  66.244  1.00  0.00    -0.249 C  
HETATM   16  C   UNL     1      -9.692   9.752  65.002  1.00  0.00    -0.233 C  
HETATM   17  C   UNL     1     -10.746   9.647  67.201  1.00  0.00    -0.188 C  
HETATM   18  C   UNL     1     -10.221  11.043  67.538  1.00  0.00    -0.219 C  
HETATM   19  N   UNL     1      -9.942   8.925  66.200  1.00  0.00    -0.278 NA 
HETATM   20  C   UNL     1      -9.162  11.161  65.300  1.00  0.00    -0.218 C  
BRANCH  19  21
HETATM   21  C   UNL     1      -8.684   8.387  66.739  1.00  0.00    -0.128 C  
BRANCH  21  22
HETATM   22  C   UNL     1      -8.778   6.908  67.161  1.00  0.00    -0.120 C  
BRANCH  22  23
HETATM   23  C   UNL     1      -9.302   6.803  68.569  1.00  0.00    -0.126 A  
HETATM   24  C   UNL     1      -8.465   7.081  69.654  1.00  0.00    -0.134 A  
HETATM   25  C   UNL     1      -8.902   6.853  70.957  1.00  0.00    -0.140 A  
HETATM   26  C   UNL     1     -10.188   6.340  71.210  1.00  0.00    -0.238 A  
HETATM   27  C   UNL     1     -10.596   6.346  68.807  1.00  0.00    -0.295 A  
HETATM   28  C   UNL     1     -11.036   6.125  70.111  1.00  0.00    -0.448 A  
BRANCH  26  29
HETATM   29  C   UNL     1     -10.587   5.951  72.646  1.00  0.00    -0.255 C  
HETATM   30  C   UNL     1      -9.853   4.694  73.144  1.00  0.00    -0.143 C  
HETATM   31  C   UNL     1     -10.251   7.120  73.599  1.00  0.00    -0.402 C  
HETATM   32  C   UNL     1     -12.090   5.638  72.798  1.00  0.00     0.001 C  
HETATM   33  O   UNL     1      -9.583   3.767  72.191  1.00  0.00    -0.131 OA 
HETATM   34  O   UNL     1      -9.573   4.477  74.313  1.00  0.00    -0.116 OA 
ENDBRANCH  26  29
ENDBRANCH  22  23
ENDBRANCH  21  22
ENDBRANCH  19  21
ENDBRANCH   7  15
ENDBRANCH   5   6
ENDBRANCH   4   5
ENDBRANCH   3   4
ENDBRANCH   2   3
TORSDOF 9
ENDMDL
MODEL       69
REMARK 921   NORMALIZED FREE ENERGY PREDICTED BY IDOCK:   -6.25 KCAL/MOL
REMARK 922        TOTAL FREE ENERGY PREDICTED BY IDOCK:   -9.73 KCAL/MOL
REMARK 923 INTER-LIGAND FREE ENERGY PREDICTED BY IDOCK:   -8.96 KCAL/MOL
REMARK 924 INTRA-LIGAND FREE ENERGY PREDICTED BY IDOCK:   -0.77 KCAL/MOL
REMARK 927      BINDING AFFINITY PREDICTED BY RF-SCORE:    0.00 PKD
ROOT
HETATM    1  C   UNL     1     -11.969  12.381  63.845  1.00  0.00    -0.572 C  
HETATM    2  C   UNL     1     -10.859  11.373  63.623  1.00  0.00    -0.384 C  
ENDROOT
BRANCH   2   3
HETATM    3  O   UNL     1     -10.062  11.236  64.806  1.00  0.00    -0.248 OA 
BRANCH   3   4
HETATM    4  C   UNL     1     -10.365  10.001  65.470  1.00  0.00    -0.076 C  
BRANCH   4   5
HETATM    5  C   UNL     1      -9.363   9.728  66.592  1.00  0.00    -0.158 C  
BRANCH   5   6
HETATM    6  N   UNL     1      -9.998   9.285  67.824  1.00  0.00    -0.179 NA 
HETATM    7  C   UNL     1     -10.592  10.068  68.800  1.00  0.00    -0.217 A  
HETATM    8  N   UNL     1     -11.068   9.320  69.776  1.00  0.00    -0.197 NA 
HETATM    9  C   UNL     1      -9.656   6.758  67.672  1.00  0.00    -0.139 A  
HETATM   10  C   UNL     1     -10.770   8.026  69.441  1.00  0.00    -0.159 A  
HETATM   11  C   UNL     1     -10.087   7.969  68.231  1.00  0.00    -0.196 A  
HETATM   12  C   UNL     1      -9.955   5.583  68.373  1.00  0.00    -0.210 A  
HETATM   13  C   UNL     1     -11.051   6.841  70.136  1.00  0.00    -0.365 A  
HETATM   14  C   UNL     1     -10.641   5.621  69.586  1.00  0.00    -0.401 A  
BRANCH   7  15
HETATM   15  C   UNL     1     -10.659  11.562  68.762  1.00  0.00    -0.241 C  
HETATM   16  C   UNL     1      -9.502  13.740  68.476  1.00  0.00    -0.162 C  
HETATM   17  C   UNL     1     -11.888  13.570  67.989  1.00  0.00    -0.365 C  
HETATM   18  C   UNL     1     -11.765  12.054  67.828  1.00  0.00    -0.379 C  
HETATM   19  N   UNL     1     -10.641  14.308  67.726  1.00  0.00    -0.251 NA 
HETATM   20  C   UNL     1      -9.344  12.220  68.338  1.00  0.00    -0.162 C  
BRANCH  19  21
HETATM   21  C   UNL     1     -10.322  14.426  66.295  1.00  0.00    -0.295 C  
BRANCH  21  22
HETATM   22  C   UNL     1     -10.729  15.781  65.684  1.00  0.00    -0.360 C  
BRANCH  22  23
HETATM   23  C   UNL     1      -9.672  16.816  65.967  1.00  0.00    -0.287 A  
HETATM   24  C   UNL     1      -8.366  16.422  66.277  1.00  0.00    -0.362 A  
HETATM   25  C   UNL     1      -7.422  17.366  66.674  1.00  0.00    -0.289 A  
HETATM   26  C   UNL     1      -7.757  18.730  66.771  1.00  0.00    -0.252 A  
HETATM   27  C   UNL     1     -10.003  18.168  66.007  1.00  0.00    -0.220 A  
HETATM   28  C   UNL     1      -9.056  19.114  66.396  1.00  0.00    -0.362 A  
BRANCH  26  29
HETATM   29  C   UNL     1      -6.743  19.728  67.360  1.00  0.00    -0.238 C  
HETATM   30  C   UNL     1      -6.855  19.851  68.890  1.00  0.00    -0.324 C  
HETATM   31  C   UNL     1      -5.312  19.257  67.014  1.00  0.00    -0.161 C  
HETATM   32  C   UNL     1      -6.910  21.162  66.817  1.00  0.00    -0.274 C  
HETATM   33  O   UNL     1      -8.109  19.713  69.389  1.00  0.00    -0.180 OA 
HETATM   34  O   UNL     1      -5.921  20.119  69.630  1.00  0.00    -0.295 OA 
ENDBRANCH  26  29
ENDBRANCH  22  23
ENDBRANCH  21  22
ENDBRANCH  19  21
ENDBRANCH   7  15
ENDBRANCH   5   6
ENDBRANCH   4   5
ENDBRANCH   3   4
ENDBRANCH   2   3
TORSDOF 9
ENDMDL
MODEL       70
REMARK 921   NORMALIZED FREE ENERGY PREDICTED BY IDOCK:   -6.25 KCAL/MOL
REMARK 922        TOTAL FREE ENERGY PREDICTED BY IDOCK:   -9.73 KCAL/MOL
REMARK 923 INTER-LIGAND FREE ENERGY PREDICTED BY IDOCK:   -9.93 KCAL/MOL
REMARK 924 INTRA-LIGAND FREE ENERGY PREDICTED BY IDOCK:    0.20 KCAL/MOL
REMARK 927      BINDING AFFINITY PREDICTED BY RF-SCORE:    0.00 PKD
ROOT
HETATM    1  C   UNL     1     -10.704   5.780  66.735  1.00  0.00    -0.369 C  
HETATM    2  C   UNL     1      -9.626   6.846  66.739  1.00  0.00    -0.168 C  
ENDROOT
BRANCH   2   3
HETATM    3  O   UNL     1     -10.209   8.149  66.619  1.00  0.00    -0.292 OA 
BRANCH   3   4
HETATM    4  C   UNL     1      -9.245   9.081  66.112  1.00  0.00    -0.216 C  
BRANCH   4   5
HETATM    5  C   UNL     1      -9.047  10.242  67.086  1.00  0.00    -0.142 C  
BRANCH   5   6
HETATM    6  N   UNL     1     -10.142  10.379  68.035  1.00  0.00    -0.158 NA 
HETATM    7  C   UNL     1     -11.326  11.079  67.868  1.00  0.00    -0.311 A  
HETATM    8  N   UNL     1     -12.086  10.976  68.941  1.00  0.00    -0.511 NA 
HETATM    9  C   UNL     1      -9.240   9.048  70.021  1.00  0.00    -0.193 A  
HETATM   10  C   UNL     1     -11.384  10.208  69.831  1.00  0.00    -0.275 A  
HETATM   11  C   UNL     1     -10.155   9.829  69.301  1.00  0.00    -0.198 A  
HETATM   12  C   UNL     1      -9.615   8.638  71.306  1.00  0.00    -0.292 A  
HETATM   13  C   UNL     1     -11.739   9.799  71.124  1.00  0.00    -0.465 A  
HETATM   14  C   UNL     1     -10.843   9.007  71.852  1.00  0.00    -0.413 A  
BRANCH   7  15
HETATM   15  C   UNL     1     -11.679  11.863  66.645  1.00  0.00    -0.264 C  
HETATM   16  C   UNL     1     -12.570  13.949  65.634  1.00  0.00    -0.517 C  
HETATM   17  C   UNL     1     -11.029  12.554  64.356  1.00  0.00    -0.340 C  
HETATM   18  C   UNL     1     -10.525  11.899  65.643  1.00  0.00    -0.302 C  
HETATM   19  N   UNL     1     -11.577  13.908  64.541  1.00  0.00    -0.382 NA 
HETATM   20  C   UNL     1     -12.100  13.303  66.945  1.00  0.00    -0.389 C  
BRANCH  19  21
HETATM   21  C   UNL     1     -10.543  14.937  64.730  1.00  0.00    -0.308 C  
BRANCH  21  22
HETATM   22  C   UNL     1     -11.096  16.276  65.253  1.00  0.00    -0.156 C  
BRANCH  22  23
HETATM   23  C   UNL     1      -9.989  17.085  65.879  1.00  0.00    -0.239 A  
HETATM   24  C   UNL     1     -10.134  18.465  66.046  1.00  0.00    -0.293 A  
HETATM   25  C   UNL     1      -9.064  19.236  66.495  1.00  0.00    -0.383 A  
HETATM   26  C   UNL     1      -7.820  18.646  66.791  1.00  0.00    -0.258 A  
HETATM   27  C   UNL     1      -8.781  16.480  66.218  1.00  0.00    -0.369 A  
HETATM   28  C   UNL     1      -7.713  17.250  66.676  1.00  0.00    -0.298 A  
BRANCH  26  29
HETATM   29  C   UNL     1      -6.613  19.538  67.136  1.00  0.00    -0.209 C  
HETATM   30  C   UNL     1      -6.341  19.606  68.649  1.00  0.00    -0.269 C  
HETATM   31  C   UNL     1      -5.353  18.976  66.440  1.00  0.00    -0.171 C  
HETATM   32  C   UNL     1      -6.787  21.003  66.682  1.00  0.00    -0.287 C  
HETATM   33  O   UNL     1      -7.443  19.542  69.437  1.00  0.00    -0.318 OA 
HETATM   34  O   UNL     1      -5.236  19.771  69.144  1.00  0.00    -0.179 OA 
ENDBRANCH  26  29
ENDBRANCH  22  23
ENDBRANCH  21  22
ENDBRANCH  19  21
ENDBRANCH   7  15
ENDBRANCH   5   6
ENDBRANCH   4   5
ENDBRANCH   3   4
ENDBRANCH   2   3
TORSDOF 9
ENDMDL
MODEL       71
REMARK 921   NORMALIZED FREE ENERGY PREDICTED BY IDOCK:   -6.25 KCAL/MOL
REMARK 922        TOTAL FREE ENERGY PREDICTED BY IDOCK:   -9.72 KCAL/MOL
REMARK 923 INTER-LIGAND FREE ENERGY PREDICTED BY IDOCK:   -8.46 KCAL/MOL
REMARK 924 INTRA-LIGAND FREE ENERGY PREDICTED BY IDOCK:   -1.26 KCAL/MOL
REMARK 927      BINDING AFFINITY PREDICTED BY RF-SCORE:    0.00 PKD
ROOT
HETATM    1  C   UNL     1     -12.201  12.941  63.424  1.00  0.00    -0.574 C  
HETATM    2  C   UNL     1     -12.193  14.161  64.324  1.00  0.00    -0.420 C  
ENDROOT
BRANCH   2   3
HETATM    3  O   UNL     1     -10.935  14.841  64.233  1.00  0.00    -0.146 OA 
BRANCH   3   4
HETATM    4  C   UNL     1     -11.077  16.208  64.647  1.00  0.00    -0.296 C  
BRANCH   4   5
HETATM    5  C   UNL     1     -10.857  16.343  66.154  1.00  0.00    -0.075 C  
BRANCH   5   6
HETATM    6  N   UNL     1      -9.557  15.851  66.584  1.00  0.00    -0.232 NA 
HETATM    7  C   UNL     1      -9.234  14.575  67.016  1.00  0.00    -0.240 A  
HETATM    8  N   UNL     1      -7.953  14.494  67.321  1.00  0.00    -0.201 NA 
HETATM    9  C   UNL     1      -8.134  17.962  66.361  1.00  0.00    -0.296 A  
HETATM   10  C   UNL     1      -7.431  15.740  67.098  1.00  0.00    -0.224 A  
HETATM   11  C   UNL     1      -8.410  16.618  66.649  1.00  0.00    -0.261 A  
HETATM   12  C   UNL     1      -6.813  18.396  66.523  1.00  0.00    -0.239 A  
HETATM   13  C   UNL     1      -6.115  16.194  67.266  1.00  0.00    -0.167 A  
HETATM   14  C   UNL     1      -5.817  17.529  66.969  1.00  0.00    -0.178 A  
BRANCH   7  15
HETATM   15  C   UNL     1     -10.213  13.453  67.143  1.00  0.00    -0.247 C  
HETATM   16  C   UNL     1     -10.843  11.106  66.630  1.00  0.00    -0.253 C  
HETATM   17  C   UNL     1     -11.753  12.190  68.618  1.00  0.00    -0.330 C  
HETATM   18  C   UNL     1     -10.621  13.218  68.598  1.00  0.00    -0.264 C  
HETATM   19  N   UNL     1     -11.417  10.908  67.977  1.00  0.00    -0.458 NA 
HETATM   20  C   UNL     1      -9.702  12.130  66.569  1.00  0.00    -0.234 C  
BRANCH  19  21
HETATM   21  C   UNL     1     -10.546  10.054  68.799  1.00  0.00    -0.217 C  
BRANCH  21  22
HETATM   22  C   UNL     1     -10.519   8.583  68.343  1.00  0.00    -0.215 C  
BRANCH  22  23
HETATM   23  C   UNL     1     -10.308   7.677  69.528  1.00  0.00    -0.217 A  
HETATM   24  C   UNL     1     -11.173   6.603  69.757  1.00  0.00    -0.413 A  
HETATM   25  C   UNL     1     -11.066   5.848  70.923  1.00  0.00    -0.312 A  
HETATM   26  C   UNL     1     -10.089   6.146  71.891  1.00  0.00    -0.216 A  
HETATM   27  C   UNL     1      -9.302   7.949  70.452  1.00  0.00    -0.159 A  
HETATM   28  C   UNL     1      -9.188   7.189  71.615  1.00  0.00    -0.149 A  
BRANCH  26  29
HETATM   29  C   UNL     1     -10.092   5.397  73.237  1.00  0.00    -0.198 C  
HETATM   30  C   UNL     1      -8.887   4.452  73.390  1.00  0.00    -0.101 C  
HETATM   31  C   UNL     1     -10.053   6.426  74.389  1.00  0.00    -0.367 C  
HETATM   32  C   UNL     1     -11.338   4.511  73.440  1.00  0.00    -0.376 C  
HETATM   33  O   UNL     1      -8.455   3.876  72.241  1.00  0.00    -0.091 OA 
HETATM   34  O   UNL     1      -8.368   4.165  74.459  1.00  0.00    -0.089 OA 
ENDBRANCH  26  29
ENDBRANCH  22  23
ENDBRANCH  21  22
ENDBRANCH  19  21
ENDBRANCH   7  15
ENDBRANCH   5   6
ENDBRANCH   4   5
ENDBRANCH   3   4
ENDBRANCH   2   3
TORSDOF 9
ENDMDL
MODEL       72
REMARK 921   NORMALIZED FREE ENERGY PREDICTED BY IDOCK:   -6.24 KCAL/MOL
REMARK 922        TOTAL FREE ENERGY PREDICTED BY IDOCK:   -9.71 KCAL/MOL
REMARK 923 INTER-LIGAND FREE ENERGY PREDICTED BY IDOCK:   -8.43 KCAL/MOL
REMARK 924 INTRA-LIGAND FREE ENERGY PREDICTED BY IDOCK:   -1.28 KCAL/MOL
REMARK 927      BINDING AFFINITY PREDICTED BY RF-SCORE:    0.00 PKD
ROOT
HETATM    1  C   UNL     1      -8.327   8.806  63.287  1.00  0.00    -0.161 C  
HETATM    2  C   UNL     1      -7.664   7.444  63.343  1.00  0.00    -0.125 C  
ENDROOT
BRANCH   2   3
HETATM    3  O   UNL     1      -7.076   7.226  64.631  1.00  0.00    -0.053 OA 
BRANCH   3   4
HETATM    4  C   UNL     1      -8.100   7.030  65.618  1.00  0.00    -0.129 C  
BRANCH   4   5
HETATM    5  C   UNL     1      -7.498   6.988  67.022  1.00  0.00    -0.094 C  
BRANCH   5   6
HETATM    6  N   UNL     1      -8.507   6.967  68.071  1.00  0.00    -0.124 NA 
HETATM    7  C   UNL     1      -9.324   8.007  68.482  1.00  0.00    -0.142 A  
HETATM    8  N   UNL     1     -10.121   7.618  69.458  1.00  0.00    -0.187 NA 
HETATM    9  C   UNL     1      -8.287   4.565  68.916  1.00  0.00    -0.086 A  
HETATM   10  C   UNL     1      -9.813   6.307  69.700  1.00  0.00    -0.163 A  
HETATM   11  C   UNL     1      -8.796   5.870  68.859  1.00  0.00    -0.115 A  
HETATM   12  C   UNL     1      -8.857   3.692  69.850  1.00  0.00    -0.151 A  
HETATM   13  C   UNL     1     -10.365   5.423  70.639  1.00  0.00    -0.333 A  
HETATM   14  C   UNL     1      -9.880   4.112  70.700  1.00  0.00    -0.249 A  
BRANCH   7  15
HETATM   15  C   UNL     1      -9.286   9.388  67.911  1.00  0.00    -0.142 C  
HETATM   16  C   UNL     1     -10.137  11.036  66.260  1.00  0.00    -0.235 C  
HETATM   17  C   UNL     1      -9.173  11.823  68.359  1.00  0.00    -0.175 C  
HETATM   18  C   UNL     1      -9.407  10.454  69.000  1.00  0.00    -0.201 C  
HETATM   19  N   UNL     1     -10.087  12.133  67.247  1.00  0.00    -0.202 NA 
HETATM   20  C   UNL     1     -10.373   9.646  66.866  1.00  0.00    -0.307 C  
BRANCH  19  21
HETATM   21  C   UNL     1     -11.440  12.505  67.689  1.00  0.00    -0.334 C  
BRANCH  21  22
HETATM   22  C   UNL     1     -12.138  13.512  66.755  1.00  0.00    -0.425 C  
BRANCH  22  23
HETATM   23  C   UNL     1     -11.418  14.835  66.788  1.00  0.00    -0.343 A  
HETATM   24  C   UNL     1     -11.319  15.553  67.983  1.00  0.00    -0.332 A  
HETATM   25  C   UNL     1     -10.777  16.836  67.991  1.00  0.00    -0.355 A  
HETATM   26  C   UNL     1     -10.318  17.436  66.803  1.00  0.00    -0.305 A  
HETATM   27  C   UNL     1     -10.919  15.394  65.614  1.00  0.00    -0.330 A  
HETATM   28  C   UNL     1     -10.369  16.676  65.623  1.00  0.00    -0.310 A  
BRANCH  26  29
HETATM   29  C   UNL     1      -9.870  18.909  66.814  1.00  0.00    -0.387 C  
HETATM   30  C   UNL     1      -8.365  19.071  66.531  1.00  0.00    -0.305 C  
HETATM   31  C   UNL     1     -10.653  19.685  65.730  1.00  0.00    -0.537 C  
HETATM   32  C   UNL     1     -10.113  19.612  68.165  1.00  0.00    -0.556 C  
HETATM   33  O   UNL     1      -7.579  18.070  67.002  1.00  0.00    -0.206 OA 
HETATM   34  O   UNL     1      -7.867  20.044  65.986  1.00  0.00    -0.328 OA 
ENDBRANCH  26  29
ENDBRANCH  22  23
ENDBRANCH  21  22
ENDBRANCH  19  21
ENDBRANCH   7  15
ENDBRANCH   5   6
ENDBRANCH   4   5
ENDBRANCH   3   4
ENDBRANCH   2   3
TORSDOF 9
ENDMDL
MODEL       73
REMARK 921   NORMALIZED FREE ENERGY PREDICTED BY IDOCK:   -6.21 KCAL/MOL
REMARK 922        TOTAL FREE ENERGY PREDICTED BY IDOCK:   -9.66 KCAL/MOL
REMARK 923 INTER-LIGAND FREE ENERGY PREDICTED BY IDOCK:   -9.06 KCAL/MOL
REMARK 924 INTRA-LIGAND FREE ENERGY PREDICTED BY IDOCK:   -0.59 KCAL/MOL
REMARK 927      BINDING AFFINITY PREDICTED BY RF-SCORE:    0.00 PKD
ROOT
HETATM    1  C   UNL     1      -6.728  11.155  65.926  1.00  0.00     0.112 C  
HETATM    2  C   UNL     1      -7.544  10.013  66.499  1.00  0.00    -0.106 C  
ENDROOT
BRANCH   2   3
HETATM    3  O   UNL     1      -7.235   9.823  67.885  1.00  0.00    -0.083 OA 
BRANCH   3   4
HETATM    4  C   UNL     1      -8.402   9.397  68.602  1.00  0.00    -0.117 C  
BRANCH   4   5
HETATM    5  C   UNL     1      -9.061  10.578  69.316  1.00  0.00    -0.145 C  
BRANCH   5   6
HETATM    6  N   UNL     1     -10.277  10.206  70.023  1.00  0.00    -0.248 NA 
HETATM    7  C   UNL     1     -11.566  10.653  69.786  1.00  0.00    -0.309 A  
HETATM    8  N   UNL     1     -12.418  10.094  70.624  1.00  0.00    -0.300 NA 
HETATM    9  C   UNL     1      -9.351   8.600  71.782  1.00  0.00    -0.343 A  
HETATM   10  C   UNL     1     -11.673   9.278  71.433  1.00  0.00    -0.361 A  
HETATM   11  C   UNL     1     -10.326   9.335  71.094  1.00  0.00    -0.322 A  
HETATM   12  C   UNL     1      -9.784   7.777  72.828  1.00  0.00    -0.292 A  
HETATM   13  C   UNL     1     -12.089   8.458  72.492  1.00  0.00    -0.403 A  
HETATM   14  C   UNL     1     -11.131   7.706  73.181  1.00  0.00    -0.373 A  
BRANCH   7  15
HETATM   15  C   UNL     1     -11.935  11.652  68.736  1.00  0.00    -0.326 C  
HETATM   16  C   UNL     1     -12.096  14.023  68.014  1.00  0.00    -0.277 C  
HETATM   17  C   UNL     1     -11.884  12.264  66.335  1.00  0.00    -0.311 C  
HETATM   18  C   UNL     1     -11.311  11.308  67.383  1.00  0.00    -0.349 C  
HETATM   19  N   UNL     1     -11.673  13.689  66.638  1.00  0.00    -0.366 NA 
HETATM   20  C   UNL     1     -11.540  13.087  69.095  1.00  0.00    -0.368 C  
BRANCH  19  21
HETATM   21  C   UNL     1     -10.296  14.143  66.387  1.00  0.00    -0.287 C  
BRANCH  21  22
HETATM   22  C   UNL     1     -10.212  15.369  65.458  1.00  0.00    -0.411 C  
BRANCH  22  23
HETATM   23  C   UNL     1      -9.330  16.425  66.072  1.00  0.00    -0.335 A  
HETATM   24  C   UNL     1      -9.741  17.761  66.092  1.00  0.00    -0.230 A  
HETATM   25  C   UNL     1      -8.873  18.758  66.532  1.00  0.00    -0.315 A  
HETATM   26  C   UNL     1      -7.570  18.445  66.965  1.00  0.00    -0.233 A  
HETATM   27  C   UNL     1      -8.064  16.094  66.549  1.00  0.00    -0.331 A  
HETATM   28  C   UNL     1      -7.198  17.090  66.997  1.00  0.00    -0.224 A  
BRANCH  26  29
HETATM   29  C   UNL     1      -6.582  19.578  67.298  1.00  0.00    -0.209 C  
HETATM   30  C   UNL     1      -6.454  19.826  68.812  1.00  0.00    -0.291 C  
HETATM   31  C   UNL     1      -5.186  19.209  66.746  1.00  0.00    -0.161 C  
HETATM   32  C   UNL     1      -6.984  20.937  66.690  1.00  0.00    -0.285 C  
HETATM   33  O   UNL     1      -7.588  19.620  69.527  1.00  0.00    -0.237 OA 
HETATM   34  O   UNL     1      -5.444  20.241  69.359  1.00  0.00    -0.224 OA 
ENDBRANCH  26  29
ENDBRANCH  22  23
ENDBRANCH  21  22
ENDBRANCH  19  21
ENDBRANCH   7  15
ENDBRANCH   5   6
ENDBRANCH   4   5
ENDBRANCH   3   4
ENDBRANCH   2   3
TORSDOF 9
ENDMDL
MODEL       74
REMARK 921   NORMALIZED FREE ENERGY PREDICTED BY IDOCK:   -6.18 KCAL/MOL
REMARK 922        TOTAL FREE ENERGY PREDICTED BY IDOCK:   -9.61 KCAL/MOL
REMARK 923 INTER-LIGAND FREE ENERGY PREDICTED BY IDOCK:   -8.37 KCAL/MOL
REMARK 924 INTRA-LIGAND FREE ENERGY PREDICTED BY IDOCK:   -1.25 KCAL/MOL
REMARK 927      BINDING AFFINITY PREDICTED BY RF-SCORE:    0.00 PKD
ROOT
HETATM    1  C   UNL     1     -11.120  18.238  67.682  1.00  0.00     0.048 C  
HETATM    2  C   UNL     1     -10.738  19.499  66.932  1.00  0.00    -0.464 C  
ENDROOT
BRANCH   2   3
HETATM    3  O   UNL     1      -9.811  20.276  67.701  1.00  0.00    -0.400 OA 
BRANCH   3   4
HETATM    4  C   UNL     1      -9.301  19.503  68.796  1.00  0.00    -0.363 C  
BRANCH   4   5
HETATM    5  C   UNL     1      -7.780  19.385  68.716  1.00  0.00    -0.362 C  
BRANCH   5   6
HETATM    6  N   UNL     1      -7.317  18.866  67.438  1.00  0.00    -0.224 NA 
HETATM    7  C   UNL     1      -7.455  17.578  66.946  1.00  0.00    -0.202 A  
HETATM    8  N   UNL     1      -6.916  17.474  65.747  1.00  0.00    -0.320 NA 
HETATM    9  C   UNL     1      -6.185  20.932  66.449  1.00  0.00    -0.312 A  
HETATM   10  C   UNL     1      -6.404  18.710  65.453  1.00  0.00    -0.279 A  
HETATM   11  C   UNL     1      -6.625  19.602  66.497  1.00  0.00    -0.186 A  
HETATM   12  C   UNL     1      -5.521  21.349  65.290  1.00  0.00    -0.110 A  
HETATM   13  C   UNL     1      -5.726  19.141  64.304  1.00  0.00    -0.321 A  
HETATM   14  C   UNL     1      -5.292  20.469  64.233  1.00  0.00    -0.230 A  
BRANCH   7  15
HETATM   15  C   UNL     1      -8.105  16.455  67.688  1.00  0.00    -0.170 C  
HETATM   16  C   UNL     1      -9.541  14.428  67.657  1.00  0.00    -0.214 C  
HETATM   17  C   UNL     1      -7.880  14.701  69.424  1.00  0.00    -0.028 C  
HETATM   18  C   UNL     1      -7.106  15.703  68.567  1.00  0.00    -0.116 C  
HETATM   19  N   UNL     1      -8.691  13.744  68.652  1.00  0.00    -0.107 NA 
HETATM   20  C   UNL     1      -8.798  15.441  66.775  1.00  0.00    -0.300 C  
BRANCH  19  21
HETATM   21  C   UNL     1      -7.895  12.680  68.022  1.00  0.00    -0.149 C  
BRANCH  21  22
HETATM   22  C   UNL     1      -8.746  11.633  67.279  1.00  0.00    -0.159 C  
BRANCH  22  23
HETATM   23  C   UNL     1      -9.458  10.747  68.269  1.00  0.00    -0.164 A  
HETATM   24  C   UNL     1     -10.851  10.637  68.240  1.00  0.00    -0.287 A  
HETATM   25  C   UNL     1     -11.522   9.931  69.236  1.00  0.00    -0.046 A  
HETATM   26  C   UNL     1     -10.817   9.315  70.288  1.00  0.00    -0.286 A  
HETATM   27  C   UNL     1      -8.743  10.098  69.273  1.00  0.00    -0.186 A  
HETATM   28  C   UNL     1      -9.414   9.384  70.265  1.00  0.00    -0.294 A  
BRANCH  26  29
HETATM   29  C   UNL     1     -11.590   8.676  71.456  1.00  0.00    -0.368 C  
HETATM   30  C   UNL     1     -12.733   9.570  71.968  1.00  0.00    -0.396 C  
HETATM   31  C   UNL     1     -12.197   7.334  70.987  1.00  0.00    -0.350 C  
HETATM   32  C   UNL     1     -10.708   8.388  72.688  1.00  0.00    -0.312 C  
HETATM   33  O   UNL     1     -12.497  10.904  71.899  1.00  0.00    -0.233 OA 
HETATM   34  O   UNL     1     -13.766   9.151  72.468  1.00  0.00    -0.474 OA 
ENDBRANCH  26  29
ENDBRANCH  22  23
ENDBRANCH  21  22
ENDBRANCH  19  21
ENDBRANCH   7  15
ENDBRANCH   5   6
ENDBRANCH   4   5
ENDBRANCH   3   4
ENDBRANCH   2   3
TORSDOF 9
ENDMDL
MODEL       75
REMARK 921   NORMALIZED FREE ENERGY PREDICTED BY IDOCK:   -6.17 KCAL/MOL
REMARK 922        TOTAL FREE ENERGY PREDICTED BY IDOCK:   -9.60 KCAL/MOL
REMARK 923 INTER-LIGAND FREE ENERGY PREDICTED BY IDOCK:   -8.40 KCAL/MOL
REMARK 924 INTRA-LIGAND FREE ENERGY PREDICTED BY IDOCK:   -1.20 KCAL/MOL
REMARK 927      BINDING AFFINITY PREDICTED BY RF-SCORE:    0.00 PKD
ROOT
HETATM    1  C   UNL     1     -12.855  11.136  71.382  1.00  0.00    -0.544 C  
HETATM    2  C   UNL     1     -12.801   9.678  71.797  1.00  0.00    -0.421 C  
ENDROOT
BRANCH   2   3
HETATM    3  O   UNL     1     -11.872   8.959  70.977  1.00  0.00    -0.283 OA 
BRANCH   3   4
HETATM    4  C   UNL     1     -11.744   7.607  71.440  1.00  0.00    -0.283 C  
BRANCH   4   5
HETATM    5  C   UNL     1     -10.287   7.150  71.383  1.00  0.00    -0.196 C  
BRANCH   5   6
HETATM    6  N   UNL     1     -10.148   5.703  71.312  1.00  0.00    -0.198 NA 
HETATM    7  C   UNL     1      -9.866   4.932  70.196  1.00  0.00    -0.239 A  
HETATM    8  N   UNL     1      -9.811   3.653  70.512  1.00  0.00    -0.128 NA 
HETATM    9  C   UNL     1     -10.608   5.045  73.738  1.00  0.00    -0.330 A  
HETATM   10  C   UNL     1     -10.074   3.582  71.853  1.00  0.00    -0.098 A  
HETATM   11  C   UNL     1     -10.303   4.847  72.384  1.00  0.00    -0.204 A  
HETATM   12  C   UNL     1     -10.657   3.913  74.559  1.00  0.00    -0.209 A  
HETATM   13  C   UNL     1     -10.138   2.457  72.688  1.00  0.00    -0.224 A  
HETATM   14  C   UNL     1     -10.428   2.638  74.046  1.00  0.00    -0.226 A  
BRANCH   7  15
HETATM   15  C   UNL     1      -9.677   5.478  68.817  1.00  0.00    -0.190 C  
HETATM   16  C   UNL     1     -10.599   6.708  66.866  1.00  0.00    -0.306 C  
HETATM   17  C   UNL     1      -8.187   6.675  67.239  1.00  0.00    -0.121 C  
HETATM   18  C   UNL     1      -8.401   6.314  68.710  1.00  0.00    -0.120 C  
HETATM   19  N   UNL     1      -9.314   7.395  66.623  1.00  0.00    -0.163 NA 
HETATM   20  C   UNL     1     -10.851   6.331  68.332  1.00  0.00    -0.394 C  
BRANCH  19  21
HETATM   21  C   UNL     1      -9.391   8.810  67.021  1.00  0.00    -0.157 C  
BRANCH  21  22
HETATM   22  C   UNL     1     -10.629   9.539  66.464  1.00  0.00    -0.133 C  
BRANCH  22  23
HETATM   23  C   UNL     1     -10.798  10.870  67.149  1.00  0.00    -0.337 A  
HETATM   24  C   UNL     1     -11.400  11.936  66.476  1.00  0.00    -0.403 A  
HETATM   25  C   UNL     1     -11.434  13.204  67.053  1.00  0.00    -0.379 A  
HETATM   26  C   UNL     1     -10.867  13.439  68.320  1.00  0.00    -0.275 A  
HETATM   27  C   UNL     1     -10.280  11.075  68.426  1.00  0.00    -0.198 A  
HETATM   28  C   UNL     1     -10.322  12.341  69.008  1.00  0.00     0.008 A  
BRANCH  26  29
HETATM   29  C   UNL     1     -10.780  14.876  68.865  1.00  0.00    -0.245 C  
HETATM   30  C   UNL     1     -11.691  15.102  70.085  1.00  0.00    -0.307 C  
HETATM   31  C   UNL     1      -9.323  15.171  69.286  1.00  0.00    -0.207 C  
HETATM   32  C   UNL     1     -11.198  15.946  67.835  1.00  0.00    -0.297 C  
HETATM   33  O   UNL     1     -12.851  14.399  70.077  1.00  0.00    -0.239 OA 
HETATM   34  O   UNL     1     -11.456  15.896  70.984  1.00  0.00    -0.363 OA 
ENDBRANCH  26  29
ENDBRANCH  22  23
ENDBRANCH  21  22
ENDBRANCH  19  21
ENDBRANCH   7  15
ENDBRANCH   5   6
ENDBRANCH   4   5
ENDBRANCH   3   4
ENDBRANCH   2   3
TORSDOF 9
ENDMDL
MODEL       76
REMARK 921   NORMALIZED FREE ENERGY PREDICTED BY IDOCK:   -6.16 KCAL/MOL
REMARK 922        TOTAL FREE ENERGY PREDICTED BY IDOCK:   -9.58 KCAL/MOL
REMARK 923 INTER-LIGAND FREE ENERGY PREDICTED BY IDOCK:   -9.00 KCAL/MOL
REMARK 924 INTRA-LIGAND FREE ENERGY PREDICTED BY IDOCK:   -0.58 KCAL/MOL
REMARK 927      BINDING AFFINITY PREDICTED BY RF-SCORE:    0.00 PKD
ROOT
HETATM    1  C   UNL     1      -6.496   6.903  71.174  1.00  0.00    -0.041 C  
HETATM    2  C   UNL     1      -6.850   7.278  69.748  1.00  0.00    -0.053 C  
ENDROOT
BRANCH   2   3
HETATM    3  O   UNL     1      -7.942   6.479  69.277  1.00  0.00    -0.108 OA 
BRANCH   3   4
HETATM    4  C   UNL     1      -8.349   6.912  67.971  1.00  0.00    -0.121 C  
BRANCH   4   5
HETATM    5  C   UNL     1      -9.868   7.057  67.896  1.00  0.00    -0.138 C  
BRANCH   5   6
HETATM    6  N   UNL     1     -10.399   7.990  68.878  1.00  0.00    -0.211 NA 
HETATM    7  C   UNL     1     -10.427   9.373  68.806  1.00  0.00    -0.212 A  
HETATM    8  N   UNL     1     -10.990   9.887  69.882  1.00  0.00    -0.264 NA 
HETATM    9  C   UNL     1     -11.176   6.385  70.709  1.00  0.00    -0.386 A  
HETATM   10  C   UNL     1     -11.324   8.825  70.679  1.00  0.00    -0.254 A  
HETATM   11  C   UNL     1     -10.955   7.622  70.088  1.00  0.00    -0.246 A  
HETATM   12  C   UNL     1     -11.808   6.396  71.958  1.00  0.00    -0.382 A  
HETATM   13  C   UNL     1     -11.945   8.819  71.936  1.00  0.00    -0.435 A  
HETATM   14  C   UNL     1     -12.187   7.593  72.565  1.00  0.00    -0.142 A  
BRANCH   7  15
HETATM   15  C   UNL     1      -9.870  10.171  67.671  1.00  0.00    -0.201 C  
HETATM   16  C   UNL     1      -9.982  10.847  65.284  1.00  0.00    -0.273 C  
HETATM   17  C   UNL     1      -8.939  12.338  66.910  1.00  0.00    -0.207 C  
HETATM   18  C   UNL     1      -9.679  11.639  68.052  1.00  0.00    -0.182 C  
HETATM   19  N   UNL     1      -9.613  12.241  65.604  1.00  0.00    -0.189 NA 
HETATM   20  C   UNL     1     -10.728  10.112  66.405  1.00  0.00    -0.077 C  
BRANCH  19  21
HETATM   21  C   UNL     1     -10.775  13.134  65.478  1.00  0.00    -0.283 C  
BRANCH  21  22
HETATM   22  C   UNL     1     -11.319  13.631  66.831  1.00  0.00    -0.345 C  
BRANCH  22  23
HETATM   23  C   UNL     1     -11.039  15.102  66.995  1.00  0.00    -0.328 A  
HETATM   24  C   UNL     1     -10.463  15.829  65.949  1.00  0.00    -0.366 A  
HETATM   25  C   UNL     1     -10.075  17.153  66.142  1.00  0.00    -0.317 A  
HETATM   26  C   UNL     1     -10.255  17.786  67.387  1.00  0.00    -0.353 A  
HETATM   27  C   UNL     1     -11.272  15.731  68.215  1.00  0.00    -0.356 A  
HETATM   28  C   UNL     1     -10.892  17.059  68.406  1.00  0.00    -0.333 A  
BRANCH  26  29
HETATM   29  C   UNL     1      -9.678  19.195  67.618  1.00  0.00    -0.391 C  
HETATM   30  C   UNL     1      -8.167  19.174  67.913  1.00  0.00    -0.290 C  
HETATM   31  C   UNL     1      -9.915  20.053  66.355  1.00  0.00    -0.601 C  
HETATM   32  C   UNL     1     -10.321  19.930  68.813  1.00  0.00    -0.356 C  
HETATM   33  O   UNL     1      -7.729  18.090  68.599  1.00  0.00    -0.292 OA 
HETATM   34  O   UNL     1      -7.397  20.078  67.626  1.00  0.00    -0.268 OA 
ENDBRANCH  26  29
ENDBRANCH  22  23
ENDBRANCH  21  22
ENDBRANCH  19  21
ENDBRANCH   7  15
ENDBRANCH   5   6
ENDBRANCH   4   5
ENDBRANCH   3   4
ENDBRANCH   2   3
TORSDOF 9
ENDMDL
MODEL       77
REMARK 921   NORMALIZED FREE ENERGY PREDICTED BY IDOCK:   -6.15 KCAL/MOL
REMARK 922        TOTAL FREE ENERGY PREDICTED BY IDOCK:   -9.58 KCAL/MOL
REMARK 923 INTER-LIGAND FREE ENERGY PREDICTED BY IDOCK:   -8.47 KCAL/MOL
REMARK 924 INTRA-LIGAND FREE ENERGY PREDICTED BY IDOCK:   -1.10 KCAL/MOL
REMARK 927      BINDING AFFINITY PREDICTED BY RF-SCORE:    0.00 PKD
ROOT
HETATM    1  C   UNL     1      -8.513   1.522  65.246  1.00  0.00    -0.090 C  
HETATM    2  C   UNL     1      -8.864   1.913  66.668  1.00  0.00    -0.123 C  
ENDROOT
BRANCH   2   3
HETATM    3  O   UNL     1      -7.869   2.791  67.206  1.00  0.00    -0.069 OA 
BRANCH   3   4
HETATM    4  C   UNL     1      -8.465   3.711  68.133  1.00  0.00    -0.093 C  
BRANCH   4   5
HETATM    5  C   UNL     1      -9.590   4.501  67.465  1.00  0.00    -0.172 C  
BRANCH   5   6
HETATM    6  N   UNL     1      -9.139   5.763  66.900  1.00  0.00    -0.116 NA 
HETATM    7  C   UNL     1      -9.150   7.012  67.500  1.00  0.00    -0.122 A  
HETATM    8  N   UNL     1      -8.659   7.927  66.686  1.00  0.00    -0.129 NA 
HETATM    9  C   UNL     1      -8.406   5.024  64.567  1.00  0.00    -0.135 A  
HETATM   10  C   UNL     1      -8.332   7.270  65.530  1.00  0.00    -0.133 A  
HETATM   11  C   UNL     1      -8.633   5.915  65.624  1.00  0.00    -0.155 A  
HETATM   12  C   UNL     1      -7.839   5.544  63.398  1.00  0.00    -0.096 A  
HETATM   13  C   UNL     1      -7.775   7.776  64.347  1.00  0.00    -0.123 A  
HETATM   14  C   UNL     1      -7.528   6.898  63.286  1.00  0.00    -0.087 A  
BRANCH   7  15
HETATM   15  C   UNL     1      -9.673   7.286  68.873  1.00  0.00    -0.148 C  
HETATM   16  C   UNL     1      -9.950   8.861  70.774  1.00  0.00    -0.226 C  
HETATM   17  C   UNL     1     -11.550   7.043  70.472  1.00  0.00    -0.319 C  
HETATM   18  C   UNL     1     -11.149   6.909  69.003  1.00  0.00    -0.188 C  
HETATM   19  N   UNL     1     -11.321   8.381  71.042  1.00  0.00    -0.262 NA 
HETATM   20  C   UNL     1      -9.511   8.744  69.308  1.00  0.00    -0.161 C  
BRANCH  19  21
HETATM   21  C   UNL     1     -12.319   9.376  70.617  1.00  0.00    -0.034 C  
BRANCH  21  22
HETATM   22  C   UNL     1     -11.840  10.832  70.773  1.00  0.00    -0.443 C  
BRANCH  22  23
HETATM   23  C   UNL     1     -11.830  11.520  69.433  1.00  0.00    -0.417 A  
HETATM   24  C   UNL     1     -11.533  10.799  68.273  1.00  0.00    -0.353 A  
HETATM   25  C   UNL     1     -11.387  11.455  67.053  1.00  0.00    -0.309 A  
HETATM   26  C   UNL     1     -11.535  12.852  66.960  1.00  0.00    -0.390 A  
HETATM   27  C   UNL     1     -12.032  12.896  69.346  1.00  0.00    -0.327 A  
HETATM   28  C   UNL     1     -11.894  13.552  68.124  1.00  0.00    -0.400 A  
BRANCH  26  29
HETATM   29  C   UNL     1     -11.216  13.569  65.635  1.00  0.00    -0.304 C  
HETATM   30  C   UNL     1     -12.458  13.745  64.744  1.00  0.00    -0.349 C  
HETATM   31  C   UNL     1     -10.636  14.968  65.943  1.00  0.00    -0.338 C  
HETATM   32  C   UNL     1     -10.189  12.815  64.765  1.00  0.00    -0.304 C  
HETATM   33  O   UNL     1     -13.373  12.747  64.826  1.00  0.00    -0.736 OA 
HETATM   34  O   UNL     1     -12.618  14.667  63.958  1.00  0.00    -0.819 OA 
ENDBRANCH  26  29
ENDBRANCH  22  23
ENDBRANCH  21  22
ENDBRANCH  19  21
ENDBRANCH   7  15
ENDBRANCH   5   6
ENDBRANCH   4   5
ENDBRANCH   3   4
ENDBRANCH   2   3
TORSDOF 9
ENDMDL
MODEL       78
REMARK 921   NORMALIZED FREE ENERGY PREDICTED BY IDOCK:   -6.15 KCAL/MOL
REMARK 922        TOTAL FREE ENERGY PREDICTED BY IDOCK:   -9.57 KCAL/MOL
REMARK 923 INTER-LIGAND FREE ENERGY PREDICTED BY IDOCK:   -8.51 KCAL/MOL
REMARK 924 INTRA-LIGAND FREE ENERGY PREDICTED BY IDOCK:   -1.06 KCAL/MOL
REMARK 927      BINDING AFFINITY PREDICTED BY RF-SCORE:    0.00 PKD
ROOT
HETATM    1  C   UNL     1      -8.243   9.178  69.116  1.00  0.00    -0.117 C  
HETATM    2  C   UNL     1      -8.050   8.568  67.741  1.00  0.00    -0.115 C  
ENDROOT
BRANCH   2   3
HETATM    3  O   UNL     1      -7.814   7.159  67.847  1.00  0.00    -0.110 OA 
BRANCH   3   4
HETATM    4  C   UNL     1      -8.015   6.721  69.198  1.00  0.00    -0.112 C  
BRANCH   4   5
HETATM    5  C   UNL     1      -9.127   5.675  69.270  1.00  0.00    -0.113 C  
BRANCH   5   6
HETATM    6  N   UNL     1      -9.108   4.910  70.507  1.00  0.00    -0.126 NA 
HETATM    7  C   UNL     1      -9.828   5.151  71.665  1.00  0.00    -0.173 A  
HETATM    8  N   UNL     1      -9.559   4.244  72.583  1.00  0.00    -0.127 NA 
HETATM    9  C   UNL     1      -7.388   3.106  69.942  1.00  0.00    -0.044 A  
HETATM   10  C   UNL     1      -8.636   3.401  72.023  1.00  0.00    -0.082 A  
HETATM   11  C   UNL     1      -8.320   3.797  70.728  1.00  0.00    -0.069 A  
HETATM   12  C   UNL     1      -6.787   1.973  70.503  1.00  0.00    -0.033 A  
HETATM   13  C   UNL     1      -8.016   2.270  72.574  1.00  0.00    -0.054 A  
HETATM   14  C   UNL     1      -7.093   1.559  71.798  1.00  0.00    -0.027 A  
BRANCH   7  15
HETATM   15  C   UNL     1     -10.765   6.301  71.853  1.00  0.00    -0.271 C  
HETATM   16  C   UNL     1     -11.108   8.722  72.288  1.00  0.00    -0.270 C  
HETATM   17  C   UNL     1     -12.818   7.460  71.089  1.00  0.00    -0.260 C  
HETATM   18  C   UNL     1     -11.794   6.384  70.726  1.00  0.00    -0.319 C  
HETATM   19  N   UNL     1     -12.235   8.789  71.335  1.00  0.00    -0.301 NA 
HETATM   20  C   UNL     1     -10.057   7.654  71.956  1.00  0.00    -0.233 C  
BRANCH  19  21
HETATM   21  C   UNL     1     -11.842   9.493  70.105  1.00  0.00     0.014 C  
BRANCH  21  22
HETATM   22  C   UNL     1     -12.099  11.011  70.155  1.00  0.00    -0.438 C  
BRANCH  22  23
HETATM   23  C   UNL     1     -11.694  11.649  68.852  1.00  0.00    -0.397 A  
HETATM   24  C   UNL     1     -12.035  12.978  68.582  1.00  0.00    -0.298 A  
HETATM   25  C   UNL     1     -11.785  13.529  67.327  1.00  0.00    -0.423 A  
HETATM   26  C   UNL     1     -11.184  12.765  66.308  1.00  0.00    -0.339 A  
HETATM   27  C   UNL     1     -11.050  10.898  67.871  1.00  0.00    -0.362 A  
HETATM   28  C   UNL     1     -10.792  11.452  66.618  1.00  0.00    -0.339 A  
BRANCH  26  29
HETATM   29  C   UNL     1     -11.061  13.347  64.888  1.00  0.00    -0.348 C  
HETATM   30  C   UNL     1     -12.405  13.363  64.137  1.00  0.00    -0.333 C  
HETATM   31  C   UNL     1     -10.539  14.799  64.980  1.00  0.00    -0.452 C  
HETATM   32  C   UNL     1     -10.093  12.556  63.985  1.00  0.00    -0.316 C  
HETATM   33  O   UNL     1     -13.241  12.336  64.429  1.00  0.00    -0.806 OA 
HETATM   34  O   UNL     1     -12.708  14.184  63.285  1.00  0.00    -0.714 OA 
ENDBRANCH  26  29
ENDBRANCH  22  23
ENDBRANCH  21  22
ENDBRANCH  19  21
ENDBRANCH   7  15
ENDBRANCH   5   6
ENDBRANCH   4   5
ENDBRANCH   3   4
ENDBRANCH   2   3
TORSDOF 9
ENDMDL
MODEL       79
REMARK 921   NORMALIZED FREE ENERGY PREDICTED BY IDOCK:   -6.15 KCAL/MOL
REMARK 922        TOTAL FREE ENERGY PREDICTED BY IDOCK:   -9.57 KCAL/MOL
REMARK 923 INTER-LIGAND FREE ENERGY PREDICTED BY IDOCK:   -8.46 KCAL/MOL
REMARK 924 INTRA-LIGAND FREE ENERGY PREDICTED BY IDOCK:   -1.10 KCAL/MOL
REMARK 927      BINDING AFFINITY PREDICTED BY RF-SCORE:    0.00 PKD
ROOT
HETATM    1  C   UNL     1     -12.098  12.209  64.583  1.00  0.00    -0.389 C  
HETATM    2  C   UNL     1     -11.099  11.656  63.586  1.00  0.00    -0.425 C  
ENDROOT
BRANCH   2   3
HETATM    3  O   UNL     1      -9.846  11.388  64.229  1.00  0.00    -0.239 OA 
BRANCH   3   4
HETATM    4  C   UNL     1      -9.321  10.127  63.789  1.00  0.00    -0.288 C  
BRANCH   4   5
HETATM    5  C   UNL     1      -8.182   9.667  64.698  1.00  0.00    -0.149 C  
BRANCH   5   6
HETATM    6  N   UNL     1      -8.390   8.332  65.238  1.00  0.00    -0.161 NA 
HETATM    7  C   UNL     1      -8.910   7.989  66.475  1.00  0.00    -0.151 A  
HETATM    8  N   UNL     1      -8.955   6.679  66.617  1.00  0.00    -0.137 NA 
HETATM    9  C   UNL     1      -7.500   6.887  63.327  1.00  0.00    -0.087 A  
HETATM   10  C   UNL     1      -8.444   6.154  65.460  1.00  0.00    -0.149 A  
HETATM   11  C   UNL     1      -8.066   7.162  64.580  1.00  0.00    -0.069 A  
HETATM   12  C   UNL     1      -7.341   5.542  62.975  1.00  0.00    -0.050 A  
HETATM   13  C   UNL     1      -8.266   4.811  65.096  1.00  0.00    -0.121 A  
HETATM   14  C   UNL     1      -7.715   4.518  63.843  1.00  0.00    -0.076 A  
BRANCH   7  15
HETATM   15  C   UNL     1      -9.337   8.974  67.515  1.00  0.00    -0.159 C  
HETATM   16  C   UNL     1      -8.814  10.957  68.916  1.00  0.00    -0.138 C  
HETATM   17  C   UNL     1     -11.138  10.444  68.373  1.00  0.00    -0.268 C  
HETATM   18  C   UNL     1     -10.692   9.599  67.180  1.00  0.00    -0.258 C  
HETATM   19  N   UNL     1     -10.181  11.495  68.761  1.00  0.00    -0.211 NA 
HETATM   20  C   UNL     1      -8.329  10.104  67.736  1.00  0.00    -0.114 C  
BRANCH  19  21
HETATM   21  C   UNL     1     -10.191  12.656  67.859  1.00  0.00    -0.220 C  
BRANCH  21  22
HETATM   22  C   UNL     1     -11.468  13.511  67.970  1.00  0.00    -0.342 C  
BRANCH  22  23
HETATM   23  C   UNL     1     -11.156  14.952  67.657  1.00  0.00    -0.315 A  
HETATM   24  C   UNL     1     -10.826  15.334  66.354  1.00  0.00    -0.317 A  
HETATM   25  C   UNL     1     -10.403  16.634  66.086  1.00  0.00    -0.340 A  
HETATM   26  C   UNL     1     -10.300  17.588  67.116  1.00  0.00    -0.330 A  
HETATM   27  C   UNL     1     -11.110  15.900  68.677  1.00  0.00    -0.337 A  
HETATM   28  C   UNL     1     -10.695  17.203  68.409  1.00  0.00    -0.347 A  
BRANCH  26  29
HETATM   29  C   UNL     1      -9.684  18.968  66.822  1.00  0.00    -0.375 C  
HETATM   30  C   UNL     1      -8.223  18.874  66.344  1.00  0.00    -0.294 C  
HETATM   31  C   UNL     1     -10.511  19.667  65.719  1.00  0.00    -0.540 C  
HETATM   32  C   UNL     1      -9.656  19.900  68.050  1.00  0.00    -0.482 C  
HETATM   33  O   UNL     1      -7.504  17.860  66.886  1.00  0.00    -0.185 OA 
HETATM   34  O   UNL     1      -7.694  19.671  65.585  1.00  0.00    -0.402 OA 
ENDBRANCH  26  29
ENDBRANCH  22  23
ENDBRANCH  21  22
ENDBRANCH  19  21
ENDBRANCH   7  15
ENDBRANCH   5   6
ENDBRANCH   4   5
ENDBRANCH   3   4
ENDBRANCH   2   3
TORSDOF 9
ENDMDL
MODEL       80
REMARK 921   NORMALIZED FREE ENERGY PREDICTED BY IDOCK:   -6.14 KCAL/MOL
REMARK 922        TOTAL FREE ENERGY PREDICTED BY IDOCK:   -9.56 KCAL/MOL
REMARK 923 INTER-LIGAND FREE ENERGY PREDICTED BY IDOCK:   -8.03 KCAL/MOL
REMARK 924 INTRA-LIGAND FREE ENERGY PREDICTED BY IDOCK:   -1.53 KCAL/MOL
REMARK 927      BINDING AFFINITY PREDICTED BY RF-SCORE:    0.00 PKD
ROOT
HETATM    1  C   UNL     1      -8.129   4.080  64.704  1.00  0.00    -0.093 C  
HETATM    2  C   UNL     1      -7.792   5.322  65.506  1.00  0.00    -0.093 C  
ENDROOT
BRANCH   2   3
HETATM    3  O   UNL     1      -8.979   6.075  65.784  1.00  0.00    -0.156 OA 
BRANCH   3   4
HETATM    4  C   UNL     1      -9.006   6.472  67.162  1.00  0.00    -0.113 C  
BRANCH   4   5
HETATM    5  C   UNL     1     -10.223   7.350  67.451  1.00  0.00    -0.246 C  
BRANCH   5   6
HETATM    6  N   UNL     1     -10.145   8.022  68.739  1.00  0.00    -0.190 NA 
HETATM    7  C   UNL     1      -9.670   9.296  69.003  1.00  0.00    -0.162 A  
HETATM    8  N   UNL     1      -9.758   9.572  70.290  1.00  0.00    -0.248 NA 
HETATM    9  C   UNL     1     -11.056   6.211  70.294  1.00  0.00    -0.436 A  
HETATM   10  C   UNL     1     -10.286   8.456  70.881  1.00  0.00    -0.194 A  
HETATM   11  C   UNL     1     -10.528   7.460  69.941  1.00  0.00    -0.231 A  
HETATM   12  C   UNL     1     -11.357   5.998  71.645  1.00  0.00    -0.313 A  
HETATM   13  C   UNL     1     -10.582   8.222  72.232  1.00  0.00    -0.393 A  
HETATM   14  C   UNL     1     -11.123   6.985  72.601  1.00  0.00    -0.317 A  
BRANCH   7  15
HETATM   15  C   UNL     1      -9.111  10.221  67.970  1.00  0.00    -0.132 C  
HETATM   16  C   UNL     1      -9.404  12.202  66.501  1.00  0.00    -0.228 C  
HETATM   17  C   UNL     1      -7.160  11.532  67.188  1.00  0.00    -0.140 C  
HETATM   18  C   UNL     1      -7.735  10.752  68.370  1.00  0.00    -0.113 C  
HETATM   19  N   UNL     1      -8.011  12.641  66.723  1.00  0.00     0.035 NA 
HETATM   20  C   UNL     1     -10.017  11.417  67.668  1.00  0.00    -0.196 C  
BRANCH  19  21
HETATM   21  C   UNL     1      -7.964  13.820  67.601  1.00  0.00    -0.174 C  
BRANCH  21  22
HETATM   22  C   UNL     1      -8.941  14.936  67.184  1.00  0.00    -0.230 C  
BRANCH  22  23
HETATM   23  C   UNL     1      -9.987  15.134  68.249  1.00  0.00    -0.223 A  
HETATM   24  C   UNL     1      -9.610  15.473  69.552  1.00  0.00    -0.278 A  
HETATM   25  C   UNL     1     -10.560  15.521  70.571  1.00  0.00    -0.243 A  
HETATM   26  C   UNL     1     -11.913  15.234  70.313  1.00  0.00    -0.367 A  
HETATM   27  C   UNL     1     -11.332  14.900  67.969  1.00  0.00    -0.337 A  
HETATM   28  C   UNL     1     -12.284  14.957  68.986  1.00  0.00    -0.171 A  
BRANCH  26  29
HETATM   29  C   UNL     1     -12.912  15.143  71.481  1.00  0.00    -0.458 C  
HETATM   30  C   UNL     1     -13.031  13.716  72.047  1.00  0.00    -0.334 C  
HETATM   31  C   UNL     1     -12.446  16.079  72.619  1.00  0.00    -0.572 C  
HETATM   32  C   UNL     1     -14.347  15.553  71.092  1.00  0.00    -0.128 C  
HETATM   33  O   UNL     1     -12.888  12.721  71.137  1.00  0.00    -0.323 OA 
HETATM   34  O   UNL     1     -13.299  13.457  73.211  1.00  0.00    -0.232 OA 
ENDBRANCH  26  29
ENDBRANCH  22  23
ENDBRANCH  21  22
ENDBRANCH  19  21
ENDBRANCH   7  15
ENDBRANCH   5   6
ENDBRANCH   4   5
ENDBRANCH   3   4
ENDBRANCH   2   3
TORSDOF 9
ENDMDL
MODEL       81
REMARK 921   NORMALIZED FREE ENERGY PREDICTED BY IDOCK:   -6.11 KCAL/MOL
REMARK 922        TOTAL FREE ENERGY PREDICTED BY IDOCK:   -9.51 KCAL/MOL
REMARK 923 INTER-LIGAND FREE ENERGY PREDICTED BY IDOCK:   -8.57 KCAL/MOL
REMARK 924 INTRA-LIGAND FREE ENERGY PREDICTED BY IDOCK:   -0.94 KCAL/MOL
REMARK 927      BINDING AFFINITY PREDICTED BY RF-SCORE:    0.00 PKD
ROOT
HETATM    1  C   UNL     1     -10.025   9.808  65.586  1.00  0.00    -0.352 C  
HETATM    2  C   UNL     1      -8.876   8.939  65.114  1.00  0.00    -0.166 C  
ENDROOT
BRANCH   2   3
HETATM    3  O   UNL     1      -9.007   7.610  65.633  1.00  0.00    -0.112 OA 
BRANCH   3   4
HETATM    4  C   UNL     1      -9.487   7.649  66.985  1.00  0.00    -0.163 C  
BRANCH   4   5
HETATM    5  C   UNL     1     -10.616   6.639  67.188  1.00  0.00    -0.331 C  
BRANCH   5   6
HETATM    6  N   UNL     1     -10.154   5.373  67.738  1.00  0.00    -0.166 NA 
HETATM    7  C   UNL     1      -9.978   5.042  69.071  1.00  0.00    -0.181 A  
HETATM    8  N   UNL     1      -9.549   3.801  69.193  1.00  0.00    -0.167 NA 
HETATM    9  C   UNL     1      -9.737   4.033  65.602  1.00  0.00    -0.192 A  
HETATM   10  C   UNL     1      -9.430   3.314  67.919  1.00  0.00    -0.164 A  
HETATM   11  C   UNL     1      -9.787   4.278  66.982  1.00  0.00    -0.179 A  
HETATM   12  C   UNL     1      -9.329   2.759  65.189  1.00  0.00    -0.111 A  
HETATM   13  C   UNL     1      -9.010   2.047  67.488  1.00  0.00    -0.180 A  
HETATM   14  C   UNL     1      -8.969   1.780  66.115  1.00  0.00    -0.093 A  
BRANCH   7  15
HETATM   15  C   UNL     1     -10.219   5.977  70.213  1.00  0.00    -0.266 C  
HETATM   16  C   UNL     1      -9.477   7.921  71.569  1.00  0.00    -0.147 C  
HETATM   17  C   UNL     1     -11.851   7.366  71.457  1.00  0.00    -0.297 C  
HETATM   18  C   UNL     1     -11.624   6.577  70.167  1.00  0.00    -0.466 C  
HETATM   19  N   UNL     1     -10.858   8.427  71.699  1.00  0.00    -0.249 NA 
HETATM   20  C   UNL     1      -9.209   7.125  70.285  1.00  0.00    -0.156 C  
BRANCH  19  21
HETATM   21  C   UNL     1     -11.062   9.620  70.863  1.00  0.00    -0.352 C  
BRANCH  21  22
HETATM   22  C   UNL     1      -9.822  10.012  70.038  1.00  0.00    -0.247 C  
BRANCH  22  23
HETATM   23  C   UNL     1     -10.162  11.137  69.094  1.00  0.00    -0.163 A  
HETATM   24  C   UNL     1     -11.498  11.454  68.830  1.00  0.00    -0.354 A  
HETATM   25  C   UNL     1     -11.818  12.398  67.856  1.00  0.00    -0.370 A  
HETATM   26  C   UNL     1     -10.810  13.051  67.121  1.00  0.00    -0.278 A  
HETATM   27  C   UNL     1      -9.153  11.814  68.413  1.00  0.00    -0.176 A  
HETATM   28  C   UNL     1      -9.473  12.764  67.445  1.00  0.00    -0.190 A  
BRANCH  26  29
HETATM   29  C   UNL     1     -11.193  13.971  65.948  1.00  0.00    -0.308 C  
HETATM   30  C   UNL     1     -10.897  15.453  66.238  1.00  0.00    -0.301 C  
HETATM   31  C   UNL     1     -10.393  13.552  64.694  1.00  0.00    -0.406 C  
HETATM   32  C   UNL     1     -12.692  13.913  65.590  1.00  0.00    -0.534 C  
HETATM   33  O   UNL     1     -11.047  15.829  67.532  1.00  0.00    -0.317 OA 
HETATM   34  O   UNL     1     -10.609  16.278  65.384  1.00  0.00    -0.433 OA 
ENDBRANCH  26  29
ENDBRANCH  22  23
ENDBRANCH  21  22
ENDBRANCH  19  21
ENDBRANCH   7  15
ENDBRANCH   5   6
ENDBRANCH   4   5
ENDBRANCH   3   4
ENDBRANCH   2   3
TORSDOF 9
ENDMDL
MODEL       82
REMARK 921   NORMALIZED FREE ENERGY PREDICTED BY IDOCK:   -6.10 KCAL/MOL
REMARK 922        TOTAL FREE ENERGY PREDICTED BY IDOCK:   -9.50 KCAL/MOL
REMARK 923 INTER-LIGAND FREE ENERGY PREDICTED BY IDOCK:   -7.81 KCAL/MOL
REMARK 924 INTRA-LIGAND FREE ENERGY PREDICTED BY IDOCK:   -1.69 KCAL/MOL
REMARK 927      BINDING AFFINITY PREDICTED BY RF-SCORE:    0.00 PKD
ROOT
HETATM    1  C   UNL     1      -6.056  10.288  62.695  1.00  0.00    -0.135 C  
HETATM    2  C   UNL     1      -5.703  10.234  64.168  1.00  0.00    -0.145 C  
ENDROOT
BRANCH   2   3
HETATM    3  O   UNL     1      -6.784   9.671  64.922  1.00  0.00    -0.093 OA 
BRANCH   3   4
HETATM    4  C   UNL     1      -8.032   9.910  64.255  1.00  0.00    -0.146 C  
BRANCH   4   5
HETATM    5  C   UNL     1      -9.169  10.056  65.267  1.00  0.00    -0.218 C  
BRANCH   5   6
HETATM    6  N   UNL     1      -9.527  11.443  65.521  1.00  0.00    -0.227 NA 
HETATM    7  C   UNL     1      -8.926  12.327  66.403  1.00  0.00    -0.117 A  
HETATM    8  N   UNL     1      -9.517  13.505  66.363  1.00  0.00    -0.254 NA 
HETATM    9  C   UNL     1     -11.534  11.726  63.964  1.00  0.00    -0.444 A  
HETATM   10  C   UNL     1     -10.531  13.389  65.450  1.00  0.00    -0.302 A  
HETATM   11  C   UNL     1     -10.575  12.106  64.913  1.00  0.00    -0.293 A  
HETATM   12  C   UNL     1     -12.450  12.699  63.550  1.00  0.00    -0.516 A  
HETATM   13  C   UNL     1     -11.465  14.348  65.032  1.00  0.00    -0.372 A  
HETATM   14  C   UNL     1     -12.420  13.990  64.074  1.00  0.00    -0.237 A  
BRANCH   7  15
HETATM   15  C   UNL     1      -7.778  11.979  67.296  1.00  0.00    -0.168 C  
HETATM   16  C   UNL     1      -5.518  12.523  68.171  1.00  0.00    -0.068 C  
HETATM   17  C   UNL     1      -7.042  11.175  69.521  1.00  0.00    -0.088 C  
HETATM   18  C   UNL     1      -8.238  11.700  68.727  1.00  0.00    -0.055 C  
HETATM   19  N   UNL     1      -5.881  12.081  69.534  1.00  0.00    -0.080 NA 
HETATM   20  C   UNL     1      -6.694  13.058  67.343  1.00  0.00    -0.123 C  
BRANCH  19  21
HETATM   21  C   UNL     1      -6.048  13.234  70.433  1.00  0.00    -0.064 C  
BRANCH  21  22
HETATM   22  C   UNL     1      -5.185  14.448  70.044  1.00  0.00    -0.094 C  
BRANCH  22  23
HETATM   23  C   UNL     1      -6.065  15.607  69.654  1.00  0.00    -0.157 A  
HETATM   24  C   UNL     1      -7.432  15.411  69.436  1.00  0.00    -0.218 A  
HETATM   25  C   UNL     1      -8.223  16.446  68.943  1.00  0.00    -0.235 A  
HETATM   26  C   UNL     1      -7.667  17.707  68.655  1.00  0.00    -0.281 A  
HETATM   27  C   UNL     1      -5.513  16.865  69.424  1.00  0.00    -0.153 A  
HETATM   28  C   UNL     1      -6.305  17.904  68.939  1.00  0.00    -0.219 A  
BRANCH  26  29
HETATM   29  C   UNL     1      -8.528  18.783  67.966  1.00  0.00    -0.319 C  
HETATM   30  C   UNL     1      -8.776  18.478  66.478  1.00  0.00    -0.286 C  
HETATM   31  C   UNL     1      -9.896  18.869  68.680  1.00  0.00    -0.463 C  
HETATM   32  C   UNL     1      -7.891  20.187  67.998  1.00  0.00    -0.241 C  
HETATM   33  O   UNL     1      -7.759  17.846  65.841  1.00  0.00    -0.507 OA 
HETATM   34  O   UNL     1      -9.775  18.820  65.862  1.00  0.00    -0.485 OA 
ENDBRANCH  26  29
ENDBRANCH  22  23
ENDBRANCH  21  22
ENDBRANCH  19  21
ENDBRANCH   7  15
ENDBRANCH   5   6
ENDBRANCH   4   5
ENDBRANCH   3   4
ENDBRANCH   2   3
TORSDOF 9
ENDMDL
MODEL       83
REMARK 921   NORMALIZED FREE ENERGY PREDICTED BY IDOCK:   -6.07 KCAL/MOL
REMARK 922        TOTAL FREE ENERGY PREDICTED BY IDOCK:   -9.45 KCAL/MOL
REMARK 923 INTER-LIGAND FREE ENERGY PREDICTED BY IDOCK:   -7.98 KCAL/MOL
REMARK 924 INTRA-LIGAND FREE ENERGY PREDICTED BY IDOCK:   -1.46 KCAL/MOL
REMARK 927      BINDING AFFINITY PREDICTED BY RF-SCORE:    0.00 PKD
ROOT
HETATM    1  C   UNL     1      -5.375   6.830  70.423  1.00  0.00    -0.019 C  
HETATM    2  C   UNL     1      -6.820   6.925  70.873  1.00  0.00    -0.055 C  
ENDROOT
BRANCH   2   3
HETATM    3  O   UNL     1      -7.703   6.725  69.763  1.00  0.00    -0.107 OA 
BRANCH   3   4
HETATM    4  C   UNL     1      -9.032   6.445  70.228  1.00  0.00    -0.154 C  
BRANCH   4   5
HETATM    5  C   UNL     1     -10.074   7.087  69.313  1.00  0.00    -0.173 C  
BRANCH   5   6
HETATM    6  N   UNL     1     -10.691   8.268  69.897  1.00  0.00    -0.240 NA 
HETATM    7  C   UNL     1     -10.287   9.587  69.769  1.00  0.00    -0.230 A  
HETATM    8  N   UNL     1     -11.092  10.391  70.435  1.00  0.00    -0.311 NA 
HETATM    9  C   UNL     1     -12.619   7.219  71.206  1.00  0.00    -0.402 A  
HETATM   10  C   UNL     1     -12.032   9.585  71.021  1.00  0.00    -0.328 A  
HETATM   11  C   UNL     1     -11.803   8.248  70.716  1.00  0.00    -0.162 A  
HETATM   12  C   UNL     1     -13.703   7.586  72.011  1.00  0.00    -0.232 A  
HETATM   13  C   UNL     1     -13.117   9.935  71.839  1.00  0.00    -0.559 A  
HETATM   14  C   UNL     1     -13.950   8.922  72.326  1.00  0.00    -0.531 A  
BRANCH   7  15
HETATM   15  C   UNL     1      -9.084  10.032  69.000  1.00  0.00    -0.172 C  
HETATM   16  C   UNL     1      -8.080  11.532  67.294  1.00  0.00    -0.153 C  
HETATM   17  C   UNL     1      -6.670  10.589  69.050  1.00  0.00    -0.063 C  
HETATM   18  C   UNL     1      -7.900  10.326  69.920  1.00  0.00    -0.119 C  
HETATM   19  N   UNL     1      -6.840  11.686  68.082  1.00  0.00    -0.065 NA 
HETATM   20  C   UNL     1      -9.337  11.267  68.134  1.00  0.00    -0.181 C  
BRANCH  19  21
HETATM   21  C   UNL     1      -6.767  13.022  68.693  1.00  0.00    -0.096 C  
BRANCH  21  22
HETATM   22  C   UNL     1      -5.921  14.024  67.885  1.00  0.00    -0.144 C  
BRANCH  22  23
HETATM   23  C   UNL     1      -6.745  15.237  67.539  1.00  0.00    -0.197 A  
HETATM   24  C   UNL     1      -6.283  16.517  67.862  1.00  0.00    -0.148 A  
HETATM   25  C   UNL     1      -7.099  17.630  67.670  1.00  0.00    -0.187 A  
HETATM   26  C   UNL     1      -8.400  17.492  67.150  1.00  0.00    -0.232 A  
HETATM   27  C   UNL     1      -8.009  15.092  66.974  1.00  0.00    -0.223 A  
HETATM   28  C   UNL     1      -8.823  16.206  66.774  1.00  0.00    -0.275 A  
BRANCH  26  29
HETATM   29  C   UNL     1      -9.334  18.715  67.094  1.00  0.00    -0.300 C  
HETATM   30  C   UNL     1     -10.063  18.963  68.427  1.00  0.00    -0.392 C  
HETATM   31  C   UNL     1      -8.502  19.973  66.755  1.00  0.00    -0.380 C  
HETATM   32  C   UNL     1     -10.446  18.586  66.034  1.00  0.00    -0.433 C  
HETATM   33  O   UNL     1     -10.372  17.846  69.132  1.00  0.00    -0.340 OA 
HETATM   34  O   UNL     1     -10.414  20.063  68.826  1.00  0.00    -0.377 OA 
ENDBRANCH  26  29
ENDBRANCH  22  23
ENDBRANCH  21  22
ENDBRANCH  19  21
ENDBRANCH   7  15
ENDBRANCH   5   6
ENDBRANCH   4   5
ENDBRANCH   3   4
ENDBRANCH   2   3
TORSDOF 9
ENDMDL
MODEL       84
REMARK 921   NORMALIZED FREE ENERGY PREDICTED BY IDOCK:   -6.05 KCAL/MOL
REMARK 922        TOTAL FREE ENERGY PREDICTED BY IDOCK:   -9.41 KCAL/MOL
REMARK 923 INTER-LIGAND FREE ENERGY PREDICTED BY IDOCK:   -8.51 KCAL/MOL
REMARK 924 INTRA-LIGAND FREE ENERGY PREDICTED BY IDOCK:   -0.90 KCAL/MOL
REMARK 927      BINDING AFFINITY PREDICTED BY RF-SCORE:    0.00 PKD
ROOT
HETATM    1  C   UNL     1     -12.323  12.599  63.480  1.00  0.00    -0.591 C  
HETATM    2  C   UNL     1     -11.867  13.172  64.808  1.00  0.00    -0.369 C  
ENDROOT
BRANCH   2   3
HETATM    3  O   UNL     1     -10.609  13.843  64.658  1.00  0.00    -0.412 OA 
BRANCH   3   4
HETATM    4  C   UNL     1     -10.762  15.248  64.904  1.00  0.00    -0.400 C  
BRANCH   4   5
HETATM    5  C   UNL     1     -10.824  15.534  66.404  1.00  0.00    -0.277 C  
BRANCH   5   6
HETATM    6  N   UNL     1      -9.665  16.268  66.890  1.00  0.00    -0.232 NA 
HETATM    7  C   UNL     1      -8.428  15.758  67.249  1.00  0.00    -0.189 A  
HETATM    8  N   UNL     1      -7.619  16.724  67.639  1.00  0.00    -0.163 NA 
HETATM    9  C   UNL     1     -10.576  18.655  66.926  1.00  0.00    -0.437 A  
HETATM   10  C   UNL     1      -8.340  17.884  67.547  1.00  0.00    -0.228 A  
HETATM   11  C   UNL     1      -9.631  17.633  67.094  1.00  0.00    -0.278 A  
HETATM   12  C   UNL     1     -10.168  19.962  67.215  1.00  0.00    -0.572 A  
HETATM   13  C   UNL     1      -7.951  19.198  67.844  1.00  0.00    -0.318 A  
HETATM   14  C   UNL     1      -8.877  20.233  67.668  1.00  0.00    -0.368 A  
BRANCH   7  15
HETATM   15  C   UNL     1      -8.072  14.306  67.221  1.00  0.00    -0.199 C  
HETATM   16  C   UNL     1      -6.358  12.527  67.476  1.00  0.00    -0.154 C  
HETATM   17  C   UNL     1      -8.711  11.994  67.841  1.00  0.00    -0.170 C  
HETATM   18  C   UNL     1      -9.029  13.472  68.073  1.00  0.00    -0.189 C  
HETATM   19  N   UNL     1      -7.318  11.622  68.139  1.00  0.00    -0.086 NA 
HETATM   20  C   UNL     1      -6.642  14.020  67.687  1.00  0.00    -0.175 C  
BRANCH  19  21
HETATM   21  C   UNL     1      -7.036  11.518  69.579  1.00  0.00    -0.034 C  
BRANCH  21  22
HETATM   22  C   UNL     1      -6.364  10.192  69.981  1.00  0.00    -0.088 C  
BRANCH  22  23
HETATM   23  C   UNL     1      -7.397   9.220  70.488  1.00  0.00    -0.120 A  
HETATM   24  C   UNL     1      -8.336   8.669  69.611  1.00  0.00    -0.123 A  
HETATM   25  C   UNL     1      -9.377   7.880  70.098  1.00  0.00    -0.156 A  
HETATM   26  C   UNL     1      -9.505   7.621  71.476  1.00  0.00    -0.166 A  
HETATM   27  C   UNL     1      -7.481   8.928  71.848  1.00  0.00     0.022 A  
HETATM   28  C   UNL     1      -8.517   8.131  72.334  1.00  0.00    -0.238 A  
BRANCH  26  29
HETATM   29  C   UNL     1     -10.748   6.878  72.001  1.00  0.00    -0.244 C  
HETATM   30  C   UNL     1     -12.056   7.635  71.710  1.00  0.00    -0.305 C  
HETATM   31  C   UNL     1     -10.830   5.490  71.328  1.00  0.00    -0.250 C  
HETATM   32  C   UNL     1     -10.729   6.660  73.528  1.00  0.00    -0.301 C  
HETATM   33  O   UNL     1     -11.957   8.988  71.732  1.00  0.00    -0.321 OA 
HETATM   34  O   UNL     1     -13.139   7.097  71.532  1.00  0.00    -0.381 OA 
ENDBRANCH  26  29
ENDBRANCH  22  23
ENDBRANCH  21  22
ENDBRANCH  19  21
ENDBRANCH   7  15
ENDBRANCH   5   6
ENDBRANCH   4   5
ENDBRANCH   3   4
ENDBRANCH   2   3
TORSDOF 9
ENDMDL
MODEL       85
REMARK 921   NORMALIZED FREE ENERGY PREDICTED BY IDOCK:   -6.02 KCAL/MOL
REMARK 922        TOTAL FREE ENERGY PREDICTED BY IDOCK:   -9.37 KCAL/MOL
REMARK 923 INTER-LIGAND FREE ENERGY PREDICTED BY IDOCK:   -8.04 KCAL/MOL
REMARK 924 INTRA-LIGAND FREE ENERGY PREDICTED BY IDOCK:   -1.33 KCAL/MOL
REMARK 927      BINDING AFFINITY PREDICTED BY RF-SCORE:    0.00 PKD
ROOT
HETATM    1  C   UNL     1      -9.260   9.475  70.339  1.00  0.00    -0.305 C  
HETATM    2  C   UNL     1      -8.292   9.666  69.188  1.00  0.00    -0.130 C  
ENDROOT
BRANCH   2   3
HETATM    3  O   UNL     1      -8.406   8.586  68.254  1.00  0.00    -0.122 OA 
BRANCH   3   4
HETATM    4  C   UNL     1      -9.763   8.125  68.190  1.00  0.00    -0.161 C  
BRANCH   4   5
HETATM    5  C   UNL     1     -10.238   8.034  66.740  1.00  0.00    -0.297 C  
BRANCH   5   6
HETATM    6  N   UNL     1      -9.415   8.808  65.824  1.00  0.00    -0.208 NA 
HETATM    7  C   UNL     1      -9.594  10.124  65.429  1.00  0.00    -0.264 A  
HETATM    8  N   UNL     1      -8.647  10.495  64.590  1.00  0.00    -0.177 NA 
HETATM    9  C   UNL     1      -7.658   7.076  65.157  1.00  0.00    -0.102 A  
HETATM   10  C   UNL     1      -7.841   9.401  64.421  1.00  0.00    -0.123 A  
HETATM   11  C   UNL     1      -8.301   8.322  65.168  1.00  0.00    -0.157 A  
HETATM   12  C   UNL     1      -6.507   6.954  64.371  1.00  0.00    -0.036 A  
HETATM   13  C   UNL     1      -6.692   9.257  63.629  1.00  0.00    -0.092 A  
HETATM   14  C   UNL     1      -6.029   8.025  63.617  1.00  0.00    -0.063 A  
BRANCH   7  15
HETATM   15  C   UNL     1     -10.724  10.995  65.878  1.00  0.00    -0.226 C  
HETATM   16  C   UNL     1     -11.694  12.519  67.581  1.00  0.00    -0.361 C  
HETATM   17  C   UNL     1     -12.411  12.700  65.255  1.00  0.00    -0.466 C  
HETATM   18  C   UNL     1     -11.142  11.985  64.790  1.00  0.00    -0.369 C  
HETATM   19  N   UNL     1     -12.272  13.398  66.545  1.00  0.00    -0.386 NA 
HETATM   20  C   UNL     1     -10.417  11.784  67.152  1.00  0.00    -0.250 C  
BRANCH  19  21
HETATM   21  C   UNL     1     -11.523  14.661  66.448  1.00  0.00    -0.347 C  
BRANCH  21  22
HETATM   22  C   UNL     1     -11.478  15.452  67.769  1.00  0.00    -0.284 C  
BRANCH  22  23
HETATM   23  C   UNL     1     -10.278  16.362  67.788  1.00  0.00    -0.274 A  
HETATM   24  C   UNL     1      -9.170  16.083  66.982  1.00  0.00    -0.229 A  
HETATM   25  C   UNL     1      -8.006  16.840  67.097  1.00  0.00    -0.210 A  
HETATM   26  C   UNL     1      -7.919  17.898  68.022  1.00  0.00    -0.250 A  
HETATM   27  C   UNL     1     -10.224  17.439  68.669  1.00  0.00    -0.361 A  
HETATM   28  C   UNL     1      -9.063  18.202  68.779  1.00  0.00    -0.239 A  
BRANCH  26  29
HETATM   29  C   UNL     1      -6.574  18.615  68.238  1.00  0.00    -0.233 C  
HETATM   30  C   UNL     1      -6.690  20.144  68.095  1.00  0.00    -0.294 C  
HETATM   31  C   UNL     1      -6.054  18.298  69.658  1.00  0.00    -0.238 C  
HETATM   32  C   UNL     1      -5.485  18.189  67.232  1.00  0.00    -0.143 C  
HETATM   33  O   UNL     1      -7.602  20.571  67.186  1.00  0.00    -0.309 OA 
HETATM   34  O   UNL     1      -5.987  20.947  68.690  1.00  0.00    -0.340 OA 
ENDBRANCH  26  29
ENDBRANCH  22  23
ENDBRANCH  21  22
ENDBRANCH  19  21
ENDBRANCH   7  15
ENDBRANCH   5   6
ENDBRANCH   4   5
ENDBRANCH   3   4
ENDBRANCH   2   3
TORSDOF 9
ENDMDL
MODEL       86
REMARK 921   NORMALIZED FREE ENERGY PREDICTED BY IDOCK:   -6.01 KCAL/MOL
REMARK 922        TOTAL FREE ENERGY PREDICTED BY IDOCK:   -9.35 KCAL/MOL
REMARK 923 INTER-LIGAND FREE ENERGY PREDICTED BY IDOCK:   -8.86 KCAL/MOL
REMARK 924 INTRA-LIGAND FREE ENERGY PREDICTED BY IDOCK:   -0.49 KCAL/MOL
REMARK 927      BINDING AFFINITY PREDICTED BY RF-SCORE:    0.00 PKD
ROOT
HETATM    1  C   UNL     1     -12.762  10.981  70.906  1.00  0.00    -0.452 C  
HETATM    2  C   UNL     1     -12.699   9.505  71.247  1.00  0.00    -0.332 C  
ENDROOT
BRANCH   2   3
HETATM    3  O   UNL     1     -11.371   9.004  71.057  1.00  0.00    -0.263 OA 
BRANCH   3   4
HETATM    4  C   UNL     1     -11.374   7.569  71.066  1.00  0.00    -0.273 C  
BRANCH   4   5
HETATM    5  C   UNL     1      -9.953   7.022  70.937  1.00  0.00    -0.193 C  
BRANCH   5   6
HETATM    6  N   UNL     1      -9.884   5.578  71.097  1.00  0.00    -0.174 NA 
HETATM    7  C   UNL     1      -9.565   4.632  70.135  1.00  0.00    -0.196 A  
HETATM    8  N   UNL     1      -9.598   3.416  70.645  1.00  0.00    -0.179 NA 
HETATM    9  C   UNL     1     -10.546   5.323  73.551  1.00  0.00    -0.313 A  
HETATM   10  C   UNL     1      -9.957   3.565  71.958  1.00  0.00    -0.157 A  
HETATM   11  C   UNL     1     -10.158   4.905  72.271  1.00  0.00    -0.191 A  
HETATM   12  C   UNL     1     -10.710   4.334  74.529  1.00  0.00    -0.136 A  
HETATM   13  C   UNL     1     -10.137   2.586  72.946  1.00  0.00    -0.213 A  
HETATM   14  C   UNL     1     -10.511   2.986  74.234  1.00  0.00    -0.235 A  
BRANCH   7  15
HETATM   15  C   UNL     1      -9.252   4.950  68.708  1.00  0.00    -0.162 C  
HETATM   16  C   UNL     1     -10.009   5.781  66.494  1.00  0.00    -0.163 C  
HETATM   17  C   UNL     1      -7.652   5.949  67.102  1.00  0.00    -0.096 C  
HETATM   18  C   UNL     1      -8.007   5.828  68.584  1.00  0.00    -0.101 C  
HETATM   19  N   UNL     1      -8.735   6.491  66.263  1.00  0.00    -0.140 NA 
HETATM   20  C   UNL     1     -10.401   5.641  67.971  1.00  0.00    -0.258 C  
BRANCH  19  21
HETATM   21  C   UNL     1      -8.909   7.945  66.402  1.00  0.00    -0.158 C  
BRANCH  21  22
HETATM   22  C   UNL     1     -10.335   8.357  66.815  1.00  0.00    -0.357 C  
BRANCH  22  23
HETATM   23  C   UNL     1     -10.499   9.849  66.696  1.00  0.00    -0.239 A  
HETATM   24  C   UNL     1     -10.891  10.606  67.804  1.00  0.00    -0.338 A  
HETATM   25  C   UNL     1     -11.177  11.962  67.666  1.00  0.00    -0.340 A  
HETATM   26  C   UNL     1     -11.078  12.599  66.414  1.00  0.00    -0.325 A  
HETATM   27  C   UNL     1     -10.344  10.478  65.462  1.00  0.00    -0.287 A  
HETATM   28  C   UNL     1     -10.622  11.837  65.325  1.00  0.00    -0.327 A  
BRANCH  26  29
HETATM   29  C   UNL     1     -11.548  14.057  66.258  1.00  0.00    -0.379 C  
HETATM   30  C   UNL     1     -10.440  14.982  65.722  1.00  0.00    -0.337 C  
HETATM   31  C   UNL     1     -12.738  14.103  65.273  1.00  0.00    -0.425 C  
HETATM   32  C   UNL     1     -12.011  14.695  67.585  1.00  0.00    -0.307 C  
HETATM   33  O   UNL     1      -9.182  14.664  66.118  1.00  0.00    -0.264 OA 
HETATM   34  O   UNL     1     -10.642  15.976  65.042  1.00  0.00    -0.551 OA 
ENDBRANCH  26  29
ENDBRANCH  22  23
ENDBRANCH  21  22
ENDBRANCH  19  21
ENDBRANCH   7  15
ENDBRANCH   5   6
ENDBRANCH   4   5
ENDBRANCH   3   4
ENDBRANCH   2   3
TORSDOF 9
ENDMDL
MODEL       87
REMARK 921   NORMALIZED FREE ENERGY PREDICTED BY IDOCK:   -5.98 KCAL/MOL
REMARK 922        TOTAL FREE ENERGY PREDICTED BY IDOCK:   -9.31 KCAL/MOL
REMARK 923 INTER-LIGAND FREE ENERGY PREDICTED BY IDOCK:   -8.15 KCAL/MOL
REMARK 924 INTRA-LIGAND FREE ENERGY PREDICTED BY IDOCK:   -1.16 KCAL/MOL
REMARK 927      BINDING AFFINITY PREDICTED BY RF-SCORE:    0.00 PKD
ROOT
HETATM    1  C   UNL     1     -12.051  14.714  64.251  1.00  0.00    -0.437 C  
HETATM    2  C   UNL     1     -12.282  13.422  63.492  1.00  0.00    -0.400 C  
ENDROOT
BRANCH   2   3
HETATM    3  O   UNL     1     -11.897  12.296  64.290  1.00  0.00    -0.364 OA 
BRANCH   3   4
HETATM    4  C   UNL     1     -10.952  11.483  63.581  1.00  0.00    -0.404 C  
BRANCH   4   5
HETATM    5  C   UNL     1      -9.590  11.501  64.276  1.00  0.00    -0.152 C  
BRANCH   5   6
HETATM    6  N   UNL     1      -9.228  10.213  64.848  1.00  0.00    -0.210 NA 
HETATM    7  C   UNL     1      -9.299   9.825  66.176  1.00  0.00    -0.191 A  
HETATM    8  N   UNL     1      -8.890   8.580  66.323  1.00  0.00    -0.147 NA 
HETATM    9  C   UNL     1      -8.412   8.965  62.772  1.00  0.00    -0.191 A  
HETATM   10  C   UNL     1      -8.533   8.148  65.073  1.00  0.00    -0.099 A  
HETATM   11  C   UNL     1      -8.718   9.151  64.128  1.00  0.00    -0.141 A  
HETATM   12  C   UNL     1      -7.924   7.711  62.389  1.00  0.00    -0.133 A  
HETATM   13  C   UNL     1      -8.031   6.901  64.674  1.00  0.00    -0.112 A  
HETATM   14  C   UNL     1      -7.734   6.693  63.322  1.00  0.00    -0.106 A  
BRANCH   7  15
HETATM   15  C   UNL     1      -9.754  10.710  67.292  1.00  0.00    -0.195 C  
HETATM   16  C   UNL     1      -9.590  12.874  68.499  1.00  0.00    -0.111 C  
HETATM   17  C   UNL     1     -11.664  11.592  68.601  1.00  0.00    -0.326 C  
HETATM   18  C   UNL     1     -11.278  10.831  67.332  1.00  0.00    -0.315 C  
HETATM   19  N   UNL     1     -11.050  12.925  68.717  1.00  0.00    -0.253 NA 
HETATM   20  C   UNL     1      -9.162  12.120  67.233  1.00  0.00    -0.185 C  
BRANCH  19  21
HETATM   21  C   UNL     1     -11.676  13.935  67.850  1.00  0.00    -0.361 C  
BRANCH  21  22
HETATM   22  C   UNL     1     -11.785  15.325  68.503  1.00  0.00    -0.352 C  
BRANCH  22  23
HETATM   23  C   UNL     1     -10.598  16.172  68.123  1.00  0.00    -0.290 A  
HETATM   24  C   UNL     1      -9.560  16.379  69.036  1.00  0.00    -0.264 A  
HETATM   25  C   UNL     1      -8.530  17.270  68.741  1.00  0.00    -0.233 A  
HETATM   26  C   UNL     1      -8.511  17.976  67.524  1.00  0.00    -0.237 A  
HETATM   27  C   UNL     1     -10.564  16.823  66.892  1.00  0.00    -0.219 A  
HETATM   28  C   UNL     1      -9.529  17.708  66.593  1.00  0.00    -0.288 A  
BRANCH  26  29
HETATM   29  C   UNL     1      -7.449  19.066  67.289  1.00  0.00    -0.243 C  
HETATM   30  C   UNL     1      -6.352  18.622  66.305  1.00  0.00    -0.188 C  
HETATM   31  C   UNL     1      -8.135  20.327  66.715  1.00  0.00    -0.321 C  
HETATM   32  C   UNL     1      -6.704  19.481  68.575  1.00  0.00    -0.323 C  
HETATM   33  O   UNL     1      -6.040  17.303  66.347  1.00  0.00    -0.201 OA 
HETATM   34  O   UNL     1      -5.738  19.380  65.569  1.00  0.00    -0.160 OA 
ENDBRANCH  26  29
ENDBRANCH  22  23
ENDBRANCH  21  22
ENDBRANCH  19  21
ENDBRANCH   7  15
ENDBRANCH   5   6
ENDBRANCH   4   5
ENDBRANCH   3   4
ENDBRANCH   2   3
TORSDOF 9
ENDMDL
MODEL       88
REMARK 921   NORMALIZED FREE ENERGY PREDICTED BY IDOCK:   -5.98 KCAL/MOL
REMARK 922        TOTAL FREE ENERGY PREDICTED BY IDOCK:   -9.30 KCAL/MOL
REMARK 923 INTER-LIGAND FREE ENERGY PREDICTED BY IDOCK:   -8.52 KCAL/MOL
REMARK 924 INTRA-LIGAND FREE ENERGY PREDICTED BY IDOCK:   -0.78 KCAL/MOL
REMARK 927      BINDING AFFINITY PREDICTED BY RF-SCORE:    0.00 PKD
ROOT
HETATM    1  C   UNL     1     -11.171  13.494  63.890  1.00  0.00    -0.152 C  
HETATM    2  C   UNL     1     -11.763  12.243  64.510  1.00  0.00    -0.353 C  
ENDROOT
BRANCH   2   3
HETATM    3  O   UNL     1     -12.636  12.587  65.593  1.00  0.00    -0.612 OA 
BRANCH   3   4
HETATM    4  C   UNL     1     -12.066  13.646  66.375  1.00  0.00    -0.433 C  
BRANCH   4   5
HETATM    5  C   UNL     1     -11.355  13.089  67.608  1.00  0.00    -0.300 C  
BRANCH   5   6
HETATM    6  N   UNL     1     -10.067  13.719  67.854  1.00  0.00    -0.240 NA 
HETATM    7  C   UNL     1      -8.828  13.106  67.953  1.00  0.00    -0.196 A  
HETATM    8  N   UNL     1      -7.882  13.996  68.177  1.00  0.00    -0.131 NA 
HETATM    9  C   UNL     1     -10.755  16.169  68.088  1.00  0.00    -0.315 A  
HETATM   10  C   UNL     1      -8.511  15.211  68.239  1.00  0.00    -0.152 A  
HETATM   11  C   UNL     1      -9.882  15.072  68.055  1.00  0.00    -0.218 A  
HETATM   12  C   UNL     1     -10.192  17.433  68.296  1.00  0.00    -0.362 A  
HETATM   13  C   UNL     1      -7.965  16.484  68.459  1.00  0.00    -0.216 A  
HETATM   14  C   UNL     1      -8.820  17.592  68.480  1.00  0.00    -0.282 A  
BRANCH   7  15
HETATM   15  C   UNL     1      -8.604  11.632  67.845  1.00  0.00    -0.150 C  
HETATM   16  C   UNL     1      -8.976   9.347  68.745  1.00  0.00    -0.132 C  
HETATM   17  C   UNL     1      -8.507   9.644  66.369  1.00  0.00    -0.123 C  
HETATM   18  C   UNL     1      -8.938  11.109  66.448  1.00  0.00    -0.190 C  
HETATM   19  N   UNL     1      -9.119   8.778  67.390  1.00  0.00    -0.132 NA 
HETATM   20  C   UNL     1      -9.401  10.817  68.865  1.00  0.00    -0.183 C  
BRANCH  19  21
HETATM   21  C   UNL     1     -10.523   8.442  67.106  1.00  0.00    -0.310 C  
BRANCH  21  22
HETATM   22  C   UNL     1     -10.791   6.927  67.036  1.00  0.00    -0.436 C  
BRANCH  22  23
HETATM   23  C   UNL     1     -10.749   6.329  68.418  1.00  0.00    -0.356 A  
HETATM   24  C   UNL     1     -11.484   6.906  69.458  1.00  0.00    -0.165 A  
HETATM   25  C   UNL     1     -11.340   6.442  70.764  1.00  0.00    -0.411 A  
HETATM   26  C   UNL     1     -10.458   5.387  71.065  1.00  0.00    -0.302 A  
HETATM   27  C   UNL     1      -9.912   5.249  68.693  1.00  0.00    -0.234 A  
HETATM   28  C   UNL     1      -9.775   4.779  69.998  1.00  0.00    -0.280 A  
BRANCH  26  29
HETATM   29  C   UNL     1     -10.203   4.999  72.533  1.00  0.00    -0.247 C  
HETATM   30  C   UNL     1      -9.445   6.090  73.310  1.00  0.00    -0.142 C  
HETATM   31  C   UNL     1     -11.558   4.755  73.235  1.00  0.00    -0.286 C  
HETATM   32  C   UNL     1      -9.356   3.719  72.688  1.00  0.00    -0.154 C  
HETATM   33  O   UNL     1      -8.547   6.799  72.581  1.00  0.00    -0.122 OA 
HETATM   34  O   UNL     1      -9.565   6.292  74.509  1.00  0.00    -0.206 OA 
ENDBRANCH  26  29
ENDBRANCH  22  23
ENDBRANCH  21  22
ENDBRANCH  19  21
ENDBRANCH   7  15
ENDBRANCH   5   6
ENDBRANCH   4   5
ENDBRANCH   3   4
ENDBRANCH   2   3
TORSDOF 9
ENDMDL
MODEL       89
REMARK 921   NORMALIZED FREE ENERGY PREDICTED BY IDOCK:   -5.92 KCAL/MOL
REMARK 922        TOTAL FREE ENERGY PREDICTED BY IDOCK:   -9.21 KCAL/MOL
REMARK 923 INTER-LIGAND FREE ENERGY PREDICTED BY IDOCK:   -7.88 KCAL/MOL
REMARK 924 INTRA-LIGAND FREE ENERGY PREDICTED BY IDOCK:   -1.33 KCAL/MOL
REMARK 927      BINDING AFFINITY PREDICTED BY RF-SCORE:    0.00 PKD
ROOT
HETATM    1  C   UNL     1     -12.510  11.322  70.750  1.00  0.00    -0.471 C  
HETATM    2  C   UNL     1     -12.970  10.461  71.911  1.00  0.00    -0.450 C  
ENDROOT
BRANCH   2   3
HETATM    3  O   UNL     1     -13.381   9.170  71.444  1.00  0.00    -0.345 OA 
BRANCH   3   4
HETATM    4  C   UNL     1     -13.050   8.163  72.411  1.00  0.00    -0.108 C  
BRANCH   4   5
HETATM    5  C   UNL     1     -12.535   6.898  71.723  1.00  0.00    -0.356 C  
BRANCH   5   6
HETATM    6  N   UNL     1     -11.113   6.676  71.933  1.00  0.00    -0.243 NA 
HETATM    7  C   UNL     1     -10.054   7.335  71.330  1.00  0.00    -0.189 A  
HETATM    8  N   UNL     1      -8.901   6.870  71.770  1.00  0.00    -0.131 NA 
HETATM    9  C   UNL     1     -11.159   4.765  73.628  1.00  0.00    -0.380 A  
HETATM   10  C   UNL     1      -9.208   5.882  72.667  1.00  0.00    -0.137 A  
HETATM   11  C   UNL     1     -10.585   5.724  72.782  1.00  0.00    -0.226 A  
HETATM   12  C   UNL     1     -10.289   3.968  74.381  1.00  0.00    -0.272 A  
HETATM   13  C   UNL     1      -8.350   5.067  73.419  1.00  0.00    -0.110 A  
HETATM   14  C   UNL     1      -8.906   4.113  74.280  1.00  0.00    -0.094 A  
BRANCH   7  15
HETATM   15  C   UNL     1     -10.203   8.409  70.301  1.00  0.00    -0.204 C  
HETATM   16  C   UNL     1      -9.344  10.491  69.254  1.00  0.00    -0.160 C  
HETATM   17  C   UNL     1     -10.753   8.981  67.953  1.00  0.00    -0.138 C  
HETATM   18  C   UNL     1     -10.427   7.829  68.904  1.00  0.00    -0.208 C  
HETATM   19  N   UNL     1      -9.723  10.032  67.902  1.00  0.00    -0.145 NA 
HETATM   20  C   UNL     1      -9.007   9.363  70.237  1.00  0.00    -0.277 C  
BRANCH  19  21
HETATM   21  C   UNL     1      -8.534   9.648  67.124  1.00  0.00    -0.131 C  
BRANCH  21  22
HETATM   22  C   UNL     1      -8.288  10.542  65.895  1.00  0.00    -0.161 C  
BRANCH  22  23
HETATM   23  C   UNL     1      -8.622  11.974  66.220  1.00  0.00     0.030 A  
HETATM   24  C   UNL     1      -7.755  12.739  67.006  1.00  0.00     0.003 A  
HETATM   25  C   UNL     1      -8.123  14.016  67.424  1.00  0.00    -0.199 A  
HETATM   26  C   UNL     1      -9.370  14.563  67.066  1.00  0.00    -0.249 A  
HETATM   27  C   UNL     1      -9.836  12.524  65.814  1.00  0.00    -0.244 A  
HETATM   28  C   UNL     1     -10.202  13.805  66.225  1.00  0.00    -0.298 A  
BRANCH  26  29
HETATM   29  C   UNL     1      -9.816  15.908  67.668  1.00  0.00    -0.233 C  
HETATM   30  C   UNL     1      -9.756  17.061  66.649  1.00  0.00    -0.277 C  
HETATM   31  C   UNL     1     -11.271  15.780  68.172  1.00  0.00    -0.344 C  
HETATM   32  C   UNL     1      -8.945  16.364  68.857  1.00  0.00    -0.256 C  
HETATM   33  O   UNL     1      -8.759  16.971  65.734  1.00  0.00    -0.522 OA 
HETATM   34  O   UNL     1     -10.493  18.036  66.668  1.00  0.00    -0.357 OA 
ENDBRANCH  26  29
ENDBRANCH  22  23
ENDBRANCH  21  22
ENDBRANCH  19  21
ENDBRANCH   7  15
ENDBRANCH   5   6
ENDBRANCH   4   5
ENDBRANCH   3   4
ENDBRANCH   2   3
TORSDOF 9
ENDMDL
MODEL       90
REMARK 921   NORMALIZED FREE ENERGY PREDICTED BY IDOCK:   -5.91 KCAL/MOL
REMARK 922        TOTAL FREE ENERGY PREDICTED BY IDOCK:   -9.21 KCAL/MOL
REMARK 923 INTER-LIGAND FREE ENERGY PREDICTED BY IDOCK:   -7.82 KCAL/MOL
REMARK 924 INTRA-LIGAND FREE ENERGY PREDICTED BY IDOCK:   -1.39 KCAL/MOL
REMARK 927      BINDING AFFINITY PREDICTED BY RF-SCORE:    0.00 PKD
ROOT
HETATM    1  C   UNL     1      -8.147  18.499  68.576  1.00  0.00    -0.354 C  
HETATM    2  C   UNL     1      -8.732  17.357  67.768  1.00  0.00    -0.232 C  
ENDROOT
BRANCH   2   3
HETATM    3  O   UNL     1     -10.161  17.353  67.871  1.00  0.00    -0.314 OA 
BRANCH   3   4
HETATM    4  C   UNL     1     -10.706  16.219  67.180  1.00  0.00    -0.247 C  
BRANCH   4   5
HETATM    5  C   UNL     1      -9.751  15.739  66.088  1.00  0.00    -0.322 C  
BRANCH   5   6
HETATM    6  N   UNL     1      -9.857  14.311  65.830  1.00  0.00    -0.309 NA 
HETATM    7  C   UNL     1      -9.058  13.296  66.332  1.00  0.00    -0.046 A  
HETATM    8  N   UNL     1      -9.455  12.122  65.883  1.00  0.00    -0.216 NA 
HETATM    9  C   UNL     1     -11.832  14.250  64.209  1.00  0.00    -0.401 A  
HETATM   10  C   UNL     1     -10.522  12.370  65.063  1.00  0.00    -0.294 A  
HETATM   11  C   UNL     1     -10.793  13.732  64.995  1.00  0.00    -0.371 A  
HETATM   12  C   UNL     1     -12.615  13.335  63.496  1.00  0.00    -0.172 A  
HETATM   13  C   UNL     1     -11.310  11.468  64.332  1.00  0.00    -0.283 A  
HETATM   14  C   UNL     1     -12.361  11.966  63.553  1.00  0.00    -0.603 A  
BRANCH   7  15
HETATM   15  C   UNL     1      -7.890  13.512  67.240  1.00  0.00    -0.106 C  
HETATM   16  C   UNL     1      -7.019  14.007  69.512  1.00  0.00    -0.007 C  
HETATM   17  C   UNL     1      -5.628  12.774  67.932  1.00  0.00    -0.110 C  
HETATM   18  C   UNL     1      -6.864  12.385  67.119  1.00  0.00    -0.077 C  
HETATM   19  N   UNL     1      -5.902  13.055  69.351  1.00  0.00    -0.089 NA 
HETATM   20  C   UNL     1      -8.280  13.650  68.713  1.00  0.00     0.021 C  
BRANCH  19  21
HETATM   21  C   UNL     1      -6.123  11.843  70.155  1.00  0.00    -0.137 C  
BRANCH  21  22
HETATM   22  C   UNL     1      -6.341  10.574  69.308  1.00  0.00    -0.051 C  
BRANCH  22  23
HETATM   23  C   UNL     1      -7.558   9.830  69.793  1.00  0.00    -0.137 A  
HETATM   24  C   UNL     1      -8.697   9.744  68.988  1.00  0.00    -0.148 A  
HETATM   25  C   UNL     1      -9.870   9.178  69.484  1.00  0.00    -0.182 A  
HETATM   26  C   UNL     1      -9.934   8.683  70.800  1.00  0.00    -0.241 A  
HETATM   27  C   UNL     1      -7.590   9.296  71.079  1.00  0.00    -0.091 A  
HETATM   28  C   UNL     1      -8.761   8.722  71.574  1.00  0.00    -0.274 A  
BRANCH  26  29
HETATM   29  C   UNL     1     -11.281   8.207  71.373  1.00  0.00    -0.297 C  
HETATM   30  C   UNL     1     -12.363   9.300  71.325  1.00  0.00    -0.328 C  
HETATM   31  C   UNL     1     -11.779   6.994  70.555  1.00  0.00    -0.359 C  
HETATM   32  C   UNL     1     -11.198   7.774  72.852  1.00  0.00    -0.434 C  
HETATM   33  O   UNL     1     -11.911  10.567  71.494  1.00  0.00    -0.300 OA 
HETATM   34  O   UNL     1     -13.560   9.080  71.210  1.00  0.00    -0.309 OA 
ENDBRANCH  26  29
ENDBRANCH  22  23
ENDBRANCH  21  22
ENDBRANCH  19  21
ENDBRANCH   7  15
ENDBRANCH   5   6
ENDBRANCH   4   5
ENDBRANCH   3   4
ENDBRANCH   2   3
TORSDOF 9
ENDMDL
MODEL       91
REMARK 921   NORMALIZED FREE ENERGY PREDICTED BY IDOCK:   -5.90 KCAL/MOL
REMARK 922        TOTAL FREE ENERGY PREDICTED BY IDOCK:   -9.19 KCAL/MOL
REMARK 923 INTER-LIGAND FREE ENERGY PREDICTED BY IDOCK:   -8.04 KCAL/MOL
REMARK 924 INTRA-LIGAND FREE ENERGY PREDICTED BY IDOCK:   -1.15 KCAL/MOL
REMARK 927      BINDING AFFINITY PREDICTED BY RF-SCORE:    0.00 PKD
ROOT
HETATM    1  C   UNL     1      -7.197  11.480  68.737  1.00  0.00    -0.112 C  
HETATM    2  C   UNL     1      -6.732  12.792  68.135  1.00  0.00    -0.092 C  
ENDROOT
BRANCH   2   3
HETATM    3  O   UNL     1      -6.969  13.872  69.046  1.00  0.00    -0.108 OA 
BRANCH   3   4
HETATM    4  C   UNL     1      -7.111  15.107  68.329  1.00  0.00    -0.112 C  
BRANCH   4   5
HETATM    5  C   UNL     1      -7.896  16.127  69.153  1.00  0.00    -0.232 C  
BRANCH   5   6
HETATM    6  N   UNL     1      -8.272  17.306  68.389  1.00  0.00    -0.251 NA 
HETATM    7  C   UNL     1      -9.442  17.517  67.677  1.00  0.00    -0.256 A  
HETATM    8  N   UNL     1      -9.437  18.708  67.111  1.00  0.00    -0.290 NA 
HETATM    9  C   UNL     1      -6.203  18.773  68.699  1.00  0.00    -0.235 A  
HETATM   10  C   UNL     1      -8.240  19.283  67.446  1.00  0.00    -0.282 A  
HETATM   11  C   UNL     1      -7.480  18.426  68.234  1.00  0.00    -0.280 A  
HETATM   12  C   UNL     1      -5.717  20.040  68.356  1.00  0.00    -0.261 A  
HETATM   13  C   UNL     1      -7.732  20.544  67.101  1.00  0.00    -0.368 A  
HETATM   14  C   UNL     1      -6.466  20.913  67.568  1.00  0.00    -0.398 A  
BRANCH   7  15
HETATM   15  C   UNL     1     -10.546  16.517  67.549  1.00  0.00    -0.313 C  
HETATM   16  C   UNL     1     -11.509  14.542  66.393  1.00  0.00    -0.360 C  
HETATM   17  C   UNL     1     -12.124  15.000  68.710  1.00  0.00    -0.180 C  
HETATM   18  C   UNL     1     -10.874  15.861  68.891  1.00  0.00    -0.274 C  
HETATM   19  N   UNL     1     -12.004  13.972  67.663  1.00  0.00    -0.383 NA 
HETATM   20  C   UNL     1     -10.253  15.411  66.533  1.00  0.00    -0.287 C  
BRANCH  19  21
HETATM   21  C   UNL     1     -11.193  12.814  68.072  1.00  0.00    -0.270 C  
BRANCH  21  22
HETATM   22  C   UNL     1     -11.902  11.462  67.863  1.00  0.00    -0.239 C  
BRANCH  22  23
HETATM   23  C   UNL     1     -11.154  10.369  68.579  1.00  0.00    -0.318 A  
HETATM   24  C   UNL     1     -11.012  10.406  69.970  1.00  0.00    -0.370 A  
HETATM   25  C   UNL     1     -10.207   9.475  70.622  1.00  0.00    -0.364 A  
HETATM   26  C   UNL     1      -9.521   8.480  69.900  1.00  0.00    -0.163 A  
HETATM   27  C   UNL     1     -10.524   9.357  67.858  1.00  0.00    -0.296 A  
HETATM   28  C   UNL     1      -9.724   8.420  68.511  1.00  0.00    -0.169 A  
BRANCH  26  29
HETATM   29  C   UNL     1      -8.518   7.564  70.624  1.00  0.00    -0.132 C  
HETATM   30  C   UNL     1      -8.871   6.072  70.483  1.00  0.00    -0.145 C  
HETATM   31  C   UNL     1      -7.108   7.788  70.032  1.00  0.00    -0.054 C  
HETATM   32  C   UNL     1      -8.437   7.826  72.142  1.00  0.00    -0.159 C  
HETATM   33  O   UNL     1     -10.197   5.796  70.430  1.00  0.00    -0.194 OA 
HETATM   34  O   UNL     1      -8.050   5.167  70.481  1.00  0.00    -0.090 OA 
ENDBRANCH  26  29
ENDBRANCH  22  23
ENDBRANCH  21  22
ENDBRANCH  19  21
ENDBRANCH   7  15
ENDBRANCH   5   6
ENDBRANCH   4   5
ENDBRANCH   3   4
ENDBRANCH   2   3
TORSDOF 9
ENDMDL
MODEL       92
REMARK 921   NORMALIZED FREE ENERGY PREDICTED BY IDOCK:   -5.90 KCAL/MOL
REMARK 922        TOTAL FREE ENERGY PREDICTED BY IDOCK:   -9.19 KCAL/MOL
REMARK 923 INTER-LIGAND FREE ENERGY PREDICTED BY IDOCK:   -7.95 KCAL/MOL
REMARK 924 INTRA-LIGAND FREE ENERGY PREDICTED BY IDOCK:   -1.24 KCAL/MOL
REMARK 927      BINDING AFFINITY PREDICTED BY RF-SCORE:    0.00 PKD
ROOT
HETATM    1  C   UNL     1      -5.739  12.614  69.575  1.00  0.00    -0.097 C  
HETATM    2  C   UNL     1      -5.726  14.056  69.107  1.00  0.00    -0.085 C  
ENDROOT
BRANCH   2   3
HETATM    3  O   UNL     1      -6.646  14.840  69.877  1.00  0.00    -0.158 OA 
BRANCH   3   4
HETATM    4  C   UNL     1      -7.128  15.947  69.101  1.00  0.00    -0.185 C  
BRANCH   4   5
HETATM    5  C   UNL     1      -8.603  16.214  69.395  1.00  0.00    -0.094 C  
BRANCH   5   6
HETATM    6  N   UNL     1      -9.379  16.492  68.196  1.00  0.00    -0.214 NA 
HETATM    7  C   UNL     1     -10.100  15.594  67.425  1.00  0.00    -0.251 A  
HETATM    8  N   UNL     1     -10.683  16.208  66.414  1.00  0.00    -0.261 NA 
HETATM    9  C   UNL     1      -8.988  19.003  67.929  1.00  0.00    -0.338 A  
HETATM   10  C   UNL     1     -10.329  17.526  66.515  1.00  0.00    -0.325 A  
HETATM   11  C   UNL     1      -9.501  17.738  67.612  1.00  0.00    -0.255 A  
HETATM   12  C   UNL     1      -9.356  20.072  67.103  1.00  0.00    -0.502 A  
HETATM   13  C   UNL     1     -10.678  18.606  65.691  1.00  0.00    -0.129 A  
HETATM   14  C   UNL     1     -10.187  19.879  66.000  1.00  0.00    -0.591 A  
BRANCH   7  15
HETATM   15  C   UNL     1     -10.181  14.125  67.693  1.00  0.00    -0.241 C  
HETATM   16  C   UNL     1     -11.517  12.032  67.706  1.00  0.00    -0.325 C  
HETATM   17  C   UNL     1      -9.089  11.910  67.494  1.00  0.00    -0.178 C  
HETATM   18  C   UNL     1      -9.040  13.363  67.020  1.00  0.00    -0.245 C  
HETATM   19  N   UNL     1     -10.370  11.233  67.231  1.00  0.00    -0.194 NA 
HETATM   20  C   UNL     1     -11.504  13.497  67.250  1.00  0.00    -0.369 C  
BRANCH  19  21
HETATM   21  C   UNL     1     -10.547  10.843  65.824  1.00  0.00    -0.163 C  
BRANCH  21  22
HETATM   22  C   UNL     1      -9.675   9.645  65.403  1.00  0.00    -0.365 C  
BRANCH  22  23
HETATM   23  C   UNL     1      -9.613   8.632  66.516  1.00  0.00    -0.303 A  
HETATM   24  C   UNL     1     -10.765   7.943  66.906  1.00  0.00    -0.219 A  
HETATM   25  C   UNL     1     -10.743   7.110  68.023  1.00  0.00    -0.232 A  
HETATM   26  C   UNL     1      -9.567   6.943  68.779  1.00  0.00    -0.134 A  
HETATM   27  C   UNL     1      -8.429   8.435  67.223  1.00  0.00    -0.124 A  
HETATM   28  C   UNL     1      -8.404   7.595  68.336  1.00  0.00    -0.125 A  
BRANCH  26  29
HETATM   29  C   UNL     1      -9.611   6.143  70.094  1.00  0.00    -0.187 C  
HETATM   30  C   UNL     1     -10.580   6.750  71.124  1.00  0.00    -0.224 C  
HETATM   31  C   UNL     1     -10.068   4.697  69.791  1.00  0.00    -0.243 C  
HETATM   32  C   UNL     1      -8.246   6.065  70.808  1.00  0.00    -0.125 C  
HETATM   33  O   UNL     1     -10.678   8.103  71.096  1.00  0.00    -0.216 OA 
HETATM   34  O   UNL     1     -11.184   6.104  71.967  1.00  0.00    -0.258 OA 
ENDBRANCH  26  29
ENDBRANCH  22  23
ENDBRANCH  21  22
ENDBRANCH  19  21
ENDBRANCH   7  15
ENDBRANCH   5   6
ENDBRANCH   4   5
ENDBRANCH   3   4
ENDBRANCH   2   3
TORSDOF 9
ENDMDL
MODEL       93
REMARK 921   NORMALIZED FREE ENERGY PREDICTED BY IDOCK:   -5.90 KCAL/MOL
REMARK 922        TOTAL FREE ENERGY PREDICTED BY IDOCK:   -9.19 KCAL/MOL
REMARK 923 INTER-LIGAND FREE ENERGY PREDICTED BY IDOCK:   -7.75 KCAL/MOL
REMARK 924 INTRA-LIGAND FREE ENERGY PREDICTED BY IDOCK:   -1.44 KCAL/MOL
REMARK 927      BINDING AFFINITY PREDICTED BY RF-SCORE:    0.00 PKD
ROOT
HETATM    1  C   UNL     1     -11.642  16.117  70.471  1.00  0.00    -0.322 C  
HETATM    2  C   UNL     1     -10.968  15.905  69.129  1.00  0.00    -0.284 C  
ENDROOT
BRANCH   2   3
HETATM    3  O   UNL     1      -9.631  15.423  69.311  1.00  0.00    -0.235 OA 
BRANCH   3   4
HETATM    4  C   UNL     1      -9.414  14.246  68.520  1.00  0.00    -0.206 C  
BRANCH   4   5
HETATM    5  C   UNL     1     -10.669  13.373  68.490  1.00  0.00    -0.262 C  
BRANCH   5   6
HETATM    6  N   UNL     1     -10.726  12.501  67.327  1.00  0.00    -0.230 NA 
HETATM    7  C   UNL     1     -10.312  11.182  67.235  1.00  0.00    -0.208 A  
HETATM    8  N   UNL     1     -10.523  10.708  66.023  1.00  0.00    -0.217 NA 
HETATM    9  C   UNL     1     -11.722  14.077  65.579  1.00  0.00    -0.353 A  
HETATM   10  C   UNL     1     -11.071  11.736  65.304  1.00  0.00    -0.276 A  
HETATM   11  C   UNL     1     -11.199  12.879  66.086  1.00  0.00    -0.292 A  
HETATM   12  C   UNL     1     -12.137  14.083  64.243  1.00  0.00    -0.476 A  
HETATM   13  C   UNL     1     -11.481  11.763  63.963  1.00  0.00    -0.444 A  
HETATM   14  C   UNL     1     -12.019  12.947  63.444  1.00  0.00    -0.612 A  
BRANCH   7  15
HETATM   15  C   UNL     1      -9.689  10.412  68.355  1.00  0.00    -0.167 C  
HETATM   16  C   UNL     1      -9.898   9.361  70.595  1.00  0.00    -0.276 C  
HETATM   17  C   UNL     1      -8.231   8.522  69.023  1.00  0.00    -0.116 C  
HETATM   18  C   UNL     1      -8.995   9.145  67.853  1.00  0.00    -0.131 C  
HETATM   19  N   UNL     1      -9.069   8.207  70.192  1.00  0.00    -0.147 NA 
HETATM   20  C   UNL     1     -10.682  10.013  69.448  1.00  0.00    -0.258 C  
BRANCH  19  21
HETATM   21  C   UNL     1      -9.895   7.003  70.012  1.00  0.00    -0.177 C  
BRANCH  21  22
HETATM   22  C   UNL     1      -9.077   5.699  69.955  1.00  0.00    -0.157 C  
BRANCH  22  23
HETATM   23  C   UNL     1      -9.302   5.003  68.638  1.00  0.00    -0.173 A  
HETATM   24  C   UNL     1      -8.552   3.872  68.302  1.00  0.00    -0.114 A  
HETATM   25  C   UNL     1      -8.657   3.308  67.032  1.00  0.00    -0.119 A  
HETATM   26  C   UNL     1      -9.517   3.861  66.064  1.00  0.00    -0.185 A  
HETATM   27  C   UNL     1     -10.196   5.528  67.708  1.00  0.00    -0.237 A  
HETATM   28  C   UNL     1     -10.309   4.959  66.440  1.00  0.00    -0.328 A  
BRANCH  26  29
HETATM   29  C   UNL     1      -9.498   3.314  64.625  1.00  0.00    -0.149 C  
HETATM   30  C   UNL     1      -8.301   3.836  63.810  1.00  0.00    -0.091 C  
HETATM   31  C   UNL     1      -9.420   1.771  64.670  1.00  0.00    -0.084 C  
HETATM   32  C   UNL     1     -10.750   3.698  63.809  1.00  0.00    -0.271 C  
HETATM   33  O   UNL     1      -7.904   5.097  64.112  1.00  0.00    -0.085 OA 
HETATM   34  O   UNL     1      -7.762   3.217  62.905  1.00  0.00    -0.064 OA 
ENDBRANCH  26  29
ENDBRANCH  22  23
ENDBRANCH  21  22
ENDBRANCH  19  21
ENDBRANCH   7  15
ENDBRANCH   5   6
ENDBRANCH   4   5
ENDBRANCH   3   4
ENDBRANCH   2   3
TORSDOF 9
ENDMDL
MODEL       94
REMARK 921   NORMALIZED FREE ENERGY PREDICTED BY IDOCK:   -5.88 KCAL/MOL
REMARK 922        TOTAL FREE ENERGY PREDICTED BY IDOCK:   -9.16 KCAL/MOL
REMARK 923 INTER-LIGAND FREE ENERGY PREDICTED BY IDOCK:   -9.36 KCAL/MOL
REMARK 924 INTRA-LIGAND FREE ENERGY PREDICTED BY IDOCK:    0.20 KCAL/MOL
REMARK 927      BINDING AFFINITY PREDICTED BY RF-SCORE:    0.00 PKD
ROOT
HETATM    1  C   UNL     1     -10.156   4.958  69.604  1.00  0.00    -0.300 C  
HETATM    2  C   UNL     1     -10.326   5.640  68.261  1.00  0.00    -0.194 C  
ENDROOT
BRANCH   2   3
HETATM    3  O   UNL     1     -10.356   7.063  68.422  1.00  0.00    -0.178 OA 
BRANCH   3   4
HETATM    4  C   UNL     1     -10.668   7.699  67.174  1.00  0.00    -0.290 C  
BRANCH   4   5
HETATM    5  C   UNL     1     -10.020   9.081  67.092  1.00  0.00    -0.224 C  
BRANCH   5   6
HETATM    6  N   UNL     1      -9.416   9.348  65.796  1.00  0.00    -0.242 NA 
HETATM    7  C   UNL     1      -9.800  10.294  64.860  1.00  0.00    -0.336 A  
HETATM    8  N   UNL     1      -9.015  10.252  63.801  1.00  0.00    -0.216 NA 
HETATM    9  C   UNL     1      -7.557   7.595  65.749  1.00  0.00    -0.088 A  
HETATM   10  C   UNL     1      -8.110   9.254  64.040  1.00  0.00    -0.150 A  
HETATM   11  C   UNL     1      -8.340   8.656  65.275  1.00  0.00    -0.168 A  
HETATM   12  C   UNL     1      -6.504   7.160  64.937  1.00  0.00    -0.037 A  
HETATM   13  C   UNL     1      -7.058   8.797  63.233  1.00  0.00    -0.089 A  
HETATM   14  C   UNL     1      -6.256   7.748  63.698  1.00  0.00    -0.058 A  
BRANCH   7  15
HETATM   15  C   UNL     1     -10.964  11.219  65.022  1.00  0.00    -0.226 C  
HETATM   16  C   UNL     1     -12.029  13.114  66.222  1.00  0.00    -0.415 C  
HETATM   17  C   UNL     1     -12.661  12.643  63.912  1.00  0.00    -0.337 C  
HETATM   18  C   UNL     1     -11.361  11.868  63.696  1.00  0.00    -0.536 C  
HETATM   19  N   UNL     1     -12.586  13.665  64.970  1.00  0.00    -0.626 NA 
HETATM   20  C   UNL     1     -10.722  12.330  66.046  1.00  0.00    -0.296 C  
BRANCH  19  21
HETATM   21  C   UNL     1     -11.860  14.878  64.560  1.00  0.00    -0.396 C  
BRANCH  21  22
HETATM   22  C   UNL     1     -10.346  14.811  64.834  1.00  0.00    -0.365 C  
BRANCH  22  23
HETATM   23  C   UNL     1      -9.924  15.970  65.698  1.00  0.00    -0.346 A  
HETATM   24  C   UNL     1     -10.634  17.174  65.658  1.00  0.00    -0.187 A  
HETATM   25  C   UNL     1     -10.168  18.291  66.349  1.00  0.00    -0.417 A  
HETATM   26  C   UNL     1      -8.979  18.233  67.100  1.00  0.00    -0.264 A  
HETATM   27  C   UNL     1      -8.774  15.884  66.481  1.00  0.00    -0.350 A  
HETATM   28  C   UNL     1      -8.312  16.999  67.179  1.00  0.00    -0.213 A  
BRANCH  26  29
HETATM   29  C   UNL     1      -8.405  19.519  67.724  1.00  0.00    -0.345 C  
HETATM   30  C   UNL     1      -7.169  20.041  66.970  1.00  0.00    -0.241 C  
HETATM   31  C   UNL     1      -9.490  20.619  67.701  1.00  0.00    -0.411 C  
HETATM   32  C   UNL     1      -7.950  19.338  69.186  1.00  0.00    -0.222 C  
HETATM   33  O   UNL     1      -6.377  19.084  66.427  1.00  0.00    -0.183 OA 
HETATM   34  O   UNL     1      -6.853  21.220  66.898  1.00  0.00    -0.415 OA 
ENDBRANCH  26  29
ENDBRANCH  22  23
ENDBRANCH  21  22
ENDBRANCH  19  21
ENDBRANCH   7  15
ENDBRANCH   5   6
ENDBRANCH   4   5
ENDBRANCH   3   4
ENDBRANCH   2   3
TORSDOF 9
ENDMDL
MODEL       95
REMARK 921   NORMALIZED FREE ENERGY PREDICTED BY IDOCK:   -5.88 KCAL/MOL
REMARK 922        TOTAL FREE ENERGY PREDICTED BY IDOCK:   -9.16 KCAL/MOL
REMARK 923 INTER-LIGAND FREE ENERGY PREDICTED BY IDOCK:   -7.96 KCAL/MOL
REMARK 924 INTRA-LIGAND FREE ENERGY PREDICTED BY IDOCK:   -1.20 KCAL/MOL
REMARK 927      BINDING AFFINITY PREDICTED BY RF-SCORE:    0.00 PKD
ROOT
HETATM    1  C   UNL     1      -9.871  19.978  70.680  1.00  0.00     1.291 C  
HETATM    2  C   UNL     1      -9.297  19.743  69.296  1.00  0.00     0.005 C  
ENDROOT
BRANCH   2   3
HETATM    3  O   UNL     1     -10.051  20.463  68.313  1.00  0.00    -0.326 OA 
BRANCH   3   4
HETATM    4  C   UNL     1     -10.930  19.573  67.610  1.00  0.00    -0.215 C  
BRANCH   4   5
HETATM    5  C   UNL     1     -10.399  19.280  66.207  1.00  0.00    -0.480 C  
BRANCH   5   6
HETATM    6  N   UNL     1      -9.218  18.432  66.213  1.00  0.00    -0.453 NA 
HETATM    7  C   UNL     1      -9.149  17.075  66.484  1.00  0.00    -0.264 A  
HETATM    8  N   UNL     1      -7.908  16.640  66.391  1.00  0.00    -0.305 NA 
HETATM    9  C   UNL     1      -7.391  20.129  65.651  1.00  0.00    -0.283 A  
HETATM   10  C   UNL     1      -7.147  17.732  66.066  1.00  0.00    -0.300 A  
HETATM   11  C   UNL     1      -7.934  18.874  65.961  1.00  0.00    -0.162 A  
HETATM   12  C   UNL     1      -6.011  20.196  65.428  1.00  0.00    -0.230 A  
HETATM   13  C   UNL     1      -5.764  17.819  65.851  1.00  0.00    -0.217 A  
HETATM   14  C   UNL     1      -5.207  19.061  65.527  1.00  0.00    -0.191 A  
BRANCH   7  15
HETATM   15  C   UNL     1     -10.323  16.227  66.857  1.00  0.00    -0.299 C  
HETATM   16  C   UNL     1     -11.650  14.156  66.517  1.00  0.00    -0.375 C  
HETATM   17  C   UNL     1     -11.719  15.289  68.677  1.00  0.00    -0.346 C  
HETATM   18  C   UNL     1     -10.401  15.999  68.367  1.00  0.00    -0.251 C  
HETATM   19  N   UNL     1     -11.900  14.013  67.966  1.00  0.00    -0.357 NA 
HETATM   20  C   UNL     1     -10.334  14.863  66.165  1.00  0.00    -0.312 C  
BRANCH  19  21
HETATM   21  C   UNL     1     -11.104  12.911  68.530  1.00  0.00    -0.267 C  
BRANCH  21  22
HETATM   22  C   UNL     1     -11.253  11.586  67.759  1.00  0.00    -0.343 C  
BRANCH  22  23
HETATM   23  C   UNL     1     -11.226  10.423  68.716  1.00  0.00    -0.295 A  
HETATM   24  C   UNL     1     -11.880  10.510  69.948  1.00  0.00    -0.358 A  
HETATM   25  C   UNL     1     -11.743   9.494  70.891  1.00  0.00    -0.391 A  
HETATM   26  C   UNL     1     -10.948   8.363  70.627  1.00  0.00    -0.266 A  
HETATM   27  C   UNL     1     -10.479   9.285  68.419  1.00  0.00    -0.246 A  
HETATM   28  C   UNL     1     -10.348   8.265  69.360  1.00  0.00    -0.223 A  
BRANCH  26  29
HETATM   29  C   UNL     1     -10.688   7.333  71.742  1.00  0.00    -0.243 C  
HETATM   30  C   UNL     1      -9.712   7.854  72.812  1.00  0.00    -0.257 C  
HETATM   31  C   UNL     1     -12.027   6.987  72.433  1.00  0.00    -0.179 C  
HETATM   32  C   UNL     1     -10.071   6.017  71.226  1.00  0.00    -0.237 C  
HETATM   33  O   UNL     1      -8.743   8.685  72.353  1.00  0.00    -0.336 OA 
HETATM   34  O   UNL     1      -9.732   7.516  73.986  1.00  0.00    -0.245 OA 
ENDBRANCH  26  29
ENDBRANCH  22  23
ENDBRANCH  21  22
ENDBRANCH  19  21
ENDBRANCH   7  15
ENDBRANCH   5   6
ENDBRANCH   4   5
ENDBRANCH   3   4
ENDBRANCH   2   3
TORSDOF 9
ENDMDL
MODEL       96
REMARK 921   NORMALIZED FREE ENERGY PREDICTED BY IDOCK:   -5.85 KCAL/MOL
REMARK 922        TOTAL FREE ENERGY PREDICTED BY IDOCK:   -9.11 KCAL/MOL
REMARK 923 INTER-LIGAND FREE ENERGY PREDICTED BY IDOCK:   -8.14 KCAL/MOL
REMARK 924 INTRA-LIGAND FREE ENERGY PREDICTED BY IDOCK:   -0.97 KCAL/MOL
REMARK 927      BINDING AFFINITY PREDICTED BY RF-SCORE:    0.00 PKD
ROOT
HETATM    1  C   UNL     1      -6.407  12.490  69.381  1.00  0.00    -0.114 C  
HETATM    2  C   UNL     1      -6.849  11.040  69.418  1.00  0.00    -0.119 C  
ENDROOT
BRANCH   2   3
HETATM    3  O   UNL     1      -6.790  10.533  70.757  1.00  0.00    -0.317 OA 
BRANCH   3   4
HETATM    4  C   UNL     1      -7.411   9.242  70.828  1.00  0.00    -0.128 C  
BRANCH   4   5
HETATM    5  C   UNL     1      -7.953   8.824  69.462  1.00  0.00    -0.096 C  
BRANCH   5   6
HETATM    6  N   UNL     1      -8.956   7.774  69.546  1.00  0.00    -0.143 NA 
HETATM    7  C   UNL     1     -10.323   7.888  69.347  1.00  0.00    -0.220 A  
HETATM    8  N   UNL     1     -10.918   6.721  69.502  1.00  0.00    -0.269 NA 
HETATM    9  C   UNL     1      -7.512   5.766  70.189  1.00  0.00    -0.081 A  
HETATM   10  C   UNL     1      -9.929   5.830  69.820  1.00  0.00    -0.190 A  
HETATM   11  C   UNL     1      -8.689   6.458  69.870  1.00  0.00    -0.142 A  
HETATM   12  C   UNL     1      -7.622   4.394  70.442  1.00  0.00    -0.049 A  
HETATM   13  C   UNL     1     -10.022   4.457  70.088  1.00  0.00    -0.249 A  
HETATM   14  C   UNL     1      -8.856   3.746  70.394  1.00  0.00    -0.144 A  
BRANCH   7  15
HETATM   15  C   UNL     1     -11.026   9.168  69.026  1.00  0.00    -0.035 C  
HETATM   16  C   UNL     1     -11.875  11.379  69.773  1.00  0.00    -0.364 C  
HETATM   17  C   UNL     1     -11.326  11.031  67.420  1.00  0.00    -0.230 C  
HETATM   18  C   UNL     1     -10.439   9.840  67.784  1.00  0.00    -0.297 C  
HETATM   19  N   UNL     1     -11.484  12.019  68.500  1.00  0.00    -0.268 NA 
HETATM   20  C   UNL     1     -11.005  10.180  70.174  1.00  0.00    -0.376 C  
BRANCH  19  21
HETATM   21  C   UNL     1     -10.304  12.878  68.683  1.00  0.00    -0.188 C  
BRANCH  21  22
HETATM   22  C   UNL     1      -9.743  13.443  67.364  1.00  0.00    -0.221 C  
BRANCH  22  23
HETATM   23  C   UNL     1      -9.842  14.946  67.361  1.00  0.00    -0.221 A  
HETATM   24  C   UNL     1      -9.703  15.658  66.166  1.00  0.00    -0.348 A  
HETATM   25  C   UNL     1      -9.656  17.051  66.177  1.00  0.00    -0.265 A  
HETATM   26  C   UNL     1      -9.748  17.769  67.385  1.00  0.00    -0.284 A  
HETATM   27  C   UNL     1      -9.988  15.645  68.557  1.00  0.00    -0.211 A  
HETATM   28  C   UNL     1      -9.950  17.039  68.568  1.00  0.00    -0.293 A  
BRANCH  26  29
HETATM   29  C   UNL     1      -9.537  19.294  67.386  1.00  0.00    -0.389 C  
HETATM   30  C   UNL     1      -8.049  19.685  67.359  1.00  0.00    -0.288 C  
HETATM   31  C   UNL     1     -10.221  19.900  66.139  1.00  0.00    -0.611 C  
HETATM   32  C   UNL     1     -10.124  19.992  68.630  1.00  0.00    -0.465 C  
HETATM   33  O   UNL     1      -7.218  18.839  68.017  1.00  0.00    -0.235 OA 
HETATM   34  O   UNL     1      -7.614  20.708  66.851  1.00  0.00    -0.290 OA 
ENDBRANCH  26  29
ENDBRANCH  22  23
ENDBRANCH  21  22
ENDBRANCH  19  21
ENDBRANCH   7  15
ENDBRANCH   5   6
ENDBRANCH   4   5
ENDBRANCH   3   4
ENDBRANCH   2   3
TORSDOF 9
ENDMDL
MODEL       97
REMARK 921   NORMALIZED FREE ENERGY PREDICTED BY IDOCK:   -5.84 KCAL/MOL
REMARK 922        TOTAL FREE ENERGY PREDICTED BY IDOCK:   -9.10 KCAL/MOL
REMARK 923 INTER-LIGAND FREE ENERGY PREDICTED BY IDOCK:   -7.84 KCAL/MOL
REMARK 924 INTRA-LIGAND FREE ENERGY PREDICTED BY IDOCK:   -1.26 KCAL/MOL
REMARK 927      BINDING AFFINITY PREDICTED BY RF-SCORE:    0.00 PKD
ROOT
HETATM    1  C   UNL     1      -7.318  13.294  68.305  1.00  0.00    -0.113 C  
HETATM    2  C   UNL     1      -7.634  11.817  68.439  1.00  0.00    -0.123 C  
ENDROOT
BRANCH   2   3
HETATM    3  O   UNL     1      -7.104  11.301  69.667  1.00  0.00    -0.103 OA 
BRANCH   3   4
HETATM    4  C   UNL     1      -7.423   9.909  69.800  1.00  0.00    -0.140 C  
BRANCH   4   5
HETATM    5  C   UNL     1      -8.632   9.543  68.940  1.00  0.00    -0.128 C  
BRANCH   5   6
HETATM    6  N   UNL     1      -9.204   8.251  69.284  1.00  0.00    -0.151 NA 
HETATM    7  C   UNL     1      -8.989   7.034  68.657  1.00  0.00    -0.130 A  
HETATM    8  N   UNL     1      -9.674   6.075  69.249  1.00  0.00    -0.138 NA 
HETATM    9  C   UNL     1     -10.692   8.884  71.264  1.00  0.00    -0.357 A  
HETATM   10  C   UNL     1     -10.359   6.674  70.272  1.00  0.00    -0.202 A  
HETATM   11  C   UNL     1     -10.099   8.039  70.314  1.00  0.00    -0.192 A  
HETATM   12  C   UNL     1     -11.554   8.297  72.197  1.00  0.00    -0.428 A  
HETATM   13  C   UNL     1     -11.235   6.104  71.208  1.00  0.00    -0.348 A  
HETATM   14  C   UNL     1     -11.824   6.930  72.172  1.00  0.00    -0.318 A  
BRANCH   7  15
HETATM   15  C   UNL     1      -8.118   6.844  67.457  1.00  0.00    -0.116 C  
HETATM   16  C   UNL     1      -7.832   6.949  64.993  1.00  0.00    -0.121 C  
HETATM   17  C   UNL     1      -5.878   7.151  66.442  1.00  0.00    -0.035 C  
HETATM   18  C   UNL     1      -6.770   7.547  67.619  1.00  0.00    -0.067 C  
HETATM   19  N   UNL     1      -6.450   7.458  65.120  1.00  0.00    -0.038 NA 
HETATM   20  C   UNL     1      -8.759   7.329  66.155  1.00  0.00    -0.170 C  
BRANCH  19  21
HETATM   21  C   UNL     1      -6.380   8.885  64.770  1.00  0.00    -0.066 C  
BRANCH  21  22
HETATM   22  C   UNL     1      -7.123   9.235  63.467  1.00  0.00    -0.090 C  
BRANCH  22  23
HETATM   23  C   UNL     1      -8.216  10.233  63.746  1.00  0.00    -0.153 A  
HETATM   24  C   UNL     1      -8.541  10.573  65.063  1.00  0.00    -0.184 A  
HETATM   25  C   UNL     1      -9.639  11.387  65.330  1.00  0.00    -0.255 A  
HETATM   26  C   UNL     1     -10.442  11.885  64.287  1.00  0.00    -0.370 A  
HETATM   27  C   UNL     1      -8.970  10.763  62.701  1.00  0.00    -0.326 A  
HETATM   28  C   UNL     1     -10.064  11.585  62.967  1.00  0.00    -0.330 A  
BRANCH  26  29
HETATM   29  C   UNL     1     -11.736  12.652  64.617  1.00  0.00    -0.411 C  
HETATM   30  C   UNL     1     -11.612  14.163  64.353  1.00  0.00    -0.362 C  
HETATM   31  C   UNL     1     -12.888  12.100  63.747  1.00  0.00    -0.451 C  
HETATM   32  C   UNL     1     -12.161  12.526  66.095  1.00  0.00    -0.357 C  
HETATM   33  O   UNL     1     -10.381  14.688  64.575  1.00  0.00    -0.233 OA 
HETATM   34  O   UNL     1     -12.543  14.885  64.028  1.00  0.00    -0.832 OA 
ENDBRANCH  26  29
ENDBRANCH  22  23
ENDBRANCH  21  22
ENDBRANCH  19  21
ENDBRANCH   7  15
ENDBRANCH   5   6
ENDBRANCH   4   5
ENDBRANCH   3   4
ENDBRANCH   2   3
TORSDOF 9
ENDMDL
MODEL       98
REMARK 921   NORMALIZED FREE ENERGY PREDICTED BY IDOCK:   -5.82 KCAL/MOL
REMARK 922        TOTAL FREE ENERGY PREDICTED BY IDOCK:   -9.07 KCAL/MOL
REMARK 923 INTER-LIGAND FREE ENERGY PREDICTED BY IDOCK:   -8.46 KCAL/MOL
REMARK 924 INTRA-LIGAND FREE ENERGY PREDICTED BY IDOCK:   -0.61 KCAL/MOL
REMARK 927      BINDING AFFINITY PREDICTED BY RF-SCORE:    0.00 PKD
ROOT
HETATM    1  C   UNL     1     -12.898  10.765  70.532  1.00  0.00    -0.335 C  
HETATM    2  C   UNL     1     -12.416   9.868  71.656  1.00  0.00    -0.415 C  
ENDROOT
BRANCH   2   3
HETATM    3  O   UNL     1     -11.043   9.509  71.456  1.00  0.00    -0.367 OA 
BRANCH   3   4
HETATM    4  C   UNL     1     -10.947   8.379  70.578  1.00  0.00    -0.242 C  
BRANCH   4   5
HETATM    5  C   UNL     1      -9.675   8.454  69.734  1.00  0.00    -0.180 C  
BRANCH   5   6
HETATM    6  N   UNL     1      -9.713   7.581  68.571  1.00  0.00    -0.154 NA 
HETATM    7  C   UNL     1      -9.837   7.947  67.240  1.00  0.00    -0.195 A  
HETATM    8  N   UNL     1      -9.830   6.884  66.460  1.00  0.00    -0.144 NA 
HETATM    9  C   UNL     1      -9.543   5.283  69.675  1.00  0.00    -0.225 A  
HETATM   10  C   UNL     1      -9.712   5.803  67.292  1.00  0.00    -0.129 A  
HETATM   11  C   UNL     1      -9.651   6.203  68.622  1.00  0.00    -0.127 A  
HETATM   12  C   UNL     1      -9.477   3.926  69.339  1.00  0.00    -0.260 A  
HETATM   13  C   UNL     1      -9.658   4.438  66.974  1.00  0.00    -0.221 A  
HETATM   14  C   UNL     1      -9.535   3.506  68.011  1.00  0.00    -0.217 A  
BRANCH   7  15
HETATM   15  C   UNL     1      -9.985   9.355  66.761  1.00  0.00    -0.305 C  
HETATM   16  C   UNL     1     -11.180  11.529  66.870  1.00  0.00    -0.298 C  
HETATM   17  C   UNL     1      -8.855  11.468  66.130  1.00  0.00    -0.167 C  
HETATM   18  C   UNL     1      -8.657  10.111  66.806  1.00  0.00    -0.129 C  
HETATM   19  N   UNL     1      -9.922  12.290  66.726  1.00  0.00    -0.203 NA 
HETATM   20  C   UNL     1     -11.022  10.161  67.546  1.00  0.00    -0.319 C  
BRANCH  19  21
HETATM   21  C   UNL     1      -9.536  12.914  68.002  1.00  0.00    -0.213 C  
BRANCH  21  22
HETATM   22  C   UNL     1     -10.196  14.285  68.240  1.00  0.00    -0.244 C  
BRANCH  22  23
HETATM   23  C   UNL     1      -9.225  15.391  67.915  1.00  0.00    -0.180 A  
HETATM   24  C   UNL     1      -8.841  16.303  68.902  1.00  0.00    -0.253 A  
HETATM   25  C   UNL     1      -8.055  17.406  68.574  1.00  0.00    -0.270 A  
HETATM   26  C   UNL     1      -7.631  17.625  67.249  1.00  0.00    -0.217 A  
HETATM   27  C   UNL     1      -8.769  15.565  66.610  1.00  0.00    -0.326 A  
HETATM   28  C   UNL     1      -7.975  16.664  66.283  1.00  0.00    -0.340 A  
BRANCH  26  29
HETATM   29  C   UNL     1      -6.897  18.929  66.887  1.00  0.00    -0.205 C  
HETATM   30  C   UNL     1      -7.821  20.158  66.927  1.00  0.00    -0.315 C  
HETATM   31  C   UNL     1      -5.743  19.155  67.891  1.00  0.00    -0.195 C  
HETATM   32  C   UNL     1      -6.290  18.915  65.469  1.00  0.00    -0.307 C  
HETATM   33  O   UNL     1      -9.107  19.926  66.563  1.00  0.00    -0.350 OA 
HETATM   34  O   UNL     1      -7.451  21.291  67.198  1.00  0.00    -0.416 OA 
ENDBRANCH  26  29
ENDBRANCH  22  23
ENDBRANCH  21  22
ENDBRANCH  19  21
ENDBRANCH   7  15
ENDBRANCH   5   6
ENDBRANCH   4   5
ENDBRANCH   3   4
ENDBRANCH   2   3
TORSDOF 9
ENDMDL
MODEL       99
REMARK 921   NORMALIZED FREE ENERGY PREDICTED BY IDOCK:   -5.81 KCAL/MOL
REMARK 922        TOTAL FREE ENERGY PREDICTED BY IDOCK:   -9.05 KCAL/MOL
REMARK 923 INTER-LIGAND FREE ENERGY PREDICTED BY IDOCK:   -8.56 KCAL/MOL
REMARK 924 INTRA-LIGAND FREE ENERGY PREDICTED BY IDOCK:   -0.49 KCAL/MOL
REMARK 927      BINDING AFFINITY PREDICTED BY RF-SCORE:    0.00 PKD
ROOT
HETATM    1  C   UNL     1     -14.257  14.975  72.035  1.00  0.00    -0.649 C  
HETATM    2  C   UNL     1     -12.868  15.519  72.306  1.00  0.00    -0.406 C  
ENDROOT
BRANCH   2   3
HETATM    3  O   UNL     1     -11.917  14.931  71.409  1.00  0.00    -0.310 OA 
BRANCH   3   4
HETATM    4  C   UNL     1     -11.307  15.944  70.597  1.00  0.00    -0.397 C  
BRANCH   4   5
HETATM    5  C   UNL     1     -11.922  15.961  69.198  1.00  0.00    -0.255 C  
BRANCH   5   6
HETATM    6  N   UNL     1     -10.933  16.134  68.145  1.00  0.00    -0.334 NA 
HETATM    7  C   UNL     1     -10.535  15.208  67.195  1.00  0.00    -0.280 A  
HETATM    8  N   UNL     1      -9.618  15.719  66.397  1.00  0.00    -0.262 NA 
HETATM    9  C   UNL     1     -10.155  18.527  68.590  1.00  0.00    -0.406 A  
HETATM   10  C   UNL     1      -9.402  16.997  66.838  1.00  0.00    -0.251 A  
HETATM   11  C   UNL     1     -10.198  17.286  67.941  1.00  0.00    -0.332 A  
HETATM   12  C   UNL     1      -9.283  19.493  68.074  1.00  0.00    -0.400 A  
HETATM   13  C   UNL     1      -8.525  17.972  66.341  1.00  0.00    -0.262 A  
HETATM   14  C   UNL     1      -8.478  19.223  66.968  1.00  0.00    -0.305 A  
BRANCH   7  15
HETATM   15  C   UNL     1     -11.058  13.810  67.106  1.00  0.00    -0.315 C  
HETATM   16  C   UNL     1     -11.075  11.609  65.956  1.00  0.00    -0.270 C  
HETATM   17  C   UNL     1     -11.676  11.738  68.317  1.00  0.00    -0.310 C  
HETATM   18  C   UNL     1     -10.955  13.081  68.446  1.00  0.00    -0.288 C  
HETATM   19  N   UNL     1     -11.164  10.879  67.237  1.00  0.00    -0.388 NA 
HETATM   20  C   UNL     1     -10.355  12.962  66.044  1.00  0.00    -0.294 C  
BRANCH  19  21
HETATM   21  C   UNL     1      -9.885  10.229  67.562  1.00  0.00    -0.173 C  
BRANCH  21  22
HETATM   22  C   UNL     1      -9.550  10.249  69.066  1.00  0.00    -0.210 C  
BRANCH  22  23
HETATM   23  C   UNL     1      -9.201   8.861  69.537  1.00  0.00    -0.150 A  
HETATM   24  C   UNL     1      -9.598   7.745  68.796  1.00  0.00    -0.154 A  
HETATM   25  C   UNL     1      -9.399   6.460  69.296  1.00  0.00    -0.138 A  
HETATM   26  C   UNL     1      -8.795   6.257  70.551  1.00  0.00    -0.144 A  
HETATM   27  C   UNL     1      -8.554   8.674  70.757  1.00  0.00    -0.197 A  
HETATM   28  C   UNL     1      -8.347   7.388  71.254  1.00  0.00    -0.110 A  
BRANCH  26  29
HETATM   29  C   UNL     1      -8.729   4.839  71.147  1.00  0.00    -0.138 C  
HETATM   30  C   UNL     1      -7.421   4.109  70.792  1.00  0.00    -0.047 C  
HETATM   31  C   UNL     1      -8.830   4.932  72.687  1.00  0.00    -0.125 C  
HETATM   32  C   UNL     1      -9.862   3.915  70.656  1.00  0.00    -0.193 C  
HETATM   33  O   UNL     1      -6.907   4.408  69.573  1.00  0.00    -0.043 OA 
HETATM   34  O   UNL     1      -6.887   3.267  71.499  1.00  0.00    -0.029 OA 
ENDBRANCH  26  29
ENDBRANCH  22  23
ENDBRANCH  21  22
ENDBRANCH  19  21
ENDBRANCH   7  15
ENDBRANCH   5   6
ENDBRANCH   4   5
ENDBRANCH   3   4
ENDBRANCH   2   3
TORSDOF 9
ENDMDL
MODEL      100
REMARK 921   NORMALIZED FREE ENERGY PREDICTED BY IDOCK:   -5.77 KCAL/MOL
REMARK 922        TOTAL FREE ENERGY PREDICTED BY IDOCK:   -8.99 KCAL/MOL
REMARK 923 INTER-LIGAND FREE ENERGY PREDICTED BY IDOCK:   -8.24 KCAL/MOL
REMARK 924 INTRA-LIGAND FREE ENERGY PREDICTED BY IDOCK:   -0.75 KCAL/MOL
REMARK 927      BINDING AFFINITY PREDICTED BY RF-SCORE:    0.00 PKD
ROOT
HETATM    1  C   UNL     1     -12.161  12.141  63.949  1.00  0.00    -0.587 C  
HETATM    2  C   UNL     1     -11.974  13.533  64.521  1.00  0.00    -0.410 C  
ENDROOT
BRANCH   2   3
HETATM    3  O   UNL     1     -10.608  13.947  64.393  1.00  0.00    -0.400 OA 
BRANCH   3   4
HETATM    4  C   UNL     1     -10.453  15.299  64.848  1.00  0.00    -0.302 C  
BRANCH   4   5
HETATM    5  C   UNL     1     -11.022  15.466  66.257  1.00  0.00    -0.278 C  
BRANCH   5   6
HETATM    6  N   UNL     1     -10.099  16.129  67.166  1.00  0.00    -0.263 NA 
HETATM    7  C   UNL     1      -9.230  15.541  68.070  1.00  0.00    -0.187 A  
HETATM    8  N   UNL     1      -8.543  16.457  68.723  1.00  0.00    -0.239 NA 
HETATM    9  C   UNL     1     -10.583  18.585  66.652  1.00  0.00    -0.383 A  
HETATM   10  C   UNL     1      -8.978  17.666  68.250  1.00  0.00    -0.276 A  
HETATM   11  C   UNL     1      -9.963  17.499  67.284  1.00  0.00    -0.312 A  
HETATM   12  C   UNL     1     -10.159  19.869  67.016  1.00  0.00    -0.578 A  
HETATM   13  C   UNL     1      -8.573  18.960  68.612  1.00  0.00    -0.376 A  
HETATM   14  C   UNL     1      -9.171  20.057  67.981  1.00  0.00    -0.376 A  
BRANCH   7  15
HETATM   15  C   UNL     1      -9.108  14.067  68.289  1.00  0.00    -0.191 C  
HETATM   16  C   UNL     1     -10.180  11.828  68.365  1.00  0.00    -0.206 C  
HETATM   17  C   UNL     1      -7.792  12.006  67.892  1.00  0.00    -0.144 C  
HETATM   18  C   UNL     1      -7.966  13.465  67.471  1.00  0.00    -0.186 C  
HETATM   19  N   UNL     1      -9.005  11.185  67.741  1.00  0.00    -0.137 NA 
HETATM   20  C   UNL     1     -10.389  13.295  67.965  1.00  0.00    -0.243 C  
BRANCH  19  21
HETATM   21  C   UNL     1      -9.289  10.811  66.346  1.00  0.00    -0.174 C  
BRANCH  21  22
HETATM   22  C   UNL     1     -10.357   9.710  66.209  1.00  0.00    -0.230 C  
BRANCH  22  23
HETATM   23  C   UNL     1      -9.761   8.367  66.543  1.00  0.00    -0.330 A  
HETATM   24  C   UNL     1     -10.571   7.341  67.039  1.00  0.00    -0.415 A  
HETATM   25  C   UNL     1     -10.005   6.146  67.478  1.00  0.00    -0.159 A  
HETATM   26  C   UNL     1      -8.613   5.944  67.431  1.00  0.00    -0.106 A  
HETATM   27  C   UNL     1      -8.387   8.161  66.441  1.00  0.00    -0.115 A  
HETATM   28  C   UNL     1      -7.821   6.962  66.872  1.00  0.00    -0.107 A  
BRANCH  26  29
HETATM   29  C   UNL     1      -8.002   4.681  68.065  1.00  0.00    -0.085 C  
HETATM   30  C   UNL     1      -7.306   3.778  67.030  1.00  0.00    -0.071 C  
HETATM   31  C   UNL     1      -6.957   5.100  69.124  1.00  0.00    -0.055 C  
HETATM   32  C   UNL     1      -9.043   3.782  68.762  1.00  0.00    -0.199 C  
HETATM   33  O   UNL     1      -7.874   3.769  65.798  1.00  0.00    -0.088 OA 
HETATM   34  O   UNL     1      -6.351   3.057  67.276  1.00  0.00    -0.034 OA 
ENDBRANCH  26  29
ENDBRANCH  22  23
ENDBRANCH  21  22
ENDBRANCH  19  21
ENDBRANCH   7  15
ENDBRANCH   5   6
ENDBRANCH   4   5
ENDBRANCH   3   4
ENDBRANCH   2   3
TORSDOF 9
ENDMDL
MODEL      101
REMARK 921   NORMALIZED FREE ENERGY PREDICTED BY IDOCK:   -5.76 KCAL/MOL
REMARK 922        TOTAL FREE ENERGY PREDICTED BY IDOCK:   -8.97 KCAL/MOL
REMARK 923 INTER-LIGAND FREE ENERGY PREDICTED BY IDOCK:   -7.01 KCAL/MOL
REMARK 924 INTRA-LIGAND FREE ENERGY PREDICTED BY IDOCK:   -1.97 KCAL/MOL
REMARK 927      BINDING AFFINITY PREDICTED BY RF-SCORE:    0.00 PKD
ROOT
HETATM    1  C   UNL     1      -6.667  18.568  68.896  1.00  0.00    -0.284 C  
HETATM    2  C   UNL     1      -7.623  18.164  67.790  1.00  0.00    -0.222 C  
ENDROOT
BRANCH   2   3
HETATM    3  O   UNL     1      -8.979  18.253  68.244  1.00  0.00    -0.289 OA 
BRANCH   3   4
HETATM    4  C   UNL     1      -9.827  17.417  67.445  1.00  0.00    -0.281 C  
BRANCH   4   5
HETATM    5  C   UNL     1      -9.017  16.688  66.373  1.00  0.00    -0.291 C  
BRANCH   5   6
HETATM    6  N   UNL     1      -9.356  15.277  66.267  1.00  0.00    -0.290 NA 
HETATM    7  C   UNL     1      -8.701  14.202  66.847  1.00  0.00    -0.166 A  
HETATM    8  N   UNL     1      -9.296  13.067  66.535  1.00  0.00    -0.242 NA 
HETATM    9  C   UNL     1     -11.390  15.374  64.724  1.00  0.00    -0.381 A  
HETATM   10  C   UNL     1     -10.350  13.401  65.727  1.00  0.00    -0.293 A  
HETATM   11  C   UNL     1     -10.408  14.776  65.527  1.00  0.00    -0.364 A  
HETATM   12  C   UNL     1     -12.339  14.531  64.134  1.00  0.00    -0.317 A  
HETATM   13  C   UNL     1     -11.301  12.570  65.118  1.00  0.00    -0.352 A  
HETATM   14  C   UNL     1     -12.298  13.150  64.325  1.00  0.00    -0.421 A  
BRANCH   7  15
HETATM   15  C   UNL     1      -7.472  14.316  67.691  1.00  0.00    -0.194 C  
HETATM   16  C   UNL     1      -6.445  14.659  69.926  1.00  0.00    -0.164 C  
HETATM   17  C   UNL     1      -5.215  13.435  68.210  1.00  0.00    -0.095 C  
HETATM   18  C   UNL     1      -6.515  13.147  67.457  1.00  0.00    -0.154 C  
HETATM   19  N   UNL     1      -5.390  13.661  69.654  1.00  0.00    -0.085 NA 
HETATM   20  C   UNL     1      -7.767  14.402  69.190  1.00  0.00    -0.050 C  
BRANCH  19  21
HETATM   21  C   UNL     1      -5.627  12.425  70.415  1.00  0.00    -0.162 C  
BRANCH  21  22
HETATM   22  C   UNL     1      -5.148  11.154  69.687  1.00  0.00    -0.041 C  
BRANCH  22  23
HETATM   23  C   UNL     1      -6.262  10.141  69.627  1.00  0.00    -0.052 A  
HETATM   24  C   UNL     1      -5.982   8.804  69.329  1.00  0.00    -0.041 A  
HETATM   25  C   UNL     1      -7.019   7.894  69.136  1.00  0.00    -0.057 A  
HETATM   26  C   UNL     1      -8.365   8.296  69.238  1.00  0.00    -0.122 A  
HETATM   27  C   UNL     1      -7.587  10.542  69.783  1.00  0.00    -0.102 A  
HETATM   28  C   UNL     1      -8.625   9.629  69.599  1.00  0.00    -0.196 A  
BRANCH  26  29
HETATM   29  C   UNL     1      -9.488   7.310  68.868  1.00  0.00    -0.143 C  
HETATM   30  C   UNL     1     -10.382   6.955  70.070  1.00  0.00    -0.200 C  
HETATM   31  C   UNL     1     -10.376   7.942  67.772  1.00  0.00    -0.289 C  
HETATM   32  C   UNL     1      -8.965   5.962  68.331  1.00  0.00    -0.112 C  
HETATM   33  O   UNL     1      -9.748   6.916  71.268  1.00  0.00    -0.172 OA 
HETATM   34  O   UNL     1     -11.564   6.659  69.985  1.00  0.00    -0.380 OA 
ENDBRANCH  26  29
ENDBRANCH  22  23
ENDBRANCH  21  22
ENDBRANCH  19  21
ENDBRANCH   7  15
ENDBRANCH   5   6
ENDBRANCH   4   5
ENDBRANCH   3   4
ENDBRANCH   2   3
TORSDOF 9
ENDMDL
MODEL      102
REMARK 921   NORMALIZED FREE ENERGY PREDICTED BY IDOCK:   -5.74 KCAL/MOL
REMARK 922        TOTAL FREE ENERGY PREDICTED BY IDOCK:   -8.94 KCAL/MOL
REMARK 923 INTER-LIGAND FREE ENERGY PREDICTED BY IDOCK:   -7.66 KCAL/MOL
REMARK 924 INTRA-LIGAND FREE ENERGY PREDICTED BY IDOCK:   -1.28 KCAL/MOL
REMARK 927      BINDING AFFINITY PREDICTED BY RF-SCORE:    0.00 PKD
ROOT
HETATM    1  C   UNL     1      -6.084  19.154  69.199  1.00  0.00    -0.284 C  
HETATM    2  C   UNL     1      -7.324  19.914  69.628  1.00  0.00     0.031 C  
ENDROOT
BRANCH   2   3
HETATM    3  O   UNL     1      -8.505  19.180  69.283  1.00  0.00    -0.169 OA 
BRANCH   3   4
HETATM    4  C   UNL     1      -9.511  20.068  68.772  1.00  0.00    -0.070 C  
BRANCH   4   5
HETATM    5  C   UNL     1      -9.767  19.802  67.289  1.00  0.00    -0.370 C  
BRANCH   5   6
HETATM    6  N   UNL     1      -8.733  18.985  66.672  1.00  0.00    -0.300 NA 
HETATM    7  C   UNL     1      -8.688  17.603  66.578  1.00  0.00    -0.263 A  
HETATM    8  N   UNL     1      -7.599  17.212  65.946  1.00  0.00    -0.378 NA 
HETATM    9  C   UNL     1      -7.085  20.778  65.900  1.00  0.00    -0.039 A  
HETATM   10  C   UNL     1      -6.913  18.354  65.631  1.00  0.00    -0.206 A  
HETATM   11  C   UNL     1      -7.587  19.483  66.084  1.00  0.00    -0.308 A  
HETATM   12  C   UNL     1      -5.870  20.906  65.216  1.00  0.00    -0.273 A  
HETATM   13  C   UNL     1      -5.690  18.499  64.959  1.00  0.00    -0.246 A  
HETATM   14  C   UNL     1      -5.181  19.787  64.753  1.00  0.00    -0.196 A  
BRANCH   7  15
HETATM   15  C   UNL     1      -9.724  16.684  67.141  1.00  0.00    -0.250 C  
HETATM   16  C   UNL     1     -11.489  14.978  66.768  1.00  0.00    -0.251 C  
HETATM   17  C   UNL     1     -10.316  15.049  68.907  1.00  0.00    -0.244 C  
HETATM   18  C   UNL     1      -9.159  15.817  68.267  1.00  0.00    -0.187 C  
HETATM   19  N   UNL     1     -11.081  14.214  67.965  1.00  0.00    -0.259 NA 
HETATM   20  C   UNL     1     -10.354  15.761  66.096  1.00  0.00    -0.333 C  
BRANCH  19  21
HETATM   21  C   UNL     1     -10.388  12.973  67.586  1.00  0.00    -0.222 C  
BRANCH  21  22
HETATM   22  C   UNL     1     -11.291  11.962  66.856  1.00  0.00    -0.392 C  
BRANCH  22  23
HETATM   23  C   UNL     1     -10.645  10.601  66.849  1.00  0.00    -0.311 A  
HETATM   24  C   UNL     1      -9.998  10.135  65.701  1.00  0.00    -0.348 A  
HETATM   25  C   UNL     1      -9.520   8.827  65.643  1.00  0.00    -0.171 A  
HETATM   26  C   UNL     1      -9.677   7.950  66.734  1.00  0.00    -0.303 A  
HETATM   27  C   UNL     1     -10.759   9.761  67.955  1.00  0.00    -0.312 A  
HETATM   28  C   UNL     1     -10.274   8.455  67.901  1.00  0.00    -0.273 A  
BRANCH  26  29
HETATM   29  C   UNL     1      -9.281   6.469  66.587  1.00  0.00    -0.172 C  
HETATM   30  C   UNL     1      -8.077   6.090  67.467  1.00  0.00    -0.102 C  
HETATM   31  C   UNL     1     -10.479   5.582  66.995  1.00  0.00    -0.336 C  
HETATM   32  C   UNL     1      -8.879   6.084  65.149  1.00  0.00     0.046 C  
HETATM   33  O   UNL     1      -7.157   7.072  67.642  1.00  0.00    -0.080 OA 
HETATM   34  O   UNL     1      -7.891   4.978  67.938  1.00  0.00    -0.089 OA 
ENDBRANCH  26  29
ENDBRANCH  22  23
ENDBRANCH  21  22
ENDBRANCH  19  21
ENDBRANCH   7  15
ENDBRANCH   5   6
ENDBRANCH   4   5
ENDBRANCH   3   4
ENDBRANCH   2   3
TORSDOF 9
ENDMDL
MODEL      103
REMARK 921   NORMALIZED FREE ENERGY PREDICTED BY IDOCK:   -5.74 KCAL/MOL
REMARK 922        TOTAL FREE ENERGY PREDICTED BY IDOCK:   -8.94 KCAL/MOL
REMARK 923 INTER-LIGAND FREE ENERGY PREDICTED BY IDOCK:   -7.81 KCAL/MOL
REMARK 924 INTRA-LIGAND FREE ENERGY PREDICTED BY IDOCK:   -1.13 KCAL/MOL
REMARK 927      BINDING AFFINITY PREDICTED BY RF-SCORE:    0.00 PKD
ROOT
HETATM    1  C   UNL     1      -9.173   4.207  65.970  1.00  0.00    -0.149 C  
HETATM    2  C   UNL     1     -10.468   4.816  66.472  1.00  0.00    -0.204 C  
ENDROOT
BRANCH   2   3
HETATM    3  O   UNL     1     -10.392   5.061  67.882  1.00  0.00    -0.123 OA 
BRANCH   3   4
HETATM    4  C   UNL     1      -9.580   6.214  68.144  1.00  0.00    -0.116 C  
BRANCH   4   5
HETATM    5  C   UNL     1      -9.542   6.523  69.640  1.00  0.00    -0.147 C  
BRANCH   5   6
HETATM    6  N   UNL     1     -10.166   7.794  69.974  1.00  0.00    -0.206 NA 
HETATM    7  C   UNL     1      -9.691   9.068  69.707  1.00  0.00    -0.175 A  
HETATM    8  N   UNL     1     -10.528   9.984  70.153  1.00  0.00    -0.279 NA 
HETATM    9  C   UNL     1     -12.273   7.005  71.186  1.00  0.00    -0.427 A  
HETATM   10  C   UNL     1     -11.563   9.300  70.734  1.00  0.00    -0.285 A  
HETATM   11  C   UNL     1     -11.362   7.927  70.652  1.00  0.00    -0.259 A  
HETATM   12  C   UNL     1     -13.422   7.517  71.798  1.00  0.00    -0.381 A  
HETATM   13  C   UNL     1     -12.714   9.797  71.362  1.00  0.00    -0.483 A  
HETATM   14  C   UNL     1     -13.642   8.891  71.887  1.00  0.00    -0.474 A  
BRANCH   7  15
HETATM   15  C   UNL     1      -8.391   9.360  69.027  1.00  0.00    -0.124 C  
HETATM   16  C   UNL     1      -7.149   9.901  66.946  1.00  0.00    -0.090 C  
HETATM   17  C   UNL     1      -6.224  10.559  69.107  1.00  0.00    -0.045 C  
HETATM   18  C   UNL     1      -7.607  10.455  69.750  1.00  0.00    -0.141 C  
HETATM   19  N   UNL     1      -6.250  10.831  67.660  1.00  0.00    -0.051 NA 
HETATM   20  C   UNL     1      -8.549   9.771  67.562  1.00  0.00    -0.125 C  
BRANCH  19  21
HETATM   21  C   UNL     1      -6.573  12.229  67.334  1.00  0.00    -0.154 C  
BRANCH  21  22
HETATM   22  C   UNL     1      -6.085  13.236  68.392  1.00  0.00    -0.086 C  
BRANCH  22  23
HETATM   23  C   UNL     1      -6.672  14.597  68.122  1.00  0.00    -0.135 A  
HETATM   24  C   UNL     1      -5.968  15.751  68.479  1.00  0.00    -0.103 A  
HETATM   25  C   UNL     1      -6.563  17.005  68.359  1.00  0.00    -0.157 A  
HETATM   26  C   UNL     1      -7.879  17.138  67.877  1.00  0.00    -0.196 A  
HETATM   27  C   UNL     1      -7.955  14.718  67.594  1.00  0.00    -0.191 A  
HETATM   28  C   UNL     1      -8.548  15.973  67.465  1.00  0.00    -0.190 A  
BRANCH  26  29
HETATM   29  C   UNL     1      -8.566  18.516  67.901  1.00  0.00    -0.304 C  
HETATM   30  C   UNL     1      -8.686  19.141  66.499  1.00  0.00    -0.337 C  
HETATM   31  C   UNL     1      -9.987  18.363  68.488  1.00  0.00    -0.415 C  
HETATM   32  C   UNL     1      -7.814  19.559  68.754  1.00  0.00    -0.377 C  
HETATM   33  O   UNL     1      -7.668  18.853  65.650  1.00  0.00    -0.478 OA 
HETATM   34  O   UNL     1      -9.581  19.899  66.157  1.00  0.00    -0.398 OA 
ENDBRANCH  26  29
ENDBRANCH  22  23
ENDBRANCH  21  22
ENDBRANCH  19  21
ENDBRANCH   7  15
ENDBRANCH   5   6
ENDBRANCH   4   5
ENDBRANCH   3   4
ENDBRANCH   2   3
TORSDOF 9
ENDMDL
MODEL      104
REMARK 921   NORMALIZED FREE ENERGY PREDICTED BY IDOCK:   -5.74 KCAL/MOL
REMARK 922        TOTAL FREE ENERGY PREDICTED BY IDOCK:   -8.94 KCAL/MOL
REMARK 923 INTER-LIGAND FREE ENERGY PREDICTED BY IDOCK:   -8.96 KCAL/MOL
REMARK 924 INTRA-LIGAND FREE ENERGY PREDICTED BY IDOCK:    0.02 KCAL/MOL
REMARK 927      BINDING AFFINITY PREDICTED BY RF-SCORE:    0.00 PKD
ROOT
HETATM    1  C   UNL     1      -8.438   8.252  65.188  1.00  0.00    -0.164 C  
HETATM    2  C   UNL     1      -9.531   8.925  65.994  1.00  0.00    -0.252 C  
ENDROOT
BRANCH   2   3
HETATM    3  O   UNL     1     -10.343   7.946  66.652  1.00  0.00    -0.291 OA 
BRANCH   3   4
HETATM    4  C   UNL     1      -9.630   7.368  67.756  1.00  0.00    -0.140 C  
BRANCH   4   5
HETATM    5  C   UNL     1      -9.104   8.457  68.691  1.00  0.00    -0.140 C  
BRANCH   5   6
HETATM    6  N   UNL     1      -9.869   8.566  69.923  1.00  0.00    -0.183 NA 
HETATM    7  C   UNL     1     -10.603   9.652  70.372  1.00  0.00    -0.295 A  
HETATM    8  N   UNL     1     -11.170   9.387  71.533  1.00  0.00    -0.378 NA 
HETATM    9  C   UNL     1      -9.429   6.281  70.979  1.00  0.00    -0.187 A  
HETATM   10  C   UNL     1     -10.791   8.111  71.857  1.00  0.00    -0.270 A  
HETATM   11  C   UNL     1      -9.965   7.572  70.877  1.00  0.00    -0.180 A  
HETATM   12  C   UNL     1      -9.773   5.529  72.108  1.00  0.00    -0.186 A  
HETATM   13  C   UNL     1     -11.116   7.348  72.988  1.00  0.00    -0.390 A  
HETATM   14  C   UNL     1     -10.602   6.051  73.099  1.00  0.00    -0.268 A  
BRANCH   7  15
HETATM   15  C   UNL     1     -10.713  10.955  69.648  1.00  0.00    -0.232 C  
HETATM   16  C   UNL     1      -9.621  12.780  68.365  1.00  0.00    -0.175 C  
HETATM   17  C   UNL     1     -12.003  12.349  68.056  1.00  0.00    -0.203 C  
HETATM   18  C   UNL     1     -11.838  10.934  68.613  1.00  0.00    -0.269 C  
HETATM   19  N   UNL     1     -10.780  12.910  67.458  1.00  0.00    -0.225 NA 
HETATM   20  C   UNL     1      -9.421  11.373  68.943  1.00  0.00    -0.064 C  
BRANCH  19  21
HETATM   21  C   UNL     1     -10.473  12.358  66.130  1.00  0.00    -0.248 C  
BRANCH  21  22
HETATM   22  C   UNL     1     -10.832  13.309  64.971  1.00  0.00    -0.335 C  
BRANCH  22  23
HETATM   23  C   UNL     1     -10.396  14.713  65.299  1.00  0.00    -0.425 A  
HETATM   24  C   UNL     1      -9.210  14.936  66.005  1.00  0.00    -0.210 A  
HETATM   25  C   UNL     1      -8.874  16.219  66.430  1.00  0.00    -0.346 A  
HETATM   26  C   UNL     1      -9.715  17.315  66.159  1.00  0.00    -0.243 A  
HETATM   27  C   UNL     1     -11.211  15.796  64.977  1.00  0.00    -0.314 A  
HETATM   28  C   UNL     1     -10.871  17.082  65.395  1.00  0.00    -0.079 A  
BRANCH  26  29
HETATM   29  C   UNL     1      -9.399  18.692  66.772  1.00  0.00    -0.312 C  
HETATM   30  C   UNL     1      -9.526  18.699  68.306  1.00  0.00    -0.336 C  
HETATM   31  C   UNL     1      -7.951  19.090  66.403  1.00  0.00    -0.300 C  
HETATM   32  C   UNL     1     -10.336  19.812  66.276  1.00  0.00    -0.626 C  
HETATM   33  O   UNL     1     -10.487  17.886  68.809  1.00  0.00    -0.335 OA 
HETATM   34  O   UNL     1      -8.874  19.418  69.048  1.00  0.00    -0.350 OA 
ENDBRANCH  26  29
ENDBRANCH  22  23
ENDBRANCH  21  22
ENDBRANCH  19  21
ENDBRANCH   7  15
ENDBRANCH   5   6
ENDBRANCH   4   5
ENDBRANCH   3   4
ENDBRANCH   2   3
TORSDOF 9
ENDMDL
MODEL      105
REMARK 921   NORMALIZED FREE ENERGY PREDICTED BY IDOCK:   -5.73 KCAL/MOL
REMARK 922        TOTAL FREE ENERGY PREDICTED BY IDOCK:   -8.94 KCAL/MOL
REMARK 923 INTER-LIGAND FREE ENERGY PREDICTED BY IDOCK:   -8.74 KCAL/MOL
REMARK 924 INTRA-LIGAND FREE ENERGY PREDICTED BY IDOCK:   -0.20 KCAL/MOL
REMARK 927      BINDING AFFINITY PREDICTED BY RF-SCORE:    0.00 PKD
ROOT
HETATM    1  C   UNL     1     -14.376  14.656  72.190  1.00  0.00    -0.589 C  
HETATM    2  C   UNL     1     -13.449  15.768  72.641  1.00  0.00    -0.539 C  
ENDROOT
BRANCH   2   3
HETATM    3  O   UNL     1     -12.083  15.408  72.401  1.00  0.00    -0.349 OA 
BRANCH   3   4
HETATM    4  C   UNL     1     -11.578  16.107  71.253  1.00  0.00    -0.413 C  
BRANCH   4   5
HETATM    5  C   UNL     1     -12.339  15.699  69.992  1.00  0.00    -0.276 C  
BRANCH   5   6
HETATM    6  N   UNL     1     -11.462  15.422  68.865  1.00  0.00    -0.321 NA 
HETATM    7  C   UNL     1     -11.179  14.192  68.293  1.00  0.00    -0.272 A  
HETATM    8  N   UNL     1     -10.342  14.327  67.283  1.00  0.00    -0.259 NA 
HETATM    9  C   UNL     1     -10.606  17.767  68.320  1.00  0.00    -0.325 A  
HETATM   10  C   UNL     1     -10.062  15.664  67.198  1.00  0.00    -0.256 A  
HETATM   11  C   UNL     1     -10.735  16.378  68.183  1.00  0.00    -0.336 A  
HETATM   12  C   UNL     1      -9.778  18.429  67.406  1.00  0.00    -0.307 A  
HETATM   13  C   UNL     1      -9.226  16.341  66.298  1.00  0.00    -0.363 A  
HETATM   14  C   UNL     1      -9.096  17.730  66.410  1.00  0.00    -0.254 A  
BRANCH   7  15
HETATM   15  C   UNL     1     -11.729  12.889  68.777  1.00  0.00    -0.363 C  
HETATM   16  C   UNL     1     -11.774  10.410  68.634  1.00  0.00    -0.002 C  
HETATM   17  C   UNL     1     -12.409  11.509  70.719  1.00  0.00    -0.375 C  
HETATM   18  C   UNL     1     -11.662  12.776  70.300  1.00  0.00    -0.188 C  
HETATM   19  N   UNL     1     -11.898  10.274  70.100  1.00  0.00    -0.270 NA 
HETATM   20  C   UNL     1     -11.028  11.670  68.174  1.00  0.00    -0.275 C  
BRANCH  19  21
HETATM   21  C   UNL     1     -10.638   9.800  70.693  1.00  0.00    -0.313 C  
BRANCH  21  22
HETATM   22  C   UNL     1     -10.839   8.895  71.923  1.00  0.00    -0.433 C  
BRANCH  22  23
HETATM   23  C   UNL     1     -10.318   7.511  71.639  1.00  0.00    -0.217 A  
HETATM   24  C   UNL     1      -9.007   7.331  71.186  1.00  0.00    -0.147 A  
HETATM   25  C   UNL     1      -8.565   6.071  70.791  1.00  0.00    -0.135 A  
HETATM   26  C   UNL     1      -9.421   4.954  70.840  1.00  0.00    -0.227 A  
HETATM   27  C   UNL     1     -11.160   6.406  71.743  1.00  0.00    -0.311 A  
HETATM   28  C   UNL     1     -10.715   5.142  71.356  1.00  0.00    -0.154 A  
BRANCH  26  29
HETATM   29  C   UNL     1      -8.958   3.608  70.253  1.00  0.00    -0.170 C  
HETATM   30  C   UNL     1      -9.170   3.523  68.731  1.00  0.00    -0.163 C  
HETATM   31  C   UNL     1      -7.451   3.421  70.545  1.00  0.00    -0.040 C  
HETATM   32  C   UNL     1      -9.705   2.395  70.842  1.00  0.00    -0.128 C  
HETATM   33  O   UNL     1     -10.260   4.181  68.262  1.00  0.00     0.110 OA 
HETATM   34  O   UNL     1      -8.470   2.868  67.973  1.00  0.00    -0.077 OA 
ENDBRANCH  26  29
ENDBRANCH  22  23
ENDBRANCH  21  22
ENDBRANCH  19  21
ENDBRANCH   7  15
ENDBRANCH   5   6
ENDBRANCH   4   5
ENDBRANCH   3   4
ENDBRANCH   2   3
TORSDOF 9
ENDMDL
MODEL      106
REMARK 921   NORMALIZED FREE ENERGY PREDICTED BY IDOCK:   -5.68 KCAL/MOL
REMARK 922        TOTAL FREE ENERGY PREDICTED BY IDOCK:   -8.85 KCAL/MOL
REMARK 923 INTER-LIGAND FREE ENERGY PREDICTED BY IDOCK:   -8.04 KCAL/MOL
REMARK 924 INTRA-LIGAND FREE ENERGY PREDICTED BY IDOCK:   -0.82 KCAL/MOL
REMARK 927      BINDING AFFINITY PREDICTED BY RF-SCORE:    0.00 PKD
ROOT
HETATM    1  C   UNL     1     -11.092  12.318  63.624  1.00  0.00    -0.537 C  
HETATM    2  C   UNL     1     -10.296  12.885  64.783  1.00  0.00    -0.323 C  
ENDROOT
BRANCH   2   3
HETATM    3  O   UNL     1     -10.143  14.302  64.639  1.00  0.00    -0.318 OA 
BRANCH   3   4
HETATM    4  C   UNL     1     -11.182  14.990  65.350  1.00  0.00    -0.356 C  
BRANCH   4   5
HETATM    5  C   UNL     1     -10.769  15.249  66.799  1.00  0.00    -0.313 C  
BRANCH   5   6
HETATM    6  N   UNL     1      -9.622  16.136  66.912  1.00  0.00    -0.225 NA 
HETATM    7  C   UNL     1      -8.288  15.785  67.046  1.00  0.00    -0.226 A  
HETATM    8  N   UNL     1      -7.526  16.859  67.115  1.00  0.00    -0.161 NA 
HETATM    9  C   UNL     1     -10.760  18.423  66.843  1.00  0.00    -0.303 A  
HETATM   10  C   UNL     1      -8.373  17.931  67.038  1.00  0.00    -0.234 A  
HETATM   11  C   UNL     1      -9.695  17.515  66.925  1.00  0.00    -0.291 A  
HETATM   12  C   UNL     1     -10.446  19.787  66.861  1.00  0.00    -0.596 A  
HETATM   13  C   UNL     1      -8.077  19.302  67.067  1.00  0.00    -0.284 A  
HETATM   14  C   UNL     1      -9.127  20.223  66.972  1.00  0.00    -0.481 A  
BRANCH   7  15
HETATM   15  C   UNL     1      -7.789  14.378  67.127  1.00  0.00    -0.111 C  
HETATM   16  C   UNL     1      -5.925  12.801  67.578  1.00  0.00    -0.143 C  
HETATM   17  C   UNL     1      -8.231  12.051  67.856  1.00  0.00    -0.153 C  
HETATM   18  C   UNL     1      -8.705  13.500  67.979  1.00  0.00    -0.181 C  
HETATM   19  N   UNL     1      -6.827  11.841  68.247  1.00  0.00    -0.064 NA 
HETATM   20  C   UNL     1      -6.367  14.267  67.681  1.00  0.00    -0.126 C  
BRANCH  19  21
HETATM   21  C   UNL     1      -6.618  11.849  69.703  1.00  0.00    -0.062 C  
BRANCH  21  22
HETATM   22  C   UNL     1      -6.264  10.466  70.282  1.00  0.00    -0.122 C  
BRANCH  22  23
HETATM   23  C   UNL     1      -7.262   9.439  69.816  1.00  0.00    -0.076 A  
HETATM   24  C   UNL     1      -8.552   9.416  70.353  1.00  0.00    -0.266 A  
HETATM   25  C   UNL     1      -9.433   8.387  70.029  1.00  0.00    -0.164 A  
HETATM   26  C   UNL     1      -9.047   7.351  69.157  1.00  0.00    -0.134 A  
HETATM   27  C   UNL     1      -6.884   8.450  68.910  1.00  0.00    -0.061 A  
HETATM   28  C   UNL     1      -7.768   7.424  68.579  1.00  0.00    -0.120 A  
BRANCH  26  29
HETATM   29  C   UNL     1      -9.981   6.147  68.939  1.00  0.00    -0.185 C  
HETATM   30  C   UNL     1     -10.484   6.045  67.488  1.00  0.00    -0.240 C  
HETATM   31  C   UNL     1      -9.219   4.847  69.281  1.00  0.00    -0.160 C  
HETATM   32  C   UNL     1     -11.251   6.192  69.813  1.00  0.00    -0.494 C  
HETATM   33  O   UNL     1     -10.671   7.231  66.857  1.00  0.00    -0.338 OA 
HETATM   34  O   UNL     1     -10.769   4.996  66.929  1.00  0.00    -0.193 OA 
ENDBRANCH  26  29
ENDBRANCH  22  23
ENDBRANCH  21  22
ENDBRANCH  19  21
ENDBRANCH   7  15
ENDBRANCH   5   6
ENDBRANCH   4   5
ENDBRANCH   3   4
ENDBRANCH   2   3
TORSDOF 9
ENDMDL
MODEL      107
REMARK 921   NORMALIZED FREE ENERGY PREDICTED BY IDOCK:   -5.65 KCAL/MOL
REMARK 922        TOTAL FREE ENERGY PREDICTED BY IDOCK:   -8.81 KCAL/MOL
REMARK 923 INTER-LIGAND FREE ENERGY PREDICTED BY IDOCK:   -7.03 KCAL/MOL
REMARK 924 INTRA-LIGAND FREE ENERGY PREDICTED BY IDOCK:   -1.78 KCAL/MOL
REMARK 927      BINDING AFFINITY PREDICTED BY RF-SCORE:    0.00 PKD
ROOT
HETATM    1  C   UNL     1      -5.392   8.535  63.419  1.00  0.00    -0.063 C  
HETATM    2  C   UNL     1      -6.274   9.394  64.304  1.00  0.00    -0.084 C  
ENDROOT
BRANCH   2   3
HETATM    3  O   UNL     1      -7.552   9.598  63.690  1.00  0.00    -0.114 OA 
BRANCH   3   4
HETATM    4  C   UNL     1      -8.334  10.519  64.464  1.00  0.00    -0.108 C  
BRANCH   4   5
HETATM    5  C   UNL     1      -9.753   9.988  64.669  1.00  0.00    -0.269 C  
BRANCH   5   6
HETATM    6  N   UNL     1     -10.057   9.707  66.064  1.00  0.00    -0.276 NA 
HETATM    7  C   UNL     1      -9.814   8.538  66.766  1.00  0.00    -0.257 A  
HETATM    8  N   UNL     1     -10.220   8.648  68.016  1.00  0.00    -0.201 NA 
HETATM    9  C   UNL     1     -11.167  11.896  66.775  1.00  0.00    -0.384 A  
HETATM   10  C   UNL     1     -10.751   9.905  68.132  1.00  0.00    -0.233 A  
HETATM   11  C   UNL     1     -10.678  10.591  66.925  1.00  0.00    -0.219 A  
HETATM   12  C   UNL     1     -11.724  12.507  67.905  1.00  0.00    -0.416 A  
HETATM   13  C   UNL     1     -11.323  10.528  69.251  1.00  0.00    -0.325 A  
HETATM   14  C   UNL     1     -11.804  11.836  69.124  1.00  0.00    -0.389 A  
BRANCH   7  15
HETATM   15  C   UNL     1      -9.197   7.310  66.176  1.00  0.00    -0.136 C  
HETATM   16  C   UNL     1      -7.205   5.856  65.882  1.00  0.00    -0.075 C  
HETATM   17  C   UNL     1      -9.439   4.896  65.671  1.00  0.00    -0.159 C  
HETATM   18  C   UNL     1     -10.034   6.063  66.460  1.00  0.00    -0.189 C  
HETATM   19  N   UNL     1      -8.021   4.628  65.967  1.00  0.00    -0.102 NA 
HETATM   20  C   UNL     1      -7.770   7.050  66.663  1.00  0.00    -0.094 C  
BRANCH  19  21
HETATM   21  C   UNL     1      -7.812   3.944  67.252  1.00  0.00    -0.087 C  
BRANCH  21  22
HETATM   22  C   UNL     1      -7.081   4.809  68.297  1.00  0.00    -0.061 C  
BRANCH  22  23
HETATM   23  C   UNL     1      -7.984   5.074  69.473  1.00  0.00    -0.075 A  
HETATM   24  C   UNL     1      -9.052   4.216  69.748  1.00  0.00    -0.176 A  
HETATM   25  C   UNL     1      -9.970   4.532  70.748  1.00  0.00    -0.269 A  
HETATM   26  C   UNL     1      -9.843   5.715  71.500  1.00  0.00    -0.213 A  
HETATM   27  C   UNL     1      -7.815   6.222  70.245  1.00  0.00    -0.103 A  
HETATM   28  C   UNL     1      -8.729   6.534  71.251  1.00  0.00    -0.130 A  
BRANCH  26  29
HETATM   29  C   UNL     1     -10.954   6.115  72.489  1.00  0.00    -0.296 C  
HETATM   30  C   UNL     1     -12.162   6.763  71.789  1.00  0.00    -0.358 C  
HETATM   31  C   UNL     1     -11.443   4.855  73.237  1.00  0.00    -0.359 C  
HETATM   32  C   UNL     1     -10.491   7.140  73.545  1.00  0.00    -0.422 C  
HETATM   33  O   UNL     1     -11.865   7.505  70.694  1.00  0.00    -0.267 OA 
HETATM   34  O   UNL     1     -13.312   6.693  72.196  1.00  0.00    -0.120 OA 
ENDBRANCH  26  29
ENDBRANCH  22  23
ENDBRANCH  21  22
ENDBRANCH  19  21
ENDBRANCH   7  15
ENDBRANCH   5   6
ENDBRANCH   4   5
ENDBRANCH   3   4
ENDBRANCH   2   3
TORSDOF 9
ENDMDL
MODEL      108
REMARK 921   NORMALIZED FREE ENERGY PREDICTED BY IDOCK:   -5.62 KCAL/MOL
REMARK 922        TOTAL FREE ENERGY PREDICTED BY IDOCK:   -8.76 KCAL/MOL
REMARK 923 INTER-LIGAND FREE ENERGY PREDICTED BY IDOCK:   -7.63 KCAL/MOL
REMARK 924 INTRA-LIGAND FREE ENERGY PREDICTED BY IDOCK:   -1.13 KCAL/MOL
REMARK 927      BINDING AFFINITY PREDICTED BY RF-SCORE:    0.00 PKD
ROOT
HETATM    1  C   UNL     1     -10.659  18.415  65.867  1.00  0.00    -0.313 C  
HETATM    2  C   UNL     1     -10.431  19.892  66.119  1.00  0.00    -0.473 C  
ENDROOT
BRANCH   2   3
HETATM    3  O   UNL     1     -10.158  20.127  67.506  1.00  0.00    -0.401 OA 
BRANCH   3   4
HETATM    4  C   UNL     1      -9.888  18.888  68.177  1.00  0.00    -0.368 C  
BRANCH   4   5
HETATM    5  C   UNL     1      -8.420  18.805  68.593  1.00  0.00    -0.329 C  
BRANCH   5   6
HETATM    6  N   UNL     1      -7.548  18.363  67.516  1.00  0.00    -0.222 NA 
HETATM    7  C   UNL     1      -7.274  17.062  67.126  1.00  0.00    -0.172 A  
HETATM    8  N   UNL     1      -6.440  17.045  66.104  1.00  0.00    -0.156 NA 
HETATM    9  C   UNL     1      -6.679  20.600  66.638  1.00  0.00    -0.328 A  
HETATM   10  C   UNL     1      -6.152  18.355  65.828  1.00  0.00    -0.225 A  
HETATM   11  C   UNL     1      -6.818  19.207  66.702  1.00  0.00    -0.195 A  
HETATM   12  C   UNL     1      -5.850  21.119  65.637  1.00  0.00    -0.267 A  
HETATM   13  C   UNL     1      -5.315  18.890  64.838  1.00  0.00    -0.239 A  
HETATM   14  C   UNL     1      -5.176  20.280  64.750  1.00  0.00    -0.197 A  
BRANCH   7  15
HETATM   15  C   UNL     1      -7.831  15.845  67.792  1.00  0.00    -0.153 C  
HETATM   16  C   UNL     1      -9.729  14.279  68.127  1.00  0.00    -0.226 C  
HETATM   17  C   UNL     1      -7.447  13.505  68.508  1.00  0.00    -0.122 C  
HETATM   18  C   UNL     1      -6.897  14.644  67.649  1.00  0.00    -0.204 C  
HETATM   19  N   UNL     1      -8.827  13.111  68.180  1.00  0.00    -0.191 NA 
HETATM   20  C   UNL     1      -9.213  15.444  67.271  1.00  0.00    -0.217 C  
BRANCH  19  21
HETATM   21  C   UNL     1      -8.929  12.311  66.949  1.00  0.00    -0.207 C  
BRANCH  21  22
HETATM   22  C   UNL     1      -8.068  11.034  66.972  1.00  0.00    -0.136 C  
BRANCH  22  23
HETATM   23  C   UNL     1      -8.711   9.992  67.849  1.00  0.00    -0.125 A  
HETATM   24  C   UNL     1      -8.407   9.935  69.213  1.00  0.00    -0.151 A  
HETATM   25  C   UNL     1      -8.889   8.891  69.999  1.00  0.00    -0.165 A  
HETATM   26  C   UNL     1      -9.690   7.876  69.443  1.00  0.00    -0.170 A  
HETATM   27  C   UNL     1      -9.546   9.024  67.297  1.00  0.00    -0.206 A  
HETATM   28  C   UNL     1     -10.036   7.983  68.085  1.00  0.00    -0.234 A  
BRANCH  26  29
HETATM   29  C   UNL     1     -10.080   6.654  70.296  1.00  0.00    -0.201 C  
HETATM   30  C   UNL     1      -8.892   6.089  71.095  1.00  0.00    -0.139 C  
HETATM   31  C   UNL     1     -11.185   7.067  71.295  1.00  0.00    -0.296 C  
HETATM   32  C   UNL     1     -10.617   5.473  69.463  1.00  0.00    -0.366 C  
HETATM   33  O   UNL     1      -7.685   6.191  70.484  1.00  0.00    -0.096 OA 
HETATM   34  O   UNL     1      -8.994   5.522  72.173  1.00  0.00    -0.136 OA 
ENDBRANCH  26  29
ENDBRANCH  22  23
ENDBRANCH  21  22
ENDBRANCH  19  21
ENDBRANCH   7  15
ENDBRANCH   5   6
ENDBRANCH   4   5
ENDBRANCH   3   4
ENDBRANCH   2   3
TORSDOF 9
ENDMDL
MODEL      109
REMARK 921   NORMALIZED FREE ENERGY PREDICTED BY IDOCK:   -5.61 KCAL/MOL
REMARK 922        TOTAL FREE ENERGY PREDICTED BY IDOCK:   -8.74 KCAL/MOL
REMARK 923 INTER-LIGAND FREE ENERGY PREDICTED BY IDOCK:   -9.22 KCAL/MOL
REMARK 924 INTRA-LIGAND FREE ENERGY PREDICTED BY IDOCK:    0.48 KCAL/MOL
REMARK 927      BINDING AFFINITY PREDICTED BY RF-SCORE:    0.00 PKD
ROOT
HETATM    1  C   UNL     1     -13.324  15.249  71.719  1.00  0.00    -0.540 C  
HETATM    2  C   UNL     1     -12.108  14.617  71.071  1.00  0.00    -0.329 C  
ENDROOT
BRANCH   2   3
HETATM    3  O   UNL     1     -12.508  13.642  70.101  1.00  0.00    -0.308 OA 
BRANCH   3   4
HETATM    4  C   UNL     1     -11.904  12.373  70.393  1.00  0.00    -0.161 C  
BRANCH   4   5
HETATM    5  C   UNL     1     -12.280  11.337  69.333  1.00  0.00    -0.247 C  
BRANCH   5   6
HETATM    6  N   UNL     1     -11.304  10.264  69.218  1.00  0.00    -0.219 NA 
HETATM    7  C   UNL     1     -10.606   9.870  68.088  1.00  0.00    -0.227 A  
HETATM    8  N   UNL     1      -9.802   8.862  68.362  1.00  0.00    -0.168 NA 
HETATM    9  C   UNL     1     -11.308   9.339  71.601  1.00  0.00    -0.467 A  
HETATM   10  C   UNL     1      -9.985   8.581  69.690  1.00  0.00    -0.192 A  
HETATM   11  C   UNL     1     -10.930   9.430  70.254  1.00  0.00    -0.262 A  
HETATM   12  C   UNL     1     -10.680   8.361  72.380  1.00  0.00    -0.405 A  
HETATM   13  C   UNL     1      -9.374   7.598  70.482  1.00  0.00    -0.163 A  
HETATM   14  C   UNL     1      -9.729   7.501  71.833  1.00  0.00    -0.191 A  
BRANCH   7  15
HETATM   15  C   UNL     1     -10.765  10.491  66.738  1.00  0.00    -0.252 C  
HETATM   16  C   UNL     1     -11.936  12.106  65.259  1.00  0.00    -0.248 C  
HETATM   17  C   UNL     1      -9.648  11.433  64.736  1.00  0.00    -0.210 C  
HETATM   18  C   UNL     1      -9.430  10.988  66.183  1.00  0.00    -0.230 C  
HETATM   19  N   UNL     1     -10.679  12.472  64.573  1.00  0.00    -0.310 NA 
HETATM   20  C   UNL     1     -11.757  11.655  66.715  1.00  0.00    -0.099 C  
BRANCH  19  21
HETATM   21  C   UNL     1     -10.229  13.812  64.980  1.00  0.00    -0.346 C  
BRANCH  21  22
HETATM   22  C   UNL     1     -11.363  14.854  65.030  1.00  0.00    -0.398 C  
BRANCH  22  23
HETATM   23  C   UNL     1     -10.943  16.038  65.861  1.00  0.00    -0.115 A  
HETATM   24  C   UNL     1     -10.969  17.325  65.316  1.00  0.00     0.089 A  
HETATM   25  C   UNL     1     -10.453  18.404  66.031  1.00  0.00    -0.400 A  
HETATM   26  C   UNL     1      -9.896  18.223  67.312  1.00  0.00    -0.327 A  
HETATM   27  C   UNL     1     -10.444  15.853  67.148  1.00  0.00    -0.313 A  
HETATM   28  C   UNL     1      -9.934  16.933  67.868  1.00  0.00    -0.274 A  
BRANCH  26  29
HETATM   29  C   UNL     1      -9.193  19.401  68.013  1.00  0.00    -0.388 C  
HETATM   30  C   UNL     1      -7.805  19.021  68.557  1.00  0.00    -0.340 C  
HETATM   31  C   UNL     1      -9.020  20.559  67.005  1.00  0.00    -0.380 C  
HETATM   32  C   UNL     1      -9.977  19.945  69.225  1.00  0.00    -0.268 C  
HETATM   33  O   UNL     1      -7.686  17.742  68.994  1.00  0.00    -0.232 OA 
HETATM   34  O   UNL     1      -6.871  19.801  68.666  1.00  0.00    -0.298 OA 
ENDBRANCH  26  29
ENDBRANCH  22  23
ENDBRANCH  21  22
ENDBRANCH  19  21
ENDBRANCH   7  15
ENDBRANCH   5   6
ENDBRANCH   4   5
ENDBRANCH   3   4
ENDBRANCH   2   3
TORSDOF 9
ENDMDL
MODEL      110
REMARK 921   NORMALIZED FREE ENERGY PREDICTED BY IDOCK:   -5.60 KCAL/MOL
REMARK 922        TOTAL FREE ENERGY PREDICTED BY IDOCK:   -8.74 KCAL/MOL
REMARK 923 INTER-LIGAND FREE ENERGY PREDICTED BY IDOCK:   -7.41 KCAL/MOL
REMARK 924 INTRA-LIGAND FREE ENERGY PREDICTED BY IDOCK:   -1.32 KCAL/MOL
REMARK 927      BINDING AFFINITY PREDICTED BY RF-SCORE:    0.00 PKD
ROOT
HETATM    1  C   UNL     1     -13.238  15.670  73.050  1.00  0.00    -0.664 C  
HETATM    2  C   UNL     1     -12.277  16.016  71.929  1.00  0.00    -0.489 C  
ENDROOT
BRANCH   2   3
HETATM    3  O   UNL     1     -12.607  15.282  70.743  1.00  0.00    -0.356 OA 
BRANCH   3   4
HETATM    4  C   UNL     1     -11.803  14.097  70.652  1.00  0.00    -0.263 C  
BRANCH   4   5
HETATM    5  C   UNL     1     -12.355  13.148  69.588  1.00  0.00    -0.071 C  
BRANCH   5   6
HETATM    6  N   UNL     1     -11.905  11.775  69.764  1.00  0.00    -0.332 NA 
HETATM    7  C   UNL     1     -10.987  11.079  68.995  1.00  0.00    -0.233 A  
HETATM    8  N   UNL     1     -10.824   9.854  69.456  1.00  0.00    -0.236 NA 
HETATM    9  C   UNL     1     -13.291  11.060  71.788  1.00  0.00    -0.400 A  
HETATM   10  C   UNL     1     -11.657   9.741  70.536  1.00  0.00    -0.292 A  
HETATM   11  C   UNL     1     -12.360  10.921  70.749  1.00  0.00    -0.390 A  
HETATM   12  C   UNL     1     -13.481   9.959  72.633  1.00  0.00     0.031 A  
HETATM   13  C   UNL     1     -11.868   8.644  71.384  1.00  0.00    -0.352 A  
HETATM   14  C   UNL     1     -12.783   8.769  72.436  1.00  0.00    -0.433 A  
BRANCH   7  15
HETATM   15  C   UNL     1     -10.298  11.636  67.791  1.00  0.00    -0.202 C  
HETATM   16  C   UNL     1      -8.305  11.689  66.311  1.00  0.00    -0.027 C  
HETATM   17  C   UNL     1     -10.485  12.327  65.419  1.00  0.00    -0.269 C  
HETATM   18  C   UNL     1     -11.188  11.575  66.550  1.00  0.00    -0.324 C  
HETATM   19  N   UNL     1      -9.140  11.819  65.100  1.00  0.00     0.071 NA 
HETATM   20  C   UNL     1      -8.975  10.937  67.468  1.00  0.00    -0.136 C  
BRANCH  19  21
HETATM   21  C   UNL     1      -9.157  10.563  64.334  1.00  0.00    -0.225 C  
BRANCH  21  22
HETATM   22  C   UNL     1      -7.862   9.740  64.475  1.00  0.00    -0.137 C  
BRANCH  22  23
HETATM   23  C   UNL     1      -8.194   8.296  64.751  1.00  0.00    -0.147 A  
HETATM   24  C   UNL     1      -9.020   7.956  65.826  1.00  0.00    -0.125 A  
HETATM   25  C   UNL     1      -9.217   6.620  66.168  1.00  0.00    -0.120 A  
HETATM   26  C   UNL     1      -8.595   5.587  65.442  1.00  0.00    -0.151 A  
HETATM   27  C   UNL     1      -7.614   7.283  63.990  1.00  0.00    -0.110 A  
HETATM   28  C   UNL     1      -7.819   5.946  64.327  1.00  0.00    -0.116 A  
BRANCH  26  29
HETATM   29  C   UNL     1      -8.704   4.133  65.934  1.00  0.00    -0.115 C  
HETATM   30  C   UNL     1      -9.375   3.208  64.902  1.00  0.00    -0.149 C  
HETATM   31  C   UNL     1      -7.287   3.588  66.225  1.00  0.00    -0.076 C  
HETATM   32  C   UNL     1      -9.539   3.985  67.223  1.00  0.00    -0.229 C  
HETATM   33  O   UNL     1     -10.337   3.791  64.145  1.00  0.00    -0.222 OA 
HETATM   34  O   UNL     1      -9.135   2.016  64.786  1.00  0.00    -0.123 OA 
ENDBRANCH  26  29
ENDBRANCH  22  23
ENDBRANCH  21  22
ENDBRANCH  19  21
ENDBRANCH   7  15
ENDBRANCH   5   6
ENDBRANCH   4   5
ENDBRANCH   3   4
ENDBRANCH   2   3
TORSDOF 9
ENDMDL
MODEL      111
REMARK 921   NORMALIZED FREE ENERGY PREDICTED BY IDOCK:   -5.60 KCAL/MOL
REMARK 922        TOTAL FREE ENERGY PREDICTED BY IDOCK:   -8.73 KCAL/MOL
REMARK 923 INTER-LIGAND FREE ENERGY PREDICTED BY IDOCK:   -7.99 KCAL/MOL
REMARK 924 INTRA-LIGAND FREE ENERGY PREDICTED BY IDOCK:   -0.74 KCAL/MOL
REMARK 927      BINDING AFFINITY PREDICTED BY RF-SCORE:    0.00 PKD
ROOT
HETATM    1  C   UNL     1      -7.993  12.895  68.296  1.00  0.00    -0.151 C  
HETATM    2  C   UNL     1      -6.836  13.874  68.350  1.00  0.00    -0.101 C  
ENDROOT
BRANCH   2   3
HETATM    3  O   UNL     1      -7.037  14.938  67.412  1.00  0.00    -0.194 OA 
BRANCH   3   4
HETATM    4  C   UNL     1      -8.334  14.831  66.808  1.00  0.00    -0.079 C  
BRANCH   4   5
HETATM    5  C   UNL     1      -8.770  16.172  66.217  1.00  0.00    -0.337 C  
BRANCH   5   6
HETATM    6  N   UNL     1      -8.393  17.307  67.046  1.00  0.00    -0.200 NA 
HETATM    7  C   UNL     1      -8.965  17.710  68.242  1.00  0.00    -0.276 A  
HETATM    8  N   UNL     1      -8.359  18.781  68.714  1.00  0.00    -0.320 NA 
HETATM    9  C   UNL     1      -6.489  18.311  65.670  1.00  0.00    -0.309 A  
HETATM   10  C   UNL     1      -7.382  19.094  67.807  1.00  0.00    -0.249 A  
HETATM   11  C   UNL     1      -7.385  18.200  66.742  1.00  0.00    -0.209 A  
HETATM   12  C   UNL     1      -5.561  19.357  65.713  1.00  0.00    -0.178 A  
HETATM   13  C   UNL     1      -6.453  20.145  67.828  1.00  0.00    -0.275 A  
HETATM   14  C   UNL     1      -5.541  20.263  66.773  1.00  0.00    -0.193 A  
BRANCH   7  15
HETATM   15  C   UNL     1     -10.129  17.032  68.893  1.00  0.00    -0.307 C  
HETATM   16  C   UNL     1     -12.283  15.817  68.675  1.00  0.00     0.180 C  
HETATM   17  C   UNL     1     -10.913  15.491  70.668  1.00  0.00    -0.342 C  
HETATM   18  C   UNL     1      -9.677  15.997  69.923  1.00  0.00     0.066 C  
HETATM   19  N   UNL     1     -11.950  14.915  69.796  1.00  0.00    -0.306 NA 
HETATM   20  C   UNL     1     -11.067  16.344  67.900  1.00  0.00    -0.249 C  
BRANCH  19  21
HETATM   21  C   UNL     1     -11.620  13.567  69.307  1.00  0.00    -0.316 C  
BRANCH  21  22
HETATM   22  C   UNL     1     -12.094  12.440  70.244  1.00  0.00    -0.377 C  
BRANCH  22  23
HETATM   23  C   UNL     1     -11.484  11.127  69.826  1.00  0.00    -0.388 A  
HETATM   24  C   UNL     1     -11.195  10.883  68.480  1.00  0.00    -0.335 A  
HETATM   25  C   UNL     1     -10.761   9.624  68.070  1.00  0.00    -0.284 A  
HETATM   26  C   UNL     1     -10.603   8.575  68.996  1.00  0.00    -0.173 A  
HETATM   27  C   UNL     1     -11.281  10.115  70.761  1.00  0.00    -0.414 A  
HETATM   28  C   UNL     1     -10.839   8.857  70.352  1.00  0.00    -0.269 A  
BRANCH  26  29
HETATM   29  C   UNL     1     -10.274   7.157  68.496  1.00  0.00    -0.189 C  
HETATM   30  C   UNL     1      -8.781   6.811  68.642  1.00  0.00    -0.125 C  
HETATM   31  C   UNL     1     -11.093   6.130  69.311  1.00  0.00    -0.463 C  
HETATM   32  C   UNL     1     -10.603   6.943  67.004  1.00  0.00    -0.403 C  
HETATM   33  O   UNL     1      -7.929   7.853  68.478  1.00  0.00    -0.117 OA 
HETATM   34  O   UNL     1      -8.350   5.682  68.825  1.00  0.00    -0.102 OA 
ENDBRANCH  26  29
ENDBRANCH  22  23
ENDBRANCH  21  22
ENDBRANCH  19  21
ENDBRANCH   7  15
ENDBRANCH   5   6
ENDBRANCH   4   5
ENDBRANCH   3   4
ENDBRANCH   2   3
TORSDOF 9
ENDMDL
MODEL      112
REMARK 921   NORMALIZED FREE ENERGY PREDICTED BY IDOCK:   -5.59 KCAL/MOL
REMARK 922        TOTAL FREE ENERGY PREDICTED BY IDOCK:   -8.72 KCAL/MOL
REMARK 923 INTER-LIGAND FREE ENERGY PREDICTED BY IDOCK:   -7.40 KCAL/MOL
REMARK 924 INTRA-LIGAND FREE ENERGY PREDICTED BY IDOCK:   -1.32 KCAL/MOL
REMARK 927      BINDING AFFINITY PREDICTED BY RF-SCORE:    0.00 PKD
ROOT
HETATM    1  C   UNL     1      -7.092   5.334  71.240  1.00  0.00    -0.064 C  
HETATM    2  C   UNL     1      -7.725   3.986  71.528  1.00  0.00    -0.065 C  
ENDROOT
BRANCH   2   3
HETATM    3  O   UNL     1      -9.108   3.993  71.157  1.00  0.00    -0.105 OA 
BRANCH   3   4
HETATM    4  C   UNL     1      -9.559   5.338  70.941  1.00  0.00    -0.175 C  
BRANCH   4   5
HETATM    5  C   UNL     1     -10.413   5.428  69.676  1.00  0.00    -0.291 C  
BRANCH   5   6
HETATM    6  N   UNL     1      -9.622   5.411  68.456  1.00  0.00    -0.123 NA 
HETATM    7  C   UNL     1      -9.129   6.497  67.749  1.00  0.00    -0.112 A  
HETATM    8  N   UNL     1      -8.450   6.098  66.691  1.00  0.00    -0.114 NA 
HETATM    9  C   UNL     1      -9.469   2.901  68.004  1.00  0.00    -0.214 A  
HETATM   10  C   UNL     1      -8.509   4.730  66.696  1.00  0.00    -0.106 A  
HETATM   11  C   UNL     1      -9.247   4.267  67.780  1.00  0.00    -0.145 A  
HETATM   12  C   UNL     1      -8.897   1.999  67.098  1.00  0.00    -0.151 A  
HETATM   13  C   UNL     1      -7.954   3.813  65.791  1.00  0.00    -0.093 A  
HETATM   14  C   UNL     1      -8.152   2.445  66.008  1.00  0.00    -0.085 A  
BRANCH   7  15
HETATM   15  C   UNL     1      -9.360   7.925  68.125  1.00  0.00    -0.146 C  
HETATM   16  C   UNL     1      -8.434  10.176  68.618  1.00  0.00    -0.122 C  
HETATM   17  C   UNL     1     -10.724   9.968  67.800  1.00  0.00    -0.280 C  
HETATM   18  C   UNL     1     -10.415   8.581  67.234  1.00  0.00    -0.366 C  
HETATM   19  N   UNL     1      -9.549  10.847  67.919  1.00  0.00    -0.163 NA 
HETATM   20  C   UNL     1      -8.093   8.781  68.077  1.00  0.00    -0.107 C  
BRANCH  19  21
HETATM   21  C   UNL     1      -9.103  11.405  66.632  1.00  0.00    -0.181 C  
BRANCH  21  22
HETATM   22  C   UNL     1     -10.210  12.162  65.874  1.00  0.00    -0.272 C  
BRANCH  22  23
HETATM   23  C   UNL     1      -9.981  13.648  65.970  1.00  0.00    -0.313 A  
HETATM   24  C   UNL     1      -8.927  14.150  66.739  1.00  0.00    -0.229 A  
HETATM   25  C   UNL     1      -8.794  15.522  66.943  1.00  0.00    -0.284 A  
HETATM   26  C   UNL     1      -9.712  16.429  66.382  1.00  0.00    -0.308 A  
HETATM   27  C   UNL     1     -10.865  14.537  65.364  1.00  0.00    -0.362 A  
HETATM   28  C   UNL     1     -10.728  15.911  65.561  1.00  0.00    -0.386 A  
BRANCH  26  29
HETATM   29  C   UNL     1      -9.633  17.922  66.750  1.00  0.00    -0.305 C  
HETATM   30  C   UNL     1      -9.952  18.183  68.233  1.00  0.00    -0.369 C  
HETATM   31  C   UNL     1      -8.206  18.440  66.461  1.00  0.00    -0.289 C  
HETATM   32  C   UNL     1     -10.622  18.800  65.955  1.00  0.00    -0.442 C  
HETATM   33  O   UNL     1     -10.870  17.349  68.781  1.00  0.00    -0.255 OA 
HETATM   34  O   UNL     1      -9.483  19.103  68.886  1.00  0.00    -0.380 OA 
ENDBRANCH  26  29
ENDBRANCH  22  23
ENDBRANCH  21  22
ENDBRANCH  19  21
ENDBRANCH   7  15
ENDBRANCH   5   6
ENDBRANCH   4   5
ENDBRANCH   3   4
ENDBRANCH   2   3
TORSDOF 9
ENDMDL
MODEL      113
REMARK 921   NORMALIZED FREE ENERGY PREDICTED BY IDOCK:   -5.57 KCAL/MOL
REMARK 922        TOTAL FREE ENERGY PREDICTED BY IDOCK:   -8.69 KCAL/MOL
REMARK 923 INTER-LIGAND FREE ENERGY PREDICTED BY IDOCK:   -7.65 KCAL/MOL
REMARK 924 INTRA-LIGAND FREE ENERGY PREDICTED BY IDOCK:   -1.04 KCAL/MOL
REMARK 927      BINDING AFFINITY PREDICTED BY RF-SCORE:    0.00 PKD
ROOT
HETATM    1  C   UNL     1      -9.905   3.876  63.149  1.00  0.00    -0.155 C  
HETATM    2  C   UNL     1      -9.820   3.726  64.656  1.00  0.00    -0.190 C  
ENDROOT
BRANCH   2   3
HETATM    3  O   UNL     1     -10.769   4.586  65.299  1.00  0.00    -0.250 OA 
BRANCH   3   4
HETATM    4  C   UNL     1     -10.104   5.453  66.230  1.00  0.00    -0.174 C  
BRANCH   4   5
HETATM    5  C   UNL     1     -11.110   6.354  66.945  1.00  0.00    -0.272 C  
BRANCH   5   6
HETATM    6  N   UNL     1     -10.565   6.975  68.143  1.00  0.00    -0.206 NA 
HETATM    7  C   UNL     1     -10.187   8.296  68.316  1.00  0.00    -0.208 A  
HETATM    8  N   UNL     1      -9.740   8.499  69.540  1.00  0.00    -0.174 NA 
HETATM    9  C   UNL     1     -10.472   4.976  69.733  1.00  0.00    -0.182 A  
HETATM   10  C   UNL     1      -9.813   7.289  70.176  1.00  0.00    -0.179 A  
HETATM   11  C   UNL     1     -10.312   6.308  69.325  1.00  0.00    -0.218 A  
HETATM   12  C   UNL     1     -10.125   4.661  71.052  1.00  0.00    -0.246 A  
HETATM   13  C   UNL     1      -9.459   6.953  71.491  1.00  0.00    -0.155 A  
HETATM   14  C   UNL     1      -9.625   5.631  71.919  1.00  0.00    -0.176 A  
BRANCH   7  15
HETATM   15  C   UNL     1     -10.255   9.342  67.249  1.00  0.00    -0.315 C  
HETATM   16  C   UNL     1     -11.233  11.461  66.401  1.00  0.00    -0.183 C  
HETATM   17  C   UNL     1      -9.009  10.781  65.663  1.00  0.00    -0.189 C  
HETATM   18  C   UNL     1      -8.867   9.863  66.878  1.00  0.00    -0.146 C  
HETATM   19  N   UNL     1      -9.933  11.909  65.863  1.00  0.00    -0.228 NA 
HETATM   20  C   UNL     1     -11.132  10.538  67.623  1.00  0.00    -0.375 C  
BRANCH  19  21
HETATM   21  C   UNL     1      -9.367  12.989  66.688  1.00  0.00    -0.241 C  
BRANCH  21  22
HETATM   22  C   UNL     1     -10.402  14.051  67.105  1.00  0.00    -0.265 C  
BRANCH  22  23
HETATM   23  C   UNL     1      -9.734  15.392  67.260  1.00  0.00    -0.212 A  
HETATM   24  C   UNL     1      -8.401  15.471  67.673  1.00  0.00    -0.167 A  
HETATM   25  C   UNL     1      -7.821  16.708  67.951  1.00  0.00    -0.173 A  
HETATM   26  C   UNL     1      -8.560  17.899  67.821  1.00  0.00    -0.242 A  
HETATM   27  C   UNL     1     -10.460  16.566  67.076  1.00  0.00    -0.289 A  
HETATM   28  C   UNL     1      -9.878  17.804  67.345  1.00  0.00    -0.311 A  
BRANCH  26  29
HETATM   29  C   UNL     1      -7.946  19.234  68.282  1.00  0.00    -0.361 C  
HETATM   30  C   UNL     1      -7.420  20.079  67.108  1.00  0.00    -0.271 C  
HETATM   31  C   UNL     1      -9.021  20.055  69.029  1.00  0.00     0.127 C  
HETATM   32  C   UNL     1      -6.744  19.057  69.233  1.00  0.00    -0.330 C  
HETATM   33  O   UNL     1      -6.917  19.371  66.067  1.00  0.00    -0.236 OA 
HETATM   34  O   UNL     1      -7.381  21.300  67.101  1.00  0.00    -0.454 OA 
ENDBRANCH  26  29
ENDBRANCH  22  23
ENDBRANCH  21  22
ENDBRANCH  19  21
ENDBRANCH   7  15
ENDBRANCH   5   6
ENDBRANCH   4   5
ENDBRANCH   3   4
ENDBRANCH   2   3
TORSDOF 9
ENDMDL
MODEL      114
REMARK 921   NORMALIZED FREE ENERGY PREDICTED BY IDOCK:   -5.56 KCAL/MOL
REMARK 922        TOTAL FREE ENERGY PREDICTED BY IDOCK:   -8.67 KCAL/MOL
REMARK 923 INTER-LIGAND FREE ENERGY PREDICTED BY IDOCK:   -7.91 KCAL/MOL
REMARK 924 INTRA-LIGAND FREE ENERGY PREDICTED BY IDOCK:   -0.76 KCAL/MOL
REMARK 927      BINDING AFFINITY PREDICTED BY RF-SCORE:    0.00 PKD
ROOT
HETATM    1  C   UNL     1      -6.160  12.168  69.772  1.00  0.00    -0.143 C  
HETATM    2  C   UNL     1      -5.864  13.616  70.112  1.00  0.00    -0.145 C  
ENDROOT
BRANCH   2   3
HETATM    3  O   UNL     1      -6.593  14.493  69.245  1.00  0.00    -0.108 OA 
BRANCH   3   4
HETATM    4  C   UNL     1      -7.655  13.780  68.594  1.00  0.00    -0.125 C  
BRANCH   4   5
HETATM    5  C   UNL     1      -8.075  14.489  67.307  1.00  0.00    -0.196 C  
BRANCH   5   6
HETATM    6  N   UNL     1      -9.093  15.505  67.525  1.00  0.00    -0.191 NA 
HETATM    7  C   UNL     1     -10.467  15.335  67.562  1.00  0.00    -0.265 A  
HETATM    8  N   UNL     1     -11.076  16.482  67.788  1.00  0.00    -0.242 NA 
HETATM    9  C   UNL     1      -7.652  17.603  67.757  1.00  0.00    -0.209 A  
HETATM   10  C   UNL     1     -10.087  17.423  67.888  1.00  0.00    -0.326 A  
HETATM   11  C   UNL     1      -8.832  16.848  67.714  1.00  0.00    -0.217 A  
HETATM   12  C   UNL     1      -7.774  18.975  68.003  1.00  0.00    -0.304 A  
HETATM   13  C   UNL     1     -10.192  18.802  68.122  1.00  0.00    -0.433 A  
HETATM   14  C   UNL     1      -9.023  19.569  68.182  1.00  0.00    -0.380 A  
BRANCH   7  15
HETATM   15  C   UNL     1     -11.163  14.028  67.348  1.00  0.00    -0.328 C  
HETATM   16  C   UNL     1     -11.460  11.968  65.994  1.00  0.00    -0.338 C  
HETATM   17  C   UNL     1     -12.033  11.943  68.366  1.00  0.00    -0.182 C  
HETATM   18  C   UNL     1     -11.148  13.166  68.611  1.00  0.00    -0.304 C  
HETATM   19  N   UNL     1     -11.637  11.135  67.200  1.00  0.00    -0.475 NA 
HETATM   20  C   UNL     1     -10.576  13.206  66.199  1.00  0.00    -0.288 C  
BRANCH  19  21
HETATM   21  C   UNL     1     -10.449  10.302  67.443  1.00  0.00    -0.251 C  
BRANCH  21  22
HETATM   22  C   UNL     1     -10.626   8.835  67.005  1.00  0.00    -0.283 C  
BRANCH  22  23
HETATM   23  C   UNL     1     -10.400   7.915  68.176  1.00  0.00    -0.249 A  
HETATM   24  C   UNL     1      -9.696   8.361  69.298  1.00  0.00    -0.177 A  
HETATM   25  C   UNL     1      -9.365   7.475  70.321  1.00  0.00    -0.161 A  
HETATM   26  C   UNL     1      -9.732   6.118  70.250  1.00  0.00    -0.195 A  
HETATM   27  C   UNL     1     -10.817   6.587  68.118  1.00  0.00    -0.370 A  
HETATM   28  C   UNL     1     -10.494   5.701  69.145  1.00  0.00    -0.339 A  
BRANCH  26  29
HETATM   29  C   UNL     1      -9.222   5.131  71.316  1.00  0.00    -0.182 C  
HETATM   30  C   UNL     1      -7.729   4.796  71.145  1.00  0.00    -0.082 C  
HETATM   31  C   UNL     1      -9.422   5.752  72.718  1.00  0.00    -0.152 C  
HETATM   32  C   UNL     1      -9.955   3.774  71.294  1.00  0.00    -0.165 C  
HETATM   33  O   UNL     1      -7.288   4.770  69.863  1.00  0.00    -0.053 OA 
HETATM   34  O   UNL     1      -6.979   4.504  72.064  1.00  0.00    -0.051 OA 
ENDBRANCH  26  29
ENDBRANCH  22  23
ENDBRANCH  21  22
ENDBRANCH  19  21
ENDBRANCH   7  15
ENDBRANCH   5   6
ENDBRANCH   4   5
ENDBRANCH   3   4
ENDBRANCH   2   3
TORSDOF 9
ENDMDL
MODEL      115
REMARK 921   NORMALIZED FREE ENERGY PREDICTED BY IDOCK:   -5.53 KCAL/MOL
REMARK 922        TOTAL FREE ENERGY PREDICTED BY IDOCK:   -8.63 KCAL/MOL
REMARK 923 INTER-LIGAND FREE ENERGY PREDICTED BY IDOCK:   -7.57 KCAL/MOL
REMARK 924 INTRA-LIGAND FREE ENERGY PREDICTED BY IDOCK:   -1.06 KCAL/MOL
REMARK 927      BINDING AFFINITY PREDICTED BY RF-SCORE:    0.00 PKD
ROOT
HETATM    1  C   UNL     1      -8.334  10.130  69.204  1.00  0.00    -0.154 C  
HETATM    2  C   UNL     1      -8.384   9.376  67.890  1.00  0.00    -0.115 C  
ENDROOT
BRANCH   2   3
HETATM    3  O   UNL     1      -8.679   7.992  68.118  1.00  0.00    -0.126 OA 
BRANCH   3   4
HETATM    4  C   UNL     1      -9.323   7.824  69.389  1.00  0.00    -0.152 C  
BRANCH   4   5
HETATM    5  C   UNL     1     -10.506   6.863  69.274  1.00  0.00    -0.214 C  
BRANCH   5   6
HETATM    6  N   UNL     1     -10.479   5.807  70.274  1.00  0.00    -0.256 NA 
HETATM    7  C   UNL     1     -11.184   5.748  71.465  1.00  0.00    -0.175 A  
HETATM    8  N   UNL     1     -10.912   4.635  72.117  1.00  0.00     0.027 NA 
HETATM    9  C   UNL     1      -8.781   4.198  69.245  1.00  0.00    -0.124 A  
HETATM   10  C   UNL     1     -10.003   3.958  71.349  1.00  0.00    -0.127 A  
HETATM   11  C   UNL     1      -9.699   4.670  70.194  1.00  0.00    -0.215 A  
HETATM   12  C   UNL     1      -8.184   2.956  69.490  1.00  0.00    -0.072 A  
HETATM   13  C   UNL     1      -9.386   2.721  71.585  1.00  0.00    -0.194 A  
HETATM   14  C   UNL     1      -8.479   2.227  70.641  1.00  0.00    -0.087 A  
BRANCH   7  15
HETATM   15  C   UNL     1     -12.109   6.818  71.953  1.00  0.00    -0.375 C  
HETATM   16  C   UNL     1     -12.426   9.070  72.948  1.00  0.00     0.333 C  
HETATM   17  C   UNL     1     -14.189   8.106  71.564  1.00  0.00    -0.409 C  
HETATM   18  C   UNL     1     -13.185   7.150  70.919  1.00  0.00    -0.037 C  
HETATM   19  N   UNL     1     -13.593   9.347  72.085  1.00  0.00    -0.450 NA 
HETATM   20  C   UNL     1     -11.394   8.115  72.334  1.00  0.00    -0.456 C  
BRANCH  19  21
HETATM   21  C   UNL     1     -13.252  10.318  71.034  1.00  0.00    -0.319 C  
BRANCH  21  22
HETATM   22  C   UNL     1     -12.849  11.701  71.582  1.00  0.00    -0.454 C  
BRANCH  22  23
HETATM   23  C   UNL     1     -12.450  12.610  70.449  1.00  0.00    -0.219 A  
HETATM   24  C   UNL     1     -11.888  12.079  69.284  1.00  0.00    -0.377 A  
HETATM   25  C   UNL     1     -11.391  12.924  68.293  1.00  0.00    -0.326 A  
HETATM   26  C   UNL     1     -11.445  14.323  68.441  1.00  0.00    -0.331 A  
HETATM   27  C   UNL     1     -12.558  13.993  70.584  1.00  0.00    -0.414 A  
HETATM   28  C   UNL     1     -12.069  14.838  69.589  1.00  0.00    -0.346 A  
BRANCH  26  29
HETATM   29  C   UNL     1     -10.751  15.228  67.406  1.00  0.00    -0.293 C  
HETATM   30  C   UNL     1      -9.220  15.069  67.414  1.00  0.00    -0.195 C  
HETATM   31  C   UNL     1     -11.269  14.871  65.994  1.00  0.00    -0.327 C  
HETATM   32  C   UNL     1     -11.011  16.731  67.636  1.00  0.00    -0.178 C  
HETATM   33  O   UNL     1      -8.674  14.805  68.627  1.00  0.00    -0.168 OA 
HETATM   34  O   UNL     1      -8.506  15.227  66.435  1.00  0.00    -0.238 OA 
ENDBRANCH  26  29
ENDBRANCH  22  23
ENDBRANCH  21  22
ENDBRANCH  19  21
ENDBRANCH   7  15
ENDBRANCH   5   6
ENDBRANCH   4   5
ENDBRANCH   3   4
ENDBRANCH   2   3
TORSDOF 9
ENDMDL
MODEL      116
REMARK 921   NORMALIZED FREE ENERGY PREDICTED BY IDOCK:   -5.53 KCAL/MOL
REMARK 922        TOTAL FREE ENERGY PREDICTED BY IDOCK:   -8.62 KCAL/MOL
REMARK 923 INTER-LIGAND FREE ENERGY PREDICTED BY IDOCK:   -7.96 KCAL/MOL
REMARK 924 INTRA-LIGAND FREE ENERGY PREDICTED BY IDOCK:   -0.66 KCAL/MOL
REMARK 927      BINDING AFFINITY PREDICTED BY RF-SCORE:    0.00 PKD
ROOT
HETATM    1  C   UNL     1     -12.388  15.025  64.088  1.00  0.00    -0.167 C  
HETATM    2  C   UNL     1     -12.146  13.562  63.768  1.00  0.00    -0.425 C  
ENDROOT
BRANCH   2   3
HETATM    3  O   UNL     1     -10.778  13.216  64.014  1.00  0.00    -0.399 OA 
BRANCH   3   4
HETATM    4  C   UNL     1     -10.629  12.681  65.337  1.00  0.00    -0.282 C  
BRANCH   4   5
HETATM    5  C   UNL     1      -9.458  13.345  66.062  1.00  0.00    -0.086 C  
BRANCH   5   6
HETATM    6  N   UNL     1      -9.885  14.247  67.121  1.00  0.00    -0.247 NA 
HETATM    7  C   UNL     1     -10.255  13.920  68.415  1.00  0.00    -0.243 A  
HETATM    8  N   UNL     1     -10.577  15.001  69.098  1.00  0.00    -0.243 NA 
HETATM    9  C   UNL     1      -9.797  16.498  65.914  1.00  0.00    -0.324 A  
HETATM   10  C   UNL     1     -10.428  16.053  68.234  1.00  0.00    -0.269 A  
HETATM   11  C   UNL     1     -10.009  15.615  66.982  1.00  0.00    -0.240 A  
HETATM   12  C   UNL     1     -10.004  17.861  66.155  1.00  0.00    -0.288 A  
HETATM   13  C   UNL     1     -10.643  17.422  68.455  1.00  0.00    -0.355 A  
HETATM   14  C   UNL     1     -10.422  18.319  67.404  1.00  0.00    -0.430 A  
BRANCH   7  15
HETATM   15  C   UNL     1     -10.306  12.526  68.953  1.00  0.00    -0.063 C  
HETATM   16  C   UNL     1     -11.577  10.423  69.306  1.00  0.00    -0.176 C  
HETATM   17  C   UNL     1      -9.139  10.357  69.226  1.00  0.00    -0.175 C  
HETATM   18  C   UNL     1      -9.110  11.696  68.487  1.00  0.00    -0.157 C  
HETATM   19  N   UNL     1     -10.384   9.593  69.042  1.00  0.00    -0.197 NA 
HETATM   20  C   UNL     1     -11.585  11.775  68.581  1.00  0.00    -0.367 C  
BRANCH  19  21
HETATM   21  C   UNL     1     -10.480   8.938  67.727  1.00  0.00    -0.239 C  
BRANCH  21  22
HETATM   22  C   UNL     1      -9.397   7.868  67.493  1.00  0.00    -0.166 C  
BRANCH  22  23
HETATM   23  C   UNL     1      -9.414   6.860  68.612  1.00  0.00    -0.134 A  
HETATM   24  C   UNL     1     -10.579   6.141  68.895  1.00  0.00    -0.335 A  
HETATM   25  C   UNL     1     -10.641   5.311  70.013  1.00  0.00    -0.300 A  
HETATM   26  C   UNL     1      -9.538   5.178  70.878  1.00  0.00    -0.235 A  
HETATM   27  C   UNL     1      -8.297   6.696  69.429  1.00  0.00    -0.128 A  
HETATM   28  C   UNL     1      -8.356   5.859  70.543  1.00  0.00    -0.123 A  
BRANCH  26  29
HETATM   29  C   UNL     1      -9.684   4.379  72.186  1.00  0.00    -0.220 C  
HETATM   30  C   UNL     1     -10.834   4.896  73.068  1.00  0.00    -0.265 C  
HETATM   31  C   UNL     1      -9.961   2.897  71.846  1.00  0.00    -0.213 C  
HETATM   32  C   UNL     1      -8.426   4.430  73.077  1.00  0.00    -0.098 C  
HETATM   33  O   UNL     1     -11.052   6.234  73.007  1.00  0.00    -0.252 OA 
HETATM   34  O   UNL     1     -11.485   4.198  73.831  1.00  0.00    -0.116 OA 
ENDBRANCH  26  29
ENDBRANCH  22  23
ENDBRANCH  21  22
ENDBRANCH  19  21
ENDBRANCH   7  15
ENDBRANCH   5   6
ENDBRANCH   4   5
ENDBRANCH   3   4
ENDBRANCH   2   3
TORSDOF 9
ENDMDL
MODEL      117
REMARK 921   NORMALIZED FREE ENERGY PREDICTED BY IDOCK:   -5.51 KCAL/MOL
REMARK 922        TOTAL FREE ENERGY PREDICTED BY IDOCK:   -8.60 KCAL/MOL
REMARK 923 INTER-LIGAND FREE ENERGY PREDICTED BY IDOCK:   -8.10 KCAL/MOL
REMARK 924 INTRA-LIGAND FREE ENERGY PREDICTED BY IDOCK:   -0.50 KCAL/MOL
REMARK 927      BINDING AFFINITY PREDICTED BY RF-SCORE:    0.00 PKD
ROOT
HETATM    1  C   UNL     1      -7.902  10.814  68.523  1.00  0.00    -0.122 C  
HETATM    2  C   UNL     1      -8.238  10.304  67.135  1.00  0.00    -0.121 C  
ENDROOT
BRANCH   2   3
HETATM    3  O   UNL     1      -8.057   8.885  67.067  1.00  0.00    -0.108 OA 
BRANCH   3   4
HETATM    4  C   UNL     1      -8.404   8.277  68.319  1.00  0.00    -0.132 C  
BRANCH   4   5
HETATM    5  C   UNL     1      -9.811   7.681  68.262  1.00  0.00    -0.166 C  
BRANCH   5   6
HETATM    6  N   UNL     1      -9.859   6.298  68.710  1.00  0.00    -0.134 NA 
HETATM    7  C   UNL     1     -10.379   5.809  69.898  1.00  0.00    -0.262 A  
HETATM    8  N   UNL     1     -10.253   4.498  69.960  1.00  0.00    -0.137 NA 
HETATM    9  C   UNL     1      -8.707   5.110  66.763  1.00  0.00    -0.108 A  
HETATM   10  C   UNL     1      -9.630   4.122  68.801  1.00  0.00    -0.140 A  
HETATM   11  C   UNL     1      -9.356   5.226  68.001  1.00  0.00    -0.117 A  
HETATM   12  C   UNL     1      -8.355   3.823  66.340  1.00  0.00    -0.105 A  
HETATM   13  C   UNL     1      -9.259   2.840  68.367  1.00  0.00    -0.248 A  
HETATM   14  C   UNL     1      -8.623   2.704  67.127  1.00  0.00    -0.120 A  
BRANCH   7  15
HETATM   15  C   UNL     1     -10.977   6.660  70.973  1.00  0.00    -0.305 C  
HETATM   16  C   UNL     1     -11.079   8.842  72.154  1.00  0.00    -0.336 C  
HETATM   17  C   UNL     1     -13.031   7.377  72.157  1.00  0.00    -0.054 C  
HETATM   18  C   UNL     1     -12.504   6.642  70.924  1.00  0.00    -0.183 C  
HETATM   19  N   UNL     1     -12.548   8.762  72.287  1.00  0.00    -0.390 NA 
HETATM   20  C   UNL     1     -10.512   8.117  70.926  1.00  0.00    -0.229 C  
BRANCH  19  21
HETATM   21  C   UNL     1     -13.212   9.701  71.370  1.00  0.00    -0.389 C  
BRANCH  21  22
HETATM   22  C   UNL     1     -13.394  11.113  71.960  1.00  0.00    -0.384 C  
BRANCH  22  23
HETATM   23  C   UNL     1     -12.759  12.138  71.057  1.00  0.00    -0.322 A  
HETATM   24  C   UNL     1     -11.964  11.732  69.982  1.00  0.00    -0.421 A  
HETATM   25  C   UNL     1     -11.264  12.673  69.229  1.00  0.00    -0.255 A  
HETATM   26  C   UNL     1     -11.342  14.046  69.532  1.00  0.00    -0.298 A  
HETATM   27  C   UNL     1     -12.888  13.497  71.335  1.00  0.00    -0.440 A  
HETATM   28  C   UNL     1     -12.195  14.439  70.577  1.00  0.00    -0.411 A  
BRANCH  26  29
HETATM   29  C   UNL     1     -10.440  15.046  68.785  1.00  0.00    -0.238 C  
HETATM   30  C   UNL     1     -10.920  15.317  67.349  1.00  0.00    -0.321 C  
HETATM   31  C   UNL     1     -10.426  16.387  69.554  1.00  0.00    -0.301 C  
HETATM   32  C   UNL     1      -8.980  14.568  68.648  1.00  0.00    -0.181 C  
HETATM   33  O   UNL     1     -11.503  14.262  66.726  1.00  0.00    -0.337 OA 
HETATM   34  O   UNL     1     -10.751  16.370  66.753  1.00  0.00    -0.281 OA 
ENDBRANCH  26  29
ENDBRANCH  22  23
ENDBRANCH  21  22
ENDBRANCH  19  21
ENDBRANCH   7  15
ENDBRANCH   5   6
ENDBRANCH   4   5
ENDBRANCH   3   4
ENDBRANCH   2   3
TORSDOF 9
ENDMDL
MODEL      118
REMARK 921   NORMALIZED FREE ENERGY PREDICTED BY IDOCK:   -5.48 KCAL/MOL
REMARK 922        TOTAL FREE ENERGY PREDICTED BY IDOCK:   -8.55 KCAL/MOL
REMARK 923 INTER-LIGAND FREE ENERGY PREDICTED BY IDOCK:   -8.11 KCAL/MOL
REMARK 924 INTRA-LIGAND FREE ENERGY PREDICTED BY IDOCK:   -0.44 KCAL/MOL
REMARK 927      BINDING AFFINITY PREDICTED BY RF-SCORE:    0.00 PKD
ROOT
HETATM    1  C   UNL     1      -8.384  13.579  68.537  1.00  0.00    -0.097 C  
HETATM    2  C   UNL     1      -8.193  12.265  67.806  1.00  0.00    -0.161 C  
ENDROOT
BRANCH   2   3
HETATM    3  O   UNL     1      -8.809  11.194  68.533  1.00  0.00    -0.151 OA 
BRANCH   3   4
HETATM    4  C   UNL     1     -10.236  11.342  68.524  1.00  0.00    -0.208 C  
BRANCH   4   5
HETATM    5  C   UNL     1     -10.888  10.263  67.660  1.00  0.00    -0.307 C  
BRANCH   5   6
HETATM    6  N   UNL     1     -10.131   9.969  66.453  1.00  0.00    -0.239 NA 
HETATM    7  C   UNL     1     -10.249  10.571  65.210  1.00  0.00    -0.282 A  
HETATM    8  N   UNL     1      -9.394  10.048  64.354  1.00  0.00    -0.275 NA 
HETATM    9  C   UNL     1      -8.631   8.066  67.265  1.00  0.00    -0.124 A  
HETATM   10  C   UNL     1      -8.713   9.079  65.041  1.00  0.00    -0.183 A  
HETATM   11  C   UNL     1      -9.160   8.993  66.355  1.00  0.00    -0.170 A  
HETATM   12  C   UNL     1      -7.608   7.227  66.808  1.00  0.00    -0.100 A  
HETATM   13  C   UNL     1      -7.696   8.222  64.596  1.00  0.00    -0.117 A  
HETATM   14  C   UNL     1      -7.146   7.301  65.494  1.00  0.00    -0.064 A  
BRANCH   7  15
HETATM   15  C   UNL     1     -11.232  11.649  64.883  1.00  0.00    -0.287 C  
HETATM   16  C   UNL     1     -12.509  13.657  65.595  1.00  0.00    -0.496 C  
HETATM   17  C   UNL     1     -12.014  13.320  63.229  1.00  0.00    -0.310 C  
HETATM   18  C   UNL     1     -10.869  12.370  63.585  1.00  0.00    -0.509 C  
HETATM   19  N   UNL     1     -12.332  14.303  64.278  1.00  0.00    -0.667 NA 
HETATM   20  C   UNL     1     -11.378  12.697  65.989  1.00  0.00    -0.369 C  
BRANCH  19  21
HETATM   21  C   UNL     1     -11.362  15.406  64.359  1.00  0.00    -0.238 C  
BRANCH  21  22
HETATM   22  C   UNL     1     -11.652  16.397  65.503  1.00  0.00     0.717 C  
BRANCH  22  23
HETATM   23  C   UNL     1     -10.364  16.980  66.022  1.00  0.00    -0.324 A  
HETATM   24  C   UNL     1     -10.291  18.333  66.364  1.00  0.00    -0.418 A  
HETATM   25  C   UNL     1      -9.070  18.907  66.712  1.00  0.00    -0.323 A  
HETATM   26  C   UNL     1      -7.888  18.142  66.728  1.00  0.00    -0.257 A  
HETATM   27  C   UNL     1      -9.212  16.198  66.086  1.00  0.00    -0.382 A  
HETATM   28  C   UNL     1      -7.992  16.770  66.443  1.00  0.00    -0.356 A  
BRANCH  26  29
HETATM   29  C   UNL     1      -6.532  18.833  66.964  1.00  0.00    -0.197 C  
HETATM   30  C   UNL     1      -6.257  19.101  68.455  1.00  0.00    -0.226 C  
HETATM   31  C   UNL     1      -5.403  17.931  66.416  1.00  0.00    -0.209 C  
HETATM   32  C   UNL     1      -6.417  20.205  66.270  1.00  0.00    -0.230 C  
HETATM   33  O   UNL     1      -7.353  19.382  69.202  1.00  0.00    -0.357 OA 
HETATM   34  O   UNL     1      -5.143  19.133  68.955  1.00  0.00    -0.188 OA 
ENDBRANCH  26  29
ENDBRANCH  22  23
ENDBRANCH  21  22
ENDBRANCH  19  21
ENDBRANCH   7  15
ENDBRANCH   5   6
ENDBRANCH   4   5
ENDBRANCH   3   4
ENDBRANCH   2   3
TORSDOF 9
ENDMDL
MODEL      119
REMARK 921   NORMALIZED FREE ENERGY PREDICTED BY IDOCK:   -5.48 KCAL/MOL
REMARK 922        TOTAL FREE ENERGY PREDICTED BY IDOCK:   -8.55 KCAL/MOL
REMARK 923 INTER-LIGAND FREE ENERGY PREDICTED BY IDOCK:   -7.12 KCAL/MOL
REMARK 924 INTRA-LIGAND FREE ENERGY PREDICTED BY IDOCK:   -1.43 KCAL/MOL
REMARK 927      BINDING AFFINITY PREDICTED BY RF-SCORE:    0.00 PKD
ROOT
HETATM    1  C   UNL     1     -13.377  14.677  72.613  1.00  0.00    -0.577 C  
HETATM    2  C   UNL     1     -12.781  15.501  71.488  1.00  0.00    -0.434 C  
ENDROOT
BRANCH   2   3
HETATM    3  O   UNL     1     -12.662  14.713  70.298  1.00  0.00    -0.335 OA 
BRANCH   3   4
HETATM    4  C   UNL     1     -12.118  13.422  70.608  1.00  0.00    -0.295 C  
BRANCH   4   5
HETATM    5  C   UNL     1     -12.152  12.509  69.383  1.00  0.00    -0.180 C  
BRANCH   5   6
HETATM    6  N   UNL     1     -11.660  11.169  69.659  1.00  0.00    -0.295 NA 
HETATM    7  C   UNL     1     -10.659  10.479  68.994  1.00  0.00    -0.222 A  
HETATM    8  N   UNL     1     -10.478   9.286  69.527  1.00  0.00    -0.214 NA 
HETATM    9  C   UNL     1     -13.160  10.487  71.612  1.00  0.00    -0.551 A  
HETATM   10  C   UNL     1     -11.384   9.186  70.549  1.00  0.00    -0.257 A  
HETATM   11  C   UNL     1     -12.150  10.342  70.651  1.00  0.00    -0.348 A  
HETATM   12  C   UNL     1     -13.366   9.420  72.495  1.00  0.00    -0.420 A  
HETATM   13  C   UNL     1     -11.611   8.122  71.434  1.00  0.00    -0.314 A  
HETATM   14  C   UNL     1     -12.606   8.255  72.409  1.00  0.00    -0.323 A  
BRANCH   7  15
HETATM   15  C   UNL     1      -9.906  11.009  67.816  1.00  0.00    -0.190 C  
HETATM   16  C   UNL     1      -7.759  11.251  66.592  1.00  0.00    -0.148 C  
HETATM   17  C   UNL     1      -9.866  11.379  65.367  1.00  0.00    -0.236 C  
HETATM   18  C   UNL     1     -10.589  10.647  66.498  1.00  0.00    -0.257 C  
HETATM   19  N   UNL     1      -8.424  11.088  65.283  1.00  0.00    -0.066 NA 
HETATM   20  C   UNL     1      -8.455  10.528  67.753  1.00  0.00    -0.114 C  
BRANCH  19  21
HETATM   21  C   UNL     1      -8.126   9.770  64.701  1.00  0.00    -0.148 C  
BRANCH  21  22
HETATM   22  C   UNL     1      -6.864   9.110  65.287  1.00  0.00    -0.077 C  
BRANCH  22  23
HETATM   23  C   UNL     1      -7.203   7.758  65.859  1.00  0.00    -0.072 A  
HETATM   24  C   UNL     1      -8.528   7.438  66.170  1.00  0.00    -0.147 A  
HETATM   25  C   UNL     1      -8.829   6.245  66.825  1.00  0.00    -0.126 A  
HETATM   26  C   UNL     1      -7.812   5.341  67.185  1.00  0.00    -0.100 A  
HETATM   27  C   UNL     1      -6.193   6.848  66.161  1.00  0.00    -0.042 A  
HETATM   28  C   UNL     1      -6.494   5.651  66.809  1.00  0.00    -0.050 A  
BRANCH  26  29
HETATM   29  C   UNL     1      -8.154   4.109  68.044  1.00  0.00    -0.089 C  
HETATM   30  C   UNL     1      -8.265   4.444  69.542  1.00  0.00    -0.059 C  
HETATM   31  C   UNL     1      -9.506   3.525  67.575  1.00  0.00    -0.233 C  
HETATM   32  C   UNL     1      -7.099   2.987  67.950  1.00  0.00    -0.050 C  
HETATM   33  O   UNL     1      -7.433   5.422  69.977  1.00  0.00    -0.066 OA 
HETATM   34  O   UNL     1      -8.990   3.853  70.328  1.00  0.00    -0.082 OA 
ENDBRANCH  26  29
ENDBRANCH  22  23
ENDBRANCH  21  22
ENDBRANCH  19  21
ENDBRANCH   7  15
ENDBRANCH   5   6
ENDBRANCH   4   5
ENDBRANCH   3   4
ENDBRANCH   2   3
TORSDOF 9
ENDMDL
MODEL      120
REMARK 921   NORMALIZED FREE ENERGY PREDICTED BY IDOCK:   -5.42 KCAL/MOL
REMARK 922        TOTAL FREE ENERGY PREDICTED BY IDOCK:   -8.46 KCAL/MOL
REMARK 923 INTER-LIGAND FREE ENERGY PREDICTED BY IDOCK:   -7.89 KCAL/MOL
REMARK 924 INTRA-LIGAND FREE ENERGY PREDICTED BY IDOCK:   -0.58 KCAL/MOL
REMARK 927      BINDING AFFINITY PREDICTED BY RF-SCORE:    0.00 PKD
ROOT
HETATM    1  C   UNL     1     -13.356   8.488  71.836  1.00  0.00    -0.401 C  
HETATM    2  C   UNL     1     -12.821   7.108  71.510  1.00  0.00    -0.391 C  
ENDROOT
BRANCH   2   3
HETATM    3  O   UNL     1     -11.475   7.195  71.027  1.00  0.00    -0.273 OA 
BRANCH   3   4
HETATM    4  C   UNL     1     -10.721   8.125  71.817  1.00  0.00    -0.251 C  
BRANCH   4   5
HETATM    5  C   UNL     1      -9.451   7.472  72.360  1.00  0.00    -0.157 C  
BRANCH   5   6
HETATM    6  N   UNL     1      -9.243   6.125  71.851  1.00  0.00    -0.147 NA 
HETATM    7  C   UNL     1      -8.490   5.741  70.753  1.00  0.00    -0.125 A  
HETATM    8  N   UNL     1      -8.526   4.432  70.595  1.00  0.00    -0.081 NA 
HETATM    9  C   UNL     1     -10.657   4.759  73.482  1.00  0.00    -0.305 A  
HETATM   10  C   UNL     1      -9.326   3.952  71.597  1.00  0.00    -0.137 A  
HETATM   11  C   UNL     1      -9.804   4.986  72.394  1.00  0.00    -0.169 A  
HETATM   12  C   UNL     1     -11.006   3.432  73.760  1.00  0.00    -0.307 A  
HETATM   13  C   UNL     1      -9.695   2.629  71.882  1.00  0.00    -0.221 A  
HETATM   14  C   UNL     1     -10.535   2.381  72.973  1.00  0.00    -0.244 A  
BRANCH   7  15
HETATM   15  C   UNL     1      -7.758   6.688  69.857  1.00  0.00    -0.109 C  
HETATM   16  C   UNL     1      -7.816   8.374  68.034  1.00  0.00    -0.111 C  
HETATM   17  C   UNL     1      -5.987   8.408  69.650  1.00  0.00    -0.032 C  
HETATM   18  C   UNL     1      -6.827   7.609  70.646  1.00  0.00    -0.046 C  
HETATM   19  N   UNL     1      -6.776   9.195  68.687  1.00  0.00    -0.057 NA 
HETATM   20  C   UNL     1      -8.683   7.558  69.003  1.00  0.00    -0.136 C  
BRANCH  19  21
HETATM   21  C   UNL     1      -7.357  10.416  69.268  1.00  0.00    -0.106 C  
BRANCH  21  22
HETATM   22  C   UNL     1      -6.926  11.706  68.545  1.00  0.00    -0.085 C  
BRANCH  22  23
HETATM   23  C   UNL     1      -8.109  12.333  67.854  1.00  0.00    -0.155 A  
HETATM   24  C   UNL     1      -9.200  11.546  67.472  1.00  0.00    -0.166 A  
HETATM   25  C   UNL     1     -10.232  12.094  66.712  1.00  0.00    -0.224 A  
HETATM   26  C   UNL     1     -10.201  13.444  66.316  1.00  0.00    -0.298 A  
HETATM   27  C   UNL     1      -8.092  13.684  67.515  1.00  0.00    -0.190 A  
HETATM   28  C   UNL     1      -9.128  14.235  66.763  1.00  0.00    -0.269 A  
BRANCH  26  29
HETATM   29  C   UNL     1     -11.273  13.982  65.350  1.00  0.00    -0.319 C  
HETATM   30  C   UNL     1     -11.382  13.145  64.063  1.00  0.00    -0.394 C  
HETATM   31  C   UNL     1     -12.646  13.966  66.058  1.00  0.00    -0.467 C  
HETATM   32  C   UNL     1     -11.002  15.426  64.880  1.00  0.00    -0.453 C  
HETATM   33  O   UNL     1     -10.217  12.605  63.626  1.00  0.00    -0.383 OA 
HETATM   34  O   UNL     1     -12.409  13.006  63.416  1.00  0.00    -0.682 OA 
ENDBRANCH  26  29
ENDBRANCH  22  23
ENDBRANCH  21  22
ENDBRANCH  19  21
ENDBRANCH   7  15
ENDBRANCH   5   6
ENDBRANCH   4   5
ENDBRANCH   3   4
ENDBRANCH   2   3
TORSDOF 9
ENDMDL
MODEL      121
REMARK 921   NORMALIZED FREE ENERGY PREDICTED BY IDOCK:   -5.38 KCAL/MOL
REMARK 922        TOTAL FREE ENERGY PREDICTED BY IDOCK:   -8.40 KCAL/MOL
REMARK 923 INTER-LIGAND FREE ENERGY PREDICTED BY IDOCK:   -7.86 KCAL/MOL
REMARK 924 INTRA-LIGAND FREE ENERGY PREDICTED BY IDOCK:   -0.54 KCAL/MOL
REMARK 927      BINDING AFFINITY PREDICTED BY RF-SCORE:    0.00 PKD
ROOT
HETATM    1  C   UNL     1     -10.701  11.528  66.187  1.00  0.00    -0.324 C  
HETATM    2  C   UNL     1     -11.700  12.191  67.115  1.00  0.00    -0.302 C  
ENDROOT
BRANCH   2   3
HETATM    3  O   UNL     1     -12.057  11.305  68.182  1.00  0.00    -0.635 OA 
BRANCH   3   4
HETATM    4  C   UNL     1     -11.063  10.281  68.332  1.00  0.00    -0.247 C  
BRANCH   4   5
HETATM    5  C   UNL     1     -10.480  10.292  69.745  1.00  0.00    -0.259 C  
BRANCH   5   6
HETATM    6  N   UNL     1      -9.885   9.020  70.124  1.00  0.00    -0.177 NA 
HETATM    7  C   UNL     1      -8.576   8.606  69.935  1.00  0.00    -0.131 A  
HETATM    8  N   UNL     1      -8.396   7.390  70.411  1.00  0.00    -0.128 NA 
HETATM    9  C   UNL     1     -11.897   7.821  71.145  1.00  0.00    -0.311 A  
HETATM   10  C   UNL     1      -9.608   6.994  70.909  1.00  0.00    -0.167 A  
HETATM   11  C   UNL     1     -10.567   7.986  70.733  1.00  0.00    -0.214 A  
HETATM   12  C   UNL     1     -12.232   6.614  71.769  1.00  0.00    -0.400 A  
HETATM   13  C   UNL     1      -9.964   5.786  71.525  1.00  0.00    -0.226 A  
HETATM   14  C   UNL     1     -11.284   5.610  71.957  1.00  0.00    -0.271 A  
BRANCH   7  15
HETATM   15  C   UNL     1      -7.521   9.422  69.258  1.00  0.00    -0.076 C  
HETATM   16  C   UNL     1      -6.519  10.293  67.160  1.00  0.00    -0.068 C  
HETATM   17  C   UNL     1      -6.200  11.518  69.246  1.00  0.00    -0.079 C  
HETATM   18  C   UNL     1      -7.415  10.823  69.861  1.00  0.00     0.060 C  
HETATM   19  N   UNL     1      -6.233  11.605  67.777  1.00  0.00    -0.054 NA 
HETATM   20  C   UNL     1      -7.734   9.564  67.750  1.00  0.00    -0.088 C  
BRANCH  19  21
HETATM   21  C   UNL     1      -7.154  12.635  67.272  1.00  0.00    -0.098 C  
BRANCH  21  22
HETATM   22  C   UNL     1      -8.189  13.100  68.315  1.00  0.00    -0.154 C  
BRANCH  22  23
HETATM   23  C   UNL     1      -8.496  14.562  68.125  1.00  0.00    -0.157 A  
HETATM   24  C   UNL     1      -7.974  15.255  67.028  1.00  0.00    -0.243 A  
HETATM   25  C   UNL     1      -8.139  16.634  66.922  1.00  0.00    -0.249 A  
HETATM   26  C   UNL     1      -8.833  17.358  67.910  1.00  0.00    -0.237 A  
HETATM   27  C   UNL     1      -9.230  15.258  69.083  1.00  0.00    -0.234 A  
HETATM   28  C   UNL     1      -9.404  16.637  68.973  1.00  0.00    -0.227 A  
BRANCH  26  29
HETATM   29  C   UNL     1      -8.867  18.896  67.848  1.00  0.00    -0.326 C  
HETATM   30  C   UNL     1      -7.516  19.533  68.220  1.00  0.00    -0.315 C  
HETATM   31  C   UNL     1      -9.234  19.337  66.413  1.00  0.00    -0.386 C  
HETATM   32  C   UNL     1      -9.897  19.524  68.810  1.00  0.00    -0.532 C  
HETATM   33  O   UNL     1      -6.800  18.861  69.155  1.00  0.00    -0.297 OA 
HETATM   34  O   UNL     1      -7.111  20.598  67.777  1.00  0.00    -0.302 OA 
ENDBRANCH  26  29
ENDBRANCH  22  23
ENDBRANCH  21  22
ENDBRANCH  19  21
ENDBRANCH   7  15
ENDBRANCH   5   6
ENDBRANCH   4   5
ENDBRANCH   3   4
ENDBRANCH   2   3
TORSDOF 9
ENDMDL
MODEL      122
REMARK 921   NORMALIZED FREE ENERGY PREDICTED BY IDOCK:   -5.38 KCAL/MOL
REMARK 922        TOTAL FREE ENERGY PREDICTED BY IDOCK:   -8.39 KCAL/MOL
REMARK 923 INTER-LIGAND FREE ENERGY PREDICTED BY IDOCK:   -7.50 KCAL/MOL
REMARK 924 INTRA-LIGAND FREE ENERGY PREDICTED BY IDOCK:   -0.89 KCAL/MOL
REMARK 927      BINDING AFFINITY PREDICTED BY RF-SCORE:    0.00 PKD
ROOT
HETATM    1  C   UNL     1     -14.273  14.749  72.253  1.00  0.00    -0.562 C  
HETATM    2  C   UNL     1     -13.352  15.879  72.669  1.00  0.00    -0.472 C  
ENDROOT
BRANCH   2   3
HETATM    3  O   UNL     1     -11.981  15.486  72.527  1.00  0.00    -0.377 OA 
BRANCH   3   4
HETATM    4  C   UNL     1     -11.447  15.981  71.291  1.00  0.00    -0.417 C  
BRANCH   4   5
HETATM    5  C   UNL     1     -12.296  15.516  70.108  1.00  0.00    -0.353 C  
BRANCH   5   6
HETATM    6  N   UNL     1     -11.516  14.844  69.079  1.00  0.00    -0.284 NA 
HETATM    7  C   UNL     1     -11.454  13.486  68.813  1.00  0.00    -0.311 A  
HETATM    8  N   UNL     1     -10.644  13.243  67.802  1.00  0.00    -0.238 NA 
HETATM    9  C   UNL     1     -10.315  16.825  68.001  1.00  0.00    -0.317 A  
HETATM   10  C   UNL     1     -10.156  14.459  67.406  1.00  0.00    -0.243 A  
HETATM   11  C   UNL     1     -10.670  15.483  68.194  1.00  0.00    -0.282 A  
HETATM   12  C   UNL     1      -9.426  17.112  66.959  1.00  0.00    -0.257 A  
HETATM   13  C   UNL     1      -9.256  14.763  66.374  1.00  0.00    -0.301 A  
HETATM   14  C   UNL     1      -8.901  16.099  66.157  1.00  0.00    -0.367 A  
BRANCH   7  15
HETATM   15  C   UNL     1     -12.188  12.439  69.588  1.00  0.00    -0.171 C  
HETATM   16  C   UNL     1     -12.887  10.069  69.836  1.00  0.00     0.467 C  
HETATM   17  C   UNL     1     -12.726  11.490  71.813  1.00  0.00    -0.235 C  
HETATM   18  C   UNL     1     -11.802  12.454  71.067  1.00  0.00     0.483 C  
HETATM   19  N   UNL     1     -12.700  10.110  71.300  1.00  0.00    -0.372 NA 
HETATM   20  C   UNL     1     -11.975  11.022  69.051  1.00  0.00    -0.364 C  
BRANCH  19  21
HETATM   21  C   UNL     1     -11.498   9.361  71.699  1.00  0.00    -0.393 C  
BRANCH  21  22
HETATM   22  C   UNL     1     -11.407   7.961  71.062  1.00  0.00    -0.292 C  
BRANCH  22  23
HETATM   23  C   UNL     1     -10.396   7.964  69.946  1.00  0.00    -0.224 A  
HETATM   24  C   UNL     1      -9.305   8.838  69.986  1.00  0.00    -0.175 A  
HETATM   25  C   UNL     1      -8.446   8.943  68.895  1.00  0.00    -0.131 A  
HETATM   26  C   UNL     1      -8.653   8.175  67.733  1.00  0.00    -0.131 A  
HETATM   27  C   UNL     1     -10.582   7.159  68.825  1.00  0.00    -0.219 A  
HETATM   28  C   UNL     1      -9.717   7.257  67.736  1.00  0.00    -0.167 A  
BRANCH  26  29
HETATM   29  C   UNL     1      -7.783   8.422  66.487  1.00  0.00    -0.089 C  
HETATM   30  C   UNL     1      -8.368   9.506  65.564  1.00  0.00    -0.132 C  
HETATM   31  C   UNL     1      -6.375   8.874  66.935  1.00  0.00    -0.060 C  
HETATM   32  C   UNL     1      -7.616   7.171  65.600  1.00  0.00    -0.093 C  
HETATM   33  O   UNL     1      -9.723   9.560  65.524  1.00  0.00    -0.283 OA 
HETATM   34  O   UNL     1      -7.699  10.239  64.852  1.00  0.00    -0.143 OA 
ENDBRANCH  26  29
ENDBRANCH  22  23
ENDBRANCH  21  22
ENDBRANCH  19  21
ENDBRANCH   7  15
ENDBRANCH   5   6
ENDBRANCH   4   5
ENDBRANCH   3   4
ENDBRANCH   2   3
TORSDOF 9
ENDMDL
MODEL      123
REMARK 921   NORMALIZED FREE ENERGY PREDICTED BY IDOCK:   -5.34 KCAL/MOL
REMARK 922        TOTAL FREE ENERGY PREDICTED BY IDOCK:   -8.33 KCAL/MOL
REMARK 923 INTER-LIGAND FREE ENERGY PREDICTED BY IDOCK:   -7.71 KCAL/MOL
REMARK 924 INTRA-LIGAND FREE ENERGY PREDICTED BY IDOCK:   -0.62 KCAL/MOL
REMARK 927      BINDING AFFINITY PREDICTED BY RF-SCORE:    0.00 PKD
ROOT
HETATM    1  C   UNL     1      -6.253  14.498  70.276  1.00  0.00    -0.176 C  
HETATM    2  C   UNL     1      -6.376  13.430  69.206  1.00  0.00    -0.110 C  
ENDROOT
BRANCH   2   3
HETATM    3  O   UNL     1      -7.634  13.543  68.529  1.00  0.00    -0.123 OA 
BRANCH   3   4
HETATM    4  C   UNL     1      -7.952  14.923  68.296  1.00  0.00    -0.130 C  
BRANCH   4   5
HETATM    5  C   UNL     1      -8.217  15.175  66.812  1.00  0.00    -0.137 C  
BRANCH   5   6
HETATM    6  N   UNL     1      -8.886  16.443  66.563  1.00  0.00    -0.252 NA 
HETATM    7  C   UNL     1     -10.195  16.646  66.155  1.00  0.00    -0.348 A  
HETATM    8  N   UNL     1     -10.454  17.933  66.036  1.00  0.00    -0.470 NA 
HETATM    9  C   UNL     1      -6.996  18.097  67.033  1.00  0.00    -0.215 A  
HETATM   10  C   UNL     1      -9.294  18.585  66.358  1.00  0.00    -0.282 A  
HETATM   11  C   UNL     1      -8.287  17.682  66.679  1.00  0.00    -0.260 A  
HETATM   12  C   UNL     1      -6.751  19.475  67.071  1.00  0.00    -0.209 A  
HETATM   13  C   UNL     1      -9.028  19.962  66.390  1.00  0.00    -0.434 A  
HETATM   14  C   UNL     1      -7.748  20.395  66.755  1.00  0.00    -0.311 A  
BRANCH   7  15
HETATM   15  C   UNL     1     -11.169  15.549  65.865  1.00  0.00    -0.120 C  
HETATM   16  C   UNL     1     -12.068  13.860  64.283  1.00  0.00    -0.440 C  
HETATM   17  C   UNL     1     -12.310  13.509  66.686  1.00  0.00    -0.297 C  
HETATM   18  C   UNL     1     -11.165  14.485  66.962  1.00  0.00    -0.342 C  
HETATM   19  N   UNL     1     -12.251  12.867  65.362  1.00  0.00    -0.457 NA 
HETATM   20  C   UNL     1     -10.926  14.856  64.523  1.00  0.00    -0.216 C  
BRANCH  19  21
HETATM   21  C   UNL     1     -11.241  11.801  65.273  1.00  0.00    -0.254 C  
BRANCH  21  22
HETATM   22  C   UNL     1     -10.971  11.096  66.616  1.00  0.00    -0.289 C  
BRANCH  22  23
HETATM   23  C   UNL     1     -10.151   9.852  66.392  1.00  0.00    -0.308 A  
HETATM   24  C   UNL     1     -10.528   8.644  66.987  1.00  0.00    -0.354 A  
HETATM   25  C   UNL     1      -9.700   7.526  66.897  1.00  0.00    -0.272 A  
HETATM   26  C   UNL     1      -8.474   7.587  66.208  1.00  0.00    -0.141 A  
HETATM   27  C   UNL     1      -8.967   9.912  65.662  1.00  0.00    -0.205 A  
HETATM   28  C   UNL     1      -8.142   8.792  65.564  1.00  0.00    -0.115 A  
BRANCH  26  29
HETATM   29  C   UNL     1      -7.510   6.388  66.256  1.00  0.00    -0.085 C  
HETATM   30  C   UNL     1      -7.461   5.615  64.925  1.00  0.00    -0.078 C  
HETATM   31  C   UNL     1      -6.085   6.896  66.575  1.00  0.00    -0.034 C  
HETATM   32  C   UNL     1      -7.887   5.343  67.325  1.00  0.00    -0.101 C  
HETATM   33  O   UNL     1      -8.629   5.580  64.236  1.00  0.00    -0.109 OA 
HETATM   34  O   UNL     1      -6.482   5.009  64.515  1.00  0.00    -0.036 OA 
ENDBRANCH  26  29
ENDBRANCH  22  23
ENDBRANCH  21  22
ENDBRANCH  19  21
ENDBRANCH   7  15
ENDBRANCH   5   6
ENDBRANCH   4   5
ENDBRANCH   3   4
ENDBRANCH   2   3
TORSDOF 9
ENDMDL
MODEL      124
REMARK 921   NORMALIZED FREE ENERGY PREDICTED BY IDOCK:   -5.33 KCAL/MOL
REMARK 922        TOTAL FREE ENERGY PREDICTED BY IDOCK:   -8.32 KCAL/MOL
REMARK 923 INTER-LIGAND FREE ENERGY PREDICTED BY IDOCK:   -8.37 KCAL/MOL
REMARK 924 INTRA-LIGAND FREE ENERGY PREDICTED BY IDOCK:    0.05 KCAL/MOL
REMARK 927      BINDING AFFINITY PREDICTED BY RF-SCORE:    0.00 PKD
ROOT
HETATM    1  C   UNL     1     -11.000   7.594  72.672  1.00  0.00    -0.405 C  
HETATM    2  C   UNL     1     -11.372   8.946  72.095  1.00  0.00    -0.299 C  
ENDROOT
BRANCH   2   3
HETATM    3  O   UNL     1     -12.791   9.138  72.146  1.00  0.00    -0.371 OA 
BRANCH   3   4
HETATM    4  C   UNL     1     -13.186  10.178  71.239  1.00  0.00    -0.364 C  
BRANCH   4   5
HETATM    5  C   UNL     1     -12.007  10.616  70.370  1.00  0.00    -0.346 C  
BRANCH   5   6
HETATM    6  N   UNL     1     -12.090  12.010  69.964  1.00  0.00    -0.303 NA 
HETATM    7  C   UNL     1     -11.807  12.549  68.719  1.00  0.00    -0.303 A  
HETATM    8  N   UNL     1     -11.999  13.854  68.718  1.00  0.00    -0.356 NA 
HETATM    9  C   UNL     1     -12.828  13.116  72.146  1.00  0.00    -0.265 A  
HETATM   10  C   UNL     1     -12.402  14.178  69.985  1.00  0.00    -0.344 A  
HETATM   11  C   UNL     1     -12.456  13.050  70.796  1.00  0.00    -0.302 A  
HETATM   12  C   UNL     1     -13.169  14.373  72.658  1.00  0.00    -0.586 A  
HETATM   13  C   UNL     1     -12.735  15.432  70.518  1.00  0.00    -0.455 A  
HETATM   14  C   UNL     1     -13.123  15.515  71.860  1.00  0.00    -0.539 A  
BRANCH   7  15
HETATM   15  C   UNL     1     -11.324  11.758  67.546  1.00  0.00    -0.377 C  
HETATM   16  C   UNL     1      -9.987  11.644  65.456  1.00  0.00    -0.242 C  
HETATM   17  C   UNL     1     -10.430   9.601  66.716  1.00  0.00    -0.186 C  
HETATM   18  C   UNL     1     -10.723  10.419  67.974  1.00  0.00    -0.292 C  
HETATM   19  N   UNL     1      -9.536  10.269  65.756  1.00  0.00    -0.189 NA 
HETATM   20  C   UNL     1     -10.289  12.497  66.695  1.00  0.00    -0.244 C  
BRANCH  19  21
HETATM   21  C   UNL     1      -8.123  10.257  66.166  1.00  0.00    -0.133 C  
BRANCH  21  22
HETATM   22  C   UNL     1      -7.198   9.538  65.165  1.00  0.00    -0.108 C  
BRANCH  22  23
HETATM   23  C   UNL     1      -7.574   8.083  65.064  1.00  0.00    -0.104 A  
HETATM   24  C   UNL     1      -7.695   7.305  66.220  1.00  0.00    -0.097 A  
HETATM   25  C   UNL     1      -7.906   5.931  66.125  1.00  0.00    -0.104 A  
HETATM   26  C   UNL     1      -8.004   5.298  64.871  1.00  0.00    -0.105 A  
HETATM   27  C   UNL     1      -7.723   7.479  63.818  1.00  0.00    -0.126 A  
HETATM   28  C   UNL     1      -7.943   6.105  63.723  1.00  0.00    -0.101 A  
BRANCH  26  29
HETATM   29  C   UNL     1      -8.081   3.762  64.794  1.00  0.00    -0.090 C  
HETATM   30  C   UNL     1      -9.470   3.262  64.357  1.00  0.00    -0.145 C  
HETATM   31  C   UNL     1      -7.038   3.254  63.773  1.00  0.00    -0.049 C  
HETATM   32  C   UNL     1      -7.798   3.068  66.142  1.00  0.00    -0.081 C  
HETATM   33  O   UNL     1     -10.514   4.020  64.775  1.00  0.00    -0.237 OA 
HETATM   34  O   UNL     1      -9.666   2.228  63.736  1.00  0.00    -0.122 OA 
ENDBRANCH  26  29
ENDBRANCH  22  23
ENDBRANCH  21  22
ENDBRANCH  19  21
ENDBRANCH   7  15
ENDBRANCH   5   6
ENDBRANCH   4   5
ENDBRANCH   3   4
ENDBRANCH   2   3
TORSDOF 9
ENDMDL
MODEL      125
REMARK 921   NORMALIZED FREE ENERGY PREDICTED BY IDOCK:   -5.32 KCAL/MOL
REMARK 922        TOTAL FREE ENERGY PREDICTED BY IDOCK:   -8.30 KCAL/MOL
REMARK 923 INTER-LIGAND FREE ENERGY PREDICTED BY IDOCK:   -8.42 KCAL/MOL
REMARK 924 INTRA-LIGAND FREE ENERGY PREDICTED BY IDOCK:    0.12 KCAL/MOL
REMARK 927      BINDING AFFINITY PREDICTED BY RF-SCORE:    0.00 PKD
ROOT
HETATM    1  C   UNL     1     -14.267  14.964  72.249  1.00  0.00    -0.568 C  
HETATM    2  C   UNL     1     -12.949  15.576  72.684  1.00  0.00    -0.445 C  
ENDROOT
BRANCH   2   3
HETATM    3  O   UNL     1     -11.875  15.073  71.880  1.00  0.00    -0.357 OA 
BRANCH   3   4
HETATM    4  C   UNL     1     -11.319  16.123  71.077  1.00  0.00    -0.338 C  
BRANCH   4   5
HETATM    5  C   UNL     1     -12.003  16.182  69.711  1.00  0.00    -0.052 C  
BRANCH   5   6
HETATM    6  N   UNL     1     -11.060  16.254  68.606  1.00  0.00    -0.342 NA 
HETATM    7  C   UNL     1     -10.784  15.278  67.662  1.00  0.00    -0.282 A  
HETATM    8  N   UNL     1      -9.873  15.699  66.806  1.00  0.00    -0.238 NA 
HETATM    9  C   UNL     1     -10.078  18.588  68.949  1.00  0.00    -0.348 A  
HETATM   10  C   UNL     1      -9.537  16.965  67.202  1.00  0.00    -0.244 A  
HETATM   11  C   UNL     1     -10.250  17.339  68.336  1.00  0.00    -0.358 A  
HETATM   12  C   UNL     1      -9.162  19.471  68.365  1.00  0.00    -0.412 A  
HETATM   13  C   UNL     1      -8.614  17.857  66.637  1.00  0.00    -0.283 A  
HETATM   14  C   UNL     1      -8.439  19.114  67.228  1.00  0.00    -0.302 A  
BRANCH   7  15
HETATM   15  C   UNL     1     -11.417  13.924  67.636  1.00  0.00    -0.354 C  
HETATM   16  C   UNL     1     -11.767  11.756  66.476  1.00  0.00    -0.069 C  
HETATM   17  C   UNL     1     -12.002  11.876  68.903  1.00  0.00    -0.254 C  
HETATM   18  C   UNL     1     -11.172  13.160  68.938  1.00  0.00    -0.324 C  
HETATM   19  N   UNL     1     -11.721  11.006  67.748  1.00  0.00    -0.600 NA 
HETATM   20  C   UNL     1     -10.944  13.051  66.472  1.00  0.00    -0.307 C  
BRANCH  19  21
HETATM   21  C   UNL     1     -10.460  10.259  67.872  1.00  0.00    -0.212 C  
BRANCH  21  22
HETATM   22  C   UNL     1     -10.652   8.731  67.924  1.00  0.00    -0.236 C  
BRANCH  22  23
HETATM   23  C   UNL     1      -9.713   8.058  66.958  1.00  0.00    -0.275 A  
HETATM   24  C   UNL     1      -9.204   8.762  65.863  1.00  0.00    -0.282 A  
HETATM   25  C   UNL     1      -8.448   8.108  64.893  1.00  0.00    -0.094 A  
HETATM   26  C   UNL     1      -8.179   6.729  64.993  1.00  0.00    -0.096 A  
HETATM   27  C   UNL     1      -9.409   6.705  67.098  1.00  0.00    -0.150 A  
HETATM   28  C   UNL     1      -8.645   6.051  66.132  1.00  0.00    -0.142 A  
BRANCH  26  29
HETATM   29  C   UNL     1      -7.475   6.001  63.833  1.00  0.00    -0.080 C  
HETATM   30  C   UNL     1      -7.913   4.531  63.706  1.00  0.00    -0.093 C  
HETATM   31  C   UNL     1      -7.807   6.723  62.508  1.00  0.00    -0.108 C  
HETATM   32  C   UNL     1      -5.940   5.963  63.977  1.00  0.00    -0.025 C  
HETATM   33  O   UNL     1      -8.207   3.913  64.878  1.00  0.00    -0.093 OA 
HETATM   34  O   UNL     1      -7.943   3.909  62.655  1.00  0.00    -0.064 OA 
ENDBRANCH  26  29
ENDBRANCH  22  23
ENDBRANCH  21  22
ENDBRANCH  19  21
ENDBRANCH   7  15
ENDBRANCH   5   6
ENDBRANCH   4   5
ENDBRANCH   3   4
ENDBRANCH   2   3
TORSDOF 9
ENDMDL
MODEL      126
REMARK 921   NORMALIZED FREE ENERGY PREDICTED BY IDOCK:   -5.27 KCAL/MOL
REMARK 922        TOTAL FREE ENERGY PREDICTED BY IDOCK:   -8.23 KCAL/MOL
REMARK 923 INTER-LIGAND FREE ENERGY PREDICTED BY IDOCK:   -7.66 KCAL/MOL
REMARK 924 INTRA-LIGAND FREE ENERGY PREDICTED BY IDOCK:   -0.57 KCAL/MOL
REMARK 927      BINDING AFFINITY PREDICTED BY RF-SCORE:    0.00 PKD
ROOT
HETATM    1  C   UNL     1      -5.142  13.095  71.698  1.00  0.00    -0.166 C  
HETATM    2  C   UNL     1      -5.528  12.504  70.356  1.00  0.00    -0.149 C  
ENDROOT
BRANCH   2   3
HETATM    3  O   UNL     1      -6.474  11.442  70.530  1.00  0.00    -0.270 OA 
BRANCH   3   4
HETATM    4  C   UNL     1      -5.857  10.176  70.255  1.00  0.00    -0.069 C  
BRANCH   4   5
HETATM    5  C   UNL     1      -6.835   9.239  69.547  1.00  0.00    -0.048 C  
BRANCH   5   6
HETATM    6  N   UNL     1      -8.119   9.141  70.224  1.00  0.00    -0.129 NA 
HETATM    7  C   UNL     1      -9.341   9.636  69.799  1.00  0.00    -0.218 A  
HETATM    8  N   UNL     1     -10.290   9.354  70.671  1.00  0.00    -0.262 NA 
HETATM    9  C   UNL     1      -7.459   7.891  72.353  1.00  0.00    -0.108 A  
HETATM   10  C   UNL     1      -9.678   8.676  71.691  1.00  0.00    -0.278 A  
HETATM   11  C   UNL     1      -8.315   8.537  71.450  1.00  0.00    -0.161 A  
HETATM   12  C   UNL     1      -8.031   7.362  73.516  1.00  0.00    -0.142 A  
HETATM   13  C   UNL     1     -10.233   8.151  72.867  1.00  0.00    -0.341 A  
HETATM   14  C   UNL     1      -9.395   7.489  73.773  1.00  0.00    -0.331 A  
BRANCH   7  15
HETATM   15  C   UNL     1      -9.548  10.406  68.534  1.00  0.00    -0.161 C  
HETATM   16  C   UNL     1     -11.005  10.995  66.611  1.00  0.00    -0.190 C  
HETATM   17  C   UNL     1      -9.284  12.564  67.345  1.00  0.00    -0.186 C  
HETATM   18  C   UNL     1      -9.230  11.890  68.716  1.00  0.00     0.025 C  
HETATM   19  N   UNL     1     -10.571  12.407  66.646  1.00  0.00    -0.228 NA 
HETATM   20  C   UNL     1     -10.965  10.285  67.971  1.00  0.00    -0.345 C  
BRANCH  19  21
HETATM   21  C   UNL     1     -11.635  13.271  67.179  1.00  0.00    -0.357 C  
BRANCH  21  22
HETATM   22  C   UNL     1     -11.778  14.608  66.426  1.00  0.00    -0.329 C  
BRANCH  22  23
HETATM   23  C   UNL     1     -10.618  15.512  66.750  1.00  0.00    -0.307 A  
HETATM   24  C   UNL     1     -10.425  15.968  68.058  1.00  0.00    -0.275 A  
HETATM   25  C   UNL     1      -9.439  16.912  68.336  1.00  0.00    -0.258 A  
HETATM   26  C   UNL     1      -8.618  17.425  67.314  1.00  0.00    -0.223 A  
HETATM   27  C   UNL     1      -9.779  15.971  65.738  1.00  0.00    -0.340 A  
HETATM   28  C   UNL     1      -8.786  16.909  66.017  1.00  0.00    -0.193 A  
BRANCH  26  29
HETATM   29  C   UNL     1      -7.644  18.578  67.621  1.00  0.00    -0.238 C  
HETATM   30  C   UNL     1      -8.011  19.333  68.911  1.00  0.00    -0.318 C  
HETATM   31  C   UNL     1      -6.218  18.005  67.782  1.00  0.00    -0.176 C  
HETATM   32  C   UNL     1      -7.599  19.651  66.514  1.00  0.00    -0.284 C  
HETATM   33  O   UNL     1      -9.339  19.417  69.172  1.00  0.00    -0.341 OA 
HETATM   34  O   UNL     1      -7.201  19.887  69.639  1.00  0.00    -0.257 OA 
ENDBRANCH  26  29
ENDBRANCH  22  23
ENDBRANCH  21  22
ENDBRANCH  19  21
ENDBRANCH   7  15
ENDBRANCH   5   6
ENDBRANCH   4   5
ENDBRANCH   3   4
ENDBRANCH   2   3
TORSDOF 9
ENDMDL
MODEL      127
REMARK 921   NORMALIZED FREE ENERGY PREDICTED BY IDOCK:   -5.26 KCAL/MOL
REMARK 922        TOTAL FREE ENERGY PREDICTED BY IDOCK:   -8.21 KCAL/MOL
REMARK 923 INTER-LIGAND FREE ENERGY PREDICTED BY IDOCK:   -7.21 KCAL/MOL
REMARK 924 INTRA-LIGAND FREE ENERGY PREDICTED BY IDOCK:   -1.00 KCAL/MOL
REMARK 927      BINDING AFFINITY PREDICTED BY RF-SCORE:    0.00 PKD
ROOT
HETATM    1  C   UNL     1      -5.820  12.048  69.479  1.00  0.00    -0.091 C  
HETATM    2  C   UNL     1      -5.591  13.384  68.799  1.00  0.00    -0.074 C  
ENDROOT
BRANCH   2   3
HETATM    3  O   UNL     1      -6.081  14.453  69.619  1.00  0.00    -0.103 OA 
BRANCH   3   4
HETATM    4  C   UNL     1      -6.252  15.643  68.835  1.00  0.00    -0.109 C  
BRANCH   4   5
HETATM    5  C   UNL     1      -7.399  16.492  69.382  1.00  0.00    -0.123 C  
BRANCH   5   6
HETATM    6  N   UNL     1      -7.779  17.575  68.488  1.00  0.00    -0.263 NA 
HETATM    7  C   UNL     1      -8.884  17.638  67.654  1.00  0.00    -0.236 A  
HETATM    8  N   UNL     1      -8.907  18.779  66.992  1.00  0.00    -0.287 NA 
HETATM    9  C   UNL     1      -5.860  19.219  68.864  1.00  0.00    -0.238 A  
HETATM   10  C   UNL     1      -7.792  19.469  67.387  1.00  0.00    -0.257 A  
HETATM   11  C   UNL     1      -7.056  18.738  68.313  1.00  0.00    -0.256 A  
HETATM   12  C   UNL     1      -5.431  20.490  68.461  1.00  0.00    -0.315 A  
HETATM   13  C   UNL     1      -7.342  20.735  66.985  1.00  0.00    -0.354 A  
HETATM   14  C   UNL     1      -6.158  21.238  67.536  1.00  0.00    -0.435 A  
BRANCH   7  15
HETATM   15  C   UNL     1      -9.897  16.548  67.510  1.00  0.00    -0.248 C  
HETATM   16  C   UNL     1     -10.463  14.250  66.758  1.00  0.00    -0.273 C  
HETATM   17  C   UNL     1     -11.756  15.283  68.551  1.00  0.00    -0.332 C  
HETATM   18  C   UNL     1     -10.619  16.268  68.828  1.00  0.00    -0.298 C  
HETATM   19  N   UNL     1     -11.322  14.017  67.936  1.00  0.00    -0.276 NA 
HETATM   20  C   UNL     1      -9.308  15.233  66.997  1.00  0.00    -0.238 C  
BRANCH  19  21
HETATM   21  C   UNL     1     -10.676  13.098  68.885  1.00  0.00    -0.169 C  
BRANCH  21  22
HETATM   22  C   UNL     1     -11.462  11.793  69.110  1.00  0.00    -0.358 C  
BRANCH  22  23
HETATM   23  C   UNL     1     -10.658  10.613  68.629  1.00  0.00    -0.229 A  
HETATM   24  C   UNL     1      -9.707  10.021  69.466  1.00  0.00    -0.253 A  
HETATM   25  C   UNL     1      -8.866   9.022  68.980  1.00  0.00    -0.136 A  
HETATM   26  C   UNL     1      -8.954   8.588  67.644  1.00  0.00    -0.141 A  
HETATM   27  C   UNL     1     -10.793  10.156  67.320  1.00  0.00    -0.295 A  
HETATM   28  C   UNL     1      -9.957   9.150  66.836  1.00  0.00    -0.304 A  
BRANCH  26  29
HETATM   29  C   UNL     1      -7.913   7.597  67.092  1.00  0.00    -0.117 C  
HETATM   30  C   UNL     1      -6.539   8.251  66.860  1.00  0.00    -0.057 C  
HETATM   31  C   UNL     1      -7.735   6.437  68.098  1.00  0.00    -0.104 C  
HETATM   32  C   UNL     1      -8.312   6.984  65.734  1.00  0.00    -0.143 C  
HETATM   33  O   UNL     1      -6.577   9.551  66.476  1.00  0.00    -0.069 OA 
HETATM   34  O   UNL     1      -5.472   7.660  66.941  1.00  0.00    -0.026 OA 
ENDBRANCH  26  29
ENDBRANCH  22  23
ENDBRANCH  21  22
ENDBRANCH  19  21
ENDBRANCH   7  15
ENDBRANCH   5   6
ENDBRANCH   4   5
ENDBRANCH   3   4
ENDBRANCH   2   3
TORSDOF 9
ENDMDL
MODEL      128
REMARK 921   NORMALIZED FREE ENERGY PREDICTED BY IDOCK:   -5.20 KCAL/MOL
REMARK 922        TOTAL FREE ENERGY PREDICTED BY IDOCK:   -8.12 KCAL/MOL
REMARK 923 INTER-LIGAND FREE ENERGY PREDICTED BY IDOCK:   -7.55 KCAL/MOL
REMARK 924 INTRA-LIGAND FREE ENERGY PREDICTED BY IDOCK:   -0.58 KCAL/MOL
REMARK 927      BINDING AFFINITY PREDICTED BY RF-SCORE:    0.00 PKD
ROOT
HETATM    1  C   UNL     1      -6.706  13.376  68.822  1.00  0.00    -0.106 C  
HETATM    2  C   UNL     1      -6.958  11.881  68.806  1.00  0.00    -0.104 C  
ENDROOT
BRANCH   2   3
HETATM    3  O   UNL     1      -7.144  11.389  70.139  1.00  0.00     0.043 OA 
BRANCH   3   4
HETATM    4  C   UNL     1      -7.350   9.970  70.122  1.00  0.00    -0.163 C  
BRANCH   4   5
HETATM    5  C   UNL     1      -8.605   9.613  69.326  1.00  0.00    -0.153 C  
BRANCH   5   6
HETATM    6  N   UNL     1      -9.091   8.270  69.603  1.00  0.00    -0.153 NA 
HETATM    7  C   UNL     1      -8.914   7.129  68.836  1.00  0.00    -0.129 A  
HETATM    8  N   UNL     1      -9.491   6.089  69.404  1.00  0.00    -0.133 NA 
HETATM    9  C   UNL     1     -10.349   8.644  71.795  1.00  0.00    -0.386 A  
HETATM   10  C   UNL     1     -10.068   6.556  70.555  1.00  0.00    -0.185 A  
HETATM   11  C   UNL     1      -9.848   7.921  70.704  1.00  0.00    -0.185 A  
HETATM   12  C   UNL     1     -11.073   7.934  72.760  1.00  0.00    -0.462 A  
HETATM   13  C   UNL     1     -10.806   5.862  71.524  1.00  0.00    -0.325 A  
HETATM   14  C   UNL     1     -11.301   6.565  72.629  1.00  0.00    -0.259 A  
BRANCH   7  15
HETATM   15  C   UNL     1      -8.187   7.093  67.530  1.00  0.00    -0.117 C  
HETATM   16  C   UNL     1      -8.264   7.065  65.048  1.00  0.00    -0.090 C  
HETATM   17  C   UNL     1      -6.287   7.937  66.182  1.00  0.00    -0.046 C  
HETATM   18  C   UNL     1      -7.096   8.162  67.460  1.00  0.00    -0.083 C  
HETATM   19  N   UNL     1      -7.089   7.954  64.947  1.00  0.00    -0.065 NA 
HETATM   20  C   UNL     1      -9.104   7.263  66.317  1.00  0.00    -0.186 C  
BRANCH  19  21
HETATM   21  C   UNL     1      -7.486   9.307  64.528  1.00  0.00    -0.102 C  
BRANCH  21  22
HETATM   22  C   UNL     1      -8.992   9.442  64.232  1.00  0.00    -0.204 C  
BRANCH  22  23
HETATM   23  C   UNL     1      -9.495  10.782  64.702  1.00  0.00    -0.297 A  
HETATM   24  C   UNL     1     -10.242  11.594  63.843  1.00  0.00    -0.409 A  
HETATM   25  C   UNL     1     -10.590  12.889  64.224  1.00  0.00    -0.430 A  
HETATM   26  C   UNL     1     -10.201  13.405  65.475  1.00  0.00    -0.300 A  
HETATM   27  C   UNL     1      -9.150  11.260  65.963  1.00  0.00    -0.221 A  
HETATM   28  C   UNL     1      -9.505  12.552  66.348  1.00  0.00    -0.233 A  
BRANCH  26  29
HETATM   29  C   UNL     1     -10.464  14.885  65.806  1.00  0.00    -0.345 C  
HETATM   30  C   UNL     1     -11.384  15.064  67.027  1.00  0.00    -0.318 C  
HETATM   31  C   UNL     1      -9.118  15.584  66.105  1.00  0.00    -0.359 C  
HETATM   32  C   UNL     1     -11.149  15.656  64.658  1.00  0.00    -0.387 C  
HETATM   33  O   UNL     1     -12.334  14.108  67.178  1.00  0.00    -0.370 OA 
HETATM   34  O   UNL     1     -11.338  16.016  67.791  1.00  0.00    -0.282 OA 
ENDBRANCH  26  29
ENDBRANCH  22  23
ENDBRANCH  21  22
ENDBRANCH  19  21
ENDBRANCH   7  15
ENDBRANCH   5   6
ENDBRANCH   4   5
ENDBRANCH   3   4
ENDBRANCH   2   3
TORSDOF 9
ENDMDL
MODEL      129
REMARK 921   NORMALIZED FREE ENERGY PREDICTED BY IDOCK:   -5.20 KCAL/MOL
REMARK 922        TOTAL FREE ENERGY PREDICTED BY IDOCK:   -8.12 KCAL/MOL
REMARK 923 INTER-LIGAND FREE ENERGY PREDICTED BY IDOCK:   -7.47 KCAL/MOL
REMARK 924 INTRA-LIGAND FREE ENERGY PREDICTED BY IDOCK:   -0.65 KCAL/MOL
REMARK 927      BINDING AFFINITY PREDICTED BY RF-SCORE:    0.00 PKD
ROOT
HETATM    1  C   UNL     1      -5.331  10.901  70.972  1.00  0.00    -0.099 C  
HETATM    2  C   UNL     1      -6.514  10.304  70.236  1.00  0.00    -0.137 C  
ENDROOT
BRANCH   2   3
HETATM    3  O   UNL     1      -7.304   9.503  71.124  1.00  0.00    -0.318 OA 
BRANCH   3   4
HETATM    4  C   UNL     1      -8.517   9.092  70.479  1.00  0.00    -0.205 C  
BRANCH   4   5
HETATM    5  C   UNL     1      -8.346   9.077  68.960  1.00  0.00    -0.124 C  
BRANCH   5   6
HETATM    6  N   UNL     1      -9.184   8.085  68.304  1.00  0.00    -0.135 NA 
HETATM    7  C   UNL     1     -10.244   8.308  67.441  1.00  0.00    -0.258 A  
HETATM    8  N   UNL     1     -10.768   7.167  67.037  1.00  0.00    -0.354 NA 
HETATM    9  C   UNL     1      -8.190   5.917  69.223  1.00  0.00    -0.113 A  
HETATM   10  C   UNL     1     -10.048   6.180  67.655  1.00  0.00    -0.155 A  
HETATM   11  C   UNL     1      -9.057   6.719  68.468  1.00  0.00    -0.129 A  
HETATM   12  C   UNL     1      -8.342   4.530  69.117  1.00  0.00    -0.086 A  
HETATM   13  C   UNL     1     -10.195   4.787  67.571  1.00  0.00    -0.115 A  
HETATM   14  C   UNL     1      -9.329   3.970  68.306  1.00  0.00    -0.216 A  
BRANCH   7  15
HETATM   15  C   UNL     1     -10.741   9.661  67.044  1.00  0.00    -0.225 C  
HETATM   16  C   UNL     1     -11.846  11.795  67.671  1.00  0.00    -0.171 C  
HETATM   17  C   UNL     1     -10.311  11.745  65.774  1.00  0.00    -0.253 C  
HETATM   18  C   UNL     1      -9.669  10.462  66.304  1.00  0.00    -0.256 C  
HETATM   19  N   UNL     1     -10.936  12.581  66.813  1.00  0.00    -0.256 NA 
HETATM   20  C   UNL     1     -11.237  10.499  68.224  1.00  0.00    -0.354 C  
BRANCH  19  21
HETATM   21  C   UNL     1      -9.965  13.331  67.624  1.00  0.00    -0.229 C  
BRANCH  21  22
HETATM   22  C   UNL     1      -8.667  13.673  66.868  1.00  0.00    -0.162 C  
BRANCH  22  23
HETATM   23  C   UNL     1      -8.302  15.118  67.091  1.00  0.00    -0.247 A  
HETATM   24  C   UNL     1      -7.225  15.453  67.916  1.00  0.00    -0.160 A  
HETATM   25  C   UNL     1      -6.970  16.785  68.236  1.00  0.00    -0.161 A  
HETATM   26  C   UNL     1      -7.786  17.818  67.738  1.00  0.00    -0.214 A  
HETATM   27  C   UNL     1      -9.086  16.133  66.548  1.00  0.00    -0.311 A  
HETATM   28  C   UNL     1      -8.826  17.467  66.860  1.00  0.00    -0.259 A  
BRANCH  26  29
HETATM   29  C   UNL     1      -7.577  19.262  68.230  1.00  0.00    -0.339 C  
HETATM   30  C   UNL     1      -6.767  20.114  67.236  1.00  0.00    -0.225 C  
HETATM   31  C   UNL     1      -8.955  19.932  68.432  1.00  0.00    -0.255 C  
HETATM   32  C   UNL     1      -6.812  19.348  69.566  1.00  0.00    -0.303 C  
HETATM   33  O   UNL     1      -5.816  19.441  66.541  1.00  0.00    -0.166 OA 
HETATM   34  O   UNL     1      -6.893  21.322  67.101  1.00  0.00    -0.478 OA 
ENDBRANCH  26  29
ENDBRANCH  22  23
ENDBRANCH  21  22
ENDBRANCH  19  21
ENDBRANCH   7  15
ENDBRANCH   5   6
ENDBRANCH   4   5
ENDBRANCH   3   4
ENDBRANCH   2   3
TORSDOF 9
ENDMDL
MODEL      130
REMARK 921   NORMALIZED FREE ENERGY PREDICTED BY IDOCK:   -5.15 KCAL/MOL
REMARK 922        TOTAL FREE ENERGY PREDICTED BY IDOCK:   -8.04 KCAL/MOL
REMARK 923 INTER-LIGAND FREE ENERGY PREDICTED BY IDOCK:   -7.76 KCAL/MOL
REMARK 924 INTRA-LIGAND FREE ENERGY PREDICTED BY IDOCK:   -0.28 KCAL/MOL
REMARK 927      BINDING AFFINITY PREDICTED BY RF-SCORE:    0.00 PKD
ROOT
HETATM    1  C   UNL     1     -12.154  12.409  65.796  1.00  0.00    -0.381 C  
HETATM    2  C   UNL     1     -12.607  13.709  65.159  1.00  0.00    -0.430 C  
ENDROOT
BRANCH   2   3
HETATM    3  O   UNL     1     -12.016  14.828  65.831  1.00  0.00    -0.281 OA 
BRANCH   3   4
HETATM    4  C   UNL     1     -11.354  15.682  64.887  1.00  0.00    -0.315 C  
BRANCH   4   5
HETATM    5  C   UNL     1      -9.844  15.685  65.122  1.00  0.00     0.017 C  
BRANCH   5   6
HETATM    6  N   UNL     1      -9.470  16.271  66.399  1.00  0.00    -0.272 NA 
HETATM    7  C   UNL     1      -8.762  15.676  67.431  1.00  0.00    -0.179 A  
HETATM    8  N   UNL     1      -8.604  16.515  68.436  1.00  0.00    -0.204 NA 
HETATM    9  C   UNL     1     -10.504  18.599  66.193  1.00  0.00    -0.473 A  
HETATM   10  C   UNL     1      -9.229  17.675  68.063  1.00  0.00    -0.271 A  
HETATM   11  C   UNL     1      -9.794  17.553  66.799  1.00  0.00    -0.306 A  
HETATM   12  C   UNL     1     -10.613  19.799  66.905  1.00  0.00    -0.588 A  
HETATM   13  C   UNL     1      -9.358  18.881  68.768  1.00  0.00    -0.381 A  
HETATM   14  C   UNL     1     -10.051  19.941  68.173  1.00  0.00    -0.569 A  
BRANCH   7  15
HETATM   15  C   UNL     1      -8.269  14.264  67.413  1.00  0.00    -0.217 C  
HETATM   16  C   UNL     1      -7.179  12.372  68.596  1.00  0.00    -0.104 C  
HETATM   17  C   UNL     1      -8.697  11.919  66.740  1.00  0.00    -0.193 C  
HETATM   18  C   UNL     1      -9.338  13.298  66.903  1.00  0.00    -0.244 C  
HETATM   19  N   UNL     1      -8.085  11.388  67.969  1.00  0.00    -0.127 NA 
HETATM   20  C   UNL     1      -7.787  13.770  68.779  1.00  0.00    -0.059 C  
BRANCH  19  21
HETATM   21  C   UNL     1      -9.067  10.883  68.941  1.00  0.00    -0.144 C  
BRANCH  21  22
HETATM   22  C   UNL     1      -8.544   9.711  69.793  1.00  0.00    -0.211 C  
BRANCH  22  23
HETATM   23  C   UNL     1      -8.832   8.402  69.104  1.00  0.00    -0.142 A  
HETATM   24  C   UNL     1      -7.994   7.301  69.307  1.00  0.00    -0.118 A  
HETATM   25  C   UNL     1      -8.175   6.133  68.569  1.00  0.00    -0.111 A  
HETATM   26  C   UNL     1      -9.199   6.035  67.608  1.00  0.00    -0.107 A  
HETATM   27  C   UNL     1      -9.882   8.300  68.195  1.00  0.00    -0.198 A  
HETATM   28  C   UNL     1     -10.069   7.129  67.462  1.00  0.00    -0.241 A  
BRANCH  26  29
HETATM   29  C   UNL     1      -9.279   4.795  66.699  1.00  0.00    -0.128 C  
HETATM   30  C   UNL     1      -8.109   4.716  65.702  1.00  0.00    -0.107 C  
HETATM   31  C   UNL     1      -9.256   3.522  67.576  1.00  0.00    -0.224 C  
HETATM   32  C   UNL     1     -10.558   4.749  65.838  1.00  0.00    -0.290 C  
HETATM   33  O   UNL     1      -7.649   5.912  65.257  1.00  0.00    -0.079 OA 
HETATM   34  O   UNL     1      -7.643   3.674  65.267  1.00  0.00    -0.076 OA 
ENDBRANCH  26  29
ENDBRANCH  22  23
ENDBRANCH  21  22
ENDBRANCH  19  21
ENDBRANCH   7  15
ENDBRANCH   5   6
ENDBRANCH   4   5
ENDBRANCH   3   4
ENDBRANCH   2   3
TORSDOF 9
ENDMDL
MODEL      131
REMARK 921   NORMALIZED FREE ENERGY PREDICTED BY IDOCK:   -5.14 KCAL/MOL
REMARK 922        TOTAL FREE ENERGY PREDICTED BY IDOCK:   -8.03 KCAL/MOL
REMARK 923 INTER-LIGAND FREE ENERGY PREDICTED BY IDOCK:   -6.99 KCAL/MOL
REMARK 924 INTRA-LIGAND FREE ENERGY PREDICTED BY IDOCK:   -1.03 KCAL/MOL
REMARK 927      BINDING AFFINITY PREDICTED BY RF-SCORE:    0.00 PKD
ROOT
HETATM    1  C   UNL     1     -13.095  13.142  72.271  1.00  0.00    -0.458 C  
HETATM    2  C   UNL     1     -13.240  12.325  71.002  1.00  0.00     0.239 C  
ENDROOT
BRANCH   2   3
HETATM    3  O   UNL     1     -11.973  11.787  70.606  1.00  0.00    -0.350 OA 
BRANCH   3   4
HETATM    4  C   UNL     1     -11.785  11.943  69.193  1.00  0.00    -0.319 C  
BRANCH   4   5
HETATM    5  C   UNL     1     -10.309  12.170  68.863  1.00  0.00    -0.073 C  
BRANCH   5   6
HETATM    6  N   UNL     1     -10.083  13.361  68.060  1.00  0.00    -0.235 NA 
HETATM    7  C   UNL     1      -9.648  13.428  66.746  1.00  0.00    -0.262 A  
HETATM    8  N   UNL     1      -9.564  14.682  66.344  1.00  0.00    -0.286 NA 
HETATM    9  C   UNL     1     -10.654  15.201  69.739  1.00  0.00    -0.267 A  
HETATM   10  C   UNL     1      -9.936  15.449  67.415  1.00  0.00    -0.229 A  
HETATM   11  C   UNL     1     -10.255  14.655  68.511  1.00  0.00    -0.240 A  
HETATM   12  C   UNL     1     -10.743  16.595  69.824  1.00  0.00    -0.254 A  
HETATM   13  C   UNL     1     -10.019  16.845  67.521  1.00  0.00    -0.268 A  
HETATM   14  C   UNL     1     -10.430  17.408  68.735  1.00  0.00    -0.333 A  
BRANCH   7  15
HETATM   15  C   UNL     1      -9.299  12.239  65.909  1.00  0.00    -0.098 C  
HETATM   16  C   UNL     1      -7.886  10.230  65.546  1.00  0.00    -0.152 C  
HETATM   17  C   UNL     1     -10.121  10.323  64.571  1.00  0.00    -0.216 C  
HETATM   18  C   UNL     1     -10.533  11.402  65.573  1.00  0.00    -0.322 C  
HETATM   19  N   UNL     1      -9.032   9.449  65.038  1.00  0.00    -0.206 NA 
HETATM   20  C   UNL     1      -8.259  11.323  66.557  1.00  0.00    -0.165 C  
BRANCH  19  21
HETATM   21  C   UNL     1      -9.466   8.449  66.026  1.00  0.00    -0.154 C  
BRANCH  21  22
HETATM   22  C   UNL     1      -8.432   7.334  66.269  1.00  0.00    -0.135 C  
BRANCH  22  23
HETATM   23  C   UNL     1      -8.672   6.688  67.609  1.00  0.00    -0.118 A  
HETATM   24  C   UNL     1      -9.682   5.734  67.759  1.00  0.00    -0.130 A  
HETATM   25  C   UNL     1      -9.998   5.236  69.021  1.00  0.00    -0.260 A  
HETATM   26  C   UNL     1      -9.311   5.679  70.168  1.00  0.00    -0.188 A  
HETATM   27  C   UNL     1      -7.947   7.096  68.727  1.00  0.00    -0.123 A  
HETATM   28  C   UNL     1      -8.258   6.592  69.989  1.00  0.00    -0.130 A  
BRANCH  26  29
HETATM   29  C   UNL     1      -9.784   5.231  71.563  1.00  0.00    -0.215 C  
HETATM   30  C   UNL     1     -11.104   5.902  71.984  1.00  0.00    -0.274 C  
HETATM   31  C   UNL     1      -9.996   3.701  71.558  1.00  0.00    -0.181 C  
HETATM   32  C   UNL     1      -8.778   5.563  72.684  1.00  0.00    -0.123 C  
HETATM   33  O   UNL     1     -11.277   7.169  71.532  1.00  0.00    -0.238 OA 
HETATM   34  O   UNL     1     -11.932   5.390  72.722  1.00  0.00    -0.232 OA 
ENDBRANCH  26  29
ENDBRANCH  22  23
ENDBRANCH  21  22
ENDBRANCH  19  21
ENDBRANCH   7  15
ENDBRANCH   5   6
ENDBRANCH   4   5
ENDBRANCH   3   4
ENDBRANCH   2   3
TORSDOF 9
ENDMDL
MODEL      132
REMARK 921   NORMALIZED FREE ENERGY PREDICTED BY IDOCK:   -5.14 KCAL/MOL
REMARK 922        TOTAL FREE ENERGY PREDICTED BY IDOCK:   -8.02 KCAL/MOL
REMARK 923 INTER-LIGAND FREE ENERGY PREDICTED BY IDOCK:   -7.06 KCAL/MOL
REMARK 924 INTRA-LIGAND FREE ENERGY PREDICTED BY IDOCK:   -0.97 KCAL/MOL
REMARK 927      BINDING AFFINITY PREDICTED BY RF-SCORE:    0.00 PKD
ROOT
HETATM    1  C   UNL     1     -13.533   9.565  72.439  1.00  0.00    -0.475 C  
HETATM    2  C   UNL     1     -12.858   9.256  71.117  1.00  0.00    -0.222 C  
ENDROOT
BRANCH   2   3
HETATM    3  O   UNL     1     -11.978  10.323  70.743  1.00  0.00    -0.303 OA 
BRANCH   3   4
HETATM    4  C   UNL     1     -10.880   9.816  69.973  1.00  0.00    -0.278 C  
BRANCH   4   5
HETATM    5  C   UNL     1      -9.655   9.587  70.858  1.00  0.00    -0.146 C  
BRANCH   5   6
HETATM    6  N   UNL     1      -8.953   8.352  70.547  1.00  0.00    -0.144 NA 
HETATM    7  C   UNL     1      -7.757   8.206  69.863  1.00  0.00    -0.098 A  
HETATM    8  N   UNL     1      -7.420   6.934  69.773  1.00  0.00    -0.092 NA 
HETATM    9  C   UNL     1     -10.540   6.618  71.548  1.00  0.00    -0.251 A  
HETATM   10  C   UNL     1      -8.418   6.233  70.397  1.00  0.00    -0.134 A  
HETATM   11  C   UNL     1      -9.401   7.089  70.880  1.00  0.00    -0.157 A  
HETATM   12  C   UNL     1     -10.651   5.235  71.734  1.00  0.00    -0.268 A  
HETATM   13  C   UNL     1      -8.550   4.849  70.581  1.00  0.00    -0.123 A  
HETATM   14  C   UNL     1      -9.674   4.361  71.258  1.00  0.00    -0.252 A  
BRANCH   7  15
HETATM   15  C   UNL     1      -6.970   9.338  69.284  1.00  0.00    -0.053 C  
HETATM   16  C   UNL     1      -6.795  11.191  67.641  1.00  0.00    -0.076 C  
HETATM   17  C   UNL     1      -5.519  11.299  69.718  1.00  0.00    -0.058 C  
HETATM   18  C   UNL     1      -6.460  10.286  70.370  1.00  0.00    -0.131 C  
HETATM   19  N   UNL     1      -6.128  12.071  68.621  1.00  0.00    -0.051 NA 
HETATM   20  C   UNL     1      -7.751  10.161  68.257  1.00  0.00    -0.088 C  
BRANCH  19  21
HETATM   21  C   UNL     1      -7.039  13.128  69.087  1.00  0.00     0.021 C  
BRANCH  21  22
HETATM   22  C   UNL     1      -7.047  14.375  68.183  1.00  0.00    -0.126 C  
BRANCH  22  23
HETATM   23  C   UNL     1      -8.342  14.451  67.417  1.00  0.00    -0.216 A  
HETATM   24  C   UNL     1      -9.314  13.460  67.577  1.00  0.00    -0.218 A  
HETATM   25  C   UNL     1     -10.451  13.451  66.771  1.00  0.00    -0.275 A  
HETATM   26  C   UNL     1     -10.646  14.436  65.784  1.00  0.00    -0.326 A  
HETATM   27  C   UNL     1      -8.548  15.463  66.481  1.00  0.00    -0.294 A  
HETATM   28  C   UNL     1      -9.689  15.459  65.680  1.00  0.00    -0.366 A  
BRANCH  26  29
HETATM   29  C   UNL     1     -11.830  14.314  64.806  1.00  0.00    -0.436 C  
HETATM   30  C   UNL     1     -11.677  13.127  63.838  1.00  0.00    -0.456 C  
HETATM   31  C   UNL     1     -13.134  14.120  65.612  1.00  0.00    -0.132 C  
HETATM   32  C   UNL     1     -12.011  15.556  63.909  1.00  0.00     0.204 C  
HETATM   33  O   UNL     1     -10.403  12.840  63.473  1.00  0.00    -0.347 OA 
HETATM   34  O   UNL     1     -12.613  12.504  63.360  1.00  0.00    -0.690 OA 
ENDBRANCH  26  29
ENDBRANCH  22  23
ENDBRANCH  21  22
ENDBRANCH  19  21
ENDBRANCH   7  15
ENDBRANCH   5   6
ENDBRANCH   4   5
ENDBRANCH   3   4
ENDBRANCH   2   3
TORSDOF 9
ENDMDL
MODEL      133
REMARK 921   NORMALIZED FREE ENERGY PREDICTED BY IDOCK:   -5.13 KCAL/MOL
REMARK 922        TOTAL FREE ENERGY PREDICTED BY IDOCK:   -8.01 KCAL/MOL
REMARK 923 INTER-LIGAND FREE ENERGY PREDICTED BY IDOCK:   -7.22 KCAL/MOL
REMARK 924 INTRA-LIGAND FREE ENERGY PREDICTED BY IDOCK:   -0.79 KCAL/MOL
REMARK 927      BINDING AFFINITY PREDICTED BY RF-SCORE:    0.00 PKD
ROOT
HETATM    1  C   UNL     1      -9.424   8.417  65.998  1.00  0.00    -0.224 C  
HETATM    2  C   UNL     1     -10.397   7.960  67.067  1.00  0.00    -0.341 C  
ENDROOT
BRANCH   2   3
HETATM    3  O   UNL     1     -10.722   9.045  67.945  1.00  0.00    -0.217 OA 
BRANCH   3   4
HETATM    4  C   UNL     1     -10.423   8.693  69.303  1.00  0.00    -0.217 C  
BRANCH   4   5
HETATM    5  C   UNL     1      -9.656   7.372  69.365  1.00  0.00    -0.155 C  
BRANCH   5   6
HETATM    6  N   UNL     1      -9.129   7.084  70.690  1.00  0.00    -0.158 NA 
HETATM    7  C   UNL     1      -7.871   7.386  71.187  1.00  0.00    -0.092 A  
HETATM    8  N   UNL     1      -7.749   6.976  72.434  1.00  0.00    -0.093 NA 
HETATM    9  C   UNL     1     -11.108   5.865  71.752  1.00  0.00    -0.324 A  
HETATM   10  C   UNL     1      -8.940   6.382  72.757  1.00  0.00    -0.124 A  
HETATM   11  C   UNL     1      -9.822   6.419  71.682  1.00  0.00    -0.167 A  
HETATM   12  C   UNL     1     -11.491   5.278  72.963  1.00  0.00    -0.340 A  
HETATM   13  C   UNL     1      -9.336   5.780  73.960  1.00  0.00    -0.133 A  
HETATM   14  C   UNL     1     -10.621   5.233  74.051  1.00  0.00    -0.321 A  
BRANCH   7  15
HETATM   15  C   UNL     1      -6.794   8.065  70.403  1.00  0.00    -0.037 C  
HETATM   16  C   UNL     1      -5.582   8.356  68.255  1.00  0.00    -0.034 C  
HETATM   17  C   UNL     1      -5.630  10.186  69.869  1.00  0.00    -0.043 C  
HETATM   18  C   UNL     1      -6.865   9.585  70.541  1.00  0.00    -0.112 C  
HETATM   19  N   UNL     1      -5.472   9.816  68.453  1.00  0.00    -0.039 NA 
HETATM   20  C   UNL     1      -6.812   7.716  68.913  1.00  0.00    -0.061 C  
BRANCH  19  21
HETATM   21  C   UNL     1      -6.385  10.539  67.554  1.00  0.00    -0.057 C  
BRANCH  21  22
HETATM   22  C   UNL     1      -6.597  12.013  67.949  1.00  0.00    -0.076 C  
BRANCH  22  23
HETATM   23  C   UNL     1      -7.907  12.513  67.399  1.00  0.00    -0.175 A  
HETATM   24  C   UNL     1      -8.875  11.609  66.954  1.00  0.00    -0.190 A  
HETATM   25  C   UNL     1     -10.028  12.066  66.319  1.00  0.00    -0.249 A  
HETATM   26  C   UNL     1     -10.244  13.442  66.114  1.00  0.00    -0.301 A  
HETATM   27  C   UNL     1      -8.133  13.880  67.251  1.00  0.00    -0.162 A  
HETATM   28  C   UNL     1      -9.290  14.339  66.624  1.00  0.00    -0.302 A  
BRANCH  26  29
HETATM   29  C   UNL     1     -11.447  13.911  65.274  1.00  0.00    -0.319 C  
HETATM   30  C   UNL     1     -11.598  13.118  63.963  1.00  0.00    -0.428 C  
HETATM   31  C   UNL     1     -12.741  13.732  66.101  1.00  0.00    -0.335 C  
HETATM   32  C   UNL     1     -11.359  15.392  64.853  1.00  0.00    -0.367 C  
HETATM   33  O   UNL     1     -10.434  12.712  63.398  1.00  0.00    -0.338 OA 
HETATM   34  O   UNL     1     -12.664  12.905  63.405  1.00  0.00    -0.695 OA 
ENDBRANCH  26  29
ENDBRANCH  22  23
ENDBRANCH  21  22
ENDBRANCH  19  21
ENDBRANCH   7  15
ENDBRANCH   5   6
ENDBRANCH   4   5
ENDBRANCH   3   4
ENDBRANCH   2   3
TORSDOF 9
ENDMDL
MODEL      134
REMARK 921   NORMALIZED FREE ENERGY PREDICTED BY IDOCK:   -5.11 KCAL/MOL
REMARK 922        TOTAL FREE ENERGY PREDICTED BY IDOCK:   -7.98 KCAL/MOL
REMARK 923 INTER-LIGAND FREE ENERGY PREDICTED BY IDOCK:   -8.48 KCAL/MOL
REMARK 924 INTRA-LIGAND FREE ENERGY PREDICTED BY IDOCK:    0.50 KCAL/MOL
REMARK 927      BINDING AFFINITY PREDICTED BY RF-SCORE:    0.00 PKD
ROOT
HETATM    1  C   UNL     1     -11.300  15.400  71.087  1.00  0.00    -0.427 C  
HETATM    2  C   UNL     1     -10.803  16.119  69.848  1.00  0.00    -0.355 C  
ENDROOT
BRANCH   2   3
HETATM    3  O   UNL     1      -9.534  15.593  69.440  1.00  0.00    -0.251 OA 
BRANCH   3   4
HETATM    4  C   UNL     1      -9.713  14.593  68.426  1.00  0.00    -0.217 C  
BRANCH   4   5
HETATM    5  C   UNL     1     -11.162  14.108  68.391  1.00  0.00    -0.265 C  
BRANCH   5   6
HETATM    6  N   UNL     1     -11.389  13.068  67.400  1.00  0.00    -0.289 NA 
HETATM    7  C   UNL     1     -11.348  11.696  67.587  1.00  0.00    -0.295 A  
HETATM    8  N   UNL     1     -11.610  11.061  66.461  1.00  0.00    -0.103 NA 
HETATM    9  C   UNL     1     -11.813  14.468  65.305  1.00  0.00    -0.358 A  
HETATM   10  C   UNL     1     -11.814  12.032  65.517  1.00  0.00    -0.181 A  
HETATM   11  C   UNL     1     -11.668  13.301  66.068  1.00  0.00    -0.368 A  
HETATM   12  C   UNL     1     -12.133  14.316  63.951  1.00  0.00    -0.247 A  
HETATM   13  C   UNL     1     -12.122  11.898  64.156  1.00  0.00    -0.397 A  
HETATM   14  C   UNL     1     -12.284  13.053  63.382  1.00  0.00    -0.552 A  
BRANCH   7  15
HETATM   15  C   UNL     1     -11.025  11.029  68.885  1.00  0.00    -0.277 C  
HETATM   16  C   UNL     1     -11.721  10.377  71.178  1.00  0.00    -0.296 C  
HETATM   17  C   UNL     1     -10.004   9.080  70.027  1.00  0.00    -0.188 C  
HETATM   18  C   UNL     1     -10.481   9.615  68.676  1.00  0.00    -0.235 C  
HETATM   19  N   UNL     1     -11.041   9.070  71.072  1.00  0.00    -0.266 NA 
HETATM   20  C   UNL     1     -12.216  10.947  69.842  1.00  0.00    -0.408 C  
BRANCH  19  21
HETATM   21  C   UNL     1     -12.017   7.980  70.917  1.00  0.00    -0.189 C  
BRANCH  21  22
HETATM   22  C   UNL     1     -11.526   6.839  70.006  1.00  0.00    -0.390 C  
BRANCH  22  23
HETATM   23  C   UNL     1     -11.008   5.697  70.840  1.00  0.00    -0.257 A  
HETATM   24  C   UNL     1     -11.207   5.688  72.224  1.00  0.00    -0.317 A  
HETATM   25  C   UNL     1     -10.612   4.708  73.015  1.00  0.00    -0.278 A  
HETATM   26  C   UNL     1      -9.803   3.708  72.443  1.00  0.00    -0.226 A  
HETATM   27  C   UNL     1     -10.253   4.683  70.254  1.00  0.00    -0.205 A  
HETATM   28  C   UNL     1      -9.665   3.697  71.045  1.00  0.00    -0.243 A  
BRANCH  26  29
HETATM   29  C   UNL     1      -9.034   2.733  73.353  1.00  0.00    -0.085 C  
HETATM   30  C   UNL     1      -7.911   1.989  72.608  1.00  0.00    -0.053 C  
HETATM   31  C   UNL     1      -8.401   3.523  74.521  1.00  0.00    -0.081 C  
HETATM   32  C   UNL     1      -9.926   1.631  73.960  1.00  0.00    -0.116 C  
HETATM   33  O   UNL     1      -8.167   1.715  71.304  1.00  0.00    -0.046 OA 
HETATM   34  O   UNL     1      -6.878   1.598  73.130  1.00  0.00    -0.020 OA 
ENDBRANCH  26  29
ENDBRANCH  22  23
ENDBRANCH  21  22
ENDBRANCH  19  21
ENDBRANCH   7  15
ENDBRANCH   5   6
ENDBRANCH   4   5
ENDBRANCH   3   4
ENDBRANCH   2   3
TORSDOF 9
ENDMDL
MODEL      135
REMARK 921   NORMALIZED FREE ENERGY PREDICTED BY IDOCK:   -5.08 KCAL/MOL
REMARK 922        TOTAL FREE ENERGY PREDICTED BY IDOCK:   -7.94 KCAL/MOL
REMARK 923 INTER-LIGAND FREE ENERGY PREDICTED BY IDOCK:   -7.53 KCAL/MOL
REMARK 924 INTRA-LIGAND FREE ENERGY PREDICTED BY IDOCK:   -0.42 KCAL/MOL
REMARK 927      BINDING AFFINITY PREDICTED BY RF-SCORE:    0.00 PKD
ROOT
HETATM    1  C   UNL     1      -8.906  16.685  67.074  1.00  0.00    -0.220 C  
HETATM    2  C   UNL     1      -8.128  15.801  68.029  1.00  0.00    -0.140 C  
ENDROOT
BRANCH   2   3
HETATM    3  O   UNL     1      -8.582  14.445  67.937  1.00  0.00    -0.149 OA 
BRANCH   3   4
HETATM    4  C   UNL     1      -9.744  14.252  68.756  1.00  0.00    -0.173 C  
BRANCH   4   5
HETATM    5  C   UNL     1     -10.269  12.823  68.624  1.00  0.00    -0.152 C  
BRANCH   5   6
HETATM    6  N   UNL     1     -11.243  12.479  69.649  1.00  0.00    -0.095 NA 
HETATM    7  C   UNL     1     -11.537  11.222  70.152  1.00  0.00    -0.305 A  
HETATM    8  N   UNL     1     -12.474  11.295  71.077  1.00  0.00    -0.402 NA 
HETATM    9  C   UNL     1     -12.233  14.775  70.175  1.00  0.00    -0.391 A  
HETATM   10  C   UNL     1     -12.809  12.619  71.174  1.00  0.00    -0.220 A  
HETATM   11  C   UNL     1     -12.068  13.387  70.283  1.00  0.00    -0.349 A  
HETATM   12  C   UNL     1     -13.171  15.379  71.021  1.00  0.00    -0.560 A  
HETATM   13  C   UNL     1     -13.754  13.238  72.005  1.00  0.00    -0.519 A  
HETATM   14  C   UNL     1     -13.922  14.625  71.922  1.00  0.00    -0.573 A  
BRANCH   7  15
HETATM   15  C   UNL     1     -10.895   9.954  69.688  1.00  0.00    -0.281 C  
HETATM   16  C   UNL     1     -10.377   8.380  67.838  1.00  0.00    -0.221 C  
HETATM   17  C   UNL     1      -8.918   8.463  69.793  1.00  0.00    -0.146 C  
HETATM   18  C   UNL     1      -9.439   9.858  70.144  1.00  0.00    -0.214 C  
HETATM   19  N   UNL     1      -9.021   8.123  68.364  1.00  0.00    -0.137 NA 
HETATM   20  C   UNL     1     -10.934   9.771  68.169  1.00  0.00    -0.228 C  
BRANCH  19  21
HETATM   21  C   UNL     1      -8.001   8.779  67.532  1.00  0.00    -0.102 C  
BRANCH  21  22
HETATM   22  C   UNL     1      -8.274   8.665  66.020  1.00  0.00    -0.127 C  
BRANCH  22  23
HETATM   23  C   UNL     1      -8.933   9.922  65.516  1.00  0.00    -0.209 A  
HETATM   24  C   UNL     1      -8.515  11.172  65.981  1.00  0.00    -0.138 A  
HETATM   25  C   UNL     1      -9.210  12.326  65.625  1.00  0.00     0.091 A  
HETATM   26  C   UNL     1     -10.343  12.260  64.792  1.00  0.00    -0.320 A  
HETATM   27  C   UNL     1     -10.020   9.847  64.648  1.00  0.00    -0.072 A  
HETATM   28  C   UNL     1     -10.712  11.002  64.284  1.00  0.00    -0.348 A  
BRANCH  26  29
HETATM   29  C   UNL     1     -11.183  13.526  64.542  1.00  0.00    -0.392 C  
HETATM   30  C   UNL     1     -12.218  13.778  65.652  1.00  0.00    -0.454 C  
HETATM   31  C   UNL     1     -10.242  14.750  64.467  1.00  0.00     0.311 C  
HETATM   32  C   UNL     1     -11.991  13.473  63.229  1.00  0.00    -0.182 C  
HETATM   33  O   UNL     1     -12.742  12.662  66.217  1.00  0.00    -0.193 OA 
HETATM   34  O   UNL     1     -12.615  14.885  65.985  1.00  0.00     0.081 OA 
ENDBRANCH  26  29
ENDBRANCH  22  23
ENDBRANCH  21  22
ENDBRANCH  19  21
ENDBRANCH   7  15
ENDBRANCH   5   6
ENDBRANCH   4   5
ENDBRANCH   3   4
ENDBRANCH   2   3
TORSDOF 9
ENDMDL
MODEL      136
REMARK 921   NORMALIZED FREE ENERGY PREDICTED BY IDOCK:   -5.06 KCAL/MOL
REMARK 922        TOTAL FREE ENERGY PREDICTED BY IDOCK:   -7.91 KCAL/MOL
REMARK 923 INTER-LIGAND FREE ENERGY PREDICTED BY IDOCK:   -7.15 KCAL/MOL
REMARK 924 INTRA-LIGAND FREE ENERGY PREDICTED BY IDOCK:   -0.76 KCAL/MOL
REMARK 927      BINDING AFFINITY PREDICTED BY RF-SCORE:    0.00 PKD
ROOT
HETATM    1  C   UNL     1      -9.860  10.541  63.824  1.00  0.00    -0.363 C  
HETATM    2  C   UNL     1     -10.637  11.843  63.876  1.00  0.00    -0.394 C  
ENDROOT
BRANCH   2   3
HETATM    3  O   UNL     1     -10.939  12.191  65.232  1.00  0.00    -0.288 OA 
BRANCH   3   4
HETATM    4  C   UNL     1      -9.940  11.664  66.116  1.00  0.00    -0.221 C  
BRANCH   4   5
HETATM    5  C   UNL     1     -10.088  12.257  67.517  1.00  0.00    -0.201 C  
BRANCH   5   6
HETATM    6  N   UNL     1     -10.734  11.349  68.453  1.00  0.00    -0.192 NA 
HETATM    7  C   UNL     1     -10.687   9.965  68.460  1.00  0.00    -0.226 A  
HETATM    8  N   UNL     1     -11.391   9.477  69.463  1.00  0.00    -0.069 NA 
HETATM    9  C   UNL     1     -11.961  12.999  69.970  1.00  0.00    -0.383 A  
HETATM   10  C   UNL     1     -11.919  10.558  70.116  1.00  0.00    -0.316 A  
HETATM   11  C   UNL     1     -11.539  11.747  69.502  1.00  0.00    -0.332 A  
HETATM   12  C   UNL     1     -12.776  13.018  71.109  1.00  0.00    -0.372 A  
HETATM   13  C   UNL     1     -12.746  10.596  71.248  1.00  0.00    -0.537 A  
HETATM   14  C   UNL     1     -13.165  11.838  71.739  1.00  0.00    -0.434 A  
BRANCH   7  15
HETATM   15  C   UNL     1      -9.956   9.139  67.451  1.00  0.00    -0.262 C  
HETATM   16  C   UNL     1      -7.829   8.131  66.658  1.00  0.00    -0.094 C  
HETATM   17  C   UNL     1      -9.954   7.106  66.033  1.00  0.00     0.434 C  
HETATM   18  C   UNL     1     -10.653   7.801  67.202  1.00  0.00    -0.401 C  
HETATM   19  N   UNL     1      -8.511   6.891  66.234  1.00  0.00    -0.125 NA 
HETATM   20  C   UNL     1      -8.501   8.857  67.832  1.00  0.00    -0.125 C  
BRANCH  19  21
HETATM   21  C   UNL     1      -8.207   5.783  67.153  1.00  0.00    -0.102 C  
BRANCH  21  22
HETATM   22  C   UNL     1      -9.397   4.833  67.385  1.00  0.00    -0.153 C  
BRANCH  22  23
HETATM   23  C   UNL     1      -9.469   4.437  68.837  1.00  0.00    -0.232 A  
HETATM   24  C   UNL     1      -9.988   5.324  69.784  1.00  0.00    -0.306 A  
HETATM   25  C   UNL     1      -9.929   5.019  71.142  1.00  0.00    -0.276 A  
HETATM   26  C   UNL     1      -9.351   3.816  71.589  1.00  0.00    -0.198 A  
HETATM   27  C   UNL     1      -8.942   3.219  69.261  1.00  0.00    -0.180 A  
HETATM   28  C   UNL     1      -8.891   2.909  70.619  1.00  0.00    -0.148 A  
BRANCH  26  29
HETATM   29  C   UNL     1      -9.159   3.574  73.098  1.00  0.00    -0.110 C  
HETATM   30  C   UNL     1      -9.774   2.243  73.566  1.00  0.00    -0.090 C  
HETATM   31  C   UNL     1      -7.647   3.550  73.418  1.00  0.00    -0.062 C  
HETATM   32  C   UNL     1      -9.809   4.661  73.978  1.00  0.00    -0.176 C  
HETATM   33  O   UNL     1     -10.898   1.864  72.908  1.00  0.00    -0.153 OA 
HETATM   34  O   UNL     1      -9.351   1.579  74.500  1.00  0.00    -0.060 OA 
ENDBRANCH  26  29
ENDBRANCH  22  23
ENDBRANCH  21  22
ENDBRANCH  19  21
ENDBRANCH   7  15
ENDBRANCH   5   6
ENDBRANCH   4   5
ENDBRANCH   3   4
ENDBRANCH   2   3
TORSDOF 9
ENDMDL
MODEL      137
REMARK 921   NORMALIZED FREE ENERGY PREDICTED BY IDOCK:   -5.05 KCAL/MOL
REMARK 922        TOTAL FREE ENERGY PREDICTED BY IDOCK:   -7.90 KCAL/MOL
REMARK 923 INTER-LIGAND FREE ENERGY PREDICTED BY IDOCK:   -6.53 KCAL/MOL
REMARK 924 INTRA-LIGAND FREE ENERGY PREDICTED BY IDOCK:   -1.36 KCAL/MOL
REMARK 927      BINDING AFFINITY PREDICTED BY RF-SCORE:    0.00 PKD
ROOT
HETATM    1  C   UNL     1     -12.106  11.969  64.693  1.00  0.00    -0.313 C  
HETATM    2  C   UNL     1     -12.986  13.202  64.759  1.00  0.00    -0.104 C  
ENDROOT
BRANCH   2   3
HETATM    3  O   UNL     1     -12.356  14.225  65.539  1.00  0.00    -0.416 OA 
BRANCH   3   4
HETATM    4  C   UNL     1     -11.839  15.255  64.684  1.00  0.00    -0.267 C  
BRANCH   4   5
HETATM    5  C   UNL     1     -10.334  15.426  64.890  1.00  0.00    -0.221 C  
BRANCH   5   6
HETATM    6  N   UNL     1      -9.990  15.842  66.241  1.00  0.00    -0.278 NA 
HETATM    7  C   UNL     1      -9.485  15.059  67.266  1.00  0.00    -0.208 A  
HETATM    8  N   UNL     1      -9.288  15.780  68.353  1.00  0.00    -0.192 NA 
HETATM    9  C   UNL     1     -10.617  18.318  66.167  1.00  0.00    -0.326 A  
HETATM   10  C   UNL     1      -9.683  17.053  68.040  1.00  0.00    -0.260 A  
HETATM   11  C   UNL     1     -10.142  17.125  66.729  1.00  0.00    -0.303 A  
HETATM   12  C   UNL     1     -10.598  19.461  66.975  1.00  0.00    -0.586 A  
HETATM   13  C   UNL     1      -9.682  18.206  68.839  1.00  0.00    -0.283 A  
HETATM   14  C   UNL     1     -10.140  19.409  68.291  1.00  0.00    -0.531 A  
BRANCH   7  15
HETATM   15  C   UNL     1      -9.223  13.591  67.159  1.00  0.00    -0.236 C  
HETATM   16  C   UNL     1      -7.596  11.718  67.057  1.00  0.00    -0.147 C  
HETATM   17  C   UNL     1      -9.857  11.306  67.878  1.00  0.00    -0.176 C  
HETATM   18  C   UNL     1     -10.039  12.795  68.177  1.00  0.00    -0.239 C  
HETATM   19  N   UNL     1      -8.456  10.854  67.891  1.00  0.00    -0.127 NA 
HETATM   20  C   UNL     1      -7.749  13.220  67.330  1.00  0.00    -0.100 C  
BRANCH  19  21
HETATM   21  C   UNL     1      -7.900  10.710  69.246  1.00  0.00    -0.138 C  
BRANCH  21  22
HETATM   22  C   UNL     1      -6.670   9.786  69.311  1.00  0.00    -0.053 C  
BRANCH  22  23
HETATM   23  C   UNL     1      -7.106   8.351  69.452  1.00  0.00    -0.054 A  
HETATM   24  C   UNL     1      -7.006   7.703  70.687  1.00  0.00    -0.047 A  
HETATM   25  C   UNL     1      -7.277   6.340  70.791  1.00  0.00    -0.074 A  
HETATM   26  C   UNL     1      -7.656   5.589  69.662  1.00  0.00    -0.071 A  
HETATM   27  C   UNL     1      -7.532   7.632  68.338  1.00  0.00    -0.104 A  
HETATM   28  C   UNL     1      -7.811   6.271  68.443  1.00  0.00    -0.105 A  
BRANCH  26  29
HETATM   29  C   UNL     1      -7.798   4.060  69.773  1.00  0.00    -0.052 C  
HETATM   30  C   UNL     1      -9.263   3.595  69.695  1.00  0.00    -0.151 C  
HETATM   31  C   UNL     1      -7.015   3.394  68.619  1.00  0.00    -0.049 C  
HETATM   32  C   UNL     1      -7.256   3.491  71.100  1.00  0.00    -0.033 C  
HETATM   33  O   UNL     1     -10.169   4.448  70.235  1.00  0.00    -0.180 OA 
HETATM   34  O   UNL     1      -9.621   2.516  69.247  1.00  0.00    -0.109 OA 
ENDBRANCH  26  29
ENDBRANCH  22  23
ENDBRANCH  21  22
ENDBRANCH  19  21
ENDBRANCH   7  15
ENDBRANCH   5   6
ENDBRANCH   4   5
ENDBRANCH   3   4
ENDBRANCH   2   3
TORSDOF 9
ENDMDL
MODEL      138
REMARK 921   NORMALIZED FREE ENERGY PREDICTED BY IDOCK:   -5.02 KCAL/MOL
REMARK 922        TOTAL FREE ENERGY PREDICTED BY IDOCK:   -7.85 KCAL/MOL
REMARK 923 INTER-LIGAND FREE ENERGY PREDICTED BY IDOCK:   -6.74 KCAL/MOL
REMARK 924 INTRA-LIGAND FREE ENERGY PREDICTED BY IDOCK:   -1.11 KCAL/MOL
REMARK 927      BINDING AFFINITY PREDICTED BY RF-SCORE:    0.00 PKD
ROOT
HETATM    1  C   UNL     1      -7.066   4.485  68.286  1.00  0.00    -0.057 C  
HETATM    2  C   UNL     1      -8.367   5.031  68.841  1.00  0.00    -0.083 C  
ENDROOT
BRANCH   2   3
HETATM    3  O   UNL     1      -8.280   5.180  70.264  1.00  0.00    -0.087 OA 
BRANCH   3   4
HETATM    4  C   UNL     1      -9.219   6.165  70.719  1.00  0.00    -0.154 C  
BRANCH   4   5
HETATM    5  C   UNL     1      -9.900   6.853  69.536  1.00  0.00    -0.159 C  
BRANCH   5   6
HETATM    6  N   UNL     1     -10.584   8.081  69.911  1.00  0.00    -0.240 NA 
HETATM    7  C   UNL     1     -10.183   9.384  69.665  1.00  0.00    -0.212 A  
HETATM    8  N   UNL     1     -11.059  10.243  70.148  1.00  0.00    -0.299 NA 
HETATM    9  C   UNL     1     -12.620   7.153  71.145  1.00  0.00    -0.384 A  
HETATM   10  C   UNL     1     -12.043   9.493  70.733  1.00  0.00    -0.232 A  
HETATM   11  C   UNL     1     -11.771   8.134  70.615  1.00  0.00    -0.143 A  
HETATM   12  C   UNL     1     -13.783   7.589  71.791  1.00  0.00    -0.414 A  
HETATM   13  C   UNL     1     -13.206   9.913  71.394  1.00  0.00    -0.487 A  
HETATM   14  C   UNL     1     -14.074   8.947  71.917  1.00  0.00    -0.453 A  
BRANCH   7  15
HETATM   15  C   UNL     1      -8.915   9.761  68.967  1.00  0.00    -0.154 C  
HETATM   16  C   UNL     1      -7.773  11.008  67.149  1.00  0.00    -0.131 C  
HETATM   17  C   UNL     1      -6.546  10.454  69.185  1.00  0.00    -0.054 C  
HETATM   18  C   UNL     1      -7.859  10.271  69.947  1.00  0.00    -0.119 C  
HETATM   19  N   UNL     1      -6.640  11.362  68.029  1.00  0.00    -0.057 NA 
HETATM   20  C   UNL     1      -9.110  10.818  67.878  1.00  0.00    -0.150 C  
BRANCH  19  21
HETATM   21  C   UNL     1      -6.690  12.783  68.405  1.00  0.00    -0.087 C  
BRANCH  21  22
HETATM   22  C   UNL     1      -5.814  13.686  67.515  1.00  0.00     0.030 C  
BRANCH  22  23
HETATM   23  C   UNL     1      -6.284  15.114  67.604  1.00  0.00    -0.145 A  
HETATM   24  C   UNL     1      -5.485  16.150  67.112  1.00  0.00     0.011 A  
HETATM   25  C   UNL     1      -5.850  17.479  67.316  1.00  0.00    -0.156 A  
HETATM   26  C   UNL     1      -7.027  17.808  68.016  1.00  0.00    -0.197 A  
HETATM   27  C   UNL     1      -7.478  15.423  68.251  1.00  0.00    -0.112 A  
HETATM   28  C   UNL     1      -7.849  16.753  68.447  1.00  0.00    -0.214 A  
BRANCH  26  29
HETATM   29  C   UNL     1      -7.326  19.278  68.361  1.00  0.00    -0.340 C  
HETATM   30  C   UNL     1      -6.350  19.851  69.403  1.00  0.00    -0.339 C  
HETATM   31  C   UNL     1      -7.221  20.131  67.076  1.00  0.00    -0.295 C  
HETATM   32  C   UNL     1      -8.734  19.492  68.954  1.00  0.00    -0.291 C  
HETATM   33  O   UNL     1      -5.909  18.964  70.330  1.00  0.00    -0.246 OA 
HETATM   34  O   UNL     1      -6.020  21.026  69.466  1.00  0.00    -0.294 OA 
ENDBRANCH  26  29
ENDBRANCH  22  23
ENDBRANCH  21  22
ENDBRANCH  19  21
ENDBRANCH   7  15
ENDBRANCH   5   6
ENDBRANCH   4   5
ENDBRANCH   3   4
ENDBRANCH   2   3
TORSDOF 9
ENDMDL
MODEL      139
REMARK 921   NORMALIZED FREE ENERGY PREDICTED BY IDOCK:   -4.99 KCAL/MOL
REMARK 922        TOTAL FREE ENERGY PREDICTED BY IDOCK:   -7.80 KCAL/MOL
REMARK 923 INTER-LIGAND FREE ENERGY PREDICTED BY IDOCK:   -7.84 KCAL/MOL
REMARK 924 INTRA-LIGAND FREE ENERGY PREDICTED BY IDOCK:    0.04 KCAL/MOL
REMARK 927      BINDING AFFINITY PREDICTED BY RF-SCORE:    0.00 PKD
ROOT
HETATM    1  C   UNL     1     -12.185  11.522  68.604  1.00  0.00    -0.015 C  
HETATM    2  C   UNL     1     -11.289  12.284  69.561  1.00  0.00    -0.187 C  
ENDROOT
BRANCH   2   3
HETATM    3  O   UNL     1     -10.901  13.540  68.991  1.00  0.00    -0.246 OA 
BRANCH   3   4
HETATM    4  C   UNL     1     -11.990  14.107  68.248  1.00  0.00    -0.332 C  
BRANCH   4   5
HETATM    5  C   UNL     1     -12.024  15.627  68.411  1.00  0.00    -0.067 C  
BRANCH   5   6
HETATM    6  N   UNL     1     -11.850  16.054  69.790  1.00  0.00    -0.283 NA 
HETATM    7  C   UNL     1     -11.061  17.090  70.264  1.00  0.00     0.527 A  
HETATM    8  N   UNL     1     -11.155  17.188  71.576  1.00  0.00     0.865 NA 
HETATM    9  C   UNL     1     -13.325  14.366  71.017  1.00  0.00    -0.359 A  
HETATM   10  C   UNL     1     -12.008  16.192  71.971  1.00  0.00    -0.526 A  
HETATM   11  C   UNL     1     -12.451  15.453  70.879  1.00  0.00    -0.418 A  
HETATM   12  C   UNL     1     -13.761  14.052  72.310  1.00  0.00    -0.646 A  
HETATM   13  C   UNL     1     -12.446  15.856  73.260  1.00  0.00    -0.636 A  
HETATM   14  C   UNL     1     -13.330  14.782  73.416  1.00  0.00    -0.148 A  
BRANCH   7  15
HETATM   15  C   UNL     1     -10.203  17.960  69.404  1.00  0.00     0.038 C  
HETATM   16  C   UNL     1      -7.958  18.506  68.493  1.00  0.00    -0.323 C  
HETATM   17  C   UNL     1      -9.954  19.160  67.250  1.00  0.00    -0.356 C  
HETATM   18  C   UNL     1     -10.784  18.116  67.998  1.00  0.00    -0.297 C  
HETATM   19  N   UNL     1      -8.518  18.845  67.168  1.00  0.00    -0.271 NA 
HETATM   20  C   UNL     1      -8.763  17.459  69.274  1.00  0.00     0.221 C  
BRANCH  19  21
HETATM   21  C   UNL     1      -8.204  17.800  66.181  1.00  0.00    -0.158 C  
BRANCH  21  22
HETATM   22  C   UNL     1      -7.786  16.460  66.816  1.00  0.00    -0.298 C  
BRANCH  22  23
HETATM   23  C   UNL     1      -8.692  15.356  66.337  1.00  0.00    -0.307 A  
HETATM   24  C   UNL     1      -8.451  14.032  66.719  1.00  0.00    -0.019 A  
HETATM   25  C   UNL     1      -9.200  12.993  66.171  1.00  0.00    -0.010 A  
HETATM   26  C   UNL     1     -10.211  13.251  65.226  1.00  0.00    -0.303 A  
HETATM   27  C   UNL     1      -9.725  15.630  65.444  1.00  0.00    -0.193 A  
HETATM   28  C   UNL     1     -10.480  14.591  64.901  1.00  0.00    -0.435 A  
BRANCH  26  29
HETATM   29  C   UNL     1     -10.916  12.077  64.521  1.00  0.00    -0.369 C  
HETATM   30  C   UNL     1     -12.405  12.357  64.252  1.00  0.00    -0.455 C  
HETATM   31  C   UNL     1     -10.220  11.807  63.168  1.00  0.00    -0.376 C  
HETATM   32  C   UNL     1     -10.884  10.767  65.336  1.00  0.00    -0.062 C  
HETATM   33  O   UNL     1     -13.026  13.121  65.184  1.00  0.00    -0.695 OA 
HETATM   34  O   UNL     1     -13.035  11.892  63.314  1.00  0.00    -0.707 OA 
ENDBRANCH  26  29
ENDBRANCH  22  23
ENDBRANCH  21  22
ENDBRANCH  19  21
ENDBRANCH   7  15
ENDBRANCH   5   6
ENDBRANCH   4   5
ENDBRANCH   3   4
ENDBRANCH   2   3
TORSDOF 9
ENDMDL
MODEL      140
REMARK 921   NORMALIZED FREE ENERGY PREDICTED BY IDOCK:   -4.99 KCAL/MOL
REMARK 922        TOTAL FREE ENERGY PREDICTED BY IDOCK:   -7.80 KCAL/MOL
REMARK 923 INTER-LIGAND FREE ENERGY PREDICTED BY IDOCK:   -7.43 KCAL/MOL
REMARK 924 INTRA-LIGAND FREE ENERGY PREDICTED BY IDOCK:   -0.37 KCAL/MOL
REMARK 927      BINDING AFFINITY PREDICTED BY RF-SCORE:    0.00 PKD
ROOT
HETATM    1  C   UNL     1      -9.866   4.107  67.239  1.00  0.00    -0.171 C  
HETATM    2  C   UNL     1      -8.788   4.949  67.893  1.00  0.00    -0.104 C  
ENDROOT
BRANCH   2   3
HETATM    3  O   UNL     1      -8.693   6.227  67.251  1.00  0.00    -0.107 OA 
BRANCH   3   4
HETATM    4  C   UNL     1      -7.404   6.809  67.489  1.00  0.00    -0.096 C  
BRANCH   4   5
HETATM    5  C   UNL     1      -7.513   8.327  67.636  1.00  0.00    -0.094 C  
BRANCH   5   6
HETATM    6  N   UNL     1      -8.612   8.736  68.496  1.00  0.00    -0.133 NA 
HETATM    7  C   UNL     1      -9.790   9.365  68.126  1.00  0.00    -0.160 A  
HETATM    8  N   UNL     1     -10.557   9.579  69.177  1.00  0.00    -0.219 NA 
HETATM    9  C   UNL     1      -7.733   8.027  70.789  1.00  0.00    -0.082 A  
HETATM   10  C   UNL     1      -9.866   9.096  70.256  1.00  0.00    -0.207 A  
HETATM   11  C   UNL     1      -8.637   8.573  69.868  1.00  0.00    -0.131 A  
HETATM   12  C   UNL     1      -8.118   8.006  72.134  1.00  0.00    -0.172 A  
HETATM   13  C   UNL     1     -10.232   9.077  71.609  1.00  0.00    -0.418 A  
HETATM   14  C   UNL     1      -9.347   8.523  72.542  1.00  0.00    -0.316 A  
BRANCH   7  15
HETATM   15  C   UNL     1     -10.129   9.767  66.726  1.00  0.00    -0.295 C  
HETATM   16  C   UNL     1     -11.530  11.106  65.174  1.00  0.00     0.304 C  
HETATM   17  C   UNL     1      -9.292  10.417  64.487  1.00  0.00    -0.264 C  
HETATM   18  C   UNL     1      -8.890  10.205  65.947  1.00  0.00    -0.167 C  
HETATM   19  N   UNL     1     -10.378  11.393  64.295  1.00  0.00    -0.299 NA 
HETATM   20  C   UNL     1     -11.166  10.889  66.649  1.00  0.00    -0.060 C  
BRANCH  19  21
HETATM   21  C   UNL     1      -9.940  12.790  64.440  1.00  0.00    -0.152 C  
BRANCH  21  22
HETATM   22  C   UNL     1     -11.055  13.737  64.924  1.00  0.00    -0.364 C  
BRANCH  22  23
HETATM   23  C   UNL     1     -10.468  15.064  65.329  1.00  0.00    -0.428 A  
HETATM   24  C   UNL     1      -9.402  15.116  66.232  1.00  0.00    -0.348 A  
HETATM   25  C   UNL     1      -8.948  16.341  66.716  1.00  0.00    -0.259 A  
HETATM   26  C   UNL     1      -9.547  17.548  66.307  1.00  0.00    -0.253 A  
HETATM   27  C   UNL     1     -11.035  16.252  64.875  1.00  0.00    -0.321 A  
HETATM   28  C   UNL     1     -10.575  17.479  65.352  1.00  0.00    -0.005 A  
BRANCH  26  29
HETATM   29  C   UNL     1      -9.129  18.872  66.972  1.00  0.00    -0.310 C  
HETATM   30  C   UNL     1      -9.327  18.855  68.499  1.00  0.00    -0.366 C  
HETATM   31  C   UNL     1      -7.635  19.138  66.679  1.00  0.00    -0.255 C  
HETATM   32  C   UNL     1      -9.931  20.089  66.467  1.00  0.00    -0.603 C  
HETATM   33  O   UNL     1     -10.384  18.126  68.935  1.00  0.00    -0.356 OA 
HETATM   34  O   UNL     1      -8.644  19.489  69.289  1.00  0.00    -0.221 OA 
ENDBRANCH  26  29
ENDBRANCH  22  23
ENDBRANCH  21  22
ENDBRANCH  19  21
ENDBRANCH   7  15
ENDBRANCH   5   6
ENDBRANCH   4   5
ENDBRANCH   3   4
ENDBRANCH   2   3
TORSDOF 9
ENDMDL
MODEL      141
REMARK 921   NORMALIZED FREE ENERGY PREDICTED BY IDOCK:   -4.95 KCAL/MOL
REMARK 922        TOTAL FREE ENERGY PREDICTED BY IDOCK:   -7.74 KCAL/MOL
REMARK 923 INTER-LIGAND FREE ENERGY PREDICTED BY IDOCK:   -6.30 KCAL/MOL
REMARK 924 INTRA-LIGAND FREE ENERGY PREDICTED BY IDOCK:   -1.44 KCAL/MOL
REMARK 927      BINDING AFFINITY PREDICTED BY RF-SCORE:    0.00 PKD
ROOT
HETATM    1  C   UNL     1      -9.834  10.759  62.927  1.00  0.00    -0.294 C  
HETATM    2  C   UNL     1      -8.535  10.491  63.663  1.00  0.00    -0.133 C  
ENDROOT
BRANCH   2   3
HETATM    3  O   UNL     1      -8.694   9.400  64.578  1.00  0.00    -0.187 OA 
BRANCH   3   4
HETATM    4  C   UNL     1      -8.885   9.893  65.912  1.00  0.00    -0.148 C  
BRANCH   4   5
HETATM    5  C   UNL     1     -10.362   9.845  66.302  1.00  0.00    -0.163 C  
BRANCH   5   6
HETATM    6  N   UNL     1     -10.600   9.106  67.532  1.00  0.00    -0.273 NA 
HETATM    7  C   UNL     1     -10.416   7.752  67.757  1.00  0.00    -0.211 A  
HETATM    8  N   UNL     1     -10.732   7.436  68.998  1.00  0.00    -0.187 NA 
HETATM    9  C   UNL     1     -11.467  10.962  69.060  1.00  0.00    -0.371 A  
HETATM   10  C   UNL     1     -11.141   8.599  69.593  1.00  0.00    -0.013 A  
HETATM   11  C   UNL     1     -11.085   9.663  68.699  1.00  0.00    -0.038 A  
HETATM   12  C   UNL     1     -11.896  11.165  70.377  1.00  0.00    -0.462 A  
HETATM   13  C   UNL     1     -11.585   8.817  70.905  1.00  0.00    -0.320 A  
HETATM   14  C   UNL     1     -11.956  10.111  71.287  1.00  0.00    -0.473 A  
BRANCH   7  15
HETATM   15  C   UNL     1      -9.948   6.779  66.722  1.00  0.00    -0.242 C  
HETATM   16  C   UNL     1      -8.082   5.531  65.660  1.00  0.00    -0.118 C  
HETATM   17  C   UNL     1     -10.349   4.633  65.551  1.00  0.00    -0.198 C  
HETATM   18  C   UNL     1     -10.764   5.487  66.750  1.00  0.00    -0.329 C  
HETATM   19  N   UNL     1      -8.911   4.319  65.503  1.00  0.00    -0.120 NA 
HETATM   20  C   UNL     1      -8.468   6.414  66.854  1.00  0.00    -0.110 C  
BRANCH  19  21
HETATM   21  C   UNL     1      -8.507   3.278  66.461  1.00  0.00    -0.107 C  
BRANCH  21  22
HETATM   22  C   UNL     1      -7.413   3.737  67.443  1.00  0.00    -0.067 C  
BRANCH  22  23
HETATM   23  C   UNL     1      -7.903   3.609  68.862  1.00  0.00    -0.052 A  
HETATM   24  C   UNL     1      -9.114   2.966  69.133  1.00  0.00    -0.198 A  
HETATM   25  C   UNL     1      -9.639   2.967  70.424  1.00  0.00    -0.156 A  
HETATM   26  C   UNL     1      -8.965   3.610  71.479  1.00  0.00    -0.160 A  
HETATM   27  C   UNL     1      -7.199   4.204  69.906  1.00  0.00    -0.046 A  
HETATM   28  C   UNL     1      -7.719   4.197  71.200  1.00  0.00    -0.066 A  
BRANCH  26  29
HETATM   29  C   UNL     1      -9.640   3.729  72.858  1.00  0.00    -0.170 C  
HETATM   30  C   UNL     1     -10.842   4.690  72.846  1.00  0.00    -0.221 C  
HETATM   31  C   UNL     1     -10.136   2.334  73.300  1.00  0.00    -0.186 C  
HETATM   32  C   UNL     1      -8.697   4.263  73.955  1.00  0.00    -0.096 C  
HETATM   33  O   UNL     1     -10.730   5.744  72.000  1.00  0.00    -0.218 OA 
HETATM   34  O   UNL     1     -11.817   4.583  73.576  1.00  0.00    -0.173 OA 
ENDBRANCH  26  29
ENDBRANCH  22  23
ENDBRANCH  21  22
ENDBRANCH  19  21
ENDBRANCH   7  15
ENDBRANCH   5   6
ENDBRANCH   4   5
ENDBRANCH   3   4
ENDBRANCH   2   3
TORSDOF 9
ENDMDL
MODEL      142
REMARK 921   NORMALIZED FREE ENERGY PREDICTED BY IDOCK:   -4.94 KCAL/MOL
REMARK 922        TOTAL FREE ENERGY PREDICTED BY IDOCK:   -7.73 KCAL/MOL
REMARK 923 INTER-LIGAND FREE ENERGY PREDICTED BY IDOCK:   -6.99 KCAL/MOL
REMARK 924 INTRA-LIGAND FREE ENERGY PREDICTED BY IDOCK:   -0.74 KCAL/MOL
REMARK 927      BINDING AFFINITY PREDICTED BY RF-SCORE:    0.00 PKD
ROOT
HETATM    1  C   UNL     1     -12.298  13.077  66.497  1.00  0.00    -0.175 C  
HETATM    2  C   UNL     1     -11.821  12.140  67.590  1.00  0.00    -0.246 C  
ENDROOT
BRANCH   2   3
HETATM    3  O   UNL     1     -12.120  12.684  68.881  1.00  0.00    -0.262 OA 
BRANCH   3   4
HETATM    4  C   UNL     1     -12.554  11.645  69.770  1.00  0.00     0.098 C  
BRANCH   4   5
HETATM    5  C   UNL     1     -11.358  10.965  70.436  1.00  0.00    -0.200 C  
BRANCH   5   6
HETATM    6  N   UNL     1     -11.500   9.520  70.519  1.00  0.00    -0.271 NA 
HETATM    7  C   UNL     1     -10.711   8.555  69.915  1.00  0.00    -0.224 A  
HETATM    8  N   UNL     1     -11.136   7.344  70.219  1.00  0.00    -0.262 NA 
HETATM    9  C   UNL     1     -13.572   9.313  72.000  1.00  0.00    -0.519 A  
HETATM   10  C   UNL     1     -12.229   7.517  71.025  1.00  0.00    -0.259 A  
HETATM   11  C   UNL     1     -12.494   8.868  71.222  1.00  0.00    -0.272 A  
HETATM   12  C   UNL     1     -14.377   8.338  72.600  1.00  0.00    -0.102 A  
HETATM   13  C   UNL     1     -13.053   6.554  71.623  1.00  0.00     0.007 A  
HETATM   14  C   UNL     1     -14.126   6.979  72.416  1.00  0.00     0.143 A  
BRANCH   7  15
HETATM   15  C   UNL     1      -9.551   8.851  69.019  1.00  0.00    -0.158 C  
HETATM   16  C   UNL     1      -8.691   9.387  66.752  1.00  0.00    -0.127 C  
HETATM   17  C   UNL     1      -7.411  10.064  68.716  1.00  0.00    -0.081 C  
HETATM   18  C   UNL     1      -8.662   9.955  69.590  1.00  0.00    -0.218 C  
HETATM   19  N   UNL     1      -7.689  10.327  67.294  1.00  0.00    -0.095 NA 
HETATM   20  C   UNL     1      -9.962   9.252  67.601  1.00  0.00    -0.245 C  
BRANCH  19  21
HETATM   21  C   UNL     1      -8.074  11.721  67.022  1.00  0.00    -0.169 C  
BRANCH  21  22
HETATM   22  C   UNL     1      -7.203  12.755  67.760  1.00  0.00    -0.132 C  
BRANCH  22  23
HETATM   23  C   UNL     1      -7.693  14.149  67.468  1.00  0.00    -0.201 A  
HETATM   24  C   UNL     1      -6.935  15.258  67.855  1.00  0.00    -0.162 A  
HETATM   25  C   UNL     1      -7.447  16.546  67.711  1.00  0.00    -0.160 A  
HETATM   26  C   UNL     1      -8.731  16.759  67.176  1.00  0.00    -0.218 A  
HETATM   27  C   UNL     1      -8.944  14.348  66.887  1.00  0.00    -0.263 A  
HETATM   28  C   UNL     1      -9.453  15.637  66.736  1.00  0.00    -0.261 A  
BRANCH  26  29
HETATM   29  C   UNL     1      -9.332  18.177  67.173  1.00  0.00    -0.263 C  
HETATM   30  C   UNL     1     -10.140  18.479  68.448  1.00  0.00    -0.388 C  
HETATM   31  C   UNL     1      -8.189  19.211  67.065  1.00  0.00    -0.285 C  
HETATM   32  C   UNL     1     -10.304  18.426  66.001  1.00  0.00    -0.397 C  
HETATM   33  O   UNL     1     -10.791  17.417  68.983  1.00  0.00    -0.181 OA 
HETATM   34  O   UNL     1     -10.265  19.592  68.936  1.00  0.00    -0.438 OA 
ENDBRANCH  26  29
ENDBRANCH  22  23
ENDBRANCH  21  22
ENDBRANCH  19  21
ENDBRANCH   7  15
ENDBRANCH   5   6
ENDBRANCH   4   5
ENDBRANCH   3   4
ENDBRANCH   2   3
TORSDOF 9
ENDMDL
MODEL      143
REMARK 921   NORMALIZED FREE ENERGY PREDICTED BY IDOCK:   -4.92 KCAL/MOL
REMARK 922        TOTAL FREE ENERGY PREDICTED BY IDOCK:   -7.70 KCAL/MOL
REMARK 923 INTER-LIGAND FREE ENERGY PREDICTED BY IDOCK:   -6.98 KCAL/MOL
REMARK 924 INTRA-LIGAND FREE ENERGY PREDICTED BY IDOCK:   -0.72 KCAL/MOL
REMARK 927      BINDING AFFINITY PREDICTED BY RF-SCORE:    0.00 PKD
ROOT
HETATM    1  C   UNL     1     -12.490  15.145  64.126  1.00  0.00     0.005 C  
HETATM    2  C   UNL     1     -12.273  13.649  64.005  1.00  0.00    -0.390 C  
ENDROOT
BRANCH   2   3
HETATM    3  O   UNL     1     -10.877  13.338  64.095  1.00  0.00    -0.396 OA 
BRANCH   3   4
HETATM    4  C   UNL     1     -10.611  12.583  65.286  1.00  0.00    -0.290 C  
BRANCH   4   5
HETATM    5  C   UNL     1      -9.476  13.217  66.088  1.00  0.00    -0.139 C  
BRANCH   5   6
HETATM    6  N   UNL     1      -9.948  14.146  67.104  1.00  0.00    -0.251 NA 
HETATM    7  C   UNL     1     -10.384  13.851  68.385  1.00  0.00    -0.249 A  
HETATM    8  N   UNL     1     -10.733  14.949  69.026  1.00  0.00    -0.239 NA 
HETATM    9  C   UNL     1      -9.786  16.368  65.852  1.00  0.00    -0.327 A  
HETATM   10  C   UNL     1     -10.534  15.980  68.147  1.00  0.00    -0.269 A  
HETATM   11  C   UNL     1     -10.057  15.511  66.928  1.00  0.00    -0.262 A  
HETATM   12  C   UNL     1      -9.996  17.737  66.051  1.00  0.00    -0.219 A  
HETATM   13  C   UNL     1     -10.751  17.354  68.325  1.00  0.00    -0.327 A  
HETATM   14  C   UNL     1     -10.472  18.226  67.266  1.00  0.00    -0.419 A  
BRANCH   7  15
HETATM   15  C   UNL     1     -10.470  12.470  68.952  1.00  0.00    -0.109 C  
HETATM   16  C   UNL     1     -11.781  10.391  69.310  1.00  0.00    -0.140 C  
HETATM   17  C   UNL     1      -9.342  10.293  69.309  1.00  0.00    -0.207 C  
HETATM   18  C   UNL     1      -9.271  11.614  68.543  1.00  0.00    -0.163 C  
HETATM   19  N   UNL     1     -10.591   9.540  69.101  1.00  0.00    -0.219 NA 
HETATM   20  C   UNL     1     -11.747  11.726  68.554  1.00  0.00    -0.390 C  
BRANCH  19  21
HETATM   21  C   UNL     1     -10.653   8.858  67.800  1.00  0.00    -0.202 C  
BRANCH  21  22
HETATM   22  C   UNL     1      -9.354   8.116  67.432  1.00  0.00    -0.171 C  
BRANCH  22  23
HETATM   23  C   UNL     1      -9.354   6.738  68.042  1.00  0.00    -0.118 A  
HETATM   24  C   UNL     1      -8.816   6.533  69.316  1.00  0.00    -0.132 A  
HETATM   25  C   UNL     1      -8.688   5.243  69.827  1.00  0.00    -0.116 A  
HETATM   26  C   UNL     1      -9.095   4.123  69.077  1.00  0.00    -0.187 A  
HETATM   27  C   UNL     1      -9.810   5.644  67.311  1.00  0.00    -0.163 A  
HETATM   28  C   UNL     1      -9.690   4.354  67.825  1.00  0.00    -0.191 A  
BRANCH  26  29
HETATM   29  C   UNL     1      -8.800   2.705  69.599  1.00  0.00    -0.146 C  
HETATM   30  C   UNL     1      -7.294   2.441  69.772  1.00  0.00    -0.043 C  
HETATM   31  C   UNL     1      -9.487   2.517  70.971  1.00  0.00    -0.222 C  
HETATM   32  C   UNL     1      -9.309   1.591  68.662  1.00  0.00    -0.225 C  
HETATM   33  O   UNL     1      -6.492   3.063  68.873  1.00  0.00    -0.029 OA 
HETATM   34  O   UNL     1      -6.819   1.681  70.603  1.00  0.00    -0.031 OA 
ENDBRANCH  26  29
ENDBRANCH  22  23
ENDBRANCH  21  22
ENDBRANCH  19  21
ENDBRANCH   7  15
ENDBRANCH   5   6
ENDBRANCH   4   5
ENDBRANCH   3   4
ENDBRANCH   2   3
TORSDOF 9
ENDMDL
MODEL      144
REMARK 921   NORMALIZED FREE ENERGY PREDICTED BY IDOCK:   -4.90 KCAL/MOL
REMARK 922        TOTAL FREE ENERGY PREDICTED BY IDOCK:   -7.67 KCAL/MOL
REMARK 923 INTER-LIGAND FREE ENERGY PREDICTED BY IDOCK:   -7.81 KCAL/MOL
REMARK 924 INTRA-LIGAND FREE ENERGY PREDICTED BY IDOCK:    0.14 KCAL/MOL
REMARK 927      BINDING AFFINITY PREDICTED BY RF-SCORE:    0.00 PKD
ROOT
HETATM    1  C   UNL     1      -8.368   8.642  65.272  1.00  0.00    -0.177 C  
HETATM    2  C   UNL     1      -9.583   8.063  65.970  1.00  0.00    -0.002 C  
ENDROOT
BRANCH   2   3
HETATM    3  O   UNL     1      -9.205   6.955  66.796  1.00  0.00    -0.141 OA 
BRANCH   3   4
HETATM    4  C   UNL     1      -7.804   7.015  67.100  1.00  0.00    -0.109 C  
BRANCH   4   5
HETATM    5  C   UNL     1      -7.582   7.389  68.565  1.00  0.00    -0.114 C  
BRANCH   5   6
HETATM    6  N   UNL     1      -8.480   6.690  69.471  1.00  0.00    -0.131 NA 
HETATM    7  C   UNL     1      -9.472   7.235  70.270  1.00  0.00    -0.165 A  
HETATM    8  N   UNL     1     -10.090   6.295  70.957  1.00  0.00    -0.182 NA 
HETATM    9  C   UNL     1      -7.678   4.279  69.196  1.00  0.00    -0.054 A  
HETATM   10  C   UNL     1      -9.485   5.115  70.614  1.00  0.00    -0.170 A  
HETATM   11  C   UNL     1      -8.463   5.327  69.696  1.00  0.00    -0.098 A  
HETATM   12  C   UNL     1      -7.972   2.986  69.642  1.00  0.00    -0.055 A  
HETATM   13  C   UNL     1      -9.759   3.814  71.060  1.00  0.00    -0.248 A  
HETATM   14  C   UNL     1      -8.995   2.753  70.561  1.00  0.00    -0.165 A  
BRANCH   7  15
HETATM   15  C   UNL     1      -9.780   8.696  70.356  1.00  0.00    -0.200 C  
HETATM   16  C   UNL     1      -9.553  10.981  69.412  1.00  0.00     0.122 C  
HETATM   17  C   UNL     1     -11.480  10.441  70.808  1.00  0.00    -0.332 C  
HETATM   18  C   UNL     1     -11.276   8.949  70.543  1.00  0.00    -0.287 C  
HETATM   19  N   UNL     1     -10.950  11.320  69.752  1.00  0.00    -0.166 NA 
HETATM   20  C   UNL     1      -9.308   9.491  69.137  1.00  0.00    -0.163 C  
BRANCH  19  21
HETATM   21  C   UNL     1     -11.791  11.358  68.546  1.00  0.00    -0.294 C  
BRANCH  21  22
HETATM   22  C   UNL     1     -10.999  11.625  67.252  1.00  0.00    -0.318 C  
BRANCH  22  23
HETATM   23  C   UNL     1     -10.809  13.107  67.058  1.00  0.00    -0.278 A  
HETATM   24  C   UNL     1     -10.059  13.586  65.979  1.00  0.00    -0.316 A  
HETATM   25  C   UNL     1      -9.765  14.943  65.873  1.00  0.00    -0.366 A  
HETATM   26  C   UNL     1     -10.213  15.860  66.843  1.00  0.00    -0.277 A  
HETATM   27  C   UNL     1     -11.305  14.009  67.996  1.00  0.00    -0.320 A  
HETATM   28  C   UNL     1     -11.018  15.369  67.886  1.00  0.00    -0.310 A  
BRANCH  26  29
HETATM   29  C   UNL     1      -9.744  17.325  66.786  1.00  0.00    -0.285 C  
HETATM   30  C   UNL     1     -10.622  18.191  65.863  1.00  0.00    -0.234 C  
HETATM   31  C   UNL     1      -9.793  17.928  68.208  1.00  0.00    -0.348 C  
HETATM   32  C   UNL     1      -8.305  17.486  66.255  1.00  0.00    -0.259 C  
HETATM   33  O   UNL     1     -11.129  17.549  64.782  1.00  0.00    -0.959 OA 
HETATM   34  O   UNL     1     -10.818  19.386  66.022  1.00  0.00    -0.407 OA 
ENDBRANCH  26  29
ENDBRANCH  22  23
ENDBRANCH  21  22
ENDBRANCH  19  21
ENDBRANCH   7  15
ENDBRANCH   5   6
ENDBRANCH   4   5
ENDBRANCH   3   4
ENDBRANCH   2   3
TORSDOF 9
ENDMDL
MODEL      145
REMARK 921   NORMALIZED FREE ENERGY PREDICTED BY IDOCK:   -4.90 KCAL/MOL
REMARK 922        TOTAL FREE ENERGY PREDICTED BY IDOCK:   -7.67 KCAL/MOL
REMARK 923 INTER-LIGAND FREE ENERGY PREDICTED BY IDOCK:   -6.78 KCAL/MOL
REMARK 924 INTRA-LIGAND FREE ENERGY PREDICTED BY IDOCK:   -0.89 KCAL/MOL
REMARK 927      BINDING AFFINITY PREDICTED BY RF-SCORE:    0.00 PKD
ROOT
HETATM    1  C   UNL     1     -11.642  11.289  69.929  1.00  0.00    -0.413 C  
HETATM    2  C   UNL     1     -11.978   9.918  70.483  1.00  0.00    -0.239 C  
ENDROOT
BRANCH   2   3
HETATM    3  O   UNL     1     -10.810   9.303  71.040  1.00  0.00    -0.260 OA 
BRANCH   3   4
HETATM    4  C   UNL     1     -10.845   7.885  70.828  1.00  0.00    -0.232 C  
BRANCH   4   5
HETATM    5  C   UNL     1      -9.539   7.235  71.285  1.00  0.00    -0.162 C  
BRANCH   5   6
HETATM    6  N   UNL     1      -9.507   5.800  71.050  1.00  0.00    -0.163 NA 
HETATM    7  C   UNL     1      -9.043   5.135  69.926  1.00  0.00    -0.123 A  
HETATM    8  N   UNL     1      -9.166   3.830  70.070  1.00  0.00    -0.132 NA 
HETATM    9  C   UNL     1     -10.559   4.924  73.208  1.00  0.00    -0.289 A  
HETATM   10  C   UNL     1      -9.732   3.636  71.302  1.00  0.00    -0.169 A  
HETATM   11  C   UNL     1      -9.972   4.849  71.937  1.00  0.00    -0.190 A  
HETATM   12  C   UNL     1     -10.886   3.718  73.838  1.00  0.00    -0.302 A  
HETATM   13  C   UNL     1     -10.077   2.436  71.942  1.00  0.00    -0.174 A  
HETATM   14  C   UNL     1     -10.651   2.492  73.218  1.00  0.00    -0.259 A  
BRANCH   7  15
HETATM   15  C   UNL     1      -8.501   5.810  68.708  1.00  0.00    -0.107 C  
HETATM   16  C   UNL     1      -8.916   6.973  66.553  1.00  0.00    -0.147 C  
HETATM   17  C   UNL     1      -6.844   7.397  67.772  1.00  0.00    -0.074 C  
HETATM   18  C   UNL     1      -7.481   6.891  69.066  1.00  0.00    -0.095 C  
HETATM   19  N   UNL     1      -7.808   7.921  66.789  1.00  0.00    -0.101 NA 
HETATM   20  C   UNL     1      -9.582   6.444  67.830  1.00  0.00    -0.123 C  
BRANCH  19  21
HETATM   21  C   UNL     1      -8.321   9.257  67.129  1.00  0.00    -0.124 C  
BRANCH  21  22
HETATM   22  C   UNL     1      -7.224  10.336  67.209  1.00  0.00    -0.089 C  
BRANCH  22  23
HETATM   23  C   UNL     1      -7.847  11.708  67.228  1.00  0.00    -0.157 A  
HETATM   24  C   UNL     1      -7.056  12.836  67.462  1.00  0.00    -0.148 A  
HETATM   25  C   UNL     1      -7.645  14.089  67.618  1.00  0.00    -0.191 A  
HETATM   26  C   UNL     1      -9.042  14.247  67.541  1.00  0.00    -0.193 A  
HETATM   27  C   UNL     1      -9.225  11.857  67.096  1.00  0.00    -0.183 A  
HETATM   28  C   UNL     1      -9.815  13.112  67.243  1.00  0.00    -0.232 A  
BRANCH  26  29
HETATM   29  C   UNL     1      -9.677  15.611  67.870  1.00  0.00    -0.211 C  
HETATM   30  C   UNL     1      -9.803  16.518  66.633  1.00  0.00    -0.268 C  
HETATM   31  C   UNL     1     -11.091  15.384  68.451  1.00  0.00    -0.301 C  
HETATM   32  C   UNL     1      -8.871  16.428  68.900  1.00  0.00    -0.256 C  
HETATM   33  O   UNL     1      -8.814  16.381  65.714  1.00  0.00    -0.446 OA 
HETATM   34  O   UNL     1     -10.676  17.359  66.480  1.00  0.00    -0.229 OA 
ENDBRANCH  26  29
ENDBRANCH  22  23
ENDBRANCH  21  22
ENDBRANCH  19  21
ENDBRANCH   7  15
ENDBRANCH   5   6
ENDBRANCH   4   5
ENDBRANCH   3   4
ENDBRANCH   2   3
TORSDOF 9
ENDMDL
MODEL      146
REMARK 921   NORMALIZED FREE ENERGY PREDICTED BY IDOCK:   -4.83 KCAL/MOL
REMARK 922        TOTAL FREE ENERGY PREDICTED BY IDOCK:   -7.56 KCAL/MOL
REMARK 923 INTER-LIGAND FREE ENERGY PREDICTED BY IDOCK:   -7.29 KCAL/MOL
REMARK 924 INTRA-LIGAND FREE ENERGY PREDICTED BY IDOCK:   -0.27 KCAL/MOL
REMARK 927      BINDING AFFINITY PREDICTED BY RF-SCORE:    0.00 PKD
ROOT
HETATM    1  C   UNL     1      -5.297   5.488  66.872  1.00  0.00    -0.008 C  
HETATM    2  C   UNL     1      -6.199   6.685  67.103  1.00  0.00    -0.036 C  
ENDROOT
BRANCH   2   3
HETATM    3  O   UNL     1      -6.545   6.791  68.490  1.00  0.00    -0.053 OA 
BRANCH   3   4
HETATM    4  C   UNL     1      -6.410   8.149  68.934  1.00  0.00    -0.040 C  
BRANCH   4   5
HETATM    5  C   UNL     1      -7.057   8.338  70.306  1.00  0.00    -0.040 C  
BRANCH   5   6
HETATM    6  N   UNL     1      -8.498   8.138  70.285  1.00  0.00    -0.124 NA 
HETATM    7  C   UNL     1      -9.399   8.557  69.318  1.00  0.00    -0.154 A  
HETATM    8  N   UNL     1     -10.626   8.193  69.632  1.00  0.00    -0.228 NA 
HETATM    9  C   UNL     1      -8.854   6.890  72.486  1.00  0.00    -0.136 A  
HETATM   10  C   UNL     1     -10.532   7.536  70.830  1.00  0.00    -0.213 A  
HETATM   11  C   UNL     1      -9.216   7.496  71.275  1.00  0.00    -0.149 A  
HETATM   12  C   UNL     1      -9.874   6.298  73.239  1.00  0.00    -0.175 A  
HETATM   13  C   UNL     1     -11.545   6.949  71.603  1.00  0.00    -0.325 A  
HETATM   14  C   UNL     1     -11.200   6.326  72.808  1.00  0.00    -0.272 A  
BRANCH   7  15
HETATM   15  C   UNL     1      -9.027   9.339  68.099  1.00  0.00    -0.128 C  
HETATM   16  C   UNL     1      -9.671  10.283  65.895  1.00  0.00    -0.225 C  
HETATM   17  C   UNL     1      -7.872  11.326  67.173  1.00  0.00    -0.151 C  
HETATM   18  C   UNL     1      -8.388  10.680  68.460  1.00  0.00    -0.130 C  
HETATM   19  N   UNL     1      -8.903  11.521  66.140  1.00  0.00    -0.192 NA 
HETATM   20  C   UNL     1     -10.207   9.606  67.163  1.00  0.00    -0.305 C  
BRANCH  19  21
HETATM   21  C   UNL     1      -9.802  12.652  66.418  1.00  0.00    -0.259 C  
BRANCH  21  22
HETATM   22  C   UNL     1     -11.277  12.239  66.582  1.00  0.00    -0.367 C  
BRANCH  22  23
HETATM   23  C   UNL     1     -11.846  12.839  67.842  1.00  0.00    -0.392 A  
HETATM   24  C   UNL     1     -12.134  14.205  67.903  1.00  0.00    -0.309 A  
HETATM   25  C   UNL     1     -12.528  14.789  69.105  1.00  0.00     0.000 A  
HETATM   26  C   UNL     1     -12.647  14.020  70.279  1.00  0.00    -0.354 A  
HETATM   27  C   UNL     1     -12.011  12.056  68.982  1.00  0.00    -0.321 A  
HETATM   28  C   UNL     1     -12.415  12.637  70.183  1.00  0.00    -0.099 A  
BRANCH  26  29
HETATM   29  C   UNL     1     -12.933  14.715  71.623  1.00  0.00    -0.408 C  
HETATM   30  C   UNL     1     -11.778  15.627  72.073  1.00  0.00    -0.461 C  
HETATM   31  C   UNL     1     -14.208  15.577  71.485  1.00  0.00    -0.478 C  
HETATM   32  C   UNL     1     -13.156  13.727  72.786  1.00  0.00    -0.432 C  
HETATM   33  O   UNL     1     -10.538  15.202  71.727  1.00  0.00     0.178 OA 
HETATM   34  O   UNL     1     -11.920  16.634  72.751  1.00  0.00    -0.504 OA 
ENDBRANCH  26  29
ENDBRANCH  22  23
ENDBRANCH  21  22
ENDBRANCH  19  21
ENDBRANCH   7  15
ENDBRANCH   5   6
ENDBRANCH   4   5
ENDBRANCH   3   4
ENDBRANCH   2   3
TORSDOF 9
ENDMDL
MODEL      147
REMARK 921   NORMALIZED FREE ENERGY PREDICTED BY IDOCK:   -4.81 KCAL/MOL
REMARK 922        TOTAL FREE ENERGY PREDICTED BY IDOCK:   -7.52 KCAL/MOL
REMARK 923 INTER-LIGAND FREE ENERGY PREDICTED BY IDOCK:   -6.24 KCAL/MOL
REMARK 924 INTRA-LIGAND FREE ENERGY PREDICTED BY IDOCK:   -1.28 KCAL/MOL
REMARK 927      BINDING AFFINITY PREDICTED BY RF-SCORE:    0.00 PKD
ROOT
HETATM    1  C   UNL     1     -10.449   7.497  66.832  1.00  0.00    -0.385 C  
HETATM    2  C   UNL     1      -9.115   6.864  66.489  1.00  0.00    -0.155 C  
ENDROOT
BRANCH   2   3
HETATM    3  O   UNL     1      -8.683   6.000  67.547  1.00  0.00    -0.110 OA 
BRANCH   3   4
HETATM    4  C   UNL     1      -9.764   5.750  68.457  1.00  0.00    -0.131 C  
BRANCH   4   5
HETATM    5  C   UNL     1      -9.792   4.280  68.876  1.00  0.00    -0.061 C  
BRANCH   5   6
HETATM    6  N   UNL     1      -8.549   3.841  69.489  1.00  0.00    -0.064 NA 
HETATM    7  C   UNL     1      -8.124   4.053  70.791  1.00  0.00    -0.062 A  
HETATM    8  N   UNL     1      -6.943   3.503  70.994  1.00  0.00    -0.032 NA 
HETATM    9  C   UNL     1      -7.420   2.662  67.523  1.00  0.00    -0.057 A  
HETATM   10  C   UNL     1      -6.580   2.932  69.804  1.00  0.00    -0.033 A  
HETATM   11  C   UNL     1      -7.557   3.137  68.835  1.00  0.00    -0.048 A  
HETATM   12  C   UNL     1      -6.257   1.946  67.217  1.00  0.00    -0.024 A  
HETATM   13  C   UNL     1      -5.416   2.223  69.477  1.00  0.00    -0.017 A  
HETATM   14  C   UNL     1      -5.268   1.729  68.175  1.00  0.00    -0.012 A  
BRANCH   7  15
HETATM   15  C   UNL     1      -8.893   4.824  71.816  1.00  0.00    -0.139 C  
HETATM   16  C   UNL     1      -9.359   6.982  72.953  1.00  0.00    -0.140 C  
HETATM   17  C   UNL     1     -11.091   5.265  72.871  1.00  0.00    -0.305 C  
HETATM   18  C   UNL     1     -10.399   4.598  71.682  1.00  0.00    -0.189 C  
HETATM   19  N   UNL     1     -10.809   6.704  73.005  1.00  0.00    -0.262 NA 
HETATM   20  C   UNL     1      -8.629   6.331  71.771  1.00  0.00    -0.133 C  
BRANCH  19  21
HETATM   21  C   UNL     1     -11.539   7.536  72.036  1.00  0.00    -0.287 C  
BRANCH  21  22
HETATM   22  C   UNL     1     -11.219   9.038  72.150  1.00  0.00    -0.286 C  
BRANCH  22  23
HETATM   23  C   UNL     1     -11.063   9.640  70.778  1.00  0.00    -0.403 A  
HETATM   24  C   UNL     1      -9.807   9.683  70.166  1.00  0.00    -0.310 A  
HETATM   25  C   UNL     1      -9.633  10.360  68.961  1.00  0.00    -0.212 A  
HETATM   26  C   UNL     1     -10.711  11.013  68.335  1.00  0.00    -0.240 A  
HETATM   27  C   UNL     1     -12.151  10.236  70.143  1.00  0.00    -0.279 A  
HETATM   28  C   UNL     1     -11.979  10.907  68.933  1.00  0.00    -0.277 A  
BRANCH  26  29
HETATM   29  C   UNL     1     -10.460  11.882  67.089  1.00  0.00    -0.249 C  
HETATM   30  C   UNL     1      -9.734  13.198  67.423  1.00  0.00    -0.220 C  
HETATM   31  C   UNL     1      -9.592  11.090  66.085  1.00  0.00    -0.240 C  
HETATM   32  C   UNL     1     -11.756  12.299  66.364  1.00  0.00    -0.431 C  
HETATM   33  O   UNL     1     -10.038  13.733  68.631  1.00  0.00    -0.231 OA 
HETATM   34  O   UNL     1      -8.982  13.783  66.658  1.00  0.00    -0.217 OA 
ENDBRANCH  26  29
ENDBRANCH  22  23
ENDBRANCH  21  22
ENDBRANCH  19  21
ENDBRANCH   7  15
ENDBRANCH   5   6
ENDBRANCH   4   5
ENDBRANCH   3   4
ENDBRANCH   2   3
TORSDOF 9
ENDMDL
MODEL      148
REMARK 921   NORMALIZED FREE ENERGY PREDICTED BY IDOCK:   -4.78 KCAL/MOL
REMARK 922        TOTAL FREE ENERGY PREDICTED BY IDOCK:   -7.48 KCAL/MOL
REMARK 923 INTER-LIGAND FREE ENERGY PREDICTED BY IDOCK:   -6.72 KCAL/MOL
REMARK 924 INTRA-LIGAND FREE ENERGY PREDICTED BY IDOCK:   -0.77 KCAL/MOL
REMARK 927      BINDING AFFINITY PREDICTED BY RF-SCORE:    0.00 PKD
ROOT
HETATM    1  C   UNL     1     -10.694  17.587  68.313  1.00  0.00    -0.309 C  
HETATM    2  C   UNL     1     -11.351  16.473  69.105  1.00  0.00    -0.156 C  
ENDROOT
BRANCH   2   3
HETATM    3  O   UNL     1     -11.100  15.205  68.487  1.00  0.00    -0.252 OA 
BRANCH   3   4
HETATM    4  C   UNL     1     -11.458  15.248  67.098  1.00  0.00    -0.200 C  
BRANCH   4   5
HETATM    5  C   UNL     1     -10.535  14.353  66.272  1.00  0.00    -0.290 C  
BRANCH   5   6
HETATM    6  N   UNL     1      -9.205  14.224  66.847  1.00  0.00    -0.244 NA 
HETATM    7  C   UNL     1      -8.674  13.137  67.522  1.00  0.00    -0.201 A  
HETATM    8  N   UNL     1      -7.433  13.378  67.898  1.00  0.00    -0.131 NA 
HETATM    9  C   UNL     1      -8.212  16.516  66.307  1.00  0.00    -0.360 A  
HETATM   10  C   UNL     1      -7.149  14.649  67.474  1.00  0.00    -0.178 A  
HETATM   11  C   UNL     1      -8.241  15.214  66.824  1.00  0.00    -0.137 A  
HETATM   12  C   UNL     1      -7.021  17.238  66.449  1.00  0.00    -0.310 A  
HETATM   13  C   UNL     1      -5.968  15.390  67.619  1.00  0.00    -0.130 A  
HETATM   14  C   UNL     1      -5.915  16.687  67.095  1.00  0.00    -0.198 A  
BRANCH   7  15
HETATM   15  C   UNL     1      -9.420  11.873  67.806  1.00  0.00    -0.184 C  
HETATM   16  C   UNL     1      -9.387   9.486  68.492  1.00  0.00    -0.137 C  
HETATM   17  C   UNL     1     -11.400  10.816  68.857  1.00  0.00    -0.284 C  
HETATM   18  C   UNL     1     -10.586  12.107  68.768  1.00  0.00    -0.230 C  
HETATM   19  N   UNL     1     -10.624   9.640  69.284  1.00  0.00    -0.213 NA 
HETATM   20  C   UNL     1      -8.540  10.761  68.382  1.00  0.00    -0.141 C  
BRANCH  19  21
HETATM   21  C   UNL     1     -10.331   9.625  70.726  1.00  0.00    -0.286 C  
BRANCH  21  22
HETATM   22  C   UNL     1      -9.035   8.873  71.083  1.00  0.00    -0.305 C  
BRANCH  22  23
HETATM   23  C   UNL     1      -9.362   7.507  71.628  1.00  0.00    -0.164 A  
HETATM   24  C   UNL     1      -9.310   7.267  73.004  1.00  0.00    -0.204 A  
HETATM   25  C   UNL     1      -9.475   5.975  73.500  1.00  0.00    -0.139 A  
HETATM   26  C   UNL     1      -9.699   4.889  72.633  1.00  0.00    -0.184 A  
HETATM   27  C   UNL     1      -9.637   6.451  70.762  1.00  0.00    -0.193 A  
HETATM   28  C   UNL     1      -9.811   5.160  71.259  1.00  0.00    -0.239 A  
BRANCH  26  29
HETATM   29  C   UNL     1      -9.724   3.455  73.194  1.00  0.00    -0.163 C  
HETATM   30  C   UNL     1      -8.313   2.901  73.460  1.00  0.00    -0.073 C  
HETATM   31  C   UNL     1     -10.509   3.446  74.525  1.00  0.00    -0.229 C  
HETATM   32  C   UNL     1     -10.393   2.440  72.245  1.00  0.00    -0.156 C  
HETATM   33  O   UNL     1      -7.354   3.327  72.601  1.00  0.00    -0.046 OA 
HETATM   34  O   UNL     1      -8.046   2.085  74.330  1.00  0.00    -0.051 OA 
ENDBRANCH  26  29
ENDBRANCH  22  23
ENDBRANCH  21  22
ENDBRANCH  19  21
ENDBRANCH   7  15
ENDBRANCH   5   6
ENDBRANCH   4   5
ENDBRANCH   3   4
ENDBRANCH   2   3
TORSDOF 9
ENDMDL
MODEL      149
REMARK 921   NORMALIZED FREE ENERGY PREDICTED BY IDOCK:   -4.76 KCAL/MOL
REMARK 922        TOTAL FREE ENERGY PREDICTED BY IDOCK:   -7.45 KCAL/MOL
REMARK 923 INTER-LIGAND FREE ENERGY PREDICTED BY IDOCK:   -6.33 KCAL/MOL
REMARK 924 INTRA-LIGAND FREE ENERGY PREDICTED BY IDOCK:   -1.12 KCAL/MOL
REMARK 927      BINDING AFFINITY PREDICTED BY RF-SCORE:    0.00 PKD
ROOT
HETATM    1  C   UNL     1     -12.159  14.553  64.472  1.00  0.00    -0.501 C  
HETATM    2  C   UNL     1     -10.857  13.784  64.355  1.00  0.00    -0.328 C  
ENDROOT
BRANCH   2   3
HETATM    3  O   UNL     1     -10.828  12.703  65.295  1.00  0.00    -0.277 OA 
BRANCH   3   4
HETATM    4  C   UNL     1     -12.055  12.656  66.037  1.00  0.00    -0.364 C  
BRANCH   4   5
HETATM    5  C   UNL     1     -11.779  12.626  67.540  1.00  0.00    -0.368 C  
BRANCH   5   6
HETATM    6  N   UNL     1     -10.539  13.295  67.903  1.00  0.00    -0.233 NA 
HETATM    7  C   UNL     1      -9.313  12.714  68.182  1.00  0.00    -0.210 A  
HETATM    8  N   UNL     1      -8.412  13.634  68.468  1.00  0.00    -0.143 NA 
HETATM    9  C   UNL     1     -11.284  15.739  67.918  1.00  0.00    -0.313 A  
HETATM   10  C   UNL     1      -9.061  14.837  68.388  1.00  0.00    -0.188 A  
HETATM   11  C   UNL     1     -10.398  14.661  68.050  1.00  0.00    -0.235 A  
HETATM   12  C   UNL     1     -10.768  17.024  68.121  1.00  0.00    -0.374 A  
HETATM   13  C   UNL     1      -8.563  16.131  68.600  1.00  0.00    -0.210 A  
HETATM   14  C   UNL     1      -9.430  17.220  68.459  1.00  0.00    -0.285 A  
BRANCH   7  15
HETATM   15  C   UNL     1      -9.056  11.241  68.183  1.00  0.00    -0.166 C  
HETATM   16  C   UNL     1      -7.436   9.359  68.121  1.00  0.00    -0.079 C  
HETATM   17  C   UNL     1      -9.627   9.029  69.145  1.00  0.00    -0.161 C  
HETATM   18  C   UNL     1      -9.789  10.539  69.326  1.00  0.00    -0.225 C  
HETATM   19  N   UNL     1      -8.228   8.575  69.090  1.00  0.00    -0.117 NA 
HETATM   20  C   UNL     1      -7.572  10.880  68.273  1.00  0.00    -0.100 C  
BRANCH  19  21
HETATM   21  C   UNL     1      -7.570   8.547  70.406  1.00  0.00    -0.074 C  
BRANCH  21  22
HETATM   22  C   UNL     1      -6.755   7.265  70.660  1.00  0.00    -0.048 C  
BRANCH  22  23
HETATM   23  C   UNL     1      -7.267   6.145  69.793  1.00  0.00    -0.074 A  
HETATM   24  C   UNL     1      -8.410   5.432  70.166  1.00  0.00    -0.114 A  
HETATM   25  C   UNL     1      -8.807   4.309  69.442  1.00  0.00    -0.138 A  
HETATM   26  C   UNL     1      -8.072   3.871  68.324  1.00  0.00    -0.078 A  
HETATM   27  C   UNL     1      -6.560   5.754  68.657  1.00  0.00    -0.048 A  
HETATM   28  C   UNL     1      -6.962   4.636  67.928  1.00  0.00    -0.060 A  
BRANCH  26  29
HETATM   29  C   UNL     1      -8.442   2.543  67.639  1.00  0.00    -0.105 C  
HETATM   30  C   UNL     1      -9.070   2.750  66.248  1.00  0.00    -0.119 C  
HETATM   31  C   UNL     1      -7.167   1.686  67.473  1.00  0.00    -0.050 C  
HETATM   32  C   UNL     1      -9.469   1.710  68.434  1.00  0.00    -0.241 C  
HETATM   33  O   UNL     1      -9.826   3.868  66.118  1.00  0.00    -0.189 OA 
HETATM   34  O   UNL     1      -8.973   1.957  65.324  1.00  0.00    -0.121 OA 
ENDBRANCH  26  29
ENDBRANCH  22  23
ENDBRANCH  21  22
ENDBRANCH  19  21
ENDBRANCH   7  15
ENDBRANCH   5   6
ENDBRANCH   4   5
ENDBRANCH   3   4
ENDBRANCH   2   3
TORSDOF 9
ENDMDL
MODEL      150
REMARK 921   NORMALIZED FREE ENERGY PREDICTED BY IDOCK:   -4.74 KCAL/MOL
REMARK 922        TOTAL FREE ENERGY PREDICTED BY IDOCK:   -7.42 KCAL/MOL
REMARK 923 INTER-LIGAND FREE ENERGY PREDICTED BY IDOCK:   -6.41 KCAL/MOL
REMARK 924 INTRA-LIGAND FREE ENERGY PREDICTED BY IDOCK:   -1.01 KCAL/MOL
REMARK 927      BINDING AFFINITY PREDICTED BY RF-SCORE:    0.00 PKD
ROOT
HETATM    1  C   UNL     1      -6.207  12.733  67.823  1.00  0.00    -0.138 C  
HETATM    2  C   UNL     1      -6.424  11.319  68.326  1.00  0.00    -0.056 C  
ENDROOT
BRANCH   2   3
HETATM    3  O   UNL     1      -5.936  11.184  69.666  1.00  0.00    -0.061 OA 
BRANCH   3   4
HETATM    4  C   UNL     1      -6.327   9.917  70.214  1.00  0.00    -0.094 C  
BRANCH   4   5
HETATM    5  C   UNL     1      -7.848   9.766  70.199  1.00  0.00    -0.183 C  
BRANCH   5   6
HETATM    6  N   UNL     1      -8.294   8.469  70.685  1.00  0.00    -0.122 NA 
HETATM    7  C   UNL     1      -8.845   7.432  69.950  1.00  0.00    -0.141 A  
HETATM    8  N   UNL     1      -9.126   6.404  70.727  1.00  0.00    -0.150 NA 
HETATM    9  C   UNL     1      -7.825   8.693  73.186  1.00  0.00     0.048 A  
HETATM   10  C   UNL     1      -8.765   6.777  71.994  1.00  0.00    -0.126 A  
HETATM   11  C   UNL     1      -8.254   8.070  72.006  1.00  0.00    -0.137 A  
HETATM   12  C   UNL     1      -7.910   7.954  74.372  1.00  0.00    -0.268 A  
HETATM   13  C   UNL     1      -8.855   6.055  73.192  1.00  0.00    -0.128 A  
HETATM   14  C   UNL     1      -8.418   6.655  74.378  1.00  0.00    -0.163 A  
BRANCH   7  15
HETATM   15  C   UNL     1      -9.108   7.485  68.479  1.00  0.00    -0.134 C  
HETATM   16  C   UNL     1     -10.557   8.211  66.597  1.00  0.00    -0.006 C  
HETATM   17  C   UNL     1      -8.177   7.838  66.210  1.00  0.00    -0.122 C  
HETATM   18  C   UNL     1      -7.891   7.991  67.704  1.00  0.00    -0.122 C  
HETATM   19  N   UNL     1      -9.390   8.536  65.752  1.00  0.00    -0.165 NA 
HETATM   20  C   UNL     1     -10.310   8.355  68.105  1.00  0.00    -0.255 C  
BRANCH  19  21
HETATM   21  C   UNL     1      -9.216   9.991  65.630  1.00  0.00    -0.186 C  
BRANCH  21  22
HETATM   22  C   UNL     1     -10.528  10.745  65.338  1.00  0.00    -0.272 C  
BRANCH  22  23
HETATM   23  C   UNL     1     -10.507  12.098  66.000  1.00  0.00    -0.281 A  
HETATM   24  C   UNL     1      -9.481  12.430  66.890  1.00  0.00    -0.219 A  
HETATM   25  C   UNL     1      -9.531  13.623  67.609  1.00  0.00    -0.221 A  
HETATM   26  C   UNL     1     -10.609  14.516  67.456  1.00  0.00    -0.262 A  
HETATM   27  C   UNL     1     -11.552  12.996  65.799  1.00  0.00    -0.396 A  
HETATM   28  C   UNL     1     -11.599  14.193  66.512  1.00  0.00    -0.389 A  
BRANCH  26  29
HETATM   29  C   UNL     1     -10.718  15.747  68.374  1.00  0.00    -0.281 C  
HETATM   30  C   UNL     1     -10.418  17.064  67.635  1.00  0.00    -0.343 C  
HETATM   31  C   UNL     1     -12.151  15.827  68.946  1.00  0.00    -0.139 C  
HETATM   32  C   UNL     1      -9.737  15.711  69.564  1.00  0.00    -0.287 C  
HETATM   33  O   UNL     1      -9.490  16.973  66.650  1.00  0.00    -0.243 OA 
HETATM   34  O   UNL     1     -10.908  18.144  67.925  1.00  0.00    -0.363 OA 
ENDBRANCH  26  29
ENDBRANCH  22  23
ENDBRANCH  21  22
ENDBRANCH  19  21
ENDBRANCH   7  15
ENDBRANCH   5   6
ENDBRANCH   4   5
ENDBRANCH   3   4
ENDBRANCH   2   3
TORSDOF 9
ENDMDL
MODEL      151
REMARK 921   NORMALIZED FREE ENERGY PREDICTED BY IDOCK:   -4.73 KCAL/MOL
REMARK 922        TOTAL FREE ENERGY PREDICTED BY IDOCK:   -7.40 KCAL/MOL
REMARK 923 INTER-LIGAND FREE ENERGY PREDICTED BY IDOCK:   -5.80 KCAL/MOL
REMARK 924 INTRA-LIGAND FREE ENERGY PREDICTED BY IDOCK:   -1.60 KCAL/MOL
REMARK 927      BINDING AFFINITY PREDICTED BY RF-SCORE:    0.00 PKD
ROOT
HETATM    1  C   UNL     1      -8.132   7.981  72.010  1.00  0.00    -0.164 C  
HETATM    2  C   UNL     1      -9.561   8.480  71.926  1.00  0.00    -0.283 C  
ENDROOT
BRANCH   2   3
HETATM    3  O   UNL     1     -10.116   8.195  70.636  1.00  0.00    -0.192 OA 
BRANCH   3   4
HETATM    4  C   UNL     1      -9.598   9.110  69.659  1.00  0.00    -0.176 C  
BRANCH   4   5
HETATM    5  C   UNL     1     -10.688   9.521  68.670  1.00  0.00    -0.184 C  
BRANCH   5   6
HETATM    6  N   UNL     1     -11.106  10.906  68.829  1.00  0.00    -0.234 NA 
HETATM    7  C   UNL     1     -10.810  11.981  68.008  1.00  0.00    -0.216 A  
HETATM    8  N   UNL     1     -11.366  13.087  68.464  1.00  0.00    -0.267 NA 
HETATM    9  C   UNL     1     -12.442  10.768  71.003  1.00  0.00    -0.522 A  
HETATM   10  C   UNL     1     -12.026  12.733  69.610  1.00  0.00    -0.288 A  
HETATM   11  C   UNL     1     -11.873  11.377  69.876  1.00  0.00    -0.359 A  
HETATM   12  C   UNL     1     -13.200  11.576  71.858  1.00  0.00    -0.479 A  
HETATM   13  C   UNL     1     -12.779  13.532  70.483  1.00  0.00    -0.227 A  
HETATM   14  C   UNL     1     -13.367  12.937  71.606  1.00  0.00    -0.358 A  
BRANCH   7  15
HETATM   15  C   UNL     1      -9.954  11.900  66.784  1.00  0.00    -0.215 C  
HETATM   16  C   UNL     1      -7.759  11.369  65.750  1.00  0.00     0.332 C  
HETATM   17  C   UNL     1      -9.789  11.247  64.400  1.00  0.00    -0.269 C  
HETATM   18  C   UNL     1     -10.643  11.123  65.662  1.00  0.00    -0.286 C  
HETATM   19  N   UNL     1      -8.402  10.776  64.560  1.00  0.00    -0.037 NA 
HETATM   20  C   UNL     1      -8.586  11.263  67.039  1.00  0.00    -0.148 C  
BRANCH  19  21
HETATM   21  C   UNL     1      -8.280   9.310  64.571  1.00  0.00    -0.151 C  
BRANCH  21  22
HETATM   22  C   UNL     1      -6.857   8.814  64.891  1.00  0.00    -0.073 C  
BRANCH  22  23
HETATM   23  C   UNL     1      -6.913   7.696  65.899  1.00  0.00    -0.061 A  
HETATM   24  C   UNL     1      -7.331   6.419  65.513  1.00  0.00    -0.076 A  
HETATM   25  C   UNL     1      -7.516   5.420  66.466  1.00  0.00    -0.087 A  
HETATM   26  C   UNL     1      -7.286   5.671  67.832  1.00  0.00    -0.073 A  
HETATM   27  C   UNL     1      -6.630   7.943  67.241  1.00  0.00    -0.060 A  
HETATM   28  C   UNL     1      -6.807   6.941  68.194  1.00  0.00    -0.074 A  
BRANCH  26  29
HETATM   29  C   UNL     1      -7.647   4.599  68.877  1.00  0.00    -0.064 C  
HETATM   30  C   UNL     1      -9.166   4.405  69.025  1.00  0.00    -0.140 C  
HETATM   31  C   UNL     1      -7.024   3.250  68.454  1.00  0.00    -0.049 C  
HETATM   32  C   UNL     1      -7.133   4.930  70.294  1.00  0.00    -0.049 C  
HETATM   33  O   UNL     1      -9.911   5.525  68.850  1.00  0.00    -0.137 OA 
HETATM   34  O   UNL     1      -9.699   3.352  69.342  1.00  0.00    -0.133 OA 
ENDBRANCH  26  29
ENDBRANCH  22  23
ENDBRANCH  21  22
ENDBRANCH  19  21
ENDBRANCH   7  15
ENDBRANCH   5   6
ENDBRANCH   4   5
ENDBRANCH   3   4
ENDBRANCH   2   3
TORSDOF 9
ENDMDL
MODEL      152
REMARK 921   NORMALIZED FREE ENERGY PREDICTED BY IDOCK:   -4.72 KCAL/MOL
REMARK 922        TOTAL FREE ENERGY PREDICTED BY IDOCK:   -7.39 KCAL/MOL
REMARK 923 INTER-LIGAND FREE ENERGY PREDICTED BY IDOCK:   -6.08 KCAL/MOL
REMARK 924 INTRA-LIGAND FREE ENERGY PREDICTED BY IDOCK:   -1.31 KCAL/MOL
REMARK 927      BINDING AFFINITY PREDICTED BY RF-SCORE:    0.00 PKD
ROOT
HETATM    1  C   UNL     1      -7.706  17.246  68.714  1.00  0.00    -0.261 C  
HETATM    2  C   UNL     1      -9.059  17.095  68.048  1.00  0.00    -0.240 C  
ENDROOT
BRANCH   2   3
HETATM    3  O   UNL     1      -9.925  16.285  68.853  1.00  0.00    -0.225 OA 
BRANCH   3   4
HETATM    4  C   UNL     1     -10.284  15.087  68.150  1.00  0.00    -0.221 C  
BRANCH   4   5
HETATM    5  C   UNL     1      -9.669  15.075  66.751  1.00  0.00    -0.241 C  
BRANCH   5   6
HETATM    6  N   UNL     1      -9.799  13.788  66.085  1.00  0.00    -0.301 NA 
HETATM    7  C   UNL     1      -8.997  12.669  66.240  1.00  0.00     0.027 A  
HETATM    8  N   UNL     1      -9.419  11.680  65.477  1.00  0.00    -0.221 NA 
HETATM    9  C   UNL     1     -11.821  14.213  64.582  1.00  0.00    -0.443 A  
HETATM   10  C   UNL     1     -10.508  12.162  64.800  1.00  0.00    -0.294 A  
HETATM   11  C   UNL     1     -10.765  13.484  65.147  1.00  0.00    -0.341 A  
HETATM   12  C   UNL     1     -12.636  13.552  63.655  1.00  0.00    -0.121 A  
HETATM   13  C   UNL     1     -11.327  11.518  63.861  1.00  0.00    -0.400 A  
HETATM   14  C   UNL     1     -12.394  12.226  63.297  1.00  0.00    -0.518 A  
BRANCH   7  15
HETATM   15  C   UNL     1      -7.800  12.604  67.134  1.00  0.00    -0.110 C  
HETATM   16  C   UNL     1      -6.855  12.340  69.415  1.00  0.00     0.007 C  
HETATM   17  C   UNL     1      -5.501  11.744  67.474  1.00  0.00    -0.077 C  
HETATM   18  C   UNL     1      -6.759  11.612  66.615  1.00  0.00    -0.028 C  
HETATM   19  N   UNL     1      -5.727  11.528  68.913  1.00  0.00    -0.046 NA 
HETATM   20  C   UNL     1      -8.137  12.232  68.579  1.00  0.00    -0.101 C  
BRANCH  19  21
HETATM   21  C   UNL     1      -5.897  10.112  69.272  1.00  0.00    -0.037 C  
BRANCH  21  22
HETATM   22  C   UNL     1      -6.317   9.895  70.739  1.00  0.00    -0.086 C  
BRANCH  22  23
HETATM   23  C   UNL     1      -7.307   8.764  70.832  1.00  0.00    -0.087 A  
HETATM   24  C   UNL     1      -8.172   8.674  71.927  1.00  0.00    -0.167 A  
HETATM   25  C   UNL     1      -8.992   7.559  72.087  1.00  0.00    -0.159 A  
HETATM   26  C   UNL     1      -8.969   6.504  71.156  1.00  0.00    -0.145 A  
HETATM   27  C   UNL     1      -7.313   7.753  69.874  1.00  0.00    -0.079 A  
HETATM   28  C   UNL     1      -8.139   6.640  70.030  1.00  0.00    -0.121 A  
BRANCH  26  29
HETATM   29  C   UNL     1      -9.767   5.217  71.438  1.00  0.00    -0.219 C  
HETATM   30  C   UNL     1      -9.123   4.350  72.534  1.00  0.00    -0.119 C  
HETATM   31  C   UNL     1     -11.194   5.597  71.894  1.00  0.00    -0.246 C  
HETATM   32  C   UNL     1      -9.897   4.296  70.207  1.00  0.00    -0.263 C  
HETATM   33  O   UNL     1      -7.768   4.386  72.576  1.00  0.00    -0.081 OA 
HETATM   34  O   UNL     1      -9.746   3.619  73.289  1.00  0.00    -0.110 OA 
ENDBRANCH  26  29
ENDBRANCH  22  23
ENDBRANCH  21  22
ENDBRANCH  19  21
ENDBRANCH   7  15
ENDBRANCH   5   6
ENDBRANCH   4   5
ENDBRANCH   3   4
ENDBRANCH   2   3
TORSDOF 9
ENDMDL
MODEL      153
REMARK 921   NORMALIZED FREE ENERGY PREDICTED BY IDOCK:   -4.71 KCAL/MOL
REMARK 922        TOTAL FREE ENERGY PREDICTED BY IDOCK:   -7.37 KCAL/MOL
REMARK 923 INTER-LIGAND FREE ENERGY PREDICTED BY IDOCK:   -6.23 KCAL/MOL
REMARK 924 INTRA-LIGAND FREE ENERGY PREDICTED BY IDOCK:   -1.14 KCAL/MOL
REMARK 927      BINDING AFFINITY PREDICTED BY RF-SCORE:    0.00 PKD
ROOT
HETATM    1  C   UNL     1      -5.284  11.571  71.324  1.00  0.00    -0.060 C  
HETATM    2  C   UNL     1      -5.496  10.252  70.606  1.00  0.00    -0.076 C  
ENDROOT
BRANCH   2   3
HETATM    3  O   UNL     1      -6.841   9.794  70.787  1.00  0.00    -0.192 OA 
BRANCH   3   4
HETATM    4  C   UNL     1      -6.846   8.491  71.388  1.00  0.00    -0.076 C  
BRANCH   4   5
HETATM    5  C   UNL     1      -7.164   7.416  70.350  1.00  0.00    -0.068 C  
BRANCH   5   6
HETATM    6  N   UNL     1      -8.592   7.244  70.130  1.00  0.00    -0.138 NA 
HETATM    7  C   UNL     1      -9.323   7.578  69.002  1.00  0.00    -0.146 A  
HETATM    8  N   UNL     1     -10.596   7.272  69.160  1.00  0.00    -0.215 NA 
HETATM    9  C   UNL     1      -9.315   6.236  72.365  1.00  0.00    -0.141 A  
HETATM   10  C   UNL     1     -10.705   6.740  70.417  1.00  0.00    -0.241 A  
HETATM   11  C   UNL     1      -9.471   6.721  71.058  1.00  0.00    -0.164 A  
HETATM   12  C   UNL     1     -10.457   5.745  73.009  1.00  0.00    -0.248 A  
HETATM   13  C   UNL     1     -11.841   6.256  71.082  1.00  0.00    -0.234 A  
HETATM   14  C   UNL     1     -11.701   5.755  72.381  1.00  0.00    -0.281 A  
BRANCH   7  15
HETATM   15  C   UNL     1      -8.747   8.222  67.782  1.00  0.00    -0.134 C  
HETATM   16  C   UNL     1      -8.365   8.181  65.328  1.00  0.00    -0.152 C  
HETATM   17  C   UNL     1      -8.383  10.317  66.509  1.00  0.00    -0.126 C  
HETATM   18  C   UNL     1      -9.159   9.690  67.668  1.00  0.00    -0.141 C  
HETATM   19  N   UNL     1      -8.576   9.638  65.216  1.00  0.00    -0.143 NA 
HETATM   20  C   UNL     1      -9.129   7.514  66.480  1.00  0.00    -0.201 C  
BRANCH  19  21
HETATM   21  C   UNL     1      -9.873   9.935  64.588  1.00  0.00    -0.115 C  
BRANCH  21  22
HETATM   22  C   UNL     1      -9.954  11.350  63.982  1.00  0.00    -0.341 C  
BRANCH  22  23
HETATM   23  C   UNL     1     -10.368  12.342  65.038  1.00  0.00    -0.321 A  
HETATM   24  C   UNL     1      -9.860  13.644  65.018  1.00  0.00    -0.087 A  
HETATM   25  C   UNL     1     -10.130  14.522  66.066  1.00  0.00    -0.336 A  
HETATM   26  C   UNL     1     -10.917  14.120  67.162  1.00  0.00    -0.304 A  
HETATM   27  C   UNL     1     -11.193  11.948  66.089  1.00  0.00    -0.387 A  
HETATM   28  C   UNL     1     -11.471  12.829  67.134  1.00  0.00    -0.394 A  
BRANCH  26  29
HETATM   29  C   UNL     1     -11.071  15.055  68.376  1.00  0.00    -0.284 C  
HETATM   30  C   UNL     1      -9.731  15.339  69.076  1.00  0.00    -0.234 C  
HETATM   31  C   UNL     1     -11.669  16.400  67.906  1.00  0.00     0.289 C  
HETATM   32  C   UNL     1     -11.996  14.486  69.471  1.00  0.00    -0.363 C  
HETATM   33  O   UNL     1      -8.842  14.315  69.058  1.00  0.00    -0.080 OA 
HETATM   34  O   UNL     1      -9.471  16.373  69.673  1.00  0.00    -0.102 OA 
ENDBRANCH  26  29
ENDBRANCH  22  23
ENDBRANCH  21  22
ENDBRANCH  19  21
ENDBRANCH   7  15
ENDBRANCH   5   6
ENDBRANCH   4   5
ENDBRANCH   3   4
ENDBRANCH   2   3
TORSDOF 9
ENDMDL
MODEL      154
REMARK 921   NORMALIZED FREE ENERGY PREDICTED BY IDOCK:   -4.67 KCAL/MOL
REMARK 922        TOTAL FREE ENERGY PREDICTED BY IDOCK:   -7.32 KCAL/MOL
REMARK 923 INTER-LIGAND FREE ENERGY PREDICTED BY IDOCK:   -6.26 KCAL/MOL
REMARK 924 INTRA-LIGAND FREE ENERGY PREDICTED BY IDOCK:   -1.05 KCAL/MOL
REMARK 927      BINDING AFFINITY PREDICTED BY RF-SCORE:    0.00 PKD
ROOT
HETATM    1  C   UNL     1      -9.853   9.384  65.689  1.00  0.00    -0.294 C  
HETATM    2  C   UNL     1      -8.822   8.926  64.676  1.00  0.00    -0.055 C  
ENDROOT
BRANCH   2   3
HETATM    3  O   UNL     1      -8.246   7.677  65.078  1.00  0.00    -0.137 OA 
BRANCH   3   4
HETATM    4  C   UNL     1      -8.732   7.298  66.374  1.00  0.00    -0.142 C  
BRANCH   4   5
HETATM    5  C   UNL     1      -9.301   5.880  66.347  1.00  0.00    -0.157 C  
BRANCH   5   6
HETATM    6  N   UNL     1      -8.310   4.865  66.673  1.00  0.00    -0.107 NA 
HETATM    7  C   UNL     1      -7.928   4.426  67.930  1.00  0.00    -0.087 A  
HETATM    8  N   UNL     1      -7.004   3.490  67.839  1.00  0.00    -0.050 NA 
HETATM    9  C   UNL     1      -7.492   4.210  64.342  1.00  0.00    -0.071 A  
HETATM   10  C   UNL     1      -6.766   3.321  66.501  1.00  0.00    -0.048 A  
HETATM   11  C   UNL     1      -7.556   4.177  65.742  1.00  0.00    -0.085 A  
HETATM   12  C   UNL     1      -6.604   3.326  63.719  1.00  0.00    -0.031 A  
HETATM   13  C   UNL     1      -5.873   2.450  65.861  1.00  0.00    -0.022 A  
HETATM   14  C   UNL     1      -5.805   2.459  64.463  1.00  0.00    -0.014 A  
BRANCH   7  15
HETATM   15  C   UNL     1      -8.475   4.962  69.215  1.00  0.00    -0.092 C  
HETATM   16  C   UNL     1      -8.562   6.786  70.898  1.00  0.00    -0.137 C  
HETATM   17  C   UNL     1     -10.462   5.272  70.662  1.00  0.00    -0.236 C  
HETATM   18  C   UNL     1     -10.001   4.883  69.257  1.00  0.00    -0.270 C  
HETATM   19  N   UNL     1     -10.014   6.606  71.098  1.00  0.00    -0.182 NA 
HETATM   20  C   UNL     1      -8.061   6.408  69.498  1.00  0.00    -0.118 C  
BRANCH  19  21
HETATM   21  C   UNL     1     -10.771   7.706  70.480  1.00  0.00    -0.236 C  
BRANCH  21  22
HETATM   22  C   UNL     1     -10.570   9.062  71.185  1.00  0.00    -0.361 C  
BRANCH  22  23
HETATM   23  C   UNL     1     -10.646  10.183  70.181  1.00  0.00    -0.337 A  
HETATM   24  C   UNL     1     -11.888  10.674  69.768  1.00  0.00    -0.377 A  
HETATM   25  C   UNL     1     -11.968  11.613  68.741  1.00  0.00    -0.326 A  
HETATM   26  C   UNL     1     -10.807  12.087  68.102  1.00  0.00    -0.257 A  
HETATM   27  C   UNL     1      -9.486  10.683  69.594  1.00  0.00     0.063 A  
HETATM   28  C   UNL     1      -9.565  11.629  68.573  1.00  0.00    -0.181 A  
BRANCH  26  29
HETATM   29  C   UNL     1     -10.932  13.003  66.871  1.00  0.00    -0.289 C  
HETATM   30  C   UNL     1     -11.325  14.444  67.244  1.00  0.00    -0.342 C  
HETATM   31  C   UNL     1      -9.576  13.046  66.131  1.00  0.00    -0.209 C  
HETATM   32  C   UNL     1     -12.002  12.532  65.864  1.00  0.00    -0.472 C  
HETATM   33  O   UNL     1     -12.144  14.559  68.319  1.00  0.00    -0.292 OA 
HETATM   34  O   UNL     1     -10.999  15.434  66.606  1.00  0.00    -0.313 OA 
ENDBRANCH  26  29
ENDBRANCH  22  23
ENDBRANCH  21  22
ENDBRANCH  19  21
ENDBRANCH   7  15
ENDBRANCH   5   6
ENDBRANCH   4   5
ENDBRANCH   3   4
ENDBRANCH   2   3
TORSDOF 9
ENDMDL
MODEL      155
REMARK 921   NORMALIZED FREE ENERGY PREDICTED BY IDOCK:   -4.67 KCAL/MOL
REMARK 922        TOTAL FREE ENERGY PREDICTED BY IDOCK:   -7.31 KCAL/MOL
REMARK 923 INTER-LIGAND FREE ENERGY PREDICTED BY IDOCK:   -6.86 KCAL/MOL
REMARK 924 INTRA-LIGAND FREE ENERGY PREDICTED BY IDOCK:   -0.46 KCAL/MOL
REMARK 927      BINDING AFFINITY PREDICTED BY RF-SCORE:    0.00 PKD
ROOT
HETATM    1  C   UNL     1     -12.060  10.826  68.947  1.00  0.00    -0.107 C  
HETATM    2  C   UNL     1     -10.883  11.609  69.495  1.00  0.00    -0.029 C  
ENDROOT
BRANCH   2   3
HETATM    3  O   UNL     1     -10.721  12.838  68.777  1.00  0.00    -0.243 OA 
BRANCH   3   4
HETATM    4  C   UNL     1     -11.963  13.229  68.173  1.00  0.00    -0.304 C  
BRANCH   4   5
HETATM    5  C   UNL     1     -12.131  14.748  68.211  1.00  0.00    -0.144 C  
BRANCH   5   6
HETATM    6  N   UNL     1     -11.928  15.308  69.539  1.00  0.00    -0.332 NA 
HETATM    7  C   UNL     1     -11.140  16.391  69.891  1.00  0.00    -0.310 A  
HETATM    8  N   UNL     1     -11.203  16.615  71.189  1.00  0.00     0.010 NA 
HETATM    9  C   UNL     1     -13.355  13.734  70.959  1.00  0.00    -0.154 A  
HETATM   10  C   UNL     1     -12.036  15.655  71.698  1.00  0.00    -0.430 A  
HETATM   11  C   UNL     1     -12.497  14.810  70.695  1.00  0.00    -0.345 A  
HETATM   12  C   UNL     1     -13.757  13.542  72.286  1.00  0.00    -0.700 A  
HETATM   13  C   UNL     1     -12.439  15.441  73.025  1.00  0.00    -0.542 A  
HETATM   14  C   UNL     1     -13.307  14.380  73.305  1.00  0.00    -0.113 A  
BRANCH   7  15
HETATM   15  C   UNL     1     -10.311  17.182  68.929  1.00  0.00    -0.348 C  
HETATM   16  C   UNL     1      -8.079  17.993  68.206  1.00  0.00    -0.291 C  
HETATM   17  C   UNL     1      -9.874  17.785  66.566  1.00  0.00    -0.329 C  
HETATM   18  C   UNL     1     -10.619  16.810  67.478  1.00  0.00    -0.309 C  
HETATM   19  N   UNL     1      -8.418  17.819  66.778  1.00  0.00    -0.239 NA 
HETATM   20  C   UNL     1      -8.805  17.030  69.154  1.00  0.00    -0.035 C  
BRANCH  19  21
HETATM   21  C   UNL     1      -7.717  16.658  66.209  1.00  0.00    -0.238 C  
BRANCH  21  22
HETATM   22  C   UNL     1      -6.591  16.116  67.111  1.00  0.00    -0.208 C  
BRANCH  22  23
HETATM   23  C   UNL     1      -6.804  14.648  67.379  1.00  0.00    -0.085 A  
HETATM   24  C   UNL     1      -5.767  13.872  67.906  1.00  0.00    -0.116 A  
HETATM   25  C   UNL     1      -5.913  12.491  68.026  1.00  0.00    -0.081 A  
HETATM   26  C   UNL     1      -7.100  11.851  67.624  1.00  0.00    -0.112 A  
HETATM   27  C   UNL     1      -8.004  14.035  67.028  1.00  0.00     0.028 A  
HETATM   28  C   UNL     1      -8.153  12.655  67.156  1.00  0.00    -0.141 A  
BRANCH  26  29
HETATM   29  C   UNL     1      -7.176  10.313  67.623  1.00  0.00    -0.087 C  
HETATM   30  C   UNL     1      -7.774   9.749  68.924  1.00  0.00    -0.082 C  
HETATM   31  C   UNL     1      -8.061   9.851  66.442  1.00  0.00    -0.118 C  
HETATM   32  C   UNL     1      -5.800   9.633  67.473  1.00  0.00    -0.047 C  
HETATM   33  O   UNL     1      -7.490  10.460  70.044  1.00  0.00    -0.159 OA 
HETATM   34  O   UNL     1      -8.408   8.707  68.997  1.00  0.00    -0.116 OA 
ENDBRANCH  26  29
ENDBRANCH  22  23
ENDBRANCH  21  22
ENDBRANCH  19  21
ENDBRANCH   7  15
ENDBRANCH   5   6
ENDBRANCH   4   5
ENDBRANCH   3   4
ENDBRANCH   2   3
TORSDOF 9
ENDMDL
MODEL      156
REMARK 921   NORMALIZED FREE ENERGY PREDICTED BY IDOCK:   -4.66 KCAL/MOL
REMARK 922        TOTAL FREE ENERGY PREDICTED BY IDOCK:   -7.30 KCAL/MOL
REMARK 923 INTER-LIGAND FREE ENERGY PREDICTED BY IDOCK:   -7.77 KCAL/MOL
REMARK 924 INTRA-LIGAND FREE ENERGY PREDICTED BY IDOCK:    0.47 KCAL/MOL
REMARK 927      BINDING AFFINITY PREDICTED BY RF-SCORE:    0.00 PKD
ROOT
HETATM    1  C   UNL     1      -5.873   4.723  66.684  1.00  0.00    -0.022 C  
HETATM    2  C   UNL     1      -6.783   5.909  66.943  1.00  0.00    -0.058 C  
ENDROOT
BRANCH   2   3
HETATM    3  O   UNL     1      -6.701   6.312  68.315  1.00  0.00    -0.062 OA 
BRANCH   3   4
HETATM    4  C   UNL     1      -6.684   7.743  68.413  1.00  0.00    -0.062 C  
BRANCH   4   5
HETATM    5  C   UNL     1      -7.050   8.195  69.827  1.00  0.00    -0.060 C  
BRANCH   5   6
HETATM    6  N   UNL     1      -8.478   8.409  70.002  1.00  0.00    -0.123 NA 
HETATM    7  C   UNL     1      -9.372   8.951  69.093  1.00  0.00    -0.148 A  
HETATM    8  N   UNL     1     -10.590   8.986  69.598  1.00  0.00    -0.223 NA 
HETATM    9  C   UNL     1      -8.810   7.573  72.394  1.00  0.00    -0.162 A  
HETATM   10  C   UNL     1     -10.491   8.471  70.863  1.00  0.00    -0.203 A  
HETATM   11  C   UNL     1      -9.180   8.113  71.154  1.00  0.00    -0.154 A  
HETATM   12  C   UNL     1      -9.823   7.383  73.341  1.00  0.00    -0.345 A  
HETATM   13  C   UNL     1     -11.492   8.286  71.827  1.00  0.00    -0.353 A  
HETATM   14  C   UNL     1     -11.144   7.735  73.066  1.00  0.00    -0.419 A  
BRANCH   7  15
HETATM   15  C   UNL     1      -8.998   9.451  67.734  1.00  0.00    -0.127 C  
HETATM   16  C   UNL     1      -9.546   9.683  65.323  1.00  0.00    -0.277 C  
HETATM   17  C   UNL     1      -8.064  11.306  66.384  1.00  0.00    -0.138 C  
HETATM   18  C   UNL     1      -8.607  10.928  67.762  1.00  0.00    -0.128 C  
HETATM   19  N   UNL     1      -9.001  11.055  65.276  1.00  0.00    -0.190 NA 
HETATM   20  C   UNL     1     -10.102   9.267  66.691  1.00  0.00    -0.341 C  
BRANCH  19  21
HETATM   21  C   UNL     1     -10.083  12.048  65.188  1.00  0.00    -0.266 C  
BRANCH  21  22
HETATM   22  C   UNL     1     -10.617  12.498  66.561  1.00  0.00    -0.265 C  
BRANCH  22  23
HETATM   23  C   UNL     1     -10.285  13.949  66.796  1.00  0.00    -0.268 A  
HETATM   24  C   UNL     1     -10.818  14.623  67.898  1.00  0.00    -0.261 A  
HETATM   25  C   UNL     1     -10.627  15.996  68.044  1.00  0.00    -0.295 A  
HETATM   26  C   UNL     1      -9.896  16.730  67.091  1.00  0.00    -0.259 A  
HETATM   27  C   UNL     1      -9.514  14.653  65.874  1.00  0.00    -0.238 A  
HETATM   28  C   UNL     1      -9.315  16.024  66.024  1.00  0.00    -0.380 A  
BRANCH  26  29
HETATM   29  C   UNL     1      -9.832  18.265  67.194  1.00  0.00    -0.329 C  
HETATM   30  C   UNL     1     -10.742  18.965  66.168  1.00  0.00    -0.289 C  
HETATM   31  C   UNL     1     -10.274  18.697  68.610  1.00  0.00    -0.359 C  
HETATM   32  C   UNL     1      -8.420  18.836  66.948  1.00  0.00    -0.285 C  
HETATM   33  O   UNL     1     -10.873  18.323  64.981  1.00  0.00    -0.679 OA 
HETATM   34  O   UNL     1     -11.273  20.051  66.346  1.00  0.00    -0.007 OA 
ENDBRANCH  26  29
ENDBRANCH  22  23
ENDBRANCH  21  22
ENDBRANCH  19  21
ENDBRANCH   7  15
ENDBRANCH   5   6
ENDBRANCH   4   5
ENDBRANCH   3   4
ENDBRANCH   2   3
TORSDOF 9
ENDMDL
MODEL      157
REMARK 921   NORMALIZED FREE ENERGY PREDICTED BY IDOCK:   -4.65 KCAL/MOL
REMARK 922        TOTAL FREE ENERGY PREDICTED BY IDOCK:   -7.28 KCAL/MOL
REMARK 923 INTER-LIGAND FREE ENERGY PREDICTED BY IDOCK:   -6.11 KCAL/MOL
REMARK 924 INTRA-LIGAND FREE ENERGY PREDICTED BY IDOCK:   -1.17 KCAL/MOL
REMARK 927      BINDING AFFINITY PREDICTED BY RF-SCORE:    0.00 PKD
ROOT
HETATM    1  C   UNL     1      -9.997   9.306  65.937  1.00  0.00    -0.289 C  
HETATM    2  C   UNL     1     -10.401   8.564  67.195  1.00  0.00    -0.307 C  
ENDROOT
BRANCH   2   3
HETATM    3  O   UNL     1     -10.026   9.310  68.359  1.00  0.00    -0.164 OA 
BRANCH   3   4
HETATM    4  C   UNL     1     -10.348   8.575  69.548  1.00  0.00    -0.218 C  
BRANCH   4   5
HETATM    5  C   UNL     1      -9.677   7.201  69.535  1.00  0.00    -0.157 C  
BRANCH   5   6
HETATM    6  N   UNL     1      -9.109   6.835  70.823  1.00  0.00    -0.151 NA 
HETATM    7  C   UNL     1      -7.815   7.048  71.271  1.00  0.00    -0.099 A  
HETATM    8  N   UNL     1      -7.662   6.585  72.496  1.00  0.00    -0.099 NA 
HETATM    9  C   UNL     1     -11.106   5.689  71.933  1.00  0.00    -0.278 A  
HETATM   10  C   UNL     1      -8.869   6.048  72.853  1.00  0.00    -0.122 A  
HETATM   11  C   UNL     1      -9.795   6.174  71.823  1.00  0.00    -0.164 A  
HETATM   12  C   UNL     1     -11.468   5.080  73.140  1.00  0.00    -0.362 A  
HETATM   13  C   UNL     1      -9.245   5.423  74.052  1.00  0.00    -0.121 A  
HETATM   14  C   UNL     1     -10.554   4.947  74.184  1.00  0.00    -0.345 A  
BRANCH   7  15
HETATM   15  C   UNL     1      -6.736   7.694  70.462  1.00  0.00    -0.042 C  
HETATM   16  C   UNL     1      -5.662   8.068  68.255  1.00  0.00    -0.033 C  
HETATM   17  C   UNL     1      -5.412   9.740  70.015  1.00  0.00    -0.037 C  
HETATM   18  C   UNL     1      -6.649   9.196  70.732  1.00  0.00    -0.074 C  
HETATM   19  N   UNL     1      -5.395   9.487  68.564  1.00  0.00    -0.034 NA 
HETATM   20  C   UNL     1      -6.897   7.486  68.955  1.00  0.00    -0.068 C  
BRANCH  19  21
HETATM   21  C   UNL     1      -6.296  10.369  67.807  1.00  0.00    -0.060 C  
BRANCH  21  22
HETATM   22  C   UNL     1      -5.963  11.866  67.958  1.00  0.00    -0.055 C  
BRANCH  22  23
HETATM   23  C   UNL     1      -7.224  12.686  67.896  1.00  0.00    -0.116 A  
HETATM   24  C   UNL     1      -7.342  13.855  68.654  1.00  0.00    -0.117 A  
HETATM   25  C   UNL     1      -8.554  14.541  68.708  1.00  0.00    -0.145 A  
HETATM   26  C   UNL     1      -9.680  14.077  68.002  1.00  0.00    -0.221 A  
HETATM   27  C   UNL     1      -8.315  12.246  67.150  1.00  0.00    -0.183 A  
HETATM   28  C   UNL     1      -9.525  12.937  67.196  1.00  0.00    -0.229 A  
BRANCH  26  29
HETATM   29  C   UNL     1     -11.044  14.764  68.202  1.00  0.00    -0.288 C  
HETATM   30  C   UNL     1     -11.692  14.411  69.553  1.00  0.00    -0.313 C  
HETATM   31  C   UNL     1     -10.852  16.297  68.142  1.00  0.00    -0.342 C  
HETATM   32  C   UNL     1     -12.085  14.378  67.132  1.00  0.00    -0.367 C  
HETATM   33  O   UNL     1     -11.440  13.156  70.003  1.00  0.00    -0.170 OA 
HETATM   34  O   UNL     1     -12.438  15.152  70.174  1.00  0.00    -0.340 OA 
ENDBRANCH  26  29
ENDBRANCH  22  23
ENDBRANCH  21  22
ENDBRANCH  19  21
ENDBRANCH   7  15
ENDBRANCH   5   6
ENDBRANCH   4   5
ENDBRANCH   3   4
ENDBRANCH   2   3
TORSDOF 9
ENDMDL
MODEL      158
REMARK 921   NORMALIZED FREE ENERGY PREDICTED BY IDOCK:   -4.60 KCAL/MOL
REMARK 922        TOTAL FREE ENERGY PREDICTED BY IDOCK:   -7.21 KCAL/MOL
REMARK 923 INTER-LIGAND FREE ENERGY PREDICTED BY IDOCK:   -6.79 KCAL/MOL
REMARK 924 INTRA-LIGAND FREE ENERGY PREDICTED BY IDOCK:   -0.42 KCAL/MOL
REMARK 927      BINDING AFFINITY PREDICTED BY RF-SCORE:    0.00 PKD
ROOT
HETATM    1  C   UNL     1      -9.244   7.125  66.474  1.00  0.00    -0.199 C  
HETATM    2  C   UNL     1     -10.184   8.291  66.709  1.00  0.00    -0.304 C  
ENDROOT
BRANCH   2   3
HETATM    3  O   UNL     1     -10.527   8.386  68.097  1.00  0.00    -0.212 OA 
BRANCH   3   4
HETATM    4  C   UNL     1     -10.106   9.650  68.629  1.00  0.00    -0.179 C  
BRANCH   4   5
HETATM    5  C   UNL     1      -9.533   9.482  70.037  1.00  0.00    -0.232 C  
BRANCH   5   6
HETATM    6  N   UNL     1      -8.665   8.321  70.161  1.00  0.00    -0.131 NA 
HETATM    7  C   UNL     1      -7.327   8.221  69.817  1.00  0.00    -0.065 A  
HETATM    8  N   UNL     1      -6.865   7.014  70.076  1.00  0.00    -0.055 NA 
HETATM    9  C   UNL     1     -10.290   6.593  71.114  1.00  0.00    -0.232 A  
HETATM   10  C   UNL     1      -7.920   6.306  70.587  1.00  0.00    -0.112 A  
HETATM   11  C   UNL     1      -9.067   7.090  70.641  1.00  0.00    -0.158 A  
HETATM   12  C   UNL     1     -10.317   5.266  71.556  1.00  0.00    -0.287 A  
HETATM   13  C   UNL     1      -7.968   4.973  71.022  1.00  0.00    -0.093 A  
HETATM   14  C   UNL     1      -9.177   4.465  71.511  1.00  0.00    -0.190 A  
BRANCH   7  15
HETATM   15  C   UNL     1      -6.526   9.328  69.209  1.00  0.00    -0.045 C  
HETATM   16  C   UNL     1      -5.673  10.476  67.179  1.00  0.00    -0.042 C  
HETATM   17  C   UNL     1      -5.930  11.733  69.255  1.00  0.00    -0.077 C  
HETATM   18  C   UNL     1      -6.914  10.690  69.786  1.00  0.00    -0.145 C  
HETATM   19  N   UNL     1      -5.864  11.809  67.786  1.00  0.00    -0.051 NA 
HETATM   20  C   UNL     1      -6.645   9.401  67.685  1.00  0.00    -0.063 C  
BRANCH  19  21
HETATM   21  C   UNL     1      -7.015  12.501  67.184  1.00  0.00    -0.055 C  
BRANCH  21  22
HETATM   22  C   UNL     1      -8.044  12.996  68.217  1.00  0.00    -0.151 C  
BRANCH  22  23
HETATM   23  C   UNL     1      -8.213  14.488  68.107  1.00  0.00    -0.146 A  
HETATM   24  C   UNL     1      -9.265  15.129  68.768  1.00  0.00    -0.200 A  
HETATM   25  C   UNL     1      -9.508  16.485  68.558  1.00  0.00    -0.235 A  
HETATM   26  C   UNL     1      -8.703  17.237  67.682  1.00  0.00    -0.219 A  
HETATM   27  C   UNL     1      -7.376  15.232  67.278  1.00  0.00    -0.230 A  
HETATM   28  C   UNL     1      -7.613  16.591  67.074  1.00  0.00    -0.240 A  
BRANCH  26  29
HETATM   29  C   UNL     1      -9.087  18.691  67.349  1.00  0.00    -0.290 C  
HETATM   30  C   UNL     1     -10.314  18.782  66.425  1.00  0.00    -0.439 C  
HETATM   31  C   UNL     1      -9.409  19.442  68.661  1.00  0.00    -0.448 C  
HETATM   32  C   UNL     1      -7.968  19.468  66.626  1.00  0.00    -0.311 C  
HETATM   33  O   UNL     1     -10.432  17.777  65.522  1.00  0.00    -0.646 OA 
HETATM   34  O   UNL     1     -11.112  19.708  66.428  1.00  0.00    -0.313 OA 
ENDBRANCH  26  29
ENDBRANCH  22  23
ENDBRANCH  21  22
ENDBRANCH  19  21
ENDBRANCH   7  15
ENDBRANCH   5   6
ENDBRANCH   4   5
ENDBRANCH   3   4
ENDBRANCH   2   3
TORSDOF 9
ENDMDL
MODEL      159
REMARK 921   NORMALIZED FREE ENERGY PREDICTED BY IDOCK:   -4.54 KCAL/MOL
REMARK 922        TOTAL FREE ENERGY PREDICTED BY IDOCK:   -7.12 KCAL/MOL
REMARK 923 INTER-LIGAND FREE ENERGY PREDICTED BY IDOCK:   -6.88 KCAL/MOL
REMARK 924 INTRA-LIGAND FREE ENERGY PREDICTED BY IDOCK:   -0.24 KCAL/MOL
REMARK 927      BINDING AFFINITY PREDICTED BY RF-SCORE:    0.00 PKD
ROOT
HETATM    1  C   UNL     1      -5.158   3.362  69.338  1.00  0.00    -0.007 C  
HETATM    2  C   UNL     1      -5.181   2.551  68.057  1.00  0.00    -0.012 C  
ENDROOT
BRANCH   2   3
HETATM    3  O   UNL     1      -6.293   1.648  68.055  1.00  0.00    -0.024 OA 
BRANCH   3   4
HETATM    4  C   UNL     1      -7.517   2.366  67.844  1.00  0.00    -0.056 C  
BRANCH   4   5
HETATM    5  C   UNL     1      -7.339   3.439  66.771  1.00  0.00    -0.075 C  
BRANCH   5   6
HETATM    6  N   UNL     1      -8.589   3.813  66.128  1.00  0.00    -0.110 NA 
HETATM    7  C   UNL     1      -9.569   4.665  66.611  1.00  0.00    -0.182 A  
HETATM    8  N   UNL     1     -10.564   4.771  65.752  1.00  0.00    -0.274 NA 
HETATM    9  C   UNL     1      -8.461   2.449  63.971  1.00  0.00    -0.082 A  
HETATM   10  C   UNL     1     -10.238   3.965  64.694  1.00  0.00    -0.207 A  
HETATM   11  C   UNL     1      -9.014   3.338  64.903  1.00  0.00    -0.135 A  
HETATM   12  C   UNL     1      -9.182   2.220  62.794  1.00  0.00    -0.091 A  
HETATM   13  C   UNL     1     -10.953   3.715  63.514  1.00  0.00    -0.092 A  
HETATM   14  C   UNL     1     -10.409   2.841  62.566  1.00  0.00    -0.120 A  
BRANCH   7  15
HETATM   15  C   UNL     1      -9.514   5.350  67.939  1.00  0.00    -0.137 C  
HETATM   16  C   UNL     1      -8.474   7.053  69.417  1.00  0.00    -0.133 C  
HETATM   17  C   UNL     1     -10.781   6.361  69.813  1.00  0.00    -0.283 C  
HETATM   18  C   UNL     1     -10.892   5.847  68.378  1.00  0.00    -0.322 C  
HETATM   19  N   UNL     1      -9.780   7.426  69.998  1.00  0.00    -0.175 NA 
HETATM   20  C   UNL     1      -8.544   6.533  67.975  1.00  0.00    -0.118 C  
BRANCH  19  21
HETATM   21  C   UNL     1     -10.223   8.737  69.498  1.00  0.00    -0.208 C  
BRANCH  21  22
HETATM   22  C   UNL     1      -9.076   9.604  68.945  1.00  0.00    -0.144 C  
BRANCH  22  23
HETATM   23  C   UNL     1      -9.625  10.675  68.040  1.00  0.00    -0.167 A  
HETATM   24  C   UNL     1      -8.800  11.710  67.591  1.00  0.00    -0.159 A  
HETATM   25  C   UNL     1      -9.334  12.776  66.870  1.00  0.00    -0.234 A  
HETATM   26  C   UNL     1     -10.710  12.834  66.576  1.00  0.00    -0.277 A  
HETATM   27  C   UNL     1     -10.979  10.693  67.711  1.00  0.00    -0.364 A  
HETATM   28  C   UNL     1     -11.513  11.754  66.982  1.00  0.00    -0.368 A  
BRANCH  26  29
HETATM   29  C   UNL     1     -11.298  14.094  65.915  1.00  0.00    -0.323 C  
HETATM   30  C   UNL     1     -12.702  13.854  65.331  1.00  0.00    -0.490 C  
HETATM   31  C   UNL     1     -11.396  15.220  66.969  1.00  0.00    -0.230 C  
HETATM   32  C   UNL     1     -10.448  14.621  64.741  1.00  0.00    -0.343 C  
HETATM   33  O   UNL     1     -12.917  12.609  64.838  1.00  0.00    -0.830 OA 
HETATM   34  O   UNL     1     -13.566  14.713  65.240  1.00  0.00    -0.110 OA 
ENDBRANCH  26  29
ENDBRANCH  22  23
ENDBRANCH  21  22
ENDBRANCH  19  21
ENDBRANCH   7  15
ENDBRANCH   5   6
ENDBRANCH   4   5
ENDBRANCH   3   4
ENDBRANCH   2   3
TORSDOF 9
ENDMDL
MODEL      160
REMARK 921   NORMALIZED FREE ENERGY PREDICTED BY IDOCK:   -4.54 KCAL/MOL
REMARK 922        TOTAL FREE ENERGY PREDICTED BY IDOCK:   -7.12 KCAL/MOL
REMARK 923 INTER-LIGAND FREE ENERGY PREDICTED BY IDOCK:   -7.23 KCAL/MOL
REMARK 924 INTRA-LIGAND FREE ENERGY PREDICTED BY IDOCK:    0.11 KCAL/MOL
REMARK 927      BINDING AFFINITY PREDICTED BY RF-SCORE:    0.00 PKD
ROOT
HETATM    1  C   UNL     1     -10.520  14.880  70.792  1.00  0.00     0.331 C  
HETATM    2  C   UNL     1     -11.561  13.810  70.528  1.00  0.00    -0.014 C  
ENDROOT
BRANCH   2   3
HETATM    3  O   UNL     1     -12.545  14.286  69.601  1.00  0.00    -0.263 OA 
BRANCH   3   4
HETATM    4  C   UNL     1     -12.050  15.433  68.895  1.00  0.00    -0.198 C  
BRANCH   4   5
HETATM    5  C   UNL     1     -11.050  15.017  67.816  1.00  0.00    -0.310 C  
BRANCH   5   6
HETATM    6  N   UNL     1     -10.952  15.981  66.731  1.00  0.00    -0.188 NA 
HETATM    7  C   UNL     1     -11.067  15.742  65.372  1.00  0.00    -0.228 A  
HETATM    8  N   UNL     1     -10.927  16.860  64.686  1.00  0.00    -0.963 NA 
HETATM    9  C   UNL     1     -10.477  18.132  68.027  1.00  0.00    -0.387 A  
HETATM   10  C   UNL     1     -10.704  17.846  65.609  1.00  0.00    -0.052 A  
HETATM   11  C   UNL     1     -10.699  17.328  66.900  1.00  0.00    -0.126 A  
HETATM   12  C   UNL     1     -10.276  19.500  67.811  1.00  0.00    -0.550 A  
HETATM   13  C   UNL     1     -10.488  19.217  65.410  1.00  0.00     0.117 A  
HETATM   14  C   UNL     1     -10.280  20.038  66.524  1.00  0.00    -0.598 A  
BRANCH   7  15
HETATM   15  C   UNL     1     -11.294  14.393  64.767  1.00  0.00    -0.388 C  
HETATM   16  C   UNL     1     -10.357  12.293  63.829  1.00  0.00    -0.435 C  
HETATM   17  C   UNL     1     -12.589  12.282  64.816  1.00  0.00    -0.224 C  
HETATM   18  C   UNL     1     -12.271  13.559  65.594  1.00  0.00    -0.500 C  
HETATM   19  N   UNL     1     -11.407  11.475  64.470  1.00  0.00    -0.234 NA 
HETATM   20  C   UNL     1     -10.008  13.584  64.583  1.00  0.00    -0.112 C  
BRANCH  19  21
HETATM   21  C   UNL     1     -10.862  10.718  65.607  1.00  0.00     0.006 C  
BRANCH  21  22
HETATM   22  C   UNL     1      -9.486  10.086  65.324  1.00  0.00    -0.323 C  
BRANCH  22  23
HETATM   23  C   UNL     1      -9.336   8.802  66.097  1.00  0.00    -0.297 A  
HETATM   24  C   UNL     1      -8.065   8.308  66.402  1.00  0.00    -0.105 A  
HETATM   25  C   UNL     1      -7.918   7.055  66.994  1.00  0.00    -0.116 A  
HETATM   26  C   UNL     1      -9.042   6.262  67.297  1.00  0.00    -0.116 A  
HETATM   27  C   UNL     1     -10.459   8.051  66.440  1.00  0.00     0.199 A  
HETATM   28  C   UNL     1     -10.314   6.801  67.039  1.00  0.00    -0.338 A  
BRANCH  26  29
HETATM   29  C   UNL     1      -8.846   4.822  67.805  1.00  0.00    -0.112 C  
HETATM   30  C   UNL     1      -9.267   4.652  69.276  1.00  0.00    -0.127 C  
HETATM   31  C   UNL     1      -9.696   3.861  66.942  1.00  0.00    -0.189 C  
HETATM   32  C   UNL     1      -7.381   4.343  67.737  1.00  0.00    -0.069 C  
HETATM   33  O   UNL     1      -9.054   5.734  70.065  1.00  0.00    -0.139 OA 
HETATM   34  O   UNL     1      -9.702   3.614  69.752  1.00  0.00    -0.185 OA 
ENDBRANCH  26  29
ENDBRANCH  22  23
ENDBRANCH  21  22
ENDBRANCH  19  21
ENDBRANCH   7  15
ENDBRANCH   5   6
ENDBRANCH   4   5
ENDBRANCH   3   4
ENDBRANCH   2   3
TORSDOF 9
ENDMDL
MODEL      161
REMARK 921   NORMALIZED FREE ENERGY PREDICTED BY IDOCK:   -4.52 KCAL/MOL
REMARK 922        TOTAL FREE ENERGY PREDICTED BY IDOCK:   -7.08 KCAL/MOL
REMARK 923 INTER-LIGAND FREE ENERGY PREDICTED BY IDOCK:   -5.38 KCAL/MOL
REMARK 924 INTRA-LIGAND FREE ENERGY PREDICTED BY IDOCK:   -1.70 KCAL/MOL
REMARK 927      BINDING AFFINITY PREDICTED BY RF-SCORE:    0.00 PKD
ROOT
HETATM    1  C   UNL     1      -8.007   7.940  73.180  1.00  0.00    -0.198 C  
HETATM    2  C   UNL     1      -9.522   7.958  73.131  1.00  0.00    -0.278 C  
ENDROOT
BRANCH   2   3
HETATM    3  O   UNL     1      -9.996   7.191  72.018  1.00  0.00    -0.164 OA 
BRANCH   3   4
HETATM    4  C   UNL     1      -9.400   7.660  70.800  1.00  0.00    -0.162 C  
BRANCH   4   5
HETATM    5  C   UNL     1     -10.467   7.913  69.736  1.00  0.00    -0.233 C  
BRANCH   5   6
HETATM    6  N   UNL     1     -10.762   9.325  69.552  1.00  0.00    -0.229 NA 
HETATM    7  C   UNL     1     -10.255  10.179  68.585  1.00  0.00    -0.176 A  
HETATM    8  N   UNL     1     -10.753  11.392  68.724  1.00  0.00    -0.195 NA 
HETATM    9  C   UNL     1     -12.378   9.746  71.487  1.00  0.00    -0.495 A  
HETATM   10  C   UNL     1     -11.589  11.337  69.807  1.00  0.00    -0.333 A  
HETATM   11  C   UNL     1     -11.608  10.061  70.358  1.00  0.00    -0.302 A  
HETATM   12  C   UNL     1     -13.156  10.768  72.041  1.00  0.00    -0.476 A  
HETATM   13  C   UNL     1     -12.366  12.354  70.382  1.00  0.00    -0.307 A  
HETATM   14  C   UNL     1     -13.152  12.053  71.500  1.00  0.00    -0.362 A  
BRANCH   7  15
HETATM   15  C   UNL     1      -9.259   9.780  67.544  1.00  0.00    -0.145 C  
HETATM   16  C   UNL     1      -6.924   9.184  66.945  1.00  0.00    -0.081 C  
HETATM   17  C   UNL     1      -8.767   8.368  65.568  1.00  0.00    -0.162 C  
HETATM   18  C   UNL     1      -9.749   8.589  66.719  1.00  0.00    -0.303 C  
HETATM   19  N   UNL     1      -7.375   8.146  65.996  1.00  0.00    -0.075 NA 
HETATM   20  C   UNL     1      -7.883   9.434  68.117  1.00  0.00    -0.087 C  
BRANCH  19  21
HETATM   21  C   UNL     1      -7.137   6.799  66.537  1.00  0.00    -0.071 C  
BRANCH  21  22
HETATM   22  C   UNL     1      -5.786   6.657  67.263  1.00  0.00    -0.013 C  
BRANCH  22  23
HETATM   23  C   UNL     1      -5.952   5.826  68.508  1.00  0.00    -0.020 A  
HETATM   24  C   UNL     1      -6.288   4.472  68.412  1.00  0.00    -0.036 A  
HETATM   25  C   UNL     1      -6.577   3.735  69.559  1.00  0.00    -0.034 A  
HETATM   26  C   UNL     1      -6.536   4.333  70.833  1.00  0.00    -0.034 A  
HETATM   27  C   UNL     1      -5.855   6.416  69.767  1.00  0.00    -0.018 A  
HETATM   28  C   UNL     1      -6.136   5.677  70.915  1.00  0.00    -0.030 A  
BRANCH  26  29
HETATM   29  C   UNL     1      -7.009   3.539  72.065  1.00  0.00    -0.034 C  
HETATM   30  C   UNL     1      -8.482   3.105  71.958  1.00  0.00    -0.073 C  
HETATM   31  C   UNL     1      -6.139   2.271  72.215  1.00  0.00    -0.009 C  
HETATM   32  C   UNL     1      -6.909   4.337  73.381  1.00  0.00    -0.058 C  
HETATM   33  O   UNL     1      -9.292   3.970  71.298  1.00  0.00    -0.122 OA 
HETATM   34  O   UNL     1      -8.943   2.097  72.472  1.00  0.00    -0.066 OA 
ENDBRANCH  26  29
ENDBRANCH  22  23
ENDBRANCH  21  22
ENDBRANCH  19  21
ENDBRANCH   7  15
ENDBRANCH   5   6
ENDBRANCH   4   5
ENDBRANCH   3   4
ENDBRANCH   2   3
TORSDOF 9
ENDMDL
MODEL      162
REMARK 921   NORMALIZED FREE ENERGY PREDICTED BY IDOCK:   -4.51 KCAL/MOL
REMARK 922        TOTAL FREE ENERGY PREDICTED BY IDOCK:   -7.07 KCAL/MOL
REMARK 923 INTER-LIGAND FREE ENERGY PREDICTED BY IDOCK:   -6.03 KCAL/MOL
REMARK 924 INTRA-LIGAND FREE ENERGY PREDICTED BY IDOCK:   -1.03 KCAL/MOL
REMARK 927      BINDING AFFINITY PREDICTED BY RF-SCORE:    0.00 PKD
ROOT
HETATM    1  C   UNL     1     -11.770  12.545  64.433  1.00  0.00    -0.432 C  
HETATM    2  C   UNL     1     -11.347  11.502  65.449  1.00  0.00    -0.078 C  
ENDROOT
BRANCH   2   3
HETATM    3  O   UNL     1     -11.783  11.877  66.762  1.00  0.00    -0.548 OA 
BRANCH   3   4
HETATM    4  C   UNL     1     -11.709  10.754  67.651  1.00  0.00     0.200 C  
BRANCH   4   5
HETATM    5  C   UNL     1     -10.601  10.951  68.684  1.00  0.00    -0.195 C  
BRANCH   5   6
HETATM    6  N   UNL     1     -10.452   9.815  69.581  1.00  0.00    -0.225 NA 
HETATM    7  C   UNL     1      -9.387   8.933  69.661  1.00  0.00    -0.163 A  
HETATM    8  N   UNL     1      -9.598   8.028  70.597  1.00  0.00    -0.166 NA 
HETATM    9  C   UNL     1     -12.661   9.907  70.862  1.00  0.00    -0.392 A  
HETATM   10  C   UNL     1     -10.826   8.313  71.130  1.00  0.00    -0.233 A  
HETATM   11  C   UNL     1     -11.396   9.418  70.507  1.00  0.00    -0.274 A  
HETATM   12  C   UNL     1     -13.339   9.248  71.894  1.00  0.00    -0.498 A  
HETATM   13  C   UNL     1     -11.525   7.658  72.155  1.00  0.00    -0.345 A  
HETATM   14  C   UNL     1     -12.783   8.140  72.532  1.00  0.00    -0.159 A  
BRANCH   7  15
HETATM   15  C   UNL     1      -8.176   8.987  68.786  1.00  0.00    -0.117 C  
HETATM   16  C   UNL     1      -7.189   9.305  66.530  1.00  0.00    -0.086 C  
HETATM   17  C   UNL     1      -5.841   9.771  68.510  1.00  0.00    -0.039 C  
HETATM   18  C   UNL     1      -7.105   9.917  69.358  1.00  0.00    -0.067 C  
HETATM   19  N   UNL     1      -6.039  10.052  67.078  1.00  0.00    -0.055 NA 
HETATM   20  C   UNL     1      -8.478   9.429  67.353  1.00  0.00    -0.125 C  
BRANCH  19  21
HETATM   21  C   UNL     1      -6.150  11.487  66.774  1.00  0.00    -0.147 C  
BRANCH  21  22
HETATM   22  C   UNL     1      -6.196  12.380  68.028  1.00  0.00    -0.082 C  
BRANCH  22  23
HETATM   23  C   UNL     1      -7.340  13.356  67.928  1.00  0.00    -0.140 A  
HETATM   24  C   UNL     1      -7.456  14.401  68.849  1.00  0.00    -0.132 A  
HETATM   25  C   UNL     1      -8.583  15.221  68.845  1.00  0.00    -0.207 A  
HETATM   26  C   UNL     1      -9.624  15.017  67.920  1.00  0.00    -0.203 A  
HETATM   27  C   UNL     1      -8.337  13.175  66.973  1.00  0.00    -0.094 A  
HETATM   28  C   UNL     1      -9.461  14.000  66.963  1.00  0.00    -0.253 A  
BRANCH  26  29
HETATM   29  C   UNL     1     -10.923  15.834  68.038  1.00  0.00    -0.330 C  
HETATM   30  C   UNL     1     -11.812  15.367  69.205  1.00  0.00    -0.335 C  
HETATM   31  C   UNL     1     -10.567  17.321  68.264  1.00  0.00    -0.383 C  
HETATM   32  C   UNL     1     -11.814  15.750  66.782  1.00  0.00     0.648 C  
HETATM   33  O   UNL     1     -11.766  14.037  69.468  1.00  0.00    -0.273 OA 
HETATM   34  O   UNL     1     -12.567  16.096  69.830  1.00  0.00    -0.104 OA 
ENDBRANCH  26  29
ENDBRANCH  22  23
ENDBRANCH  21  22
ENDBRANCH  19  21
ENDBRANCH   7  15
ENDBRANCH   5   6
ENDBRANCH   4   5
ENDBRANCH   3   4
ENDBRANCH   2   3
TORSDOF 9
ENDMDL
MODEL      163
REMARK 921   NORMALIZED FREE ENERGY PREDICTED BY IDOCK:   -4.50 KCAL/MOL
REMARK 922        TOTAL FREE ENERGY PREDICTED BY IDOCK:   -7.05 KCAL/MOL
REMARK 923 INTER-LIGAND FREE ENERGY PREDICTED BY IDOCK:   -7.36 KCAL/MOL
REMARK 924 INTRA-LIGAND FREE ENERGY PREDICTED BY IDOCK:    0.31 KCAL/MOL
REMARK 927      BINDING AFFINITY PREDICTED BY RF-SCORE:    0.00 PKD
ROOT
HETATM    1  C   UNL     1      -5.869  14.748  70.573  1.00  0.00    -0.157 C  
HETATM    2  C   UNL     1      -5.405  13.727  69.552  1.00  0.00    -0.085 C  
ENDROOT
BRANCH   2   3
HETATM    3  O   UNL     1      -6.466  13.411  68.643  1.00  0.00    -0.078 OA 
BRANCH   3   4
HETATM    4  C   UNL     1      -7.514  14.386  68.741  1.00  0.00    -0.133 C  
BRANCH   4   5
HETATM    5  C   UNL     1      -8.069  14.727  67.359  1.00  0.00    -0.198 C  
BRANCH   5   6
HETATM    6  N   UNL     1      -9.047  15.804  67.390  1.00  0.00    -0.194 NA 
HETATM    7  C   UNL     1     -10.400  15.730  67.099  1.00  0.00    -0.291 A  
HETATM    8  N   UNL     1     -10.975  16.908  67.240  1.00  0.00    -0.115 NA 
HETATM    9  C   UNL     1      -7.577  17.784  68.060  1.00  0.00    -0.236 A  
HETATM   10  C   UNL     1      -9.981  17.772  67.616  1.00  0.00    -0.322 A  
HETATM   11  C   UNL     1      -8.758  17.117  67.706  1.00  0.00    -0.220 A  
HETATM   12  C   UNL     1      -7.671  19.151  68.345  1.00  0.00    -0.359 A  
HETATM   13  C   UNL     1     -10.055  19.145  67.893  1.00  0.00    -0.472 A  
HETATM   14  C   UNL     1      -8.889  19.825  68.262  1.00  0.00    -0.329 A  
BRANCH   7  15
HETATM   15  C   UNL     1     -11.103  14.485  66.662  1.00  0.00    -0.333 C  
HETATM   16  C   UNL     1     -11.480  12.748  64.928  1.00  0.00    -0.320 C  
HETATM   17  C   UNL     1     -11.898  12.220  67.274  1.00  0.00    -0.260 C  
HETATM   18  C   UNL     1     -11.004  13.380  67.713  1.00  0.00    -0.281 C  
HETATM   19  N   UNL     1     -11.575  11.678  65.943  1.00  0.00    -0.320 NA 
HETATM   20  C   UNL     1     -10.588  13.930  65.332  1.00  0.00    -0.344 C  
BRANCH  19  21
HETATM   21  C   UNL     1     -10.371  10.833  65.932  1.00  0.00    -0.238 C  
BRANCH  21  22
HETATM   22  C   UNL     1      -9.896  10.421  67.338  1.00  0.00    -0.210 C  
BRANCH  22  23
HETATM   23  C   UNL     1      -9.654   8.935  67.389  1.00  0.00    -0.201 A  
HETATM   24  C   UNL     1      -8.411   8.438  67.790  1.00  0.00    -0.130 A  
HETATM   25  C   UNL     1      -8.137   7.074  67.707  1.00  0.00    -0.114 A  
HETATM   26  C   UNL     1      -9.102   6.171  67.221  1.00  0.00    -0.115 A  
HETATM   27  C   UNL     1     -10.636   8.047  66.956  1.00  0.00    -0.364 A  
HETATM   28  C   UNL     1     -10.366   6.681  66.881  1.00  0.00    -0.324 A  
BRANCH  26  29
HETATM   29  C   UNL     1      -8.722   4.696  66.993  1.00  0.00    -0.104 C  
HETATM   30  C   UNL     1      -7.206   4.453  67.099  1.00  0.00    -0.069 C  
HETATM   31  C   UNL     1      -9.428   3.822  68.054  1.00  0.00    -0.221 C  
HETATM   32  C   UNL     1      -9.128   4.168  65.602  1.00  0.00    -0.137 C  
HETATM   33  O   UNL     1      -6.426   5.477  66.669  1.00  0.00    -0.047 OA 
HETATM   34  O   UNL     1      -6.700   3.406  67.474  1.00  0.00    -0.041 OA 
ENDBRANCH  26  29
ENDBRANCH  22  23
ENDBRANCH  21  22
ENDBRANCH  19  21
ENDBRANCH   7  15
ENDBRANCH   5   6
ENDBRANCH   4   5
ENDBRANCH   3   4
ENDBRANCH   2   3
TORSDOF 9
ENDMDL
MODEL      164
REMARK 921   NORMALIZED FREE ENERGY PREDICTED BY IDOCK:   -4.41 KCAL/MOL
REMARK 922        TOTAL FREE ENERGY PREDICTED BY IDOCK:   -6.91 KCAL/MOL
REMARK 923 INTER-LIGAND FREE ENERGY PREDICTED BY IDOCK:   -5.67 KCAL/MOL
REMARK 924 INTRA-LIGAND FREE ENERGY PREDICTED BY IDOCK:   -1.24 KCAL/MOL
REMARK 927      BINDING AFFINITY PREDICTED BY RF-SCORE:    0.00 PKD
ROOT
HETATM    1  C   UNL     1      -6.540  16.859  68.992  1.00  0.00    -0.209 C  
HETATM    2  C   UNL     1      -7.683  16.981  68.003  1.00  0.00    -0.180 C  
ENDROOT
BRANCH   2   3
HETATM    3  O   UNL     1      -8.941  16.826  68.670  1.00  0.00    -0.235 OA 
BRANCH   3   4
HETATM    4  C   UNL     1      -9.735  15.830  68.011  1.00  0.00    -0.212 C  
BRANCH   4   5
HETATM    5  C   UNL     1      -9.195  15.545  66.610  1.00  0.00    -0.271 C  
BRANCH   5   6
HETATM    6  N   UNL     1      -9.431  14.175  66.178  1.00  0.00    -0.246 NA 
HETATM    7  C   UNL     1      -8.683  13.050  66.485  1.00  0.00     0.075 A  
HETATM    8  N   UNL     1      -9.200  11.976  65.920  1.00  0.00    -0.159 NA 
HETATM    9  C   UNL     1     -11.505  14.470  64.715  1.00  0.00    -0.408 A  
HETATM   10  C   UNL     1     -10.296  12.406  65.220  1.00  0.00    -0.282 A  
HETATM   11  C   UNL     1     -10.461  13.781  65.348  1.00  0.00    -0.331 A  
HETATM   12  C   UNL     1     -12.403  13.717  63.951  1.00  0.00    -0.375 A  
HETATM   13  C   UNL     1     -11.198  11.668  64.440  1.00  0.00    -0.360 A  
HETATM   14  C   UNL     1     -12.254  12.337  63.812  1.00  0.00    -0.642 A  
BRANCH   7  15
HETATM   15  C   UNL     1      -7.445  13.060  67.323  1.00  0.00    -0.083 C  
HETATM   16  C   UNL     1      -6.393  12.987  69.572  1.00  0.00    -0.103 C  
HETATM   17  C   UNL     1      -5.130  12.230  67.625  1.00  0.00    -0.088 C  
HETATM   18  C   UNL     1      -6.426  12.027  66.840  1.00  0.00    -0.060 C  
HETATM   19  N   UNL     1      -5.287  12.136  69.086  1.00  0.00    -0.058 NA 
HETATM   20  C   UNL     1      -7.713  12.810  68.809  1.00  0.00     0.007 C  
BRANCH  19  21
HETATM   21  C   UNL     1      -5.435  10.755  69.571  1.00  0.00    -0.038 C  
BRANCH  21  22
HETATM   22  C   UNL     1      -6.837  10.444  70.127  1.00  0.00    -0.155 C  
BRANCH  22  23
HETATM   23  C   UNL     1      -7.238   9.038  69.765  1.00  0.00    -0.056 A  
HETATM   24  C   UNL     1      -7.179   8.021  70.722  1.00  0.00    -0.053 A  
HETATM   25  C   UNL     1      -7.416   6.697  70.358  1.00  0.00    -0.090 A  
HETATM   26  C   UNL     1      -7.720   6.355  69.026  1.00  0.00    -0.101 A  
HETATM   27  C   UNL     1      -7.591   8.722  68.455  1.00  0.00    -0.098 A  
HETATM   28  C   UNL     1      -7.836   7.398  68.092  1.00  0.00    -0.122 A  
BRANCH  26  29
HETATM   29  C   UNL     1      -7.823   4.873  68.622  1.00  0.00    -0.077 C  
HETATM   30  C   UNL     1      -9.274   4.432  68.360  1.00  0.00    -0.137 C  
HETATM   31  C   UNL     1      -7.005   4.643  67.331  1.00  0.00    -0.061 C  
HETATM   32  C   UNL     1      -7.287   3.907  69.698  1.00  0.00    -0.049 C  
HETATM   33  O   UNL     1     -10.210   5.040  69.131  1.00  0.00    -0.207 OA 
HETATM   34  O   UNL     1      -9.596   3.556  67.571  1.00  0.00    -0.207 OA 
ENDBRANCH  26  29
ENDBRANCH  22  23
ENDBRANCH  21  22
ENDBRANCH  19  21
ENDBRANCH   7  15
ENDBRANCH   5   6
ENDBRANCH   4   5
ENDBRANCH   3   4
ENDBRANCH   2   3
TORSDOF 9
ENDMDL
MODEL      165
REMARK 921   NORMALIZED FREE ENERGY PREDICTED BY IDOCK:   -4.38 KCAL/MOL
REMARK 922        TOTAL FREE ENERGY PREDICTED BY IDOCK:   -6.88 KCAL/MOL
REMARK 923 INTER-LIGAND FREE ENERGY PREDICTED BY IDOCK:   -5.53 KCAL/MOL
REMARK 924 INTRA-LIGAND FREE ENERGY PREDICTED BY IDOCK:   -1.35 KCAL/MOL
REMARK 927      BINDING AFFINITY PREDICTED BY RF-SCORE:    0.00 PKD
ROOT
HETATM    1  C   UNL     1      -6.872   8.245  72.695  1.00  0.00    -0.107 C  
HETATM    2  C   UNL     1      -8.374   8.412  72.815  1.00  0.00    -0.135 C  
ENDROOT
BRANCH   2   3
HETATM    3  O   UNL     1      -9.048   7.569  71.873  1.00  0.00    -0.127 OA 
BRANCH   3   4
HETATM    4  C   UNL     1      -8.701   7.944  70.532  1.00  0.00    -0.136 C  
BRANCH   4   5
HETATM    5  C   UNL     1      -9.782   7.498  69.547  1.00  0.00    -0.164 C  
BRANCH   5   6
HETATM    6  N   UNL     1     -10.090   8.509  68.547  1.00  0.00    -0.189 NA 
HETATM    7  C   UNL     1      -9.786   8.485  67.196  1.00  0.00    -0.192 A  
HETATM    8  N   UNL     1     -10.227   9.574  66.597  1.00  0.00    -0.247 NA 
HETATM    9  C   UNL     1     -11.258  10.276  69.978  1.00  0.00    -0.376 A  
HETATM   10  C   UNL     1     -10.818  10.331  67.573  1.00  0.00    -0.298 A  
HETATM   11  C   UNL     1     -10.738   9.700  68.810  1.00  0.00    -0.206 A  
HETATM   12  C   UNL     1     -11.889  11.519  69.856  1.00  0.00    -0.430 A  
HETATM   13  C   UNL     1     -11.443  11.582  67.471  1.00  0.00    -0.355 A  
HETATM   14  C   UNL     1     -11.981  12.165  68.624  1.00  0.00    -0.290 A  
BRANCH   7  15
HETATM   15  C   UNL     1      -9.036   7.384  66.517  1.00  0.00    -0.195 C  
HETATM   16  C   UNL     1      -7.029   5.927  66.404  1.00  0.00    -0.060 C  
HETATM   17  C   UNL     1      -9.136   5.151  65.447  1.00  0.00    -0.140 C  
HETATM   18  C   UNL     1      -9.914   6.150  66.305  1.00  0.00    -0.058 C  
HETATM   19  N   UNL     1      -7.836   4.753  66.012  1.00  0.00    -0.095 NA 
HETATM   20  C   UNL     1      -7.775   6.952  67.268  1.00  0.00    -0.109 C  
BRANCH  19  21
HETATM   21  C   UNL     1      -7.950   3.798  67.126  1.00  0.00    -0.091 C  
BRANCH  21  22
HETATM   22  C   UNL     1      -6.914   4.028  68.242  1.00  0.00    -0.048 C  
BRANCH  22  23
HETATM   23  C   UNL     1      -7.572   3.911  69.592  1.00  0.00    -0.052 A  
HETATM   24  C   UNL     1      -8.744   3.164  69.742  1.00  0.00    -0.129 A  
HETATM   25  C   UNL     1      -9.431   3.166  70.954  1.00  0.00    -0.230 A  
HETATM   26  C   UNL     1      -8.962   3.913  72.051  1.00  0.00    -0.150 A  
HETATM   27  C   UNL     1      -7.067   4.612  70.685  1.00  0.00    -0.041 A  
HETATM   28  C   UNL     1      -7.749   4.607  71.901  1.00  0.00    -0.097 A  
BRANCH  26  29
HETATM   29  C   UNL     1      -9.819   4.021  73.325  1.00  0.00    -0.173 C  
HETATM   30  C   UNL     1     -11.211   4.620  73.053  1.00  0.00    -0.226 C  
HETATM   31  C   UNL     1     -10.007   2.611  73.930  1.00  0.00    -0.154 C  
HETATM   32  C   UNL     1      -9.190   4.918  74.411  1.00  0.00    -0.118 C  
HETATM   33  O   UNL     1     -11.255   5.552  72.068  1.00  0.00    -0.235 OA 
HETATM   34  O   UNL     1     -12.214   4.352  73.695  1.00  0.00     0.126 OA 
ENDBRANCH  26  29
ENDBRANCH  22  23
ENDBRANCH  21  22
ENDBRANCH  19  21
ENDBRANCH   7  15
ENDBRANCH   5   6
ENDBRANCH   4   5
ENDBRANCH   3   4
ENDBRANCH   2   3
TORSDOF 9
ENDMDL
MODEL      166
REMARK 921   NORMALIZED FREE ENERGY PREDICTED BY IDOCK:   -4.33 KCAL/MOL
REMARK 922        TOTAL FREE ENERGY PREDICTED BY IDOCK:   -6.80 KCAL/MOL
REMARK 923 INTER-LIGAND FREE ENERGY PREDICTED BY IDOCK:   -6.11 KCAL/MOL
REMARK 924 INTRA-LIGAND FREE ENERGY PREDICTED BY IDOCK:   -0.68 KCAL/MOL
REMARK 927      BINDING AFFINITY PREDICTED BY RF-SCORE:    0.00 PKD
ROOT
HETATM    1  C   UNL     1     -10.931  17.532  68.163  1.00  0.00    -0.128 C  
HETATM    2  C   UNL     1     -11.123  16.334  69.073  1.00  0.00    -0.331 C  
ENDROOT
BRANCH   2   3
HETATM    3  O   UNL     1     -11.047  15.117  68.321  1.00  0.00    -0.267 OA 
BRANCH   3   4
HETATM    4  C   UNL     1     -11.517  15.329  66.982  1.00  0.00    -0.167 C  
BRANCH   4   5
HETATM    5  C   UNL     1     -10.486  14.848  65.962  1.00  0.00    -0.316 C  
BRANCH   5   6
HETATM    6  N   UNL     1      -9.211  14.494  66.568  1.00  0.00    -0.269 NA 
HETATM    7  C   UNL     1      -8.828  13.266  67.083  1.00  0.00    -0.222 A  
HETATM    8  N   UNL     1      -7.595  13.317  67.547  1.00  0.00    -0.164 NA 
HETATM    9  C   UNL     1      -7.973  16.727  66.446  1.00  0.00    -0.356 A  
HETATM   10  C   UNL     1      -7.166  14.601  67.345  1.00  0.00    -0.154 A  
HETATM   11  C   UNL     1      -8.158  15.370  66.746  1.00  0.00    -0.177 A  
HETATM   12  C   UNL     1      -6.730  17.290  66.754  1.00  0.00    -0.249 A  
HETATM   13  C   UNL     1      -5.930  15.185  67.658  1.00  0.00    -0.104 A  
HETATM   14  C   UNL     1      -5.722  16.535  67.352  1.00  0.00    -0.188 A  
BRANCH   7  15
HETATM   15  C   UNL     1      -9.707  12.058  67.128  1.00  0.00    -0.203 C  
HETATM   16  C   UNL     1     -10.073   9.667  66.566  1.00  0.00    -0.244 C  
HETATM   17  C   UNL     1     -11.241  10.649  68.470  1.00  0.00    -0.282 C  
HETATM   18  C   UNL     1     -10.211  11.776  68.543  1.00  0.00    -0.215 C  
HETATM   19  N   UNL     1     -10.736   9.408  67.860  1.00  0.00    -0.238 NA 
HETATM   20  C   UNL     1      -9.030  10.791  66.600  1.00  0.00    -0.164 C  
BRANCH  19  21
HETATM   21  C   UNL     1      -9.862   8.631  68.753  1.00  0.00    -0.172 C  
BRANCH  21  22
HETATM   22  C   UNL     1      -8.453   8.391  68.178  1.00  0.00    -0.132 C  
BRANCH  22  23
HETATM   23  C   UNL     1      -8.330   6.974  67.683  1.00  0.00    -0.117 A  
HETATM   24  C   UNL     1      -7.594   6.692  66.528  1.00  0.00    -0.090 A  
HETATM   25  C   UNL     1      -7.591   5.407  65.990  1.00  0.00    -0.087 A  
HETATM   26  C   UNL     1      -8.324   4.368  66.594  1.00  0.00    -0.105 A  
HETATM   27  C   UNL     1      -9.016   5.943  68.321  1.00  0.00    -0.112 A  
HETATM   28  C   UNL     1      -9.007   4.655  67.788  1.00  0.00    -0.126 A  
BRANCH  26  29
HETATM   29  C   UNL     1      -8.429   3.000  65.895  1.00  0.00    -0.110 C  
HETATM   30  C   UNL     1      -9.342   3.038  64.656  1.00  0.00    -0.147 C  
HETATM   31  C   UNL     1      -7.020   2.551  65.446  1.00  0.00    -0.052 C  
HETATM   32  C   UNL     1      -9.009   1.894  66.800  1.00  0.00    -0.120 C  
HETATM   33  O   UNL     1     -10.392   3.892  64.740  1.00  0.00    -0.213 OA 
HETATM   34  O   UNL     1      -9.204   2.321  63.676  1.00  0.00    -0.093 OA 
ENDBRANCH  26  29
ENDBRANCH  22  23
ENDBRANCH  21  22
ENDBRANCH  19  21
ENDBRANCH   7  15
ENDBRANCH   5   6
ENDBRANCH   4   5
ENDBRANCH   3   4
ENDBRANCH   2   3
TORSDOF 9
ENDMDL
MODEL      167
REMARK 921   NORMALIZED FREE ENERGY PREDICTED BY IDOCK:   -4.32 KCAL/MOL
REMARK 922        TOTAL FREE ENERGY PREDICTED BY IDOCK:   -6.78 KCAL/MOL
REMARK 923 INTER-LIGAND FREE ENERGY PREDICTED BY IDOCK:   -5.71 KCAL/MOL
REMARK 924 INTRA-LIGAND FREE ENERGY PREDICTED BY IDOCK:   -1.07 KCAL/MOL
REMARK 927      BINDING AFFINITY PREDICTED BY RF-SCORE:    0.00 PKD
ROOT
HETATM    1  C   UNL     1      -6.099   8.664  72.570  1.00  0.00    -0.079 C  
HETATM    2  C   UNL     1      -7.331   7.789  72.449  1.00  0.00    -0.084 C  
ENDROOT
BRANCH   2   3
HETATM    3  O   UNL     1      -7.204   6.896  71.336  1.00  0.00    -0.077 OA 
BRANCH   3   4
HETATM    4  C   UNL     1      -6.558   7.557  70.238  1.00  0.00    -0.039 C  
BRANCH   4   5
HETATM    5  C   UNL     1      -7.499   7.661  69.038  1.00  0.00    -0.095 C  
BRANCH   5   6
HETATM    6  N   UNL     1      -6.896   8.337  67.900  1.00  0.00    -0.065 NA 
HETATM    7  C   UNL     1      -6.642   7.817  66.641  1.00  0.00    -0.054 A  
HETATM    8  N   UNL     1      -6.089   8.725  65.862  1.00  0.00    -0.051 NA 
HETATM    9  C   UNL     1      -6.422  10.643  68.893  1.00  0.00    -0.049 A  
HETATM   10  C   UNL     1      -5.965   9.855  66.625  1.00  0.00    -0.055 A  
HETATM   11  C   UNL     1      -6.448   9.643  67.911  1.00  0.00    -0.061 A  
HETATM   12  C   UNL     1      -5.904  11.891  68.528  1.00  0.00    -0.049 A  
HETATM   13  C   UNL     1      -5.438  11.108  66.278  1.00  0.00    -0.142 A  
HETATM   14  C   UNL     1      -5.418  12.123  67.242  1.00  0.00    -0.124 A  
BRANCH   7  15
HETATM   15  C   UNL     1      -6.934   6.408  66.234  1.00  0.00    -0.066 C  
HETATM   16  C   UNL     1      -7.167   4.015  66.855  1.00  0.00    -0.068 C  
HETATM   17  C   UNL     1      -8.369   4.878  64.915  1.00  0.00    -0.138 C  
HETATM   18  C   UNL     1      -8.241   6.305  65.448  1.00  0.00    -0.142 C  
HETATM   19  N   UNL     1      -8.325   3.838  65.956  1.00  0.00    -0.108 NA 
HETATM   20  C   UNL     1      -7.006   5.435  67.413  1.00  0.00    -0.065 C  
BRANCH  19  21
HETATM   21  C   UNL     1      -9.575   3.726  66.724  1.00  0.00    -0.180 C  
BRANCH  21  22
HETATM   22  C   UNL     1      -9.355   3.403  68.214  1.00  0.00    -0.239 C  
BRANCH  22  23
HETATM   23  C   UNL     1      -9.814   4.556  69.067  1.00  0.00    -0.202 A  
HETATM   24  C   UNL     1      -9.618   4.529  70.451  1.00  0.00    -0.270 A  
HETATM   25  C   UNL     1     -10.162   5.525  71.259  1.00  0.00    -0.283 A  
HETATM   26  C   UNL     1     -10.916   6.577  70.704  1.00  0.00    -0.340 A  
HETATM   27  C   UNL     1     -10.512   5.619  68.499  1.00  0.00    -0.273 A  
HETATM   28  C   UNL     1     -11.049   6.621  69.306  1.00  0.00    -0.345 A  
BRANCH  26  29
HETATM   29  C   UNL     1     -11.635   7.575  71.630  1.00  0.00    -0.299 C  
HETATM   30  C   UNL     1     -11.311   9.040  71.285  1.00  0.00    -0.319 C  
HETATM   31  C   UNL     1     -13.162   7.373  71.505  1.00  0.00    -0.426 C  
HETATM   32  C   UNL     1     -11.258   7.409  73.117  1.00  0.00    -0.294 C  
HETATM   33  O   UNL     1     -10.057   9.259  70.818  1.00  0.00    -0.245 OA 
HETATM   34  O   UNL     1     -12.075   9.976  71.466  1.00  0.00    -0.381 OA 
ENDBRANCH  26  29
ENDBRANCH  22  23
ENDBRANCH  21  22
ENDBRANCH  19  21
ENDBRANCH   7  15
ENDBRANCH   5   6
ENDBRANCH   4   5
ENDBRANCH   3   4
ENDBRANCH   2   3
TORSDOF 9
ENDMDL
MODEL      168
REMARK 921   NORMALIZED FREE ENERGY PREDICTED BY IDOCK:   -4.30 KCAL/MOL
REMARK 922        TOTAL FREE ENERGY PREDICTED BY IDOCK:   -6.75 KCAL/MOL
REMARK 923 INTER-LIGAND FREE ENERGY PREDICTED BY IDOCK:   -6.46 KCAL/MOL
REMARK 924 INTRA-LIGAND FREE ENERGY PREDICTED BY IDOCK:   -0.28 KCAL/MOL
REMARK 927      BINDING AFFINITY PREDICTED BY RF-SCORE:    0.00 PKD
ROOT
HETATM    1  C   UNL     1     -11.417  15.952  64.355  1.00  0.00    -0.268 C  
HETATM    2  C   UNL     1     -10.909  15.720  65.764  1.00  0.00    -0.280 C  
ENDROOT
BRANCH   2   3
HETATM    3  O   UNL     1     -10.427  16.945  66.331  1.00  0.00    -0.305 OA 
BRANCH   3   4
HETATM    4  C   UNL     1     -10.748  17.007  67.728  1.00  0.00    -0.318 C  
BRANCH   4   5
HETATM    5  C   UNL     1      -9.700  16.267  68.559  1.00  0.00    -0.224 C  
BRANCH   5   6
HETATM    6  N   UNL     1      -8.347  16.440  68.050  1.00  0.00    -0.175 NA 
HETATM    7  C   UNL     1      -7.545  15.492  67.436  1.00  0.00    -0.201 A  
HETATM    8  N   UNL     1      -6.379  16.010  67.102  1.00  0.00    -0.303 NA 
HETATM    9  C   UNL     1      -7.904  18.884  68.650  1.00  0.00    -0.375 A  
HETATM   10  C   UNL     1      -6.412  17.315  67.516  1.00  0.00    -0.141 A  
HETATM   11  C   UNL     1      -7.625  17.614  68.126  1.00  0.00    -0.234 A  
HETATM   12  C   UNL     1      -6.915  19.865  68.521  1.00  0.00    -0.339 A  
HETATM   13  C   UNL     1      -5.427  18.307  67.405  1.00  0.00    -0.146 A  
HETATM   14  C   UNL     1      -5.694  19.584  67.910  1.00  0.00    -0.217 A  
BRANCH   7  15
HETATM   15  C   UNL     1      -7.942  14.068  67.208  1.00  0.00    -0.157 C  
HETATM   16  C   UNL     1      -7.285  11.688  66.944  1.00  0.00    -0.125 C  
HETATM   17  C   UNL     1      -9.524  12.238  67.743  1.00  0.00    -0.197 C  
HETATM   18  C   UNL     1      -9.052  13.630  68.164  1.00  0.00    -0.195 C  
HETATM   19  N   UNL     1      -8.458  11.222  67.711  1.00  0.00    -0.123 NA 
HETATM   20  C   UNL     1      -6.780  13.082  67.339  1.00  0.00    -0.123 C  
BRANCH  19  21
HETATM   21  C   UNL     1      -8.060  10.750  69.046  1.00  0.00    -0.140 C  
BRANCH  21  22
HETATM   22  C   UNL     1      -9.053   9.747  69.665  1.00  0.00    -0.235 C  
BRANCH  22  23
HETATM   23  C   UNL     1      -8.931   8.409  68.983  1.00  0.00    -0.147 A  
HETATM   24  C   UNL     1      -9.700   8.123  67.851  1.00  0.00    -0.191 A  
HETATM   25  C   UNL     1      -9.693   6.843  67.301  1.00  0.00    -0.184 A  
HETATM   26  C   UNL     1      -8.917   5.815  67.868  1.00  0.00    -0.111 A  
HETATM   27  C   UNL     1      -8.117   7.416  69.523  1.00  0.00    -0.129 A  
HETATM   28  C   UNL     1      -8.104   6.138  68.967  1.00  0.00    -0.112 A  
BRANCH  26  29
HETATM   29  C   UNL     1      -9.048   4.376  67.336  1.00  0.00    -0.148 C  
HETATM   30  C   UNL     1      -7.744   3.859  66.701  1.00  0.00    -0.089 C  
HETATM   31  C   UNL     1      -9.424   3.437  68.504  1.00  0.00    -0.209 C  
HETATM   32  C   UNL     1     -10.126   4.224  66.244  1.00  0.00    -0.196 C  
HETATM   33  O   UNL     1      -6.998   4.800  66.071  1.00  0.00    -0.063 OA 
HETATM   34  O   UNL     1      -7.402   2.686  66.686  1.00  0.00    -0.067 OA 
ENDBRANCH  26  29
ENDBRANCH  22  23
ENDBRANCH  21  22
ENDBRANCH  19  21
ENDBRANCH   7  15
ENDBRANCH   5   6
ENDBRANCH   4   5
ENDBRANCH   3   4
ENDBRANCH   2   3
TORSDOF 9
ENDMDL
MODEL      169
REMARK 921   NORMALIZED FREE ENERGY PREDICTED BY IDOCK:   -4.28 KCAL/MOL
REMARK 922        TOTAL FREE ENERGY PREDICTED BY IDOCK:   -6.71 KCAL/MOL
REMARK 923 INTER-LIGAND FREE ENERGY PREDICTED BY IDOCK:   -6.18 KCAL/MOL
REMARK 924 INTRA-LIGAND FREE ENERGY PREDICTED BY IDOCK:   -0.53 KCAL/MOL
REMARK 927      BINDING AFFINITY PREDICTED BY RF-SCORE:    0.00 PKD
ROOT
HETATM    1  C   UNL     1     -11.097  10.547  69.233  1.00  0.00    -0.298 C  
HETATM    2  C   UNL     1     -11.131   9.037  69.105  1.00  0.00     0.098 C  
ENDROOT
BRANCH   2   3
HETATM    3  O   UNL     1      -9.803   8.501  69.146  1.00  0.00    -0.177 OA 
BRANCH   3   4
HETATM    4  C   UNL     1      -9.841   7.068  69.077  1.00  0.00    -0.154 C  
BRANCH   4   5
HETATM    5  C   UNL     1      -8.428   6.487  69.073  1.00  0.00    -0.125 C  
BRANCH   5   6
HETATM    6  N   UNL     1      -8.402   5.057  68.805  1.00  0.00    -0.084 NA 
HETATM    7  C   UNL     1      -7.994   4.420  67.645  1.00  0.00    -0.092 A  
HETATM    8  N   UNL     1      -8.106   3.111  67.765  1.00  0.00    -0.078 NA 
HETATM    9  C   UNL     1      -9.341   4.130  70.993  1.00  0.00    -0.219 A  
HETATM   10  C   UNL     1      -8.607   2.887  69.019  1.00  0.00    -0.074 A  
HETATM   11  C   UNL     1      -8.818   4.085  69.693  1.00  0.00    -0.086 A  
HETATM   12  C   UNL     1      -9.631   2.908  71.612  1.00  0.00    -0.222 A  
HETATM   13  C   UNL     1      -8.915   1.673  69.650  1.00  0.00    -0.135 A  
HETATM   14  C   UNL     1      -9.424   1.697  70.953  1.00  0.00    -0.192 A  
BRANCH   7  15
HETATM   15  C   UNL     1      -7.517   5.125  66.415  1.00  0.00    -0.087 C  
HETATM   16  C   UNL     1      -7.937   5.859  64.081  1.00  0.00    -0.122 C  
HETATM   17  C   UNL     1      -6.355   7.097  65.467  1.00  0.00    -0.037 C  
HETATM   18  C   UNL     1      -6.990   6.524  66.734  1.00  0.00    -0.067 C  
HETATM   19  N   UNL     1      -7.264   7.154  64.309  1.00  0.00    -0.066 NA 
HETATM   20  C   UNL     1      -8.589   5.252  65.331  1.00  0.00    -0.149 C  
BRANCH  19  21
HETATM   21  C   UNL     1      -8.242   8.249  64.386  1.00  0.00    -0.127 C  
BRANCH  21  22
HETATM   22  C   UNL     1      -7.715   9.494  65.125  1.00  0.00    -0.112 C  
BRANCH  22  23
HETATM   23  C   UNL     1      -8.832  10.482  65.338  1.00  0.00    -0.203 A  
HETATM   24  C   UNL     1      -9.905  10.536  64.444  1.00  0.00    -0.405 A  
HETATM   25  C   UNL     1     -10.868  11.536  64.558  1.00  0.00    -0.390 A  
HETATM   26  C   UNL     1     -10.783  12.510  65.571  1.00  0.00    -0.303 A  
HETATM   27  C   UNL     1      -8.764  11.407  66.378  1.00  0.00    -0.185 A  
HETATM   28  C   UNL     1      -9.732  12.404  66.497  1.00  0.00    -0.245 A  
BRANCH  26  29
HETATM   29  C   UNL     1     -11.770  13.692  65.580  1.00  0.00    -0.352 C  
HETATM   30  C   UNL     1     -11.304  14.859  64.690  1.00  0.00    -0.357 C  
HETATM   31  C   UNL     1     -13.144  13.208  65.064  1.00  0.00    -0.026 C  
HETATM   32  C   UNL     1     -11.982  14.301  66.981  1.00  0.00    -0.463 C  
HETATM   33  O   UNL     1      -9.961  15.037  64.630  1.00  0.00    -0.088 OA 
HETATM   34  O   UNL     1     -12.056  15.631  64.116  1.00  0.00    -0.556 OA 
ENDBRANCH  26  29
ENDBRANCH  22  23
ENDBRANCH  21  22
ENDBRANCH  19  21
ENDBRANCH   7  15
ENDBRANCH   5   6
ENDBRANCH   4   5
ENDBRANCH   3   4
ENDBRANCH   2   3
TORSDOF 9
ENDMDL
MODEL      170
REMARK 921   NORMALIZED FREE ENERGY PREDICTED BY IDOCK:   -4.26 KCAL/MOL
REMARK 922        TOTAL FREE ENERGY PREDICTED BY IDOCK:   -6.69 KCAL/MOL
REMARK 923 INTER-LIGAND FREE ENERGY PREDICTED BY IDOCK:   -6.37 KCAL/MOL
REMARK 924 INTRA-LIGAND FREE ENERGY PREDICTED BY IDOCK:   -0.32 KCAL/MOL
REMARK 927      BINDING AFFINITY PREDICTED BY RF-SCORE:    0.00 PKD
ROOT
HETATM    1  C   UNL     1     -11.567  12.379  66.151  1.00  0.00    -0.452 C  
HETATM    2  C   UNL     1     -10.990  11.918  64.826  1.00  0.00    -0.312 C  
ENDROOT
BRANCH   2   3
HETATM    3  O   UNL     1     -10.579  10.548  64.909  1.00  0.00    -0.247 OA 
BRANCH   3   4
HETATM    4  C   UNL     1      -9.449  10.419  65.784  1.00  0.00    -0.198 C  
BRANCH   4   5
HETATM    5  C   UNL     1      -8.147  10.369  64.986  1.00  0.00    -0.136 C  
BRANCH   5   6
HETATM    6  N   UNL     1      -7.318   9.221  65.324  1.00  0.00    -0.093 NA 
HETATM    7  C   UNL     1      -6.424   9.102  66.375  1.00  0.00    -0.066 A  
HETATM    8  N   UNL     1      -5.854   7.913  66.372  1.00  0.00    -0.040 NA 
HETATM    9  C   UNL     1      -7.943   7.596  63.454  1.00  0.00    -0.093 A  
HETATM   10  C   UNL     1      -6.372   7.246  65.294  1.00  0.00    -0.038 A  
HETATM   11  C   UNL     1      -7.282   8.042  64.606  1.00  0.00    -0.079 A  
HETATM   12  C   UNL     1      -7.669   6.294  63.018  1.00  0.00    -0.093 A  
HETATM   13  C   UNL     1      -6.100   5.949  64.836  1.00  0.00    -0.026 A  
HETATM   14  C   UNL     1      -6.762   5.481  63.695  1.00  0.00    -0.033 A  
BRANCH   7  15
HETATM   15  C   UNL     1      -6.130  10.185  67.363  1.00  0.00    -0.057 C  
HETATM   16  C   UNL     1      -5.669  12.581  67.823  1.00  0.00    -0.116 C  
HETATM   17  C   UNL     1      -6.649  11.186  69.569  1.00  0.00    -0.126 C  
HETATM   18  C   UNL     1      -7.127  10.180  68.522  1.00  0.00    -0.074 C  
HETATM   19  N   UNL     1      -6.479  12.557  69.057  1.00  0.00    -0.091 NA 
HETATM   20  C   UNL     1      -6.119  11.586  66.746  1.00  0.00    -0.147 C  
BRANCH  19  21
HETATM   21  C   UNL     1      -7.752  13.270  68.865  1.00  0.00     0.065 C  
BRANCH  21  22
HETATM   22  C   UNL     1      -8.012  13.682  67.404  1.00  0.00    -0.177 C  
BRANCH  22  23
HETATM   23  C   UNL     1      -8.451  15.122  67.342  1.00  0.00    -0.202 A  
HETATM   24  C   UNL     1      -7.966  15.963  66.336  1.00  0.00    -0.125 A  
HETATM   25  C   UNL     1      -8.260  17.325  66.355  1.00  0.00    -0.317 A  
HETATM   26  C   UNL     1      -9.048  17.882  67.380  1.00  0.00    -0.245 A  
HETATM   27  C   UNL     1      -9.276  15.650  68.332  1.00  0.00    -0.191 A  
HETATM   28  C   UNL     1      -9.577  17.011  68.347  1.00  0.00    -0.277 A  
BRANCH  26  29
HETATM   29  C   UNL     1      -9.227  19.409  67.462  1.00  0.00    -0.375 C  
HETATM   30  C   UNL     1      -7.889  20.153  67.623  1.00  0.00    -0.300 C  
HETATM   31  C   UNL     1      -9.909  19.909  66.169  1.00  0.00    -0.562 C  
HETATM   32  C   UNL     1     -10.094  19.859  68.656  1.00  0.00    -0.518 C  
HETATM   33  O   UNL     1      -6.945  19.495  68.340  1.00  0.00    -0.272 OA 
HETATM   34  O   UNL     1      -7.674  21.282  67.207  1.00  0.00    -0.361 OA 
ENDBRANCH  26  29
ENDBRANCH  22  23
ENDBRANCH  21  22
ENDBRANCH  19  21
ENDBRANCH   7  15
ENDBRANCH   5   6
ENDBRANCH   4   5
ENDBRANCH   3   4
ENDBRANCH   2   3
TORSDOF 9
ENDMDL
MODEL      171
REMARK 921   NORMALIZED FREE ENERGY PREDICTED BY IDOCK:   -4.21 KCAL/MOL
REMARK 922        TOTAL FREE ENERGY PREDICTED BY IDOCK:   -6.61 KCAL/MOL
REMARK 923 INTER-LIGAND FREE ENERGY PREDICTED BY IDOCK:   -5.99 KCAL/MOL
REMARK 924 INTRA-LIGAND FREE ENERGY PREDICTED BY IDOCK:   -0.62 KCAL/MOL
REMARK 927      BINDING AFFINITY PREDICTED BY RF-SCORE:    0.00 PKD
ROOT
HETATM    1  C   UNL     1      -7.046  10.156  64.268  1.00  0.00    -0.102 C  
HETATM    2  C   UNL     1      -8.488   9.690  64.313  1.00  0.00    -0.181 C  
ENDROOT
BRANCH   2   3
HETATM    3  O   UNL     1      -8.572   8.378  64.883  1.00  0.00    -0.161 OA 
BRANCH   3   4
HETATM    4  C   UNL     1      -7.285   7.958  65.358  1.00  0.00    -0.064 C  
BRANCH   4   5
HETATM    5  C   UNL     1      -7.276   7.859  66.883  1.00  0.00    -0.089 C  
BRANCH   5   6
HETATM    6  N   UNL     1      -8.346   7.023  67.405  1.00  0.00    -0.122 NA 
HETATM    7  C   UNL     1      -9.519   7.432  68.018  1.00  0.00    -0.141 A  
HETATM    8  N   UNL     1     -10.258   6.394  68.357  1.00  0.00    -0.160 NA 
HETATM    9  C   UNL     1      -7.429   4.689  66.917  1.00  0.00    -0.086 A  
HETATM   10  C   UNL     1      -9.552   5.285  67.972  1.00  0.00    -0.132 A  
HETATM   11  C   UNL     1      -8.343   5.643  67.385  1.00  0.00    -0.100 A  
HETATM   12  C   UNL     1      -7.783   3.341  67.044  1.00  0.00    -0.079 A  
HETATM   13  C   UNL     1      -9.887   3.929  68.103  1.00  0.00    -0.039 A  
HETATM   14  C   UNL     1      -8.992   2.963  67.628  1.00  0.00    -0.191 A  
BRANCH   7  15
HETATM   15  C   UNL     1      -9.883   8.859  68.280  1.00  0.00    -0.187 C  
HETATM   16  C   UNL     1      -9.186  11.150  68.937  1.00  0.00    -0.096 C  
HETATM   17  C   UNL     1     -11.172  10.846  67.551  1.00  0.00    -0.293 C  
HETATM   18  C   UNL     1     -10.684   9.460  67.126  1.00  0.00    -0.234 C  
HETATM   19  N   UNL     1     -10.096  11.768  67.951  1.00  0.00    -0.182 NA 
HETATM   20  C   UNL     1      -8.674   9.758  68.544  1.00  0.00    -0.120 C  
BRANCH  19  21
HETATM   21  C   UNL     1      -9.343  12.317  66.813  1.00  0.00    -0.218 C  
BRANCH  21  22
HETATM   22  C   UNL     1      -8.058  13.059  67.225  1.00  0.00    -0.164 C  
BRANCH  22  23
HETATM   23  C   UNL     1      -8.286  14.548  67.193  1.00  0.00    -0.214 A  
HETATM   24  C   UNL     1      -7.606  15.383  68.084  1.00  0.00    -0.118 A  
HETATM   25  C   UNL     1      -7.915  16.740  68.152  1.00  0.00    -0.181 A  
HETATM   26  C   UNL     1      -8.912  17.298  67.330  1.00  0.00    -0.233 A  
HETATM   27  C   UNL     1      -9.237  15.096  66.336  1.00  0.00    -0.334 A  
HETATM   28  C   UNL     1      -9.540  16.455  66.398  1.00  0.00    -0.313 A  
BRANCH  26  29
HETATM   29  C   UNL     1      -9.340  18.763  67.534  1.00  0.00    -0.315 C  
HETATM   30  C   UNL     1      -8.518  19.744  66.679  1.00  0.00    -0.333 C  
HETATM   31  C   UNL     1     -10.829  18.913  67.149  1.00  0.00    -0.425 C  
HETATM   32  C   UNL     1      -9.179  19.250  68.989  1.00  0.00    -0.325 C  
HETATM   33  O   UNL     1      -7.225  19.389  66.476  1.00  0.00    -0.214 OA 
HETATM   34  O   UNL     1      -8.942  20.807  66.250  1.00  0.00     0.154 OA 
ENDBRANCH  26  29
ENDBRANCH  22  23
ENDBRANCH  21  22
ENDBRANCH  19  21
ENDBRANCH   7  15
ENDBRANCH   5   6
ENDBRANCH   4   5
ENDBRANCH   3   4
ENDBRANCH   2   3
TORSDOF 9
ENDMDL
MODEL      172
REMARK 921   NORMALIZED FREE ENERGY PREDICTED BY IDOCK:   -4.10 KCAL/MOL
REMARK 922        TOTAL FREE ENERGY PREDICTED BY IDOCK:   -6.44 KCAL/MOL
REMARK 923 INTER-LIGAND FREE ENERGY PREDICTED BY IDOCK:   -5.79 KCAL/MOL
REMARK 924 INTRA-LIGAND FREE ENERGY PREDICTED BY IDOCK:   -0.65 KCAL/MOL
REMARK 927      BINDING AFFINITY PREDICTED BY RF-SCORE:    0.00 PKD
ROOT
HETATM    1  C   UNL     1      -9.295   7.114  66.493  1.00  0.00    -0.208 C  
HETATM    2  C   UNL     1     -10.215   8.313  66.619  1.00  0.00    -0.263 C  
ENDROOT
BRANCH   2   3
HETATM    3  O   UNL     1     -10.646   8.473  67.976  1.00  0.00    -0.207 OA 
BRANCH   3   4
HETATM    4  C   UNL     1     -10.206   9.738  68.491  1.00  0.00    -0.186 C  
BRANCH   4   5
HETATM    5  C   UNL     1      -9.637   9.581  69.901  1.00  0.00    -0.223 C  
BRANCH   5   6
HETATM    6  N   UNL     1      -8.782   8.412  70.041  1.00  0.00    -0.131 NA 
HETATM    7  C   UNL     1      -7.426   8.316  69.773  1.00  0.00    -0.077 A  
HETATM    8  N   UNL     1      -6.984   7.099  70.021  1.00  0.00    -0.060 NA 
HETATM    9  C   UNL     1     -10.465   6.664  70.842  1.00  0.00    -0.249 A  
HETATM   10  C   UNL     1      -8.069   6.381  70.447  1.00  0.00    -0.117 A  
HETATM   11  C   UNL     1      -9.215   7.169  70.458  1.00  0.00    -0.158 A  
HETATM   12  C   UNL     1     -10.523   5.324  71.240  1.00  0.00    -0.274 A  
HETATM   13  C   UNL     1      -8.147   5.036  70.837  1.00  0.00    -0.096 A  
HETATM   14  C   UNL     1      -9.385   4.519  71.238  1.00  0.00    -0.209 A  
BRANCH   7  15
HETATM   15  C   UNL     1      -6.587   9.437  69.248  1.00  0.00    -0.048 C  
HETATM   16  C   UNL     1      -5.715  10.720  67.309  1.00  0.00    -0.046 C  
HETATM   17  C   UNL     1      -5.886  11.802  69.490  1.00  0.00    -0.083 C  
HETATM   18  C   UNL     1      -6.907  10.759  69.947  1.00  0.00    -0.146 C  
HETATM   19  N   UNL     1      -5.839  12.002  68.032  1.00  0.00    -0.050 NA 
HETATM   20  C   UNL     1      -6.725   9.647  67.739  1.00  0.00    -0.066 C  
BRANCH  19  21
HETATM   21  C   UNL     1      -6.967  12.792  67.514  1.00  0.00    -0.149 C  
BRANCH  21  22
HETATM   22  C   UNL     1      -7.806  13.464  68.617  1.00  0.00    -0.073 C  
BRANCH  22  23
HETATM   23  C   UNL     1      -7.564  14.951  68.618  1.00  0.00    -0.124 A  
HETATM   24  C   UNL     1      -8.604  15.833  68.926  1.00  0.00    -0.220 A  
HETATM   25  C   UNL     1      -8.423  17.208  68.794  1.00  0.00    -0.225 A  
HETATM   26  C   UNL     1      -7.196  17.738  68.351  1.00  0.00    -0.250 A  
HETATM   27  C   UNL     1      -6.328  15.464  68.231  1.00  0.00    -0.123 A  
HETATM   28  C   UNL     1      -6.144  16.840  68.107  1.00  0.00    -0.132 A  
BRANCH  26  29
HETATM   29  C   UNL     1      -7.073  19.247  68.066  1.00  0.00    -0.287 C  
HETATM   30  C   UNL     1      -6.232  19.982  69.125  1.00  0.00    -0.320 C  
HETATM   31  C   UNL     1      -6.404  19.448  66.688  1.00  0.00    -0.189 C  
HETATM   32  C   UNL     1      -8.432  19.976  68.040  1.00  0.00    -0.256 C  
HETATM   33  O   UNL     1      -6.330  19.488  70.384  1.00  0.00    -0.197 OA 
HETATM   34  O   UNL     1      -5.563  20.980  68.902  1.00  0.00    -0.347 OA 
ENDBRANCH  26  29
ENDBRANCH  22  23
ENDBRANCH  21  22
ENDBRANCH  19  21
ENDBRANCH   7  15
ENDBRANCH   5   6
ENDBRANCH   4   5
ENDBRANCH   3   4
ENDBRANCH   2   3
TORSDOF 9
ENDMDL
MODEL      173
REMARK 921   NORMALIZED FREE ENERGY PREDICTED BY IDOCK:   -4.09 KCAL/MOL
REMARK 922        TOTAL FREE ENERGY PREDICTED BY IDOCK:   -6.43 KCAL/MOL
REMARK 923 INTER-LIGAND FREE ENERGY PREDICTED BY IDOCK:   -6.32 KCAL/MOL
REMARK 924 INTRA-LIGAND FREE ENERGY PREDICTED BY IDOCK:   -0.12 KCAL/MOL
REMARK 927      BINDING AFFINITY PREDICTED BY RF-SCORE:    0.00 PKD
ROOT
HETATM    1  C   UNL     1      -8.700   4.551  64.889  1.00  0.00    -0.140 C  
HETATM    2  C   UNL     1      -7.379   3.886  65.225  1.00  0.00    -0.069 C  
ENDROOT
BRANCH   2   3
HETATM    3  O   UNL     1      -7.601   2.675  65.959  1.00  0.00    -0.070 OA 
BRANCH   3   4
HETATM    4  C   UNL     1      -7.698   2.956  67.363  1.00  0.00    -0.069 C  
BRANCH   4   5
HETATM    5  C   UNL     1      -9.145   2.837  67.841  1.00  0.00    -0.182 C  
BRANCH   5   6
HETATM    6  N   UNL     1      -9.422   3.646  69.018  1.00  0.00    -0.171 NA 
HETATM    7  C   UNL     1      -9.553   5.023  69.088  1.00  0.00    -0.154 A  
HETATM    8  N   UNL     1      -9.809   5.407  70.324  1.00  0.00    -0.190 NA 
HETATM    9  C   UNL     1      -9.537   1.850  70.832  1.00  0.00    -0.182 A  
HETATM   10  C   UNL     1      -9.833   4.265  71.078  1.00  0.00    -0.181 A  
HETATM   11  C   UNL     1      -9.581   3.144  70.295  1.00  0.00    -0.110 A  
HETATM   12  C   UNL     1      -9.779   1.715  72.204  1.00  0.00    -0.182 A  
HETATM   13  C   UNL     1     -10.061   4.113  72.454  1.00  0.00    -0.243 A  
HETATM   14  C   UNL     1     -10.036   2.827  73.006  1.00  0.00    -0.194 A  
BRANCH   7  15
HETATM   15  C   UNL     1      -9.398   5.948  67.923  1.00  0.00    -0.107 C  
HETATM   16  C   UNL     1     -10.346   7.729  66.476  1.00  0.00    -0.056 C  
HETATM   17  C   UNL     1      -7.925   7.510  66.688  1.00  0.00    -0.110 C  
HETATM   18  C   UNL     1      -8.091   6.737  67.996  1.00  0.00    -0.114 C  
HETATM   19  N   UNL     1      -9.043   8.416  66.375  1.00  0.00    -0.175 NA 
HETATM   20  C   UNL     1     -10.552   6.943  67.778  1.00  0.00    -0.305 C  
BRANCH  19  21
HETATM   21  C   UNL     1      -9.035   9.651  67.175  1.00  0.00    -0.134 C  
BRANCH  21  22
HETATM   22  C   UNL     1     -10.395   9.971  67.824  1.00  0.00    -0.261 C  
BRANCH  22  23
HETATM   23  C   UNL     1     -10.535  11.457  68.029  1.00  0.00    -0.215 A  
HETATM   24  C   UNL     1      -9.400  12.274  68.053  1.00  0.00    -0.195 A  
HETATM   25  C   UNL     1      -9.511  13.625  68.378  1.00  0.00    -0.190 A  
HETATM   26  C   UNL     1     -10.761  14.194  68.687  1.00  0.00    -0.263 A  
HETATM   27  C   UNL     1     -11.784  12.019  68.279  1.00  0.00    -0.396 A  
HETATM   28  C   UNL     1     -11.897  13.372  68.596  1.00  0.00    -0.397 A  
BRANCH  26  29
HETATM   29  C   UNL     1     -10.835  15.647  69.193  1.00  0.00    -0.246 C  
HETATM   30  C   UNL     1     -11.563  15.766  70.544  1.00  0.00    -0.375 C  
HETATM   31  C   UNL     1      -9.401  16.197  69.364  1.00  0.00    -0.186 C  
HETATM   32  C   UNL     1     -11.590  16.590  68.234  1.00  0.00     0.058 C  
HETATM   33  O   UNL     1     -12.571  14.879  70.736  1.00  0.00    -0.311 OA 
HETATM   34  O   UNL     1     -11.325  16.623  71.382  1.00  0.00    -0.200 OA 
ENDBRANCH  26  29
ENDBRANCH  22  23
ENDBRANCH  21  22
ENDBRANCH  19  21
ENDBRANCH   7  15
ENDBRANCH   5   6
ENDBRANCH   4   5
ENDBRANCH   3   4
ENDBRANCH   2   3
TORSDOF 9
ENDMDL
MODEL      174
REMARK 921   NORMALIZED FREE ENERGY PREDICTED BY IDOCK:   -4.07 KCAL/MOL
REMARK 922        TOTAL FREE ENERGY PREDICTED BY IDOCK:   -6.40 KCAL/MOL
REMARK 923 INTER-LIGAND FREE ENERGY PREDICTED BY IDOCK:   -5.84 KCAL/MOL
REMARK 924 INTRA-LIGAND FREE ENERGY PREDICTED BY IDOCK:   -0.56 KCAL/MOL
REMARK 927      BINDING AFFINITY PREDICTED BY RF-SCORE:    0.00 PKD
ROOT
HETATM    1  C   UNL     1     -11.127  16.752  68.899  1.00  0.00    -0.194 C  
HETATM    2  C   UNL     1     -11.728  15.530  69.564  1.00  0.00    -0.365 C  
ENDROOT
BRANCH   2   3
HETATM    3  O   UNL     1     -11.523  14.367  68.753  1.00  0.00    -0.257 OA 
BRANCH   3   4
HETATM    4  C   UNL     1     -11.893  14.637  67.393  1.00  0.00    -0.348 C  
BRANCH   4   5
HETATM    5  C   UNL     1     -10.902  13.995  66.423  1.00  0.00    -0.299 C  
BRANCH   5   6
HETATM    6  N   UNL     1      -9.539  13.982  66.931  1.00  0.00    -0.262 NA 
HETATM    7  C   UNL     1      -8.874  12.934  67.548  1.00  0.00    -0.192 A  
HETATM    8  N   UNL     1      -7.645  13.285  67.871  1.00  0.00    -0.135 NA 
HETATM    9  C   UNL     1      -8.796  16.371  66.411  1.00  0.00    -0.346 A  
HETATM   10  C   UNL     1      -7.504  14.587  67.472  1.00  0.00    -0.194 A  
HETATM   11  C   UNL     1      -8.676  15.060  66.891  1.00  0.00    -0.256 A  
HETATM   12  C   UNL     1      -7.674  17.201  66.518  1.00  0.00    -0.321 A  
HETATM   13  C   UNL     1      -6.393  15.435  67.582  1.00  0.00    -0.177 A  
HETATM   14  C   UNL     1      -6.490  16.744  67.095  1.00  0.00    -0.225 A  
BRANCH   7  15
HETATM   15  C   UNL     1      -9.482  11.597  67.831  1.00  0.00    -0.181 C  
HETATM   16  C   UNL     1      -9.198   9.150  68.140  1.00  0.00    -0.131 C  
HETATM   17  C   UNL     1     -11.086  10.286  69.189  1.00  0.00    -0.235 C  
HETATM   18  C   UNL     1     -10.362  11.628  69.080  1.00  0.00    -0.119 C  
HETATM   19  N   UNL     1     -10.190   9.118  69.234  1.00  0.00    -0.204 NA 
HETATM   20  C   UNL     1      -8.448  10.482  68.000  1.00  0.00    -0.120 C  
BRANCH  19  21
HETATM   21  C   UNL     1      -9.531   8.937  70.537  1.00  0.00    -0.204 C  
BRANCH  21  22
HETATM   22  C   UNL     1      -8.033   8.591  70.426  1.00  0.00    -0.099 C  
BRANCH  22  23
HETATM   23  C   UNL     1      -7.856   7.105  70.252  1.00  0.00    -0.104 A  
HETATM   24  C   UNL     1      -6.858   6.610  69.408  1.00  0.00    -0.065 A  
HETATM   25  C   UNL     1      -6.779   5.245  69.136  1.00  0.00    -0.053 A  
HETATM   26  C   UNL     1      -7.695   4.340  69.703  1.00  0.00    -0.053 A  
HETATM   27  C   UNL     1      -8.736   6.215  70.862  1.00  0.00    -0.136 A  
HETATM   28  C   UNL     1      -8.652   4.849  70.598  1.00  0.00    -0.123 A  
BRANCH  26  29
HETATM   29  C   UNL     1      -7.682   2.863  69.266  1.00  0.00    -0.048 C  
HETATM   30  C   UNL     1      -8.189   2.669  67.825  1.00  0.00    -0.071 C  
HETATM   31  C   UNL     1      -6.235   2.324  69.348  1.00  0.00    -0.025 C  
HETATM   32  C   UNL     1      -8.572   1.958  70.142  1.00  0.00    -0.095 C  
HETATM   33  O   UNL     1      -9.160   3.532  67.434  1.00  0.00    -0.137 OA 
HETATM   34  O   UNL     1      -7.819   1.775  67.079  1.00  0.00    -0.064 OA 
ENDBRANCH  26  29
ENDBRANCH  22  23
ENDBRANCH  21  22
ENDBRANCH  19  21
ENDBRANCH   7  15
ENDBRANCH   5   6
ENDBRANCH   4   5
ENDBRANCH   3   4
ENDBRANCH   2   3
TORSDOF 9
ENDMDL
MODEL      175
REMARK 921   NORMALIZED FREE ENERGY PREDICTED BY IDOCK:   -4.04 KCAL/MOL
REMARK 922        TOTAL FREE ENERGY PREDICTED BY IDOCK:   -6.35 KCAL/MOL
REMARK 923 INTER-LIGAND FREE ENERGY PREDICTED BY IDOCK:   -5.61 KCAL/MOL
REMARK 924 INTRA-LIGAND FREE ENERGY PREDICTED BY IDOCK:   -0.74 KCAL/MOL
REMARK 927      BINDING AFFINITY PREDICTED BY RF-SCORE:    0.00 PKD
ROOT
HETATM    1  C   UNL     1     -12.590  12.758  70.844  1.00  0.00    -0.342 C  
HETATM    2  C   UNL     1     -12.211  12.143  69.511  1.00  0.00    -0.109 C  
ENDROOT
BRANCH   2   3
HETATM    3  O   UNL     1     -10.881  11.611  69.566  1.00  0.00    -0.160 OA 
BRANCH   3   4
HETATM    4  C   UNL     1     -10.175  11.910  68.353  1.00  0.00    -0.204 C  
BRANCH   4   5
HETATM    5  C   UNL     1      -8.736  11.400  68.423  1.00  0.00    -0.157 C  
BRANCH   5   6
HETATM    6  N   UNL     1      -7.761  12.388  67.988  1.00  0.00    -0.123 NA 
HETATM    7  C   UNL     1      -6.650  12.187  67.186  1.00  0.00    -0.127 A  
HETATM    8  N   UNL     1      -5.998  13.318  66.997  1.00  0.00    -0.053 NA 
HETATM    9  C   UNL     1      -8.647  14.491  69.139  1.00  0.00     0.031 A  
HETATM   10  C   UNL     1      -6.684  14.273  67.697  1.00  0.00    -0.169 A  
HETATM   11  C   UNL     1      -7.787  13.723  68.342  1.00  0.00    -0.143 A  
HETATM   12  C   UNL     1      -8.370  15.858  69.252  1.00  0.00    -0.238 A  
HETATM   13  C   UNL     1      -6.414  15.643  67.832  1.00  0.00    -0.166 A  
HETATM   14  C   UNL     1      -7.270  16.428  68.611  1.00  0.00    -0.178 A  
BRANCH   7  15
HETATM   15  C   UNL     1      -6.236  10.862  66.632  1.00  0.00    -0.113 C  
HETATM   16  C   UNL     1      -5.144   8.657  66.970  1.00  0.00    -0.032 C  
HETATM   17  C   UNL     1      -6.849   8.904  65.242  1.00  0.00    -0.072 C  
HETATM   18  C   UNL     1      -7.397  10.152  65.936  1.00  0.00    -0.121 C  
HETATM   19  N   UNL     1      -6.154   7.968  66.142  1.00  0.00    -0.044 NA 
HETATM   20  C   UNL     1      -5.657   9.915  67.685  1.00  0.00    -0.039 C  
BRANCH  19  21
HETATM   21  C   UNL     1      -7.068   7.175  66.979  1.00  0.00    -0.090 C  
BRANCH  21  22
HETATM   22  C   UNL     1      -8.544   7.285  66.553  1.00  0.00    -0.134 C  
BRANCH  22  23
HETATM   23  C   UNL     1      -9.423   7.441  67.766  1.00  0.00    -0.154 A  
HETATM   24  C   UNL     1      -8.980   8.180  68.866  1.00  0.00    -0.141 A  
HETATM   25  C   UNL     1      -9.729   8.213  70.041  1.00  0.00    -0.172 A  
HETATM   26  C   UNL     1     -10.943   7.508  70.146  1.00  0.00    -0.267 A  
HETATM   27  C   UNL     1     -10.649   6.783  67.837  1.00  0.00    -0.296 A  
HETATM   28  C   UNL     1     -11.403   6.822  69.009  1.00  0.00    -0.152 A  
BRANCH  26  29
HETATM   29  C   UNL     1     -11.670   7.435  71.501  1.00  0.00    -0.314 C  
HETATM   30  C   UNL     1     -10.942   6.534  72.514  1.00  0.00    -0.248 C  
HETATM   31  C   UNL     1     -11.770   8.856  72.099  1.00  0.00    -0.411 C  
HETATM   32  C   UNL     1     -13.100   6.866  71.397  1.00  0.00    -0.316 C  
HETATM   33  O   UNL     1     -10.297   5.467  71.979  1.00  0.00    -0.199 OA 
HETATM   34  O   UNL     1     -10.971   6.694  73.725  1.00  0.00    -0.154 OA 
ENDBRANCH  26  29
ENDBRANCH  22  23
ENDBRANCH  21  22
ENDBRANCH  19  21
ENDBRANCH   7  15
ENDBRANCH   5   6
ENDBRANCH   4   5
ENDBRANCH   3   4
ENDBRANCH   2   3
TORSDOF 9
ENDMDL
MODEL      176
REMARK 921   NORMALIZED FREE ENERGY PREDICTED BY IDOCK:   -4.03 KCAL/MOL
REMARK 922        TOTAL FREE ENERGY PREDICTED BY IDOCK:   -6.34 KCAL/MOL
REMARK 923 INTER-LIGAND FREE ENERGY PREDICTED BY IDOCK:   -5.04 KCAL/MOL
REMARK 924 INTRA-LIGAND FREE ENERGY PREDICTED BY IDOCK:   -1.30 KCAL/MOL
REMARK 927      BINDING AFFINITY PREDICTED BY RF-SCORE:    0.00 PKD
ROOT
HETATM    1  C   UNL     1     -11.944  14.812  64.345  1.00  0.00    -0.433 C  
HETATM    2  C   UNL     1     -10.787  13.868  64.082  1.00  0.00     0.000 C  
ENDROOT
BRANCH   2   3
HETATM    3  O   UNL     1     -10.888  12.707  64.916  1.00  0.00    -0.280 OA 
BRANCH   3   4
HETATM    4  C   UNL     1     -12.144  12.701  65.610  1.00  0.00    -0.443 C  
BRANCH   4   5
HETATM    5  C   UNL     1     -11.945  12.373  67.089  1.00  0.00    -0.177 C  
BRANCH   5   6
HETATM    6  N   UNL     1     -10.778  13.026  67.663  1.00  0.00    -0.225 NA 
HETATM    7  C   UNL     1      -9.509  12.498  67.833  1.00  0.00    -0.196 A  
HETATM    8  N   UNL     1      -8.702  13.384  68.384  1.00  0.00    -0.165 NA 
HETATM    9  C   UNL     1     -11.746  15.309  68.280  1.00  0.00    -0.320 A  
HETATM   10  C   UNL     1      -9.458  14.507  68.591  1.00  0.00    -0.205 A  
HETATM   11  C   UNL     1     -10.767  14.313  68.165  1.00  0.00    -0.244 A  
HETATM   12  C   UNL     1     -11.355  16.535  68.830  1.00  0.00    -0.206 A  
HETATM   13  C   UNL     1      -9.085  15.737  69.152  1.00  0.00    -0.262 A  
HETATM   14  C   UNL     1     -10.046  16.749  69.262  1.00  0.00    -0.240 A  
BRANCH   7  15
HETATM   15  C   UNL     1      -9.117  11.103  67.463  1.00  0.00    -0.146 C  
HETATM   16  C   UNL     1      -7.693   9.573  66.122  1.00  0.00    -0.101 C  
HETATM   17  C   UNL     1      -8.620   8.805  68.245  1.00  0.00    -0.134 C  
HETATM   18  C   UNL     1      -8.827  10.250  68.699  1.00  0.00    -0.137 C  
HETATM   19  N   UNL     1      -7.548   8.631  67.250  1.00  0.00    -0.092 NA 
HETATM   20  C   UNL     1      -7.901  11.036  66.538  1.00  0.00    -0.155 C  
BRANCH  19  21
HETATM   21  C   UNL     1      -6.197   8.706  67.828  1.00  0.00    -0.056 C  
BRANCH  21  22
HETATM   22  C   UNL     1      -5.197   7.727  67.185  1.00  0.00    -0.031 C  
BRANCH  22  23
HETATM   23  C   UNL     1      -5.921   6.508  66.674  1.00  0.00    -0.028 A  
HETATM   24  C   UNL     1      -6.346   5.517  67.564  1.00  0.00    -0.042 A  
HETATM   25  C   UNL     1      -6.892   4.328  67.086  1.00  0.00    -0.052 A  
HETATM   26  C   UNL     1      -7.028   4.098  65.704  1.00  0.00    -0.062 A  
HETATM   27  C   UNL     1      -6.099   6.317  65.306  1.00  0.00    -0.030 A  
HETATM   28  C   UNL     1      -6.653   5.130  64.827  1.00  0.00    -0.043 A  
BRANCH  26  29
HETATM   29  C   UNL     1      -7.487   2.717  65.200  1.00  0.00    -0.072 C  
HETATM   30  C   UNL     1      -8.943   2.724  64.701  1.00  0.00    -0.123 C  
HETATM   31  C   UNL     1      -6.576   2.276  64.032  1.00  0.00    -0.026 C  
HETATM   32  C   UNL     1      -7.428   1.620  66.283  1.00  0.00    -0.061 C  
HETATM   33  O   UNL     1      -9.775   3.568  65.362  1.00  0.00    -0.161 OA 
HETATM   34  O   UNL     1      -9.375   1.993  63.823  1.00  0.00    -0.098 OA 
ENDBRANCH  26  29
ENDBRANCH  22  23
ENDBRANCH  21  22
ENDBRANCH  19  21
ENDBRANCH   7  15
ENDBRANCH   5   6
ENDBRANCH   4   5
ENDBRANCH   3   4
ENDBRANCH   2   3
TORSDOF 9
ENDMDL
MODEL      177
REMARK 921   NORMALIZED FREE ENERGY PREDICTED BY IDOCK:   -4.01 KCAL/MOL
REMARK 922        TOTAL FREE ENERGY PREDICTED BY IDOCK:   -6.30 KCAL/MOL
REMARK 923 INTER-LIGAND FREE ENERGY PREDICTED BY IDOCK:   -6.42 KCAL/MOL
REMARK 924 INTRA-LIGAND FREE ENERGY PREDICTED BY IDOCK:    0.12 KCAL/MOL
REMARK 927      BINDING AFFINITY PREDICTED BY RF-SCORE:    0.00 PKD
ROOT
HETATM    1  C   UNL     1     -10.639   5.459  66.226  1.00  0.00    -0.268 C  
HETATM    2  C   UNL     1      -9.743   4.782  67.245  1.00  0.00    -0.182 C  
ENDROOT
BRANCH   2   3
HETATM    3  O   UNL     1      -8.364   4.985  66.912  1.00  0.00    -0.108 OA 
BRANCH   3   4
HETATM    4  C   UNL     1      -7.773   5.940  67.805  1.00  0.00    -0.097 C  
BRANCH   4   5
HETATM    5  C   UNL     1      -8.160   5.642  69.253  1.00  0.00    -0.096 C  
BRANCH   5   6
HETATM    6  N   UNL     1      -8.902   6.726  69.877  1.00  0.00    -0.141 NA 
HETATM    7  C   UNL     1      -8.903   8.066  69.524  1.00  0.00    -0.144 A  
HETATM    8  N   UNL     1      -9.702   8.758  70.313  1.00  0.00    -0.170 NA 
HETATM    9  C   UNL     1     -10.103   5.482  71.758  1.00  0.00    -0.247 A  
HETATM   10  C   UNL     1     -10.224   7.860  71.206  1.00  0.00    -0.187 A  
HETATM   11  C   UNL     1      -9.733   6.581  70.970  1.00  0.00    -0.175 A  
HETATM   12  C   UNL     1     -11.014   5.712  72.796  1.00  0.00    -0.320 A  
HETATM   13  C   UNL     1     -11.126   8.076  72.258  1.00  0.00    -0.393 A  
HETATM   14  C   UNL     1     -11.518   6.987  73.045  1.00  0.00    -0.083 A  
BRANCH   7  15
HETATM   15  C   UNL     1      -8.088   8.649  68.414  1.00  0.00    -0.118 C  
HETATM   16  C   UNL     1      -7.987   9.923  66.286  1.00  0.00    -0.108 C  
HETATM   17  C   UNL     1      -6.045   9.892  67.764  1.00  0.00    -0.054 C  
HETATM   18  C   UNL     1      -6.929   9.493  68.946  1.00  0.00    -0.063 C  
HETATM   19  N   UNL     1      -6.753  10.623  66.700  1.00  0.00    -0.098 NA 
HETATM   20  C   UNL     1      -8.902   9.508  67.445  1.00  0.00    -0.134 C  
BRANCH  19  21
HETATM   21  C   UNL     1      -7.033  12.026  67.041  1.00  0.00    -0.095 C  
BRANCH  21  22
HETATM   22  C   UNL     1      -8.533  12.330  67.214  1.00  0.00    -0.181 C  
BRANCH  22  23
HETATM   23  C   UNL     1      -8.745  13.811  67.388  1.00  0.00    -0.210 A  
HETATM   24  C   UNL     1      -8.957  14.628  66.273  1.00  0.00    -0.112 A  
HETATM   25  C   UNL     1      -9.016  16.012  66.415  1.00  0.00    -0.354 A  
HETATM   26  C   UNL     1      -8.865  16.618  67.677  1.00  0.00    -0.203 A  
HETATM   27  C   UNL     1      -8.648  14.393  68.650  1.00  0.00    -0.161 A  
HETATM   28  C   UNL     1      -8.716  15.778  68.793  1.00  0.00    -0.203 A  
BRANCH  26  29
HETATM   29  C   UNL     1      -8.779  18.152  67.784  1.00  0.00    -0.259 C  
HETATM   30  C   UNL     1     -10.065  18.778  68.351  1.00  0.00    -0.393 C  
HETATM   31  C   UNL     1      -7.604  18.528  68.715  1.00  0.00    -0.308 C  
HETATM   32  C   UNL     1      -8.546  18.846  66.427  1.00  0.00    -0.301 C  
HETATM   33  O   UNL     1     -11.214  18.138  68.017  1.00  0.00    -0.010 OA 
HETATM   34  O   UNL     1     -10.100  19.811  69.002  1.00  0.00    -0.448 OA 
ENDBRANCH  26  29
ENDBRANCH  22  23
ENDBRANCH  21  22
ENDBRANCH  19  21
ENDBRANCH   7  15
ENDBRANCH   5   6
ENDBRANCH   4   5
ENDBRANCH   3   4
ENDBRANCH   2   3
TORSDOF 9
ENDMDL
MODEL      178
REMARK 921   NORMALIZED FREE ENERGY PREDICTED BY IDOCK:   -3.89 KCAL/MOL
REMARK 922        TOTAL FREE ENERGY PREDICTED BY IDOCK:   -6.13 KCAL/MOL
REMARK 923 INTER-LIGAND FREE ENERGY PREDICTED BY IDOCK:   -5.35 KCAL/MOL
REMARK 924 INTRA-LIGAND FREE ENERGY PREDICTED BY IDOCK:   -0.77 KCAL/MOL
REMARK 927      BINDING AFFINITY PREDICTED BY RF-SCORE:    0.00 PKD
ROOT
HETATM    1  C   UNL     1     -11.638  10.406  70.681  1.00  0.00    -0.440 C  
HETATM    2  C   UNL     1     -12.004  10.471  69.211  1.00  0.00    -0.122 C  
ENDROOT
BRANCH   2   3
HETATM    3  O   UNL     1     -10.822  10.544  68.404  1.00  0.00    -0.206 OA 
BRANCH   3   4
HETATM    4  C   UNL     1     -10.606   9.299  67.725  1.00  0.00    -0.246 C  
BRANCH   4   5
HETATM    5  C   UNL     1      -9.842   8.320  68.616  1.00  0.00    -0.176 C  
BRANCH   5   6
HETATM    6  N   UNL     1      -8.496   8.048  68.137  1.00  0.00    -0.123 NA 
HETATM    7  C   UNL     1      -7.453   8.947  67.980  1.00  0.00    -0.092 A  
HETATM    8  N   UNL     1      -6.375   8.339  67.526  1.00  0.00    -0.055 NA 
HETATM    9  C   UNL     1      -8.645   5.544  67.648  1.00  0.00    -0.108 A  
HETATM   10  C   UNL     1      -6.718   7.023  67.370  1.00  0.00    -0.067 A  
HETATM   11  C   UNL     1      -8.044   6.808  67.730  1.00  0.00    -0.113 A  
HETATM   12  C   UNL     1      -7.850   4.481  67.202  1.00  0.00    -0.097 A  
HETATM   13  C   UNL     1      -5.939   5.949  66.914  1.00  0.00    -0.018 A  
HETATM   14  C   UNL     1      -6.519   4.678  66.839  1.00  0.00    -0.041 A  
BRANCH   7  15
HETATM   15  C   UNL     1      -7.551  10.412  68.264  1.00  0.00    -0.095 C  
HETATM   16  C   UNL     1      -6.779  12.389  69.553  1.00  0.00     0.015 C  
HETATM   17  C   UNL     1      -7.758  12.701  67.339  1.00  0.00    -0.161 C  
HETATM   18  C   UNL     1      -7.464  11.243  66.984  1.00  0.00    -0.139 C  
HETATM   19  N   UNL     1      -6.865  13.264  68.366  1.00  0.00    -0.088 NA 
HETATM   20  C   UNL     1      -6.483  10.916  69.236  1.00  0.00    -0.071 C  
BRANCH  19  21
HETATM   21  C   UNL     1      -5.525  13.595  67.858  1.00  0.00    -0.099 C  
BRANCH  21  22
HETATM   22  C   UNL     1      -5.144  15.076  68.045  1.00  0.00    -0.115 C  
BRANCH  22  23
HETATM   23  C   UNL     1      -6.382  15.936  68.027  1.00  0.00    -0.144 A  
HETATM   24  C   UNL     1      -6.960  16.310  66.810  1.00  0.00    -0.165 A  
HETATM   25  C   UNL     1      -8.019  17.215  66.783  1.00  0.00    -0.271 A  
HETATM   26  C   UNL     1      -8.529  17.769  67.973  1.00  0.00    -0.253 A  
HETATM   27  C   UNL     1      -6.911  16.434  69.215  1.00  0.00    -0.218 A  
HETATM   28  C   UNL     1      -7.976  17.333  69.189  1.00  0.00    -0.019 A  
BRANCH  26  29
HETATM   29  C   UNL     1      -9.592  18.881  67.905  1.00  0.00    -0.361 C  
HETATM   30  C   UNL     1      -9.075  20.151  67.207  1.00  0.00    -0.368 C  
HETATM   31  C   UNL     1     -10.819  18.361  67.121  1.00  0.00    -0.271 C  
HETATM   32  C   UNL     1     -10.082  19.344  69.292  1.00  0.00    -0.243 C  
HETATM   33  O   UNL     1      -7.759  20.418  67.396  1.00  0.00    -0.306 OA 
HETATM   34  O   UNL     1      -9.778  20.925  66.574  1.00  0.00    -0.070 OA 
ENDBRANCH  26  29
ENDBRANCH  22  23
ENDBRANCH  21  22
ENDBRANCH  19  21
ENDBRANCH   7  15
ENDBRANCH   5   6
ENDBRANCH   4   5
ENDBRANCH   3   4
ENDBRANCH   2   3
TORSDOF 9
ENDMDL
MODEL      179
REMARK 921   NORMALIZED FREE ENERGY PREDICTED BY IDOCK:   -3.85 KCAL/MOL
REMARK 922        TOTAL FREE ENERGY PREDICTED BY IDOCK:   -6.06 KCAL/MOL
REMARK 923 INTER-LIGAND FREE ENERGY PREDICTED BY IDOCK:   -5.96 KCAL/MOL
REMARK 924 INTRA-LIGAND FREE ENERGY PREDICTED BY IDOCK:   -0.11 KCAL/MOL
REMARK 927      BINDING AFFINITY PREDICTED BY RF-SCORE:    0.00 PKD
ROOT
HETATM    1  C   UNL     1     -11.263   6.059  69.088  1.00  0.00    -0.337 C  
HETATM    2  C   UNL     1      -9.949   5.507  68.571  1.00  0.00    -0.157 C  
ENDROOT
BRANCH   2   3
HETATM    3  O   UNL     1      -9.142   5.036  69.657  1.00  0.00    -0.103 OA 
BRANCH   3   4
HETATM    4  C   UNL     1      -9.890   4.124  70.475  1.00  0.00    -0.182 C  
BRANCH   4   5
HETATM    5  C   UNL     1     -10.103   4.700  71.874  1.00  0.00    -0.198 C  
BRANCH   5   6
HETATM    6  N   UNL     1      -8.861   4.878  72.610  1.00  0.00    -0.121 NA 
HETATM    7  C   UNL     1      -8.190   6.063  72.868  1.00  0.00    -0.117 A  
HETATM    8  N   UNL     1      -7.096   5.839  73.569  1.00  0.00    -0.085 NA 
HETATM    9  C   UNL     1      -8.291   2.459  73.206  1.00  0.00    -0.066 A  
HETATM   10  C   UNL     1      -7.041   4.485  73.764  1.00  0.00    -0.068 A  
HETATM   11  C   UNL     1      -8.123   3.850  73.164  1.00  0.00    -0.088 A  
HETATM   12  C   UNL     1      -7.330   1.716  73.901  1.00  0.00    -0.025 A  
HETATM   13  C   UNL     1      -6.080   3.724  74.445  1.00  0.00    -0.021 A  
HETATM   14  C   UNL     1      -6.239   2.335  74.510  1.00  0.00    -0.012 A  
BRANCH   7  15
HETATM   15  C   UNL     1      -8.637   7.408  72.391  1.00  0.00    -0.138 C  
HETATM   16  C   UNL     1      -8.487   9.233  70.714  1.00  0.00    -0.195 C  
HETATM   17  C   UNL     1     -10.534   8.958  72.015  1.00  0.00    -0.313 C  
HETATM   18  C   UNL     1     -10.162   7.508  72.327  1.00  0.00    -0.252 C  
HETATM   19  N   UNL     1      -9.943   9.479  70.771  1.00  0.00    -0.283 NA 
HETATM   20  C   UNL     1      -8.074   7.787  71.020  1.00  0.00    -0.098 C  
BRANCH  19  21
HETATM   21  C   UNL     1     -10.608   8.983  69.556  1.00  0.00    -0.225 C  
BRANCH  21  22
HETATM   22  C   UNL     1      -9.893   9.390  68.253  1.00  0.00    -0.180 C  
BRANCH  22  23
HETATM   23  C   UNL     1      -9.895  10.890  68.108  1.00  0.00    -0.187 A  
HETATM   24  C   UNL     1      -8.701  11.576  67.872  1.00  0.00    -0.144 A  
HETATM   25  C   UNL     1      -8.676  12.970  67.874  1.00  0.00    -0.189 A  
HETATM   26  C   UNL     1      -9.848  13.714  68.111  1.00  0.00    -0.236 A  
HETATM   27  C   UNL     1     -11.072  11.613  68.291  1.00  0.00    -0.287 A  
HETATM   28  C   UNL     1     -11.050  13.007  68.285  1.00  0.00    -0.293 A  
BRANCH  26  29
HETATM   29  C   UNL     1      -9.764  15.244  68.262  1.00  0.00    -0.210 C  
HETATM   30  C   UNL     1     -10.669  15.987  67.263  1.00  0.00    -0.295 C  
HETATM   31  C   UNL     1     -10.196  15.635  69.694  1.00  0.00    -0.291 C  
HETATM   32  C   UNL     1      -8.346  15.804  68.030  1.00  0.00    -0.153 C  
HETATM   33  O   UNL     1     -10.812  15.384  66.057  1.00  0.00    -0.318 OA 
HETATM   34  O   UNL     1     -11.186  17.073  67.478  1.00  0.00    -0.090 OA 
ENDBRANCH  26  29
ENDBRANCH  22  23
ENDBRANCH  21  22
ENDBRANCH  19  21
ENDBRANCH   7  15
ENDBRANCH   5   6
ENDBRANCH   4   5
ENDBRANCH   3   4
ENDBRANCH   2   3
TORSDOF 9
ENDMDL
MODEL      180
REMARK 921   NORMALIZED FREE ENERGY PREDICTED BY IDOCK:   -3.85 KCAL/MOL
REMARK 922        TOTAL FREE ENERGY PREDICTED BY IDOCK:   -6.05 KCAL/MOL
REMARK 923 INTER-LIGAND FREE ENERGY PREDICTED BY IDOCK:   -5.55 KCAL/MOL
REMARK 924 INTRA-LIGAND FREE ENERGY PREDICTED BY IDOCK:   -0.51 KCAL/MOL
REMARK 927      BINDING AFFINITY PREDICTED BY RF-SCORE:    0.00 PKD
ROOT
HETATM    1  C   UNL     1      -8.656   4.775  64.896  1.00  0.00    -0.145 C  
HETATM    2  C   UNL     1      -7.561   3.844  65.379  1.00  0.00    -0.082 C  
ENDROOT
BRANCH   2   3
HETATM    3  O   UNL     1      -8.085   2.900  66.320  1.00  0.00    -0.081 OA 
BRANCH   3   4
HETATM    4  C   UNL     1      -7.848   3.351  67.662  1.00  0.00    -0.077 C  
BRANCH   4   5
HETATM    5  C   UNL     1      -9.060   4.111  68.201  1.00  0.00    -0.135 C  
BRANCH   5   6
HETATM    6  N   UNL     1      -8.735   4.971  69.328  1.00  0.00    -0.091 NA 
HETATM    7  C   UNL     1      -8.285   6.281  69.293  1.00  0.00    -0.114 A  
HETATM    8  N   UNL     1      -8.099   6.746  70.513  1.00  0.00    -0.114 NA 
HETATM    9  C   UNL     1      -9.174   3.396  71.292  1.00  0.00    -0.190 A  
HETATM   10  C   UNL     1      -8.420   5.721  71.362  1.00  0.00    -0.128 A  
HETATM   11  C   UNL     1      -8.808   4.589  70.653  1.00  0.00    -0.100 A  
HETATM   12  C   UNL     1      -9.154   3.383  72.691  1.00  0.00    -0.119 A  
HETATM   13  C   UNL     1      -8.393   5.687  72.764  1.00  0.00    -0.120 A  
HETATM   14  C   UNL     1      -8.769   4.508  73.419  1.00  0.00    -0.100 A  
BRANCH   7  15
HETATM   15  C   UNL     1      -8.023   7.051  68.038  1.00  0.00    -0.115 C  
HETATM   16  C   UNL     1      -8.826   8.635  66.302  1.00  0.00    -0.157 C  
HETATM   17  C   UNL     1      -6.434   8.447  66.746  1.00  0.00    -0.056 C  
HETATM   18  C   UNL     1      -6.719   7.845  68.123  1.00  0.00    -0.064 C  
HETATM   19  N   UNL     1      -7.512   9.305  66.228  1.00  0.00    -0.095 NA 
HETATM   20  C   UNL     1      -9.149   8.019  67.670  1.00  0.00    -0.144 C  
BRANCH  19  21
HETATM   21  C   UNL     1      -7.561  10.631  66.864  1.00  0.00    -0.115 C  
BRANCH  21  22
HETATM   22  C   UNL     1      -8.987  11.087  67.225  1.00  0.00    -0.138 C  
BRANCH  22  23
HETATM   23  C   UNL     1      -9.135  12.566  66.981  1.00  0.00    -0.213 A  
HETATM   24  C   UNL     1      -8.076  13.435  67.257  1.00  0.00    -0.147 A  
HETATM   25  C   UNL     1      -8.253  14.814  67.164  1.00  0.00    -0.239 A  
HETATM   26  C   UNL     1      -9.495  15.361  66.791  1.00  0.00    -0.260 A  
HETATM   27  C   UNL     1     -10.355  13.091  66.559  1.00  0.00    -0.278 A  
HETATM   28  C   UNL     1     -10.530  14.471  66.458  1.00  0.00    -0.285 A  
BRANCH  26  29
HETATM   29  C   UNL     1      -9.708  16.885  66.847  1.00  0.00    -0.264 C  
HETATM   30  C   UNL     1     -10.602  17.314  68.024  1.00  0.00    -0.394 C  
HETATM   31  C   UNL     1      -8.337  17.582  67.000  1.00  0.00    -0.239 C  
HETATM   32  C   UNL     1     -10.386  17.454  65.584  1.00  0.00    -0.161 C  
HETATM   33  O   UNL     1     -11.579  16.434  68.357  1.00  0.00    -0.286 OA 
HETATM   34  O   UNL     1     -10.515  18.389  68.600  1.00  0.00    -0.306 OA 
ENDBRANCH  26  29
ENDBRANCH  22  23
ENDBRANCH  21  22
ENDBRANCH  19  21
ENDBRANCH   7  15
ENDBRANCH   5   6
ENDBRANCH   4   5
ENDBRANCH   3   4
ENDBRANCH   2   3
TORSDOF 9
ENDMDL
MODEL      181
REMARK 921   NORMALIZED FREE ENERGY PREDICTED BY IDOCK:   -3.83 KCAL/MOL
REMARK 922        TOTAL FREE ENERGY PREDICTED BY IDOCK:   -6.02 KCAL/MOL
REMARK 923 INTER-LIGAND FREE ENERGY PREDICTED BY IDOCK:   -6.10 KCAL/MOL
REMARK 924 INTRA-LIGAND FREE ENERGY PREDICTED BY IDOCK:    0.08 KCAL/MOL
REMARK 927      BINDING AFFINITY PREDICTED BY RF-SCORE:    0.00 PKD
ROOT
HETATM    1  C   UNL     1     -11.025   6.702  66.768  1.00  0.00    -0.286 C  
HETATM    2  C   UNL     1      -9.635   7.231  67.061  1.00  0.00    -0.166 C  
ENDROOT
BRANCH   2   3
HETATM    3  O   UNL     1      -8.932   6.336  67.931  1.00  0.00    -0.116 OA 
BRANCH   3   4
HETATM    4  C   UNL     1      -9.859   5.591  68.733  1.00  0.00    -0.153 C  
BRANCH   4   5
HETATM    5  C   UNL     1      -9.764   4.097  68.426  1.00  0.00    -0.081 C  
BRANCH   5   6
HETATM    6  N   UNL     1      -8.416   3.570  68.578  1.00  0.00    -0.081 NA 
HETATM    7  C   UNL     1      -7.697   3.407  69.751  1.00  0.00    -0.047 A  
HETATM    8  N   UNL     1      -6.507   2.896  69.504  1.00  0.00    -0.029 NA 
HETATM    9  C   UNL     1      -7.790   3.110  66.144  1.00  0.00    -0.078 A  
HETATM   10  C   UNL     1      -6.439   2.733  68.146  1.00  0.00    -0.032 A  
HETATM   11  C   UNL     1      -7.612   3.159  67.534  1.00  0.00    -0.065 A  
HETATM   12  C   UNL     1      -6.739   2.593  65.379  1.00  0.00    -0.039 A  
HETATM   13  C   UNL     1      -5.390   2.229  67.363  1.00  0.00    -0.016 A  
HETATM   14  C   UNL     1      -5.556   2.159  65.975  1.00  0.00    -0.016 A  
BRANCH   7  15
HETATM   15  C   UNL     1      -8.197   3.785  71.109  1.00  0.00    -0.076 C  
HETATM   16  C   UNL     1      -8.425   5.492  72.898  1.00  0.00    -0.119 C  
HETATM   17  C   UNL     1     -10.056   3.683  72.744  1.00  0.00    -0.159 C  
HETATM   18  C   UNL     1      -9.677   3.440  71.283  1.00  0.00    -0.227 C  
HETATM   19  N   UNL     1      -9.800   5.054  73.216  1.00  0.00    -0.150 NA 
HETATM   20  C   UNL     1      -8.008   5.267  71.438  1.00  0.00    -0.114 C  
BRANCH  19  21
HETATM   21  C   UNL     1     -10.788   6.032  72.735  1.00  0.00    -0.249 C  
BRANCH  21  22
HETATM   22  C   UNL     1     -10.613   7.435  73.346  1.00  0.00    -0.427 C  
BRANCH  22  23
HETATM   23  C   UNL     1     -10.517   8.468  72.253  1.00  0.00    -0.402 A  
HETATM   24  C   UNL     1     -11.641   9.215  71.890  1.00  0.00    -0.430 A  
HETATM   25  C   UNL     1     -11.594  10.070  70.791  1.00  0.00    -0.444 A  
HETATM   26  C   UNL     1     -10.419  10.202  70.026  1.00  0.00    -0.325 A  
HETATM   27  C   UNL     1      -9.332   8.629  71.538  1.00  0.00    -0.319 A  
HETATM   28  C   UNL     1      -9.281   9.491  70.444  1.00  0.00    -0.305 A  
BRANCH  26  29
HETATM   29  C   UNL     1     -10.440  11.032  68.729  1.00  0.00    -0.222 C  
HETATM   30  C   UNL     1      -9.046  11.163  68.089  1.00  0.00    -0.159 C  
HETATM   31  C   UNL     1     -11.381  10.353  67.709  1.00  0.00    -0.205 C  
HETATM   32  C   UNL     1     -10.935  12.478  68.937  1.00  0.00    -0.272 C  
HETATM   33  O   UNL     1      -8.011  11.213  68.965  1.00  0.00    -0.137 OA 
HETATM   34  O   UNL     1      -8.847  11.283  66.889  1.00  0.00    -0.155 OA 
ENDBRANCH  26  29
ENDBRANCH  22  23
ENDBRANCH  21  22
ENDBRANCH  19  21
ENDBRANCH   7  15
ENDBRANCH   5   6
ENDBRANCH   4   5
ENDBRANCH   3   4
ENDBRANCH   2   3
TORSDOF 9
ENDMDL
MODEL      182
REMARK 921   NORMALIZED FREE ENERGY PREDICTED BY IDOCK:   -3.74 KCAL/MOL
REMARK 922        TOTAL FREE ENERGY PREDICTED BY IDOCK:   -5.89 KCAL/MOL
REMARK 923 INTER-LIGAND FREE ENERGY PREDICTED BY IDOCK:   -5.29 KCAL/MOL
REMARK 924 INTRA-LIGAND FREE ENERGY PREDICTED BY IDOCK:   -0.61 KCAL/MOL
REMARK 927      BINDING AFFINITY PREDICTED BY RF-SCORE:    0.00 PKD
ROOT
HETATM    1  C   UNL     1      -8.711   4.707  64.827  1.00  0.00    -0.150 C  
HETATM    2  C   UNL     1      -7.499   3.797  64.810  1.00  0.00    -0.073 C  
ENDROOT
BRANCH   2   3
HETATM    3  O   UNL     1      -7.736   2.633  65.612  1.00  0.00    -0.075 OA 
BRANCH   3   4
HETATM    4  C   UNL     1      -7.149   2.795  66.911  1.00  0.00    -0.049 C  
BRANCH   4   5
HETATM    5  C   UNL     1      -8.220   3.112  67.954  1.00  0.00    -0.079 C  
BRANCH   5   6
HETATM    6  N   UNL     1      -7.740   3.988  69.012  1.00  0.00    -0.054 NA 
HETATM    7  C   UNL     1      -7.998   5.340  69.175  1.00  0.00    -0.089 A  
HETATM    8  N   UNL     1      -7.398   5.805  70.253  1.00  0.00    -0.074 NA 
HETATM    9  C   UNL     1      -6.309   2.372  70.379  1.00  0.00    -0.024 A  
HETATM   10  C   UNL     1      -6.726   4.744  70.800  1.00  0.00    -0.036 A  
HETATM   11  C   UNL     1      -6.906   3.594  70.039  1.00  0.00    -0.034 A  
HETATM   12  C   UNL     1      -5.526   2.340  71.539  1.00  0.00    -0.008 A  
HETATM   13  C   UNL     1      -5.928   4.697  71.952  1.00  0.00    -0.016 A  
HETATM   14  C   UNL     1      -5.335   3.482  72.314  1.00  0.00     0.000 A  
BRANCH   7  15
HETATM   15  C   UNL     1      -8.825   6.162  68.238  1.00  0.00    -0.112 C  
HETATM   16  C   UNL     1     -10.925   7.404  67.779  1.00  0.00    -0.029 C  
HETATM   17  C   UNL     1      -8.882   8.010  66.589  1.00  0.00    -0.145 C  
HETATM   18  C   UNL     1      -8.033   7.339  67.669  1.00  0.00    -0.114 C  
HETATM   19  N   UNL     1     -10.201   8.470  67.057  1.00  0.00    -0.275 NA 
HETATM   20  C   UNL     1     -10.105   6.707  68.873  1.00  0.00    -0.178 C  
BRANCH  19  21
HETATM   21  C   UNL     1     -10.140   9.702  67.859  1.00  0.00    -0.181 C  
BRANCH  21  22
HETATM   22  C   UNL     1     -10.846   9.583  69.223  1.00  0.00    -0.211 C  
BRANCH  22  23
HETATM   23  C   UNL     1     -11.464  10.903  69.603  1.00  0.00    -0.377 A  
HETATM   24  C   UNL     1     -10.911  12.099  69.137  1.00  0.00    -0.215 A  
HETATM   25  C   UNL     1     -11.393  13.324  69.595  1.00  0.00    -0.191 A  
HETATM   26  C   UNL     1     -12.442  13.384  70.533  1.00  0.00    -0.350 A  
HETATM   27  C   UNL     1     -12.537  10.948  70.490  1.00  0.00    -0.409 A  
HETATM   28  C   UNL     1     -13.026  12.174  70.942  1.00  0.00    -0.074 A  
BRANCH  26  29
HETATM   29  C   UNL     1     -12.849  14.740  71.138  1.00  0.00    -0.406 C  
HETATM   30  C   UNL     1     -12.220  14.983  72.522  1.00  0.00    -0.351 C  
HETATM   31  C   UNL     1     -12.394  15.874  70.192  1.00  0.00    -0.193 C  
HETATM   32  C   UNL     1     -14.371  14.884  71.347  1.00  0.00    -0.560 C  
HETATM   33  O   UNL     1     -12.050  13.872  73.281  1.00  0.00     0.309 OA 
HETATM   34  O   UNL     1     -11.940  16.085  72.968  1.00  0.00    -0.465 OA 
ENDBRANCH  26  29
ENDBRANCH  22  23
ENDBRANCH  21  22
ENDBRANCH  19  21
ENDBRANCH   7  15
ENDBRANCH   5   6
ENDBRANCH   4   5
ENDBRANCH   3   4
ENDBRANCH   2   3
TORSDOF 9
ENDMDL
MODEL      183
REMARK 921   NORMALIZED FREE ENERGY PREDICTED BY IDOCK:   -3.69 KCAL/MOL
REMARK 922        TOTAL FREE ENERGY PREDICTED BY IDOCK:   -5.81 KCAL/MOL
REMARK 923 INTER-LIGAND FREE ENERGY PREDICTED BY IDOCK:   -7.03 KCAL/MOL
REMARK 924 INTRA-LIGAND FREE ENERGY PREDICTED BY IDOCK:    1.22 KCAL/MOL
REMARK 927      BINDING AFFINITY PREDICTED BY RF-SCORE:    0.00 PKD
ROOT
HETATM    1  C   UNL     1      -9.784   6.894  69.930  1.00  0.00    -0.165 C  
HETATM    2  C   UNL     1     -10.418   8.269  70.008  1.00  0.00    -0.231 C  
ENDROOT
BRANCH   2   3
HETATM    3  O   UNL     1      -9.455   9.283  69.696  1.00  0.00    -0.163 OA 
BRANCH   3   4
HETATM    4  C   UNL     1     -10.109  10.541  69.479  1.00  0.00    -0.178 C  
BRANCH   4   5
HETATM    5  C   UNL     1      -9.368  11.364  68.425  1.00  0.00    -0.194 C  
BRANCH   5   6
HETATM    6  N   UNL     1      -8.726  10.541  67.411  1.00  0.00    -0.126 NA 
HETATM    7  C   UNL     1      -9.147  10.317  66.110  1.00  0.00    -0.155 A  
HETATM    8  N   UNL     1      -8.309   9.518  65.478  1.00  0.00    -0.127 NA 
HETATM    9  C   UNL     1      -6.719   9.639  68.709  1.00  0.00    -0.051 A  
HETATM   10  C   UNL     1      -7.331   9.202  66.383  1.00  0.00    -0.092 A  
HETATM   11  C   UNL     1      -7.569   9.815  67.609  1.00  0.00    -0.091 A  
HETATM   12  C   UNL     1      -5.591   8.829  68.529  1.00  0.00    -0.038 A  
HETATM   13  C   UNL     1      -6.203   8.384  66.223  1.00  0.00    -0.049 A  
HETATM   14  C   UNL     1      -5.335   8.209  67.307  1.00  0.00    -0.037 A  
BRANCH   7  15
HETATM   15  C   UNL     1     -10.395  10.886  65.515  1.00  0.00    -0.316 C  
HETATM   16  C   UNL     1     -12.485  12.196  65.798  1.00  0.00     0.610 C  
HETATM   17  C   UNL     1     -11.441  12.054  63.597  1.00  0.00    -0.468 C  
HETATM   18  C   UNL     1     -10.106  11.670  64.235  1.00  0.00    -0.328 C  
HETATM   19  N   UNL     1     -12.328  12.835  64.475  1.00  0.00    -0.493 NA 
HETATM   20  C   UNL     1     -11.166  11.798  66.472  1.00  0.00    -0.380 C  
BRANCH  19  21
HETATM   21  C   UNL     1     -11.922  14.242  64.615  1.00  0.00    -0.455 C  
BRANCH  21  22
HETATM   22  C   UNL     1     -10.395  14.445  64.605  1.00  0.00    -0.215 C  
BRANCH  22  23
HETATM   23  C   UNL     1     -10.008  15.515  65.593  1.00  0.00    -0.394 A  
HETATM   24  C   UNL     1     -10.907  16.537  65.911  1.00  0.00    -0.096 A  
HETATM   25  C   UNL     1     -10.507  17.602  66.715  1.00  0.00    -0.289 A  
HETATM   26  C   UNL     1      -9.196  17.673  67.224  1.00  0.00    -0.241 A  
HETATM   27  C   UNL     1      -8.725  15.544  66.132  1.00  0.00    -0.186 A  
HETATM   28  C   UNL     1      -8.326  16.606  66.944  1.00  0.00    -0.243 A  
BRANCH  26  29
HETATM   29  C   UNL     1      -8.735  18.934  67.978  1.00  0.00    -0.330 C  
HETATM   30  C   UNL     1      -8.519  20.136  67.042  1.00  0.00    -0.335 C  
HETATM   31  C   UNL     1      -9.807  19.318  69.023  1.00  0.00    -0.466 C  
HETATM   32  C   UNL     1      -7.398  18.746  68.723  1.00  0.00    -0.342 C  
HETATM   33  O   UNL     1      -8.065  19.828  65.802  1.00  0.00    -0.373 OA 
HETATM   34  O   UNL     1      -8.669  21.303  67.373  1.00  0.00     0.004 OA 
ENDBRANCH  26  29
ENDBRANCH  22  23
ENDBRANCH  21  22
ENDBRANCH  19  21
ENDBRANCH   7  15
ENDBRANCH   5   6
ENDBRANCH   4   5
ENDBRANCH   3   4
ENDBRANCH   2   3
TORSDOF 9
ENDMDL
MODEL      184
REMARK 921   NORMALIZED FREE ENERGY PREDICTED BY IDOCK:   -3.63 KCAL/MOL
REMARK 922        TOTAL FREE ENERGY PREDICTED BY IDOCK:   -5.73 KCAL/MOL
REMARK 923 INTER-LIGAND FREE ENERGY PREDICTED BY IDOCK:   -6.38 KCAL/MOL
REMARK 924 INTRA-LIGAND FREE ENERGY PREDICTED BY IDOCK:    0.66 KCAL/MOL
REMARK 927      BINDING AFFINITY PREDICTED BY RF-SCORE:    0.00 PKD
ROOT
HETATM    1  C   UNL     1      -8.876   6.248  69.708  1.00  0.00    -0.140 C  
HETATM    2  C   UNL     1      -9.526   7.245  68.768  1.00  0.00    -0.142 C  
ENDROOT
BRANCH   2   3
HETATM    3  O   UNL     1      -8.662   8.367  68.552  1.00  0.00    -0.135 OA 
BRANCH   3   4
HETATM    4  C   UNL     1      -9.434   9.551  68.308  1.00  0.00    -0.133 C  
BRANCH   4   5
HETATM    5  C   UNL     1      -8.637  10.557  67.478  1.00  0.00    -0.121 C  
BRANCH   5   6
HETATM    6  N   UNL     1      -8.495  10.159  66.086  1.00  0.00    -0.127 NA 
HETATM    7  C   UNL     1      -9.402  10.343  65.055  1.00  0.00    -0.229 A  
HETATM    8  N   UNL     1      -8.930   9.857  63.924  1.00  0.00    -0.232 NA 
HETATM    9  C   UNL     1      -6.204   9.029  66.129  1.00  0.00    -0.063 A  
HETATM   10  C   UNL     1      -7.700   9.334  64.220  1.00  0.00    -0.119 A  
HETATM   11  C   UNL     1      -7.402   9.493  65.569  1.00  0.00    -0.094 A  
HETATM   12  C   UNL     1      -5.291   8.406  65.271  1.00  0.00    -0.035 A  
HETATM   13  C   UNL     1      -6.779   8.696  63.376  1.00  0.00    -0.089 A  
HETATM   14  C   UNL     1      -5.571   8.239  63.916  1.00  0.00    -0.061 A  
BRANCH   7  15
HETATM   15  C   UNL     1     -10.744  10.984  65.213  1.00  0.00    -0.234 C  
HETATM   16  C   UNL     1     -12.234  12.527  66.463  1.00  0.00     0.019 C  
HETATM   17  C   UNL     1     -12.671  12.077  64.105  1.00  0.00    -0.254 C  
HETATM   18  C   UNL     1     -11.228  11.614  63.907  1.00  0.00    -0.479 C  
HETATM   19  N   UNL     1     -12.855  13.023  65.218  1.00  0.00    -0.713 NA 
HETATM   20  C   UNL     1     -10.783  12.055  66.306  1.00  0.00    -0.302 C  
BRANCH  19  21
HETATM   21  C   UNL     1     -12.397  14.387  64.909  1.00  0.00    -0.405 C  
BRANCH  21  22
HETATM   22  C   UNL     1     -10.881  14.483  64.655  1.00  0.00    -0.351 C  
BRANCH  22  23
HETATM   23  C   UNL     1     -10.316  15.697  65.346  1.00  0.00    -0.421 A  
HETATM   24  C   UNL     1      -9.552  15.553  66.508  1.00  0.00    -0.295 A  
HETATM   25  C   UNL     1      -9.145  16.675  67.227  1.00  0.00    -0.225 A  
HETATM   26  C   UNL     1      -9.490  17.972  66.802  1.00  0.00    -0.293 A  
HETATM   27  C   UNL     1     -10.619  16.975  64.884  1.00  0.00     0.263 A  
HETATM   28  C   UNL     1     -10.205  18.099  65.598  1.00  0.00     0.049 A  
BRANCH  26  29
HETATM   29  C   UNL     1      -9.162  19.182  67.695  1.00  0.00    -0.349 C  
HETATM   30  C   UNL     1     -10.372  19.653  68.521  1.00  0.00    -0.347 C  
HETATM   31  C   UNL     1      -8.027  18.798  68.671  1.00  0.00    -0.369 C  
HETATM   32  C   UNL     1      -8.699  20.420  66.900  1.00  0.00    -0.345 C  
HETATM   33  O   UNL     1     -11.576  19.505  67.915  1.00  0.00     0.538 OA 
HETATM   34  O   UNL     1     -10.292  20.186  69.617  1.00  0.00    -0.150 OA 
ENDBRANCH  26  29
ENDBRANCH  22  23
ENDBRANCH  21  22
ENDBRANCH  19  21
ENDBRANCH   7  15
ENDBRANCH   5   6
ENDBRANCH   4   5
ENDBRANCH   3   4
ENDBRANCH   2   3
TORSDOF 9
ENDMDL
MODEL      185
REMARK 921   NORMALIZED FREE ENERGY PREDICTED BY IDOCK:   -3.60 KCAL/MOL
REMARK 922        TOTAL FREE ENERGY PREDICTED BY IDOCK:   -5.69 KCAL/MOL
REMARK 923 INTER-LIGAND FREE ENERGY PREDICTED BY IDOCK:   -5.65 KCAL/MOL
REMARK 924 INTRA-LIGAND FREE ENERGY PREDICTED BY IDOCK:   -0.04 KCAL/MOL
REMARK 927      BINDING AFFINITY PREDICTED BY RF-SCORE:    0.00 PKD
ROOT
HETATM    1  C   UNL     1     -12.184  14.407  64.009  1.00  0.00    -0.300 C  
HETATM    2  C   UNL     1     -11.969  12.911  63.897  1.00  0.00    -0.480 C  
ENDROOT
BRANCH   2   3
HETATM    3  O   UNL     1     -10.598  12.582  64.148  1.00  0.00    -0.342 OA 
BRANCH   3   4
HETATM    4  C   UNL     1     -10.412  12.242  65.529  1.00  0.00    -0.264 C  
BRANCH   4   5
HETATM    5  C   UNL     1      -9.262  13.045  66.136  1.00  0.00     0.005 C  
BRANCH   5   6
HETATM    6  N   UNL     1      -9.708  14.028  67.111  1.00  0.00    -0.236 NA 
HETATM    7  C   UNL     1     -10.021  13.817  68.445  1.00  0.00    -0.229 A  
HETATM    8  N   UNL     1     -10.385  14.945  69.024  1.00  0.00    -0.240 NA 
HETATM    9  C   UNL     1      -9.788  16.142  65.678  1.00  0.00    -0.290 A  
HETATM   10  C   UNL     1     -10.324  15.907  68.052  1.00  0.00    -0.262 A  
HETATM   11  C   UNL     1      -9.917  15.365  66.838  1.00  0.00    -0.243 A  
HETATM   12  C   UNL     1     -10.067  17.509  65.786  1.00  0.00    -0.119 A  
HETATM   13  C   UNL     1     -10.611  17.277  68.139  1.00  0.00    -0.386 A  
HETATM   14  C   UNL     1     -10.474  18.071  66.995  1.00  0.00    -0.361 A  
BRANCH   7  15
HETATM   15  C   UNL     1      -9.974  12.486  69.124  1.00  0.00     0.361 C  
HETATM   16  C   UNL     1     -11.139  10.406  69.819  1.00  0.00    -0.295 C  
HETATM   17  C   UNL     1      -8.720  10.381  69.494  1.00  0.00    -0.084 C  
HETATM   18  C   UNL     1      -8.806  11.636  68.624  1.00  0.00    -0.084 C  
HETATM   19  N   UNL     1      -9.954   9.577  69.518  1.00  0.00    -0.182 NA 
HETATM   20  C   UNL     1     -11.261  11.674  68.964  1.00  0.00    -0.323 C  
BRANCH  19  21
HETATM   21  C   UNL     1     -10.161   8.787  68.294  1.00  0.00    -0.188 C  
BRANCH  21  22
HETATM   22  C   UNL     1      -8.931   7.956  67.883  1.00  0.00    -0.129 C  
BRANCH  22  23
HETATM   23  C   UNL     1      -8.485   7.088  69.031  1.00  0.00    -0.129 A  
HETATM   24  C   UNL     1      -9.408   6.282  69.704  1.00  0.00    -0.150 A  
HETATM   25  C   UNL     1      -9.030   5.585  70.850  1.00  0.00    -0.153 A  
HETATM   26  C   UNL     1      -7.718   5.675  71.353  1.00  0.00    -0.109 A  
HETATM   27  C   UNL     1      -7.169   7.144  69.486  1.00  0.00    -0.080 A  
HETATM   28  C   UNL     1      -6.789   6.440  70.628  1.00  0.00    -0.063 A  
BRANCH  26  29
HETATM   29  C   UNL     1      -7.370   5.021  72.703  1.00  0.00    -0.090 C  
HETATM   30  C   UNL     1      -5.905   4.556  72.775  1.00  0.00    -0.012 C  
HETATM   31  C   UNL     1      -7.611   6.044  73.837  1.00  0.00    -0.091 C  
HETATM   32  C   UNL     1      -8.216   3.769  73.012  1.00  0.00    -0.090 C  
HETATM   33  O   UNL     1      -5.381   4.120  71.602  1.00  0.00     0.000 OA 
HETATM   34  O   UNL     1      -5.248   4.504  73.803  1.00  0.00    -0.007 OA 
ENDBRANCH  26  29
ENDBRANCH  22  23
ENDBRANCH  21  22
ENDBRANCH  19  21
ENDBRANCH   7  15
ENDBRANCH   5   6
ENDBRANCH   4   5
ENDBRANCH   3   4
ENDBRANCH   2   3
TORSDOF 9
ENDMDL
MODEL      186
REMARK 921   NORMALIZED FREE ENERGY PREDICTED BY IDOCK:   -3.57 KCAL/MOL
REMARK 922        TOTAL FREE ENERGY PREDICTED BY IDOCK:   -5.64 KCAL/MOL
REMARK 923 INTER-LIGAND FREE ENERGY PREDICTED BY IDOCK:   -6.51 KCAL/MOL
REMARK 924 INTRA-LIGAND FREE ENERGY PREDICTED BY IDOCK:    0.87 KCAL/MOL
REMARK 927      BINDING AFFINITY PREDICTED BY RF-SCORE:    0.00 PKD
ROOT
HETATM    1  C   UNL     1     -11.791  11.502  68.870  1.00  0.00    -0.406 C  
HETATM    2  C   UNL     1     -10.534  12.176  69.385  1.00  0.00     0.290 C  
ENDROOT
BRANCH   2   3
HETATM    3  O   UNL     1     -10.378  13.468  68.785  1.00  0.00    -0.226 OA 
BRANCH   3   4
HETATM    4  C   UNL     1     -11.606  14.205  68.863  1.00  0.00    -0.310 C  
BRANCH   4   5
HETATM    5  C   UNL     1     -11.917  14.885  67.530  1.00  0.00    -0.131 C  
BRANCH   5   6
HETATM    6  N   UNL     1     -10.762  15.553  66.951  1.00  0.00    -0.316 NA 
HETATM    7  C   UNL     1      -9.998  15.142  65.870  1.00  0.00    -0.328 A  
HETATM    8  N   UNL     1      -9.031  16.004  65.625  1.00  0.00    -0.283 NA 
HETATM    9  C   UNL     1     -10.548  17.584  68.486  1.00  0.00    -0.312 A  
HETATM   10  C   UNL     1      -9.153  16.990  66.567  1.00  0.00    -0.264 A  
HETATM   11  C   UNL     1     -10.219  16.731  67.423  1.00  0.00    -0.288 A  
HETATM   12  C   UNL     1      -9.769  18.735  68.652  1.00  0.00    -0.437 A  
HETATM   13  C   UNL     1      -8.376  18.142  66.755  1.00  0.00    -0.270 A  
HETATM   14  C   UNL     1      -8.698  19.012  67.802  1.00  0.00    -0.328 A  
BRANCH   7  15
HETATM   15  C   UNL     1     -10.228  13.878  65.104  1.00  0.00    -0.382 C  
HETATM   16  C   UNL     1      -9.406  11.655  64.365  1.00  0.00     0.066 C  
HETATM   17  C   UNL     1     -11.807  12.065  64.507  1.00  0.00    -0.285 C  
HETATM   18  C   UNL     1     -11.569  13.237  65.460  1.00  0.00    -0.351 C  
HETATM   19  N   UNL     1     -10.743  11.048  64.522  1.00  0.00    -0.317 NA 
HETATM   20  C   UNL     1      -9.128  12.834  65.307  1.00  0.00     0.739 C  
BRANCH  19  21
HETATM   21  C   UNL     1     -10.788  10.173  65.705  1.00  0.00     0.433 C  
BRANCH  21  22
HETATM   22  C   UNL     1      -9.459   9.445  65.982  1.00  0.00    -0.304 C  
BRANCH  22  23
HETATM   23  C   UNL     1      -9.455   8.889  67.382  1.00  0.00    -0.181 A  
HETATM   24  C   UNL     1      -9.729   7.536  67.603  1.00  0.00    -0.182 A  
HETATM   25  C   UNL     1      -9.863   7.048  68.901  1.00  0.00    -0.150 A  
HETATM   26  C   UNL     1      -9.724   7.899  70.013  1.00  0.00    -0.179 A  
HETATM   27  C   UNL     1      -9.261   9.732  68.474  1.00  0.00    -0.134 A  
HETATM   28  C   UNL     1      -9.386   9.242  69.773  1.00  0.00    -0.199 A  
BRANCH  26  29
HETATM   29  C   UNL     1     -10.029   7.368  71.426  1.00  0.00    -0.195 C  
HETATM   30  C   UNL     1     -11.374   6.623  71.500  1.00  0.00    -0.281 C  
HETATM   31  C   UNL     1      -8.909   6.393  71.853  1.00  0.00    -0.138 C  
HETATM   32  C   UNL     1     -10.116   8.480  72.491  1.00  0.00    -0.320 C  
HETATM   33  O   UNL     1     -12.343   7.099  70.679  1.00  0.00    -0.272 OA 
HETATM   34  O   UNL     1     -11.612   5.707  72.272  1.00  0.00    -0.264 OA 
ENDBRANCH  26  29
ENDBRANCH  22  23
ENDBRANCH  21  22
ENDBRANCH  19  21
ENDBRANCH   7  15
ENDBRANCH   5   6
ENDBRANCH   4   5
ENDBRANCH   3   4
ENDBRANCH   2   3
TORSDOF 9
ENDMDL
MODEL      187
REMARK 921   NORMALIZED FREE ENERGY PREDICTED BY IDOCK:   -3.50 KCAL/MOL
REMARK 922        TOTAL FREE ENERGY PREDICTED BY IDOCK:   -5.52 KCAL/MOL
REMARK 923 INTER-LIGAND FREE ENERGY PREDICTED BY IDOCK:   -4.08 KCAL/MOL
REMARK 924 INTRA-LIGAND FREE ENERGY PREDICTED BY IDOCK:   -1.44 KCAL/MOL
REMARK 927      BINDING AFFINITY PREDICTED BY RF-SCORE:    0.00 PKD
ROOT
HETATM    1  C   UNL     1      -9.665  17.222  68.389  1.00  0.00    -0.293 C  
HETATM    2  C   UNL     1      -9.424  16.244  67.255  1.00  0.00    -0.227 C  
ENDROOT
BRANCH   2   3
HETATM    3  O   UNL     1      -9.427  14.898  67.745  1.00  0.00    -0.199 OA 
BRANCH   3   4
HETATM    4  C   UNL     1     -10.429  14.125  67.070  1.00  0.00    -0.271 C  
BRANCH   4   5
HETATM    5  C   UNL     1      -9.820  12.864  66.457  1.00  0.00    -0.254 C  
BRANCH   5   6
HETATM    6  N   UNL     1      -9.092  12.057  67.424  1.00  0.00    -0.173 NA 
HETATM    7  C   UNL     1      -9.593  11.430  68.553  1.00  0.00    -0.189 A  
HETATM    8  N   UNL     1      -8.638  10.781  69.191  1.00  0.00    -0.128 NA 
HETATM    9  C   UNL     1      -6.719  12.185  66.484  1.00  0.00     0.472 A  
HETATM   10  C   UNL     1      -7.490  10.997  68.477  1.00  0.00    -0.106 A  
HETATM   11  C   UNL     1      -7.735  11.804  67.371  1.00  0.00    -0.151 A  
HETATM   12  C   UNL     1      -5.429  11.704  66.738  1.00  0.00    -0.125 A  
HETATM   13  C   UNL     1      -6.190  10.533  68.723  1.00  0.00    -0.046 A  
HETATM   14  C   UNL     1      -5.165  10.892  67.840  1.00  0.00    -0.039 A  
BRANCH   7  15
HETATM   15  C   UNL     1     -11.018  11.502  68.998  1.00  0.00    -0.285 C  
HETATM   16  C   UNL     1     -13.108  10.332  69.655  1.00  0.00     0.999 C  
HETATM   17  C   UNL     1     -12.686  12.594  70.469  1.00  0.00     0.010 C  
HETATM   18  C   UNL     1     -11.190  12.431  70.199  1.00  0.00     0.351 C  
HETATM   19  N   UNL     1     -13.398  11.327  70.707  1.00  0.00     0.268 NA 
HETATM   20  C   UNL     1     -11.615  10.139  69.356  1.00  0.00    -0.151 C  
BRANCH  19  21
HETATM   21  C   UNL     1     -13.157  10.763  72.045  1.00  0.00    -0.371 C  
BRANCH  21  22
HETATM   22  C   UNL     1     -13.695   9.330  72.214  1.00  0.00    -0.527 C  
BRANCH  22  23
HETATM   23  C   UNL     1     -12.557   8.343  72.192  1.00  0.00    -0.412 A  
HETATM   24  C   UNL     1     -11.248   8.772  72.430  1.00  0.00    -0.251 A  
HETATM   25  C   UNL     1     -10.179   7.893  72.274  1.00  0.00    -0.302 A  
HETATM   26  C   UNL     1     -10.390   6.559  71.877  1.00  0.00    -0.223 A  
HETATM   27  C   UNL     1     -12.786   7.012  71.851  1.00  0.00    -0.314 A  
HETATM   28  C   UNL     1     -11.717   6.129  71.703  1.00  0.00    -0.290 A  
BRANCH  26  29
HETATM   29  C   UNL     1      -9.185   5.654  71.562  1.00  0.00    -0.158 C  
HETATM   30  C   UNL     1      -8.283   6.234  70.458  1.00  0.00    -0.118 C  
HETATM   31  C   UNL     1      -8.335   5.480  72.842  1.00  0.00    -0.116 C  
HETATM   32  C   UNL     1      -9.587   4.249  71.070  1.00  0.00    -0.253 C  
HETATM   33  O   UNL     1      -8.929   6.940  69.497  1.00  0.00    -0.142 OA 
HETATM   34  O   UNL     1      -7.079   6.041  70.380  1.00  0.00    -0.066 OA 
ENDBRANCH  26  29
ENDBRANCH  22  23
ENDBRANCH  21  22
ENDBRANCH  19  21
ENDBRANCH   7  15
ENDBRANCH   5   6
ENDBRANCH   4   5
ENDBRANCH   3   4
ENDBRANCH   2   3
TORSDOF 9
ENDMDL
MODEL      188
REMARK 921   NORMALIZED FREE ENERGY PREDICTED BY IDOCK:   -3.37 KCAL/MOL
REMARK 922        TOTAL FREE ENERGY PREDICTED BY IDOCK:   -5.33 KCAL/MOL
REMARK 923 INTER-LIGAND FREE ENERGY PREDICTED BY IDOCK:   -4.34 KCAL/MOL
REMARK 924 INTRA-LIGAND FREE ENERGY PREDICTED BY IDOCK:   -1.00 KCAL/MOL
REMARK 927      BINDING AFFINITY PREDICTED BY RF-SCORE:    0.00 PKD
ROOT
HETATM    1  C   UNL     1      -8.557  10.004  63.371  1.00  0.00    -0.204 C  
HETATM    2  C   UNL     1      -9.190  11.371  63.546  1.00  0.00    -0.093 C  
ENDROOT
BRANCH   2   3
HETATM    3  O   UNL     1      -9.297  11.699  64.937  1.00  0.00    -0.144 OA 
BRANCH   3   4
HETATM    4  C   UNL     1      -8.199  11.132  65.668  1.00  0.00     0.047 C  
BRANCH   4   5
HETATM    5  C   UNL     1      -8.293  11.490  67.151  1.00  0.00    -0.160 C  
BRANCH   5   6
HETATM    6  N   UNL     1      -9.196  10.620  67.889  1.00  0.00    -0.147 NA 
HETATM    7  C   UNL     1      -9.174   9.236  67.955  1.00  0.00    -0.129 A  
HETATM    8  N   UNL     1     -10.146   8.789  68.726  1.00  0.00    -0.193 NA 
HETATM    9  C   UNL     1     -10.784  12.330  68.930  1.00  0.00    -0.210 A  
HETATM   10  C   UNL     1     -10.824   9.896  69.162  1.00  0.00    -0.221 A  
HETATM   11  C   UNL     1     -10.264  11.059  68.645  1.00  0.00    -0.199 A  
HETATM   12  C   UNL     1     -11.892  12.395  69.782  1.00  0.00    -0.387 A  
HETATM   13  C   UNL     1     -11.942   9.979  70.005  1.00  0.00    -0.146 A  
HETATM   14  C   UNL     1     -12.466  11.240  70.312  1.00  0.00    -0.330 A  
BRANCH   7  15
HETATM   15  C   UNL     1      -8.196   8.370  67.228  1.00  0.00    -0.112 C  
HETATM   16  C   UNL     1      -6.220   6.867  67.295  1.00  0.00    -0.037 C  
HETATM   17  C   UNL     1      -7.834   6.655  65.477  1.00  0.00    -0.108 C  
HETATM   18  C   UNL     1      -8.898   7.366  66.315  1.00  0.00    -0.182 C  
HETATM   19  N   UNL     1      -6.797   5.974  66.270  1.00  0.00    -0.060 NA 
HETATM   20  C   UNL     1      -7.257   7.598  68.158  1.00  0.00    -0.093 C  
BRANCH  19  21
HETATM   21  C   UNL     1      -7.255   4.711  66.870  1.00  0.00    -0.076 C  
BRANCH  21  22
HETATM   22  C   UNL     1      -8.777   4.654  67.098  1.00  0.00    -0.104 C  
BRANCH  22  23
HETATM   23  C   UNL     1      -9.081   4.687  68.573  1.00  0.00    -0.157 A  
HETATM   24  C   UNL     1      -8.374   3.866  69.456  1.00  0.00    -0.078 A  
HETATM   25  C   UNL     1      -8.744   3.790  70.798  1.00  0.00    -0.121 A  
HETATM   26  C   UNL     1      -9.831   4.536  71.292  1.00  0.00    -0.260 A  
HETATM   27  C   UNL     1     -10.124   5.472  69.060  1.00  0.00    -0.275 A  
HETATM   28  C   UNL     1     -10.489   5.403  70.404  1.00  0.00    -0.345 A  
BRANCH  26  29
HETATM   29  C   UNL     1     -10.314   4.317  72.738  1.00  0.00    -0.243 C  
HETATM   30  C   UNL     1     -10.316   5.616  73.564  1.00  0.00    -0.233 C  
HETATM   31  C   UNL     1     -11.754   3.757  72.710  1.00  0.00     0.561 C  
HETATM   32  C   UNL     1      -9.439   3.325  73.531  1.00  0.00    -0.123 C  
HETATM   33  O   UNL     1      -9.332   6.498  73.254  1.00  0.00    -0.131 OA 
HETATM   34  O   UNL     1     -11.086   5.847  74.483  1.00  0.00     0.352 OA 
ENDBRANCH  26  29
ENDBRANCH  22  23
ENDBRANCH  21  22
ENDBRANCH  19  21
ENDBRANCH   7  15
ENDBRANCH   5   6
ENDBRANCH   4   5
ENDBRANCH   3   4
ENDBRANCH   2   3
TORSDOF 9
ENDMDL
MODEL      189
REMARK 921   NORMALIZED FREE ENERGY PREDICTED BY IDOCK:   -3.35 KCAL/MOL
REMARK 922        TOTAL FREE ENERGY PREDICTED BY IDOCK:   -5.30 KCAL/MOL
REMARK 923 INTER-LIGAND FREE ENERGY PREDICTED BY IDOCK:   -5.66 KCAL/MOL
REMARK 924 INTRA-LIGAND FREE ENERGY PREDICTED BY IDOCK:    0.36 KCAL/MOL
REMARK 927      BINDING AFFINITY PREDICTED BY RF-SCORE:    0.00 PKD
ROOT
HETATM    1  C   UNL     1     -10.944  16.071  64.533  1.00  0.00    -0.179 C  
HETATM    2  C   UNL     1     -10.903  15.157  65.742  1.00  0.00    -0.353 C  
ENDROOT
BRANCH   2   3
HETATM    3  O   UNL     1      -9.630  14.506  65.834  1.00  0.00    -0.301 OA 
BRANCH   3   4
HETATM    4  C   UNL     1      -9.791  13.083  65.748  1.00  0.00    -0.209 C  
BRANCH   4   5
HETATM    5  C   UNL     1      -9.149  12.390  66.949  1.00  0.00    -0.211 C  
BRANCH   5   6
HETATM    6  N   UNL     1      -7.999  11.575  66.586  1.00  0.00    -0.152 NA 
HETATM    7  C   UNL     1      -6.676  11.767  66.947  1.00  0.00    -0.105 A  
HETATM    8  N   UNL     1      -5.909  10.824  66.436  1.00  0.00    -0.094 NA 
HETATM    9  C   UNL     1      -9.101   9.801  65.113  1.00  0.00    -0.270 A  
HETATM   10  C   UNL     1      -6.741  10.007  65.717  1.00  0.00    -0.106 A  
HETATM   11  C   UNL     1      -8.055  10.456  65.778  1.00  0.00    -0.155 A  
HETATM   12  C   UNL     1      -8.779   8.648  64.388  1.00  0.00    -0.006 A  
HETATM   13  C   UNL     1      -6.434   8.857  64.976  1.00  0.00    -0.065 A  
HETATM   14  C   UNL     1      -7.467   8.181  64.317  1.00  0.00    -0.101 A  
BRANCH   7  15
HETATM   15  C   UNL     1      -6.184  12.906  67.782  1.00  0.00    -0.144 C  
HETATM   16  C   UNL     1      -5.649  15.322  67.989  1.00  0.00    -0.136 C  
HETATM   17  C   UNL     1      -6.224  14.040  69.984  1.00  0.00    -0.142 C  
HETATM   18  C   UNL     1      -6.909  12.976  69.126  1.00  0.00    -0.058 C  
HETATM   19  N   UNL     1      -6.176  15.376  69.367  1.00  0.00    -0.121 NA 
HETATM   20  C   UNL     1      -6.314  14.267  67.095  1.00  0.00     0.683 C  
BRANCH  19  21
HETATM   21  C   UNL     1      -7.464  16.086  69.410  1.00  0.00    -0.201 C  
BRANCH  21  22
HETATM   22  C   UNL     1      -8.554  15.436  68.537  1.00  0.00    -0.172 C  
BRANCH  22  23
HETATM   23  C   UNL     1      -9.824  15.271  69.330  1.00  0.00    -0.253 A  
HETATM   24  C   UNL     1     -10.390  16.366  69.990  1.00  0.00    -0.034 A  
HETATM   25  C   UNL     1     -11.483  16.191  70.835  1.00  0.00    -0.421 A  
HETATM   26  C   UNL     1     -12.041  14.916  71.043  1.00  0.00    -0.380 A  
HETATM   27  C   UNL     1     -10.399  14.011  69.485  1.00  0.00     0.224 A  
HETATM   28  C   UNL     1     -11.499  13.837  70.324  1.00  0.00    -0.087 A  
BRANCH  26  29
HETATM   29  C   UNL     1     -13.146  14.727  72.099  1.00  0.00    -0.426 C  
HETATM   30  C   UNL     1     -12.729  15.241  73.489  1.00  0.00    -0.559 C  
HETATM   31  C   UNL     1     -14.408  15.500  71.654  1.00  0.00    -0.510 C  
HETATM   32  C   UNL     1     -13.547  13.252  72.308  1.00  0.00    -0.703 C  
HETATM   33  O   UNL     1     -11.413  15.101  73.785  1.00  0.00    -0.034 OA 
HETATM   34  O   UNL     1     -13.506  15.687  74.320  1.00  0.00     0.123 OA 
ENDBRANCH  26  29
ENDBRANCH  22  23
ENDBRANCH  21  22
ENDBRANCH  19  21
ENDBRANCH   7  15
ENDBRANCH   5   6
ENDBRANCH   4   5
ENDBRANCH   3   4
ENDBRANCH   2   3
TORSDOF 9
ENDMDL
MODEL      190
REMARK 921   NORMALIZED FREE ENERGY PREDICTED BY IDOCK:   -3.32 KCAL/MOL
REMARK 922        TOTAL FREE ENERGY PREDICTED BY IDOCK:   -5.25 KCAL/MOL
REMARK 923 INTER-LIGAND FREE ENERGY PREDICTED BY IDOCK:   -7.54 KCAL/MOL
REMARK 924 INTRA-LIGAND FREE ENERGY PREDICTED BY IDOCK:    2.29 KCAL/MOL
REMARK 927      BINDING AFFINITY PREDICTED BY RF-SCORE:    0.00 PKD
ROOT
HETATM    1  C   UNL     1     -10.362   2.671  73.997  1.00  0.00    -0.205 C  
HETATM    2  C   UNL     1     -11.783   3.000  73.580  1.00  0.00     0.131 C  
ENDROOT
BRANCH   2   3
HETATM    3  O   UNL     1     -11.983   4.418  73.560  1.00  0.00    -0.088 OA 
BRANCH   3   4
HETATM    4  C   UNL     1     -10.957   5.055  72.785  1.00  0.00    -0.247 C  
BRANCH   4   5
HETATM    5  C   UNL     1     -10.156   4.023  71.992  1.00  0.00    -0.157 C  
BRANCH   5   6
HETATM    6  N   UNL     1      -9.889   4.440  70.624  1.00  0.00    -0.211 NA 
HETATM    7  C   UNL     1      -9.899   5.727  70.113  1.00  0.00    -0.184 A  
HETATM    8  N   UNL     1      -9.604   5.724  68.828  1.00  0.00    -0.123 NA 
HETATM    9  C   UNL     1      -9.466   2.186  69.497  1.00  0.00    -0.113 A  
HETATM   10  C   UNL     1      -9.410   4.412  68.487  1.00  0.00    -0.145 A  
HETATM   11  C   UNL     1      -9.594   3.579  69.585  1.00  0.00    -0.114 A  
HETATM   12  C   UNL     1      -9.122   1.650  68.250  1.00  0.00    -0.194 A  
HETATM   13  C   UNL     1      -9.078   3.857  67.243  1.00  0.00    -0.177 A  
HETATM   14  C   UNL     1      -8.931   2.469  67.139  1.00  0.00    -0.175 A  
BRANCH   7  15
HETATM   15  C   UNL     1     -10.226   6.950  70.909  1.00  0.00    -0.214 C  
HETATM   16  C   UNL     1      -9.633   9.256  71.614  1.00  0.00     0.009 C  
HETATM   17  C   UNL     1     -11.970   8.551  71.643  1.00  0.00    -0.316 C  
HETATM   18  C   UNL     1     -11.659   7.421  70.660  1.00  0.00    -0.295 C  
HETATM   19  N   UNL     1     -11.044   9.693  71.562  1.00  0.00    -0.345 NA 
HETATM   20  C   UNL     1      -9.282   8.124  70.640  1.00  0.00    -0.162 C  
BRANCH  19  21
HETATM   21  C   UNL     1     -11.284  10.559  70.397  1.00  0.00    -0.298 C  
BRANCH  21  22
HETATM   22  C   UNL     1     -10.074  10.664  69.449  1.00  0.00    -0.199 C  
BRANCH  22  23
HETATM   23  C   UNL     1     -10.171  11.919  68.622  1.00  0.00    -0.202 A  
HETATM   24  C   UNL     1      -9.313  12.116  67.536  1.00  0.00    -0.181 A  
HETATM   25  C   UNL     1      -9.305  13.331  66.855  1.00  0.00    -0.244 A  
HETATM   26  C   UNL     1     -10.158  14.383  67.240  1.00  0.00    -0.251 A  
HETATM   27  C   UNL     1     -11.058  12.932  68.981  1.00  0.00    -0.284 A  
HETATM   28  C   UNL     1     -11.057  14.145  68.294  1.00  0.00    -0.274 A  
BRANCH  26  29
HETATM   29  C   UNL     1     -10.020  15.763  66.572  1.00  0.00    -0.283 C  
HETATM   30  C   UNL     1     -10.593  15.789  65.144  1.00  0.00    -0.411 C  
HETATM   31  C   UNL     1     -10.776  16.813  67.418  1.00  0.00    -0.244 C  
HETATM   32  C   UNL     1      -8.557  16.233  66.438  1.00  0.00    -0.361 C  
HETATM   33  O   UNL     1     -10.462  14.631  64.449  1.00  0.00    -0.137 OA 
HETATM   34  O   UNL     1     -11.078  16.777  64.614  1.00  0.00    -0.844 OA 
ENDBRANCH  26  29
ENDBRANCH  22  23
ENDBRANCH  21  22
ENDBRANCH  19  21
ENDBRANCH   7  15
ENDBRANCH   5   6
ENDBRANCH   4   5
ENDBRANCH   3   4
ENDBRANCH   2   3
TORSDOF 9
ENDMDL
MODEL      191
REMARK 921   NORMALIZED FREE ENERGY PREDICTED BY IDOCK:   -3.32 KCAL/MOL
REMARK 922        TOTAL FREE ENERGY PREDICTED BY IDOCK:   -5.25 KCAL/MOL
REMARK 923 INTER-LIGAND FREE ENERGY PREDICTED BY IDOCK:   -7.10 KCAL/MOL
REMARK 924 INTRA-LIGAND FREE ENERGY PREDICTED BY IDOCK:    1.85 KCAL/MOL
REMARK 927      BINDING AFFINITY PREDICTED BY RF-SCORE:    0.00 PKD
ROOT
HETATM    1  C   UNL     1     -11.586  10.557  71.428  1.00  0.00     0.027 C  
HETATM    2  C   UNL     1     -12.445  10.712  70.188  1.00  0.00    -0.270 C  
ENDROOT
BRANCH   2   3
HETATM    3  O   UNL     1     -11.633  10.661  69.008  1.00  0.00    -0.275 OA 
BRANCH   3   4
HETATM    4  C   UNL     1     -10.889   9.436  68.968  1.00  0.00    -0.136 C  
BRANCH   4   5
HETATM    5  C   UNL     1      -9.586   9.566  69.757  1.00  0.00    -0.216 C  
BRANCH   5   6
HETATM    6  N   UNL     1      -8.503   8.771  69.199  1.00  0.00    -0.121 NA 
HETATM    7  C   UNL     1      -7.910   8.901  67.954  1.00  0.00    -0.102 A  
HETATM    8  N   UNL     1      -6.954   8.007  67.795  1.00  0.00    -0.076 NA 
HETATM    9  C   UNL     1      -8.081   7.114  71.098  1.00  0.00    -0.104 A  
HETATM   10  C   UNL     1      -6.927   7.271  68.949  1.00  0.00    -0.078 A  
HETATM   11  C   UNL     1      -7.894   7.713  69.845  1.00  0.00    -0.102 A  
HETATM   12  C   UNL     1      -7.238   6.049  71.435  1.00  0.00    -0.079 A  
HETATM   13  C   UNL     1      -6.098   6.194  69.297  1.00  0.00    -0.029 A  
HETATM   14  C   UNL     1      -6.261   5.593  70.550  1.00  0.00    -0.030 A  
BRANCH   7  15
HETATM   15  C   UNL     1      -8.320   9.904  66.923  1.00  0.00    -0.124 C  
HETATM   16  C   UNL     1      -9.585  10.439  64.855  1.00  0.00    -0.289 C  
HETATM   17  C   UNL     1      -9.089  12.212  66.456  1.00  0.00    -0.199 C  
HETATM   18  C   UNL     1      -8.872  11.178  67.561  1.00  0.00    -0.139 C  
HETATM   19  N   UNL     1      -9.983  11.763  65.375  1.00  0.00    -0.247 NA 
HETATM   20  C   UNL     1      -9.360   9.372  65.935  1.00  0.00    -0.290 C  
BRANCH  19  21
HETATM   21  C   UNL     1     -11.405  11.776  65.749  1.00  0.00    -0.250 C  
BRANCH  21  22
HETATM   22  C   UNL     1     -12.152  13.041  65.286  1.00  0.00    -0.484 C  
BRANCH  22  23
HETATM   23  C   UNL     1     -11.485  14.271  65.847  1.00  0.00    -0.335 A  
HETATM   24  C   UNL     1     -11.738  14.672  67.161  1.00  0.00    -0.392 A  
HETATM   25  C   UNL     1     -11.234  15.880  67.639  1.00  0.00    -0.219 A  
HETATM   26  C   UNL     1     -10.461  16.719  66.813  1.00  0.00    -0.258 A  
HETATM   27  C   UNL     1     -10.676  15.064  65.036  1.00  0.00    -0.448 A  
HETATM   28  C   UNL     1     -10.164  16.269  65.516  1.00  0.00    -0.326 A  
BRANCH  26  29
HETATM   29  C   UNL     1     -10.048  18.115  67.314  1.00  0.00    -0.354 C  
HETATM   30  C   UNL     1     -10.805  19.248  66.597  1.00  0.00    -0.325 C  
HETATM   31  C   UNL     1     -10.342  18.217  68.828  1.00  0.00    -0.270 C  
HETATM   32  C   UNL     1      -8.552  18.422  67.104  1.00  0.00    -0.262 C  
HETATM   33  O   UNL     1     -11.111  19.005  65.298  1.00  0.00    -0.401 OA 
HETATM   34  O   UNL     1     -11.072  20.327  67.104  1.00  0.00     0.107 OA 
ENDBRANCH  26  29
ENDBRANCH  22  23
ENDBRANCH  21  22
ENDBRANCH  19  21
ENDBRANCH   7  15
ENDBRANCH   5   6
ENDBRANCH   4   5
ENDBRANCH   3   4
ENDBRANCH   2   3
TORSDOF 9
ENDMDL
MODEL      192
REMARK 921   NORMALIZED FREE ENERGY PREDICTED BY IDOCK:   -3.25 KCAL/MOL
REMARK 922        TOTAL FREE ENERGY PREDICTED BY IDOCK:   -5.14 KCAL/MOL
REMARK 923 INTER-LIGAND FREE ENERGY PREDICTED BY IDOCK:   -5.10 KCAL/MOL
REMARK 924 INTRA-LIGAND FREE ENERGY PREDICTED BY IDOCK:   -0.05 KCAL/MOL
REMARK 927      BINDING AFFINITY PREDICTED BY RF-SCORE:    0.00 PKD
ROOT
HETATM    1  C   UNL     1      -5.126   9.734  73.437  1.00  0.00    -0.045 C  
HETATM    2  C   UNL     1      -5.974   8.645  72.810  1.00  0.00    -0.080 C  
ENDROOT
BRANCH   2   3
HETATM    3  O   UNL     1      -5.511   8.350  71.487  1.00  0.00    -0.033 OA 
BRANCH   3   4
HETATM    4  C   UNL     1      -5.450   9.549  70.702  1.00  0.00    -0.045 C  
BRANCH   4   5
HETATM    5  C   UNL     1      -6.193   9.371  69.379  1.00  0.00    -0.040 C  
BRANCH   5   6
HETATM    6  N   UNL     1      -6.267  10.597  68.599  1.00  0.00    -0.046 NA 
HETATM    7  C   UNL     1      -6.493  10.725  67.238  1.00  0.00    -0.070 A  
HETATM    8  N   UNL     1      -6.498  11.994  66.881  1.00  0.00    -0.112 NA 
HETATM    9  C   UNL     1      -5.823  12.353  70.402  1.00  0.00    -0.149 A  
HETATM   10  C   UNL     1      -6.258  12.710  68.023  1.00  0.00    -0.094 A  
HETATM   11  C   UNL     1      -6.094  11.866  69.116  1.00  0.00    -0.078 A  
HETATM   12  C   UNL     1      -5.739  13.741  70.560  1.00  0.00    -0.164 A  
HETATM   13  C   UNL     1      -6.159  14.098  68.197  1.00  0.00    -0.133 A  
HETATM   14  C   UNL     1      -5.903  14.603  69.477  1.00  0.00    -0.101 A  
BRANCH   7  15
HETATM   15  C   UNL     1      -6.681   9.575  66.301  1.00  0.00    -0.075 C  
HETATM   16  C   UNL     1      -6.625   7.125  65.895  1.00  0.00    -0.052 C  
HETATM   17  C   UNL     1      -8.069   8.541  64.528  1.00  0.00    -0.158 C  
HETATM   18  C   UNL     1      -8.035   9.636  65.594  1.00  0.00    -0.113 C  
HETATM   19  N   UNL     1      -7.834   7.183  65.048  1.00  0.00    -0.119 NA 
HETATM   20  C   UNL     1      -6.556   8.209  66.980  1.00  0.00    -0.058 C  
BRANCH  19  21
HETATM   21  C   UNL     1      -8.996   6.618  65.751  1.00  0.00    -0.026 C  
BRANCH  21  22
HETATM   22  C   UNL     1      -8.630   5.500  66.746  1.00  0.00    -0.110 C  
BRANCH  22  23
HETATM   23  C   UNL     1      -9.233   5.788  68.095  1.00  0.00    -0.110 A  
HETATM   24  C   UNL     1     -10.620   5.752  68.268  1.00  0.00    -0.286 A  
HETATM   25  C   UNL     1     -11.190   6.152  69.475  1.00  0.00    -0.482 A  
HETATM   26  C   UNL     1     -10.387   6.597  70.543  1.00  0.00    -0.231 A  
HETATM   27  C   UNL     1      -8.424   6.175  69.161  1.00  0.00    -0.119 A  
HETATM   28  C   UNL     1      -8.993   6.567  70.372  1.00  0.00    -0.152 A  
BRANCH  26  29
HETATM   29  C   UNL     1     -11.049   7.178  71.806  1.00  0.00    -0.267 C  
HETATM   30  C   UNL     1     -10.684   6.392  73.079  1.00  0.00    -0.259 C  
HETATM   31  C   UNL     1     -10.589   8.642  71.991  1.00  0.00    -0.421 C  
HETATM   32  C   UNL     1     -12.590   7.173  71.747  1.00  0.00    -0.381 C  
HETATM   33  O   UNL     1     -10.504   5.060  72.902  1.00  0.00    -0.185 OA 
HETATM   34  O   UNL     1     -10.615   6.883  74.196  1.00  0.00    -0.299 OA 
ENDBRANCH  26  29
ENDBRANCH  22  23
ENDBRANCH  21  22
ENDBRANCH  19  21
ENDBRANCH   7  15
ENDBRANCH   5   6
ENDBRANCH   4   5
ENDBRANCH   3   4
ENDBRANCH   2   3
TORSDOF 9
ENDMDL
MODEL      193
REMARK 921   NORMALIZED FREE ENERGY PREDICTED BY IDOCK:   -3.19 KCAL/MOL
REMARK 922        TOTAL FREE ENERGY PREDICTED BY IDOCK:   -5.05 KCAL/MOL
REMARK 923 INTER-LIGAND FREE ENERGY PREDICTED BY IDOCK:   -5.04 KCAL/MOL
REMARK 924 INTRA-LIGAND FREE ENERGY PREDICTED BY IDOCK:   -0.01 KCAL/MOL
REMARK 927      BINDING AFFINITY PREDICTED BY RF-SCORE:    0.00 PKD
ROOT
HETATM    1  C   UNL     1      -8.144   1.474  63.887  1.00  0.00    -0.061 C  
HETATM    2  C   UNL     1      -7.123   1.497  65.009  1.00  0.00    -0.047 C  
ENDROOT
BRANCH   2   3
HETATM    3  O   UNL     1      -6.635   2.828  65.214  1.00  0.00    -0.034 OA 
BRANCH   3   4
HETATM    4  C   UNL     1      -6.985   3.290  66.527  1.00  0.00    -0.054 C  
BRANCH   4   5
HETATM    5  C   UNL     1      -8.389   3.894  66.534  1.00  0.00    -0.104 C  
BRANCH   5   6
HETATM    6  N   UNL     1      -8.427   5.248  66.002  1.00  0.00    -0.117 NA 
HETATM    7  C   UNL     1      -8.782   6.410  66.668  1.00  0.00    -0.127 A  
HETATM    8  N   UNL     1      -8.693   7.454  65.867  1.00  0.00    -0.156 NA 
HETATM    9  C   UNL     1      -7.725   4.845  63.579  1.00  0.00    -0.072 A  
HETATM   10  C   UNL     1      -8.286   6.968  64.654  1.00  0.00    -0.022 A  
HETATM   11  C   UNL     1      -8.124   5.588  64.699  1.00  0.00    -0.127 A  
HETATM   12  C   UNL     1      -7.473   5.550  62.396  1.00  0.00    -0.052 A  
HETATM   13  C   UNL     1      -8.040   7.657  63.457  1.00  0.00    -0.036 A  
HETATM   14  C   UNL     1      -7.628   6.934  62.332  1.00  0.00    -0.098 A  
BRANCH   7  15
HETATM   15  C   UNL     1      -9.229   6.465  68.094  1.00  0.00    -0.111 C  
HETATM   16  C   UNL     1      -8.759   7.085  70.452  1.00  0.00    -0.147 C  
HETATM   17  C   UNL     1     -11.070   6.946  69.680  1.00  0.00    -0.258 C  
HETATM   18  C   UNL     1     -10.614   7.098  68.229  1.00  0.00    -0.230 C  
HETATM   19  N   UNL     1     -10.150   7.534  70.668  1.00  0.00    -0.187 NA 
HETATM   20  C   UNL     1      -8.263   7.224  69.006  1.00  0.00    -0.125 C  
BRANCH  19  21
HETATM   21  C   UNL     1     -10.225   9.002  70.735  1.00  0.00    -0.244 C  
BRANCH  21  22
HETATM   22  C   UNL     1      -9.070   9.711  70.003  1.00  0.00    -0.269 C  
BRANCH  22  23
HETATM   23  C   UNL     1      -9.604  10.849  69.173  1.00  0.00    -0.125 A  
HETATM   24  C   UNL     1      -8.828  11.993  68.965  1.00  0.00     0.345 A  
HETATM   25  C   UNL     1      -9.368  13.102  68.317  1.00  0.00    -0.201 A  
HETATM   26  C   UNL     1     -10.699  13.096  67.859  1.00  0.00    -0.249 A  
HETATM   27  C   UNL     1     -10.905  10.810  68.678  1.00  0.00    -0.260 A  
HETATM   28  C   UNL     1     -11.443  11.916  68.022  1.00  0.00    -0.389 A  
BRANCH  26  29
HETATM   29  C   UNL     1     -11.317  14.386  67.287  1.00  0.00    -0.357 C  
HETATM   30  C   UNL     1     -11.785  15.355  68.388  1.00  0.00    -0.316 C  
HETATM   31  C   UNL     1     -10.263  15.110  66.419  1.00  0.00    -0.291 C  
HETATM   32  C   UNL     1     -12.557  14.131  66.407  1.00  0.00    -0.235 C  
HETATM   33  O   UNL     1     -12.255  14.764  69.515  1.00  0.00    -0.296 OA 
HETATM   34  O   UNL     1     -11.811  16.571  68.270  1.00  0.00     0.015 OA 
ENDBRANCH  26  29
ENDBRANCH  22  23
ENDBRANCH  21  22
ENDBRANCH  19  21
ENDBRANCH   7  15
ENDBRANCH   5   6
ENDBRANCH   4   5
ENDBRANCH   3   4
ENDBRANCH   2   3
TORSDOF 9
ENDMDL
MODEL      194
REMARK 921   NORMALIZED FREE ENERGY PREDICTED BY IDOCK:   -3.01 KCAL/MOL
REMARK 922        TOTAL FREE ENERGY PREDICTED BY IDOCK:   -4.78 KCAL/MOL
REMARK 923 INTER-LIGAND FREE ENERGY PREDICTED BY IDOCK:   -5.64 KCAL/MOL
REMARK 924 INTRA-LIGAND FREE ENERGY PREDICTED BY IDOCK:    0.86 KCAL/MOL
REMARK 927      BINDING AFFINITY PREDICTED BY RF-SCORE:    0.00 PKD
ROOT
HETATM    1  C   UNL     1      -7.474   9.822  70.366  1.00  0.00    -0.161 C  
HETATM    2  C   UNL     1      -6.683   8.531  70.452  1.00  0.00    -0.037 C  
ENDROOT
BRANCH   2   3
HETATM    3  O   UNL     1      -5.397   8.690  69.842  1.00  0.00    -0.029 OA 
BRANCH   3   4
HETATM    4  C   UNL     1      -5.435   8.253  68.476  1.00  0.00    -0.033 C  
BRANCH   4   5
HETATM    5  C   UNL     1      -5.871   6.791  68.387  1.00  0.00    -0.018 C  
BRANCH   5   6
HETATM    6  N   UNL     1      -7.303   6.637  68.181  1.00  0.00    -0.088 NA 
HETATM    7  C   UNL     1      -8.044   7.001  67.068  1.00  0.00    -0.117 A  
HETATM    8  N   UNL     1      -9.318   6.704  67.235  1.00  0.00    -0.130 NA 
HETATM    9  C   UNL     1      -8.010   5.591  70.403  1.00  0.00    -0.102 A  
HETATM   10  C   UNL     1      -9.417   6.148  68.483  1.00  0.00    -0.119 A  
HETATM   11  C   UNL     1      -8.176   6.104  69.109  1.00  0.00    -0.113 A  
HETATM   12  C   UNL     1      -9.148   5.099  71.051  1.00  0.00    -0.178 A  
HETATM   13  C   UNL     1     -10.550   5.662  69.151  1.00  0.00    -0.334 A  
HETATM   14  C   UNL     1     -10.400   5.133  70.438  1.00  0.00    -0.326 A  
BRANCH   7  15
HETATM   15  C   UNL     1      -7.476   7.664  65.854  1.00  0.00    -0.082 C  
HETATM   16  C   UNL     1      -7.506   7.991  63.393  1.00  0.00    -0.122 C  
HETATM   17  C   UNL     1      -6.623   9.754  64.832  1.00  0.00    -0.108 C  
HETATM   18  C   UNL     1      -7.380   9.180  66.030  1.00  0.00    -0.094 C  
HETATM   19  N   UNL     1      -7.227   9.436  63.527  1.00  0.00    -0.098 NA 
HETATM   20  C   UNL     1      -8.267   7.379  64.576  1.00  0.00    -0.023 C  
BRANCH  19  21
HETATM   21  C   UNL     1      -8.427  10.233  63.228  1.00  0.00    -0.181 C  
BRANCH  21  22
HETATM   22  C   UNL     1      -9.429  10.300  64.396  1.00  0.00    -0.360 C  
BRANCH  22  23
HETATM   23  C   UNL     1      -9.566  11.720  64.881  1.00  0.00    -0.132 A  
HETATM   24  C   UNL     1      -9.123  12.074  66.158  1.00  0.00    -0.129 A  
HETATM   25  C   UNL     1      -9.372  13.349  66.662  1.00  0.00    -0.248 A  
HETATM   26  C   UNL     1     -10.072  14.304  65.901  1.00  0.00    -0.344 A  
HETATM   27  C   UNL     1     -10.212  12.672  64.095  1.00  0.00    -0.366 A  
HETATM   28  C   UNL     1     -10.455  13.950  64.596  1.00  0.00    -0.419 A  
BRANCH  26  29
HETATM   29  C   UNL     1     -10.469  15.648  66.539  1.00  0.00    -0.303 C  
HETATM   30  C   UNL     1     -11.599  15.501  67.573  1.00  0.00    -0.106 C  
HETATM   31  C   UNL     1      -9.237  16.255  67.248  1.00  0.00    -0.217 C  
HETATM   32  C   UNL     1     -10.979  16.683  65.515  1.00  0.00    -0.063 C  
HETATM   33  O   UNL     1     -12.508  14.532  67.299  1.00  0.00    -0.157 OA 
HETATM   34  O   UNL     1     -11.741  16.225  68.546  1.00  0.00    -0.302 OA 
ENDBRANCH  26  29
ENDBRANCH  22  23
ENDBRANCH  21  22
ENDBRANCH  19  21
ENDBRANCH   7  15
ENDBRANCH   5   6
ENDBRANCH   4   5
ENDBRANCH   3   4
ENDBRANCH   2   3
TORSDOF 9
ENDMDL
MODEL      195
REMARK 921   NORMALIZED FREE ENERGY PREDICTED BY IDOCK:   -3.01 KCAL/MOL
REMARK 922        TOTAL FREE ENERGY PREDICTED BY IDOCK:   -4.78 KCAL/MOL
REMARK 923 INTER-LIGAND FREE ENERGY PREDICTED BY IDOCK:   -6.14 KCAL/MOL
REMARK 924 INTRA-LIGAND FREE ENERGY PREDICTED BY IDOCK:    1.36 KCAL/MOL
REMARK 927      BINDING AFFINITY PREDICTED BY RF-SCORE:    0.00 PKD
ROOT
HETATM    1  C   UNL     1      -6.363  13.894  70.782  1.00  0.00     0.061 C  
HETATM    2  C   UNL     1      -5.735  12.836  69.896  1.00  0.00    -0.125 C  
ENDROOT
BRANCH   2   3
HETATM    3  O   UNL     1      -5.717  11.569  70.566  1.00  0.00    -0.138 OA 
BRANCH   3   4
HETATM    4  C   UNL     1      -5.970  10.509  69.634  1.00  0.00    -0.051 C  
BRANCH   4   5
HETATM    5  C   UNL     1      -7.417  10.550  69.145  1.00  0.00    -0.114 C  
BRANCH   5   6
HETATM    6  N   UNL     1      -8.026   9.231  69.063  1.00  0.00    -0.095 NA 
HETATM    7  C   UNL     1      -8.318   8.501  67.922  1.00  0.00    -0.126 A  
HETATM    8  N   UNL     1      -8.863   7.341  68.234  1.00  0.00    -0.128 NA 
HETATM    9  C   UNL     1      -8.421   8.718  71.535  1.00  0.00    -0.230 A  
HETATM   10  C   UNL     1      -8.943   7.316  69.601  1.00  0.00    -0.141 A  
HETATM   11  C   UNL     1      -8.440   8.489  70.152  1.00  0.00    -0.126 A  
HETATM   12  C   UNL     1      -8.915   7.702  72.361  1.00  0.00    -0.187 A  
HETATM   13  C   UNL     1      -9.445   6.313  70.443  1.00  0.00    -0.174 A  
HETATM   14  C   UNL     1      -9.420   6.517  71.827  1.00  0.00    -0.155 A  
BRANCH   7  15
HETATM   15  C   UNL     1      -8.069   8.978  66.527  1.00  0.00    -0.111 C  
HETATM   16  C   UNL     1      -8.810   9.126  64.161  1.00  0.00    -0.089 C  
HETATM   17  C   UNL     1      -7.314  10.830  65.064  1.00  0.00     0.197 C  
HETATM   18  C   UNL     1      -7.734  10.469  66.490  1.00  0.00    -0.131 C  
HETATM   19  N   UNL     1      -8.324  10.516  64.039  1.00  0.00    -0.135 NA 
HETATM   20  C   UNL     1      -9.243   8.726  65.578  1.00  0.00    -0.202 C  
BRANCH  19  21
HETATM   21  C   UNL     1      -9.446  11.466  64.014  1.00  0.00    -0.141 C  
BRANCH  21  22
HETATM   22  C   UNL     1     -10.501  11.203  65.105  1.00  0.00    -0.341 C  
BRANCH  22  23
HETATM   23  C   UNL     1     -10.496  12.323  66.112  1.00  0.00    -0.270 A  
HETATM   24  C   UNL     1     -11.603  13.168  66.231  1.00  0.00    -0.399 A  
HETATM   25  C   UNL     1     -11.550  14.287  67.060  1.00  0.00    -0.406 A  
HETATM   26  C   UNL     1     -10.388  14.590  67.793  1.00  0.00    -0.237 A  
HETATM   27  C   UNL     1      -9.357  12.581  66.873  1.00  0.00    -0.219 A  
HETATM   28  C   UNL     1      -9.307  13.696  67.709  1.00  0.00    -0.218 A  
BRANCH  26  29
HETATM   29  C   UNL     1     -10.302  15.913  68.577  1.00  0.00    -0.232 C  
HETATM   30  C   UNL     1     -10.324  17.147  67.659  1.00  0.00    -0.344 C  
HETATM   31  C   UNL     1     -11.503  16.006  69.545  1.00  0.00    -0.326 C  
HETATM   32  C   UNL     1      -9.012  16.044  69.414  1.00  0.00    -0.170 C  
HETATM   33  O   UNL     1      -9.726  16.980  66.453  1.00  0.00    -0.267 OA 
HETATM   34  O   UNL     1     -10.778  18.236  67.978  1.00  0.00    -0.368 OA 
ENDBRANCH  26  29
ENDBRANCH  22  23
ENDBRANCH  21  22
ENDBRANCH  19  21
ENDBRANCH   7  15
ENDBRANCH   5   6
ENDBRANCH   4   5
ENDBRANCH   3   4
ENDBRANCH   2   3
TORSDOF 9
ENDMDL
MODEL      196
REMARK 921   NORMALIZED FREE ENERGY PREDICTED BY IDOCK:   -2.98 KCAL/MOL
REMARK 922        TOTAL FREE ENERGY PREDICTED BY IDOCK:   -4.73 KCAL/MOL
REMARK 923 INTER-LIGAND FREE ENERGY PREDICTED BY IDOCK:   -4.10 KCAL/MOL
REMARK 924 INTRA-LIGAND FREE ENERGY PREDICTED BY IDOCK:   -0.63 KCAL/MOL
REMARK 927      BINDING AFFINITY PREDICTED BY RF-SCORE:    0.00 PKD
ROOT
HETATM    1  C   UNL     1      -8.256  10.086  62.330  1.00  0.00    -0.160 C  
HETATM    2  C   UNL     1      -7.122  10.267  63.320  1.00  0.00    -0.099 C  
ENDROOT
BRANCH   2   3
HETATM    3  O   UNL     1      -7.240   9.326  64.394  1.00  0.00    -0.094 OA 
BRANCH   3   4
HETATM    4  C   UNL     1      -7.803   9.960  65.552  1.00  0.00    -0.126 C  
BRANCH   4   5
HETATM    5  C   UNL     1      -9.329   9.886  65.524  1.00  0.00    -0.223 C  
BRANCH   5   6
HETATM    6  N   UNL     1      -9.905   9.561  66.820  1.00  0.00    -0.200 NA 
HETATM    7  C   UNL     1     -10.236   8.308  67.310  1.00  0.00    -0.274 A  
HETATM    8  N   UNL     1     -10.733   8.398  68.529  1.00  0.00    -0.090 NA 
HETATM    9  C   UNL     1     -10.157  11.888  67.844  1.00  0.00    -0.199 A  
HETATM   10  C   UNL     1     -10.740   9.731  68.838  1.00  0.00    -0.217 A  
HETATM   11  C   UNL     1     -10.242  10.490  67.784  1.00  0.00    -0.190 A  
HETATM   12  C   UNL     1     -10.579  12.508  69.026  1.00  0.00    -0.083 A  
HETATM   13  C   UNL     1     -11.170  10.369  70.010  1.00  0.00    -0.385 A  
HETATM   14  C   UNL     1     -11.080  11.764  70.094  1.00  0.00     0.316 A  
BRANCH   7  15
HETATM   15  C   UNL     1     -10.074   7.032  66.548  1.00  0.00    -0.149 C  
HETATM   16  C   UNL     1      -8.639   5.530  65.187  1.00  0.00    -0.141 C  
HETATM   17  C   UNL     1     -10.498   4.592  66.459  1.00  0.00    -0.123 C  
HETATM   18  C   UNL     1     -10.520   5.821  67.368  1.00  0.00    -0.318 C  
HETATM   19  N   UNL     1      -9.191   4.324  65.837  1.00  0.00    -0.136 NA 
HETATM   20  C   UNL     1      -8.641   6.785  66.069  1.00  0.00    -0.149 C  
BRANCH  19  21
HETATM   21  C   UNL     1      -8.213   3.731  66.762  1.00  0.00    -0.096 C  
BRANCH  21  22
HETATM   22  C   UNL     1      -6.924   4.561  66.910  1.00  0.00    -0.063 C  
BRANCH  22  23
HETATM   23  C   UNL     1      -6.794   5.068  68.322  1.00  0.00    -0.056 A  
HETATM   24  C   UNL     1      -7.236   4.288  69.395  1.00  0.00    -0.051 A  
HETATM   25  C   UNL     1      -7.246   4.808  70.687  1.00  0.00    -0.049 A  
HETATM   26  C   UNL     1      -6.811   6.123  70.942  1.00  0.00    -0.063 A  
HETATM   27  C   UNL     1      -6.311   6.352  68.567  1.00  0.00    -0.041 A  
HETATM   28  C   UNL     1      -6.312   6.869  69.862  1.00  0.00    -0.039 A  
BRANCH  26  29
HETATM   29  C   UNL     1      -6.977   6.723  72.350  1.00  0.00    -0.067 C  
HETATM   30  C   UNL     1      -8.369   6.452  72.948  1.00  0.00    -0.117 C  
HETATM   31  C   UNL     1      -5.916   6.108  73.291  1.00  0.00    -0.053 C  
HETATM   32  C   UNL     1      -6.805   8.256  72.385  1.00  0.00    -0.100 C  
HETATM   33  O   UNL     1      -9.386   6.417  72.051  1.00  0.00    -0.152 OA 
HETATM   34  O   UNL     1      -8.596   6.337  74.143  1.00  0.00    -0.118 OA 
ENDBRANCH  26  29
ENDBRANCH  22  23
ENDBRANCH  21  22
ENDBRANCH  19  21
ENDBRANCH   7  15
ENDBRANCH   5   6
ENDBRANCH   4   5
ENDBRANCH   3   4
ENDBRANCH   2   3
TORSDOF 9
ENDMDL
MODEL      197
REMARK 921   NORMALIZED FREE ENERGY PREDICTED BY IDOCK:   -2.86 KCAL/MOL
REMARK 922        TOTAL FREE ENERGY PREDICTED BY IDOCK:   -4.55 KCAL/MOL
REMARK 923 INTER-LIGAND FREE ENERGY PREDICTED BY IDOCK:   -3.88 KCAL/MOL
REMARK 924 INTRA-LIGAND FREE ENERGY PREDICTED BY IDOCK:   -0.67 KCAL/MOL
REMARK 927      BINDING AFFINITY PREDICTED BY RF-SCORE:    0.00 PKD
ROOT
HETATM    1  C   UNL     1      -9.756  17.221  68.148  1.00  0.00    -0.284 C  
HETATM    2  C   UNL     1      -9.656  16.582  66.777  1.00  0.00    -0.254 C  
ENDROOT
BRANCH   2   3
HETATM    3  O   UNL     1      -9.887  15.170  66.865  1.00  0.00    -0.229 OA 
BRANCH   3   4
HETATM    4  C   UNL     1      -8.640  14.466  66.944  1.00  0.00    -0.164 C  
BRANCH   4   5
HETATM    5  C   UNL     1      -8.532  13.701  68.263  1.00  0.00    -0.170 C  
BRANCH   5   6
HETATM    6  N   UNL     1      -9.517  12.637  68.384  1.00  0.00    -0.198 NA 
HETATM    7  C   UNL     1      -9.524  11.410  67.741  1.00  0.00    -0.165 A  
HETATM    8  N   UNL     1     -10.574  10.698  68.100  1.00  0.00    -0.187 NA 
HETATM    9  C   UNL     1     -11.174  13.686  70.022  1.00  0.00     0.054 A  
HETATM   10  C   UNL     1     -11.274  11.475  68.983  1.00  0.00    -0.262 A  
HETATM   11  C   UNL     1     -10.648  12.702  69.173  1.00  0.00     0.050 A  
HETATM   12  C   UNL     1     -12.360  13.384  70.700  1.00  0.00    -0.423 A  
HETATM   13  C   UNL     1     -12.470  11.193  69.661  1.00  0.00    -0.195 A  
HETATM   14  C   UNL     1     -13.001  12.159  70.524  1.00  0.00     0.221 A  
BRANCH   7  15
HETATM   15  C   UNL     1      -8.491  10.967  66.754  1.00  0.00    -0.148 C  
HETATM   16  C   UNL     1      -6.606   9.459  66.173  1.00  0.00    -0.070 C  
HETATM   17  C   UNL     1      -7.964  10.430  64.393  1.00  0.00    -0.085 C  
HETATM   18  C   UNL     1      -9.102  10.692  65.380  1.00  0.00    -0.214 C  
HETATM   19  N   UNL     1      -7.074   9.322  64.779  1.00  0.00    -0.093 NA 
HETATM   20  C   UNL     1      -7.721   9.721  67.195  1.00  0.00    -0.095 C  
BRANCH  19  21
HETATM   21  C   UNL     1      -7.660   7.993  64.548  1.00  0.00    -0.114 C  
BRANCH  21  22
HETATM   22  C   UNL     1      -6.647   6.841  64.688  1.00  0.00    -0.042 C  
BRANCH  22  23
HETATM   23  C   UNL     1      -6.950   6.031  65.922  1.00  0.00    -0.062 A  
HETATM   24  C   UNL     1      -5.930   5.713  66.823  1.00  0.00    -0.018 A  
HETATM   25  C   UNL     1      -6.177   4.851  67.890  1.00  0.00    -0.035 A  
HETATM   26  C   UNL     1      -7.451   4.285  68.085  1.00  0.00    -0.068 A  
HETATM   27  C   UNL     1      -8.230   5.522  66.133  1.00  0.00    -0.112 A  
HETATM   28  C   UNL     1      -8.479   4.666  67.205  1.00  0.00    -0.104 A  
BRANCH  26  29
HETATM   29  C   UNL     1      -7.656   3.218  69.176  1.00  0.00    -0.048 C  
HETATM   30  C   UNL     1      -9.136   2.844  69.366  1.00  0.00    -0.132 C  
HETATM   31  C   UNL     1      -6.878   1.941  68.786  1.00  0.00    -0.036 C  
HETATM   32  C   UNL     1      -7.161   3.665  70.567  1.00  0.00    -0.041 C  
HETATM   33  O   UNL     1     -10.017   3.856  69.168  1.00  0.00    -0.047 OA 
HETATM   34  O   UNL     1      -9.528   1.746  69.732  1.00  0.00    -0.107 OA 
ENDBRANCH  26  29
ENDBRANCH  22  23
ENDBRANCH  21  22
ENDBRANCH  19  21
ENDBRANCH   7  15
ENDBRANCH   5   6
ENDBRANCH   4   5
ENDBRANCH   3   4
ENDBRANCH   2   3
TORSDOF 9
ENDMDL
MODEL      198
REMARK 921   NORMALIZED FREE ENERGY PREDICTED BY IDOCK:   -2.79 KCAL/MOL
REMARK 922        TOTAL FREE ENERGY PREDICTED BY IDOCK:   -4.45 KCAL/MOL
REMARK 923 INTER-LIGAND FREE ENERGY PREDICTED BY IDOCK:   -3.61 KCAL/MOL
REMARK 924 INTRA-LIGAND FREE ENERGY PREDICTED BY IDOCK:   -0.84 KCAL/MOL
REMARK 927      BINDING AFFINITY PREDICTED BY RF-SCORE:    0.00 PKD
ROOT
HETATM    1  C   UNL     1     -12.252  16.672  70.482  1.00  0.00     1.451 C  
HETATM    2  C   UNL     1     -12.538  15.289  71.034  1.00  0.00    -0.406 C  
ENDROOT
BRANCH   2   3
HETATM    3  O   UNL     1     -11.533  14.361  70.606  1.00  0.00    -0.230 OA 
BRANCH   3   4
HETATM    4  C   UNL     1     -10.286  15.040  70.396  1.00  0.00     0.098 C  
BRANCH   4   5
HETATM    5  C   UNL     1      -9.772  14.804  68.976  1.00  0.00    -0.190 C  
BRANCH   5   6
HETATM    6  N   UNL     1      -9.624  16.034  68.214  1.00  0.00    -0.208 NA 
HETATM    7  C   UNL     1     -10.300  16.406  67.063  1.00  0.00    -0.293 A  
HETATM    8  N   UNL     1      -9.908  17.596  66.653  1.00  0.00    -0.295 NA 
HETATM    9  C   UNL     1      -7.794  17.220  69.547  1.00  0.00     0.458 A  
HETATM   10  C   UNL     1      -8.951  18.007  67.541  1.00  0.00    -0.249 A  
HETATM   11  C   UNL     1      -8.737  17.047  68.524  1.00  0.00    -0.253 A  
HETATM   12  C   UNL     1      -7.074  18.420  69.560  1.00  0.00     0.042 A  
HETATM   13  C   UNL     1      -8.211  19.198  67.562  1.00  0.00    -0.310 A  
HETATM   14  C   UNL     1      -7.275  19.395  68.584  1.00  0.00    -0.374 A  
BRANCH   7  15
HETATM   15  C   UNL     1     -11.317  15.557  66.370  1.00  0.00    -0.005 C  
HETATM   16  C   UNL     1     -12.090  14.417  64.303  1.00  0.00    -0.436 C  
HETATM   17  C   UNL     1     -12.797  13.573  66.481  1.00  0.00     0.351 C  
HETATM   18  C   UNL     1     -11.624  14.283  67.157  1.00  0.00    -0.402 C  
HETATM   19  N   UNL     1     -12.569  13.245  65.064  1.00  0.00    -0.620 NA 
HETATM   20  C   UNL     1     -10.911  15.156  64.950  1.00  0.00    -0.437 C  
BRANCH  19  21
HETATM   21  C   UNL     1     -11.678  12.091  64.867  1.00  0.00    -0.258 C  
BRANCH  21  22
HETATM   22  C   UNL     1     -11.535  11.203  66.118  1.00  0.00     0.233 C  
BRANCH  22  23
HETATM   23  C   UNL     1     -10.199  11.442  66.773  1.00  0.00    -0.258 A  
HETATM   24  C   UNL     1      -9.163  12.047  66.057  1.00  0.00    -0.152 A  
HETATM   25  C   UNL     1      -7.888  12.145  66.610  1.00  0.00     0.088 A  
HETATM   26  C   UNL     1      -7.616  11.640  67.896  1.00  0.00    -0.115 A  
HETATM   27  C   UNL     1      -9.958  10.986  68.067  1.00  0.00    -0.188 A  
HETATM   28  C   UNL     1      -8.684  11.091  68.624  1.00  0.00    -0.161 A  
BRANCH  26  29
HETATM   29  C   UNL     1      -6.168  11.620  68.419  1.00  0.00    -0.050 C  
HETATM   30  C   UNL     1      -5.944  12.610  69.576  1.00  0.00    -0.113 C  
HETATM   31  C   UNL     1      -5.831  10.199  68.924  1.00  0.00    -0.037 C  
HETATM   32  C   UNL     1      -5.125  11.997  67.347  1.00  0.00    -0.096 C  
HETATM   33  O   UNL     1      -6.675  13.751  69.509  1.00  0.00    -0.106 OA 
HETATM   34  O   UNL     1      -5.130  12.449  70.473  1.00  0.00    -0.092 OA 
ENDBRANCH  26  29
ENDBRANCH  22  23
ENDBRANCH  21  22
ENDBRANCH  19  21
ENDBRANCH   7  15
ENDBRANCH   5   6
ENDBRANCH   4   5
ENDBRANCH   3   4
ENDBRANCH   2   3
TORSDOF 9
ENDMDL
MODEL      199
REMARK 921   NORMALIZED FREE ENERGY PREDICTED BY IDOCK:   -2.79 KCAL/MOL
REMARK 922        TOTAL FREE ENERGY PREDICTED BY IDOCK:   -4.44 KCAL/MOL
REMARK 923 INTER-LIGAND FREE ENERGY PREDICTED BY IDOCK:   -4.32 KCAL/MOL
REMARK 924 INTRA-LIGAND FREE ENERGY PREDICTED BY IDOCK:   -0.11 KCAL/MOL
REMARK 927      BINDING AFFINITY PREDICTED BY RF-SCORE:    0.00 PKD
ROOT
HETATM    1  C   UNL     1      -8.539   5.061  65.168  1.00  0.00    -0.148 C  
HETATM    2  C   UNL     1      -7.935   6.215  65.944  1.00  0.00    -0.112 C  
ENDROOT
BRANCH   2   3
HETATM    3  O   UNL     1      -7.871   7.389  65.126  1.00  0.00    -0.108 OA 
BRANCH   3   4
HETATM    4  C   UNL     1      -7.467   8.521  65.910  1.00  0.00    -0.077 C  
BRANCH   4   5
HETATM    5  C   UNL     1      -6.805   8.070  67.212  1.00  0.00    -0.074 C  
BRANCH   5   6
HETATM    6  N   UNL     1      -7.524   8.514  68.397  1.00  0.00    -0.093 NA 
HETATM    7  C   UNL     1      -8.295   9.655  68.543  1.00  0.00    -0.117 A  
HETATM    8  N   UNL     1      -8.799   9.727  69.760  1.00  0.00    -0.210 NA 
HETATM    9  C   UNL     1      -6.919   6.668  70.057  1.00  0.00    -0.062 A  
HETATM   10  C   UNL     1      -8.340   8.623  70.426  1.00  0.00    -0.130 A  
HETATM   11  C   UNL     1      -7.527   7.848  69.607  1.00  0.00    -0.092 A  
HETATM   12  C   UNL     1      -7.176   6.275  71.376  1.00  0.00    -0.079 A  
HETATM   13  C   UNL     1      -8.577   8.221  71.749  1.00  0.00    -0.213 A  
HETATM   14  C   UNL     1      -7.990   7.038  72.212  1.00  0.00    -0.092 A  
BRANCH   7  15
HETATM   15  C   UNL     1      -8.505  10.677  67.472  1.00  0.00    -0.121 C  
HETATM   16  C   UNL     1      -9.911  11.582  65.636  1.00  0.00    -0.236 C  
HETATM   17  C   UNL     1      -8.371  13.063  66.817  1.00  0.00     0.061 C  
HETATM   18  C   UNL     1      -8.326  12.099  68.003  1.00  0.00    -0.167 C  
HETATM   19  N   UNL     1      -9.603  12.976  66.015  1.00  0.00    -0.215 NA 
HETATM   20  C   UNL     1      -9.877  10.584  66.801  1.00  0.00    -0.237 C  
BRANCH  19  21
HETATM   21  C   UNL     1     -10.763  13.615  66.655  1.00  0.00    -0.280 C  
BRANCH  21  22
HETATM   22  C   UNL     1     -10.465  15.025  67.202  1.00  0.00    -0.277 C  
BRANCH  22  23
HETATM   23  C   UNL     1     -11.167  15.228  68.519  1.00  0.00    -0.308 A  
HETATM   24  C   UNL     1     -10.622  16.083  69.482  1.00  0.00    -0.290 A  
HETATM   25  C   UNL     1     -11.191  16.169  70.751  1.00  0.00    -0.356 A  
HETATM   26  C   UNL     1     -12.321  15.401  71.091  1.00  0.00    -0.444 A  
HETATM   27  C   UNL     1     -12.316  14.503  68.824  1.00  0.00    -0.064 A  
HETATM   28  C   UNL     1     -12.891  14.595  70.091  1.00  0.00    -0.180 A  
BRANCH  26  29
HETATM   29  C   UNL     1     -12.834  15.397  72.543  1.00  0.00    -0.491 C  
HETATM   30  C   UNL     1     -12.613  14.045  73.244  1.00  0.00     0.260 C  
HETATM   31  C   UNL     1     -12.090  16.489  73.345  1.00  0.00    -0.474 C  
HETATM   32  C   UNL     1     -14.347  15.678  72.657  1.00  0.00    -0.215 C  
HETATM   33  O   UNL     1     -12.704  12.957  72.441  1.00  0.00    -0.062 OA 
HETATM   34  O   UNL     1     -12.431  13.914  74.445  1.00  0.00     1.380 OA 
ENDBRANCH  26  29
ENDBRANCH  22  23
ENDBRANCH  21  22
ENDBRANCH  19  21
ENDBRANCH   7  15
ENDBRANCH   5   6
ENDBRANCH   4   5
ENDBRANCH   3   4
ENDBRANCH   2   3
TORSDOF 9
ENDMDL
MODEL      200
REMARK 921   NORMALIZED FREE ENERGY PREDICTED BY IDOCK:   -2.63 KCAL/MOL
REMARK 922        TOTAL FREE ENERGY PREDICTED BY IDOCK:   -4.20 KCAL/MOL
REMARK 923 INTER-LIGAND FREE ENERGY PREDICTED BY IDOCK:   -6.31 KCAL/MOL
REMARK 924 INTRA-LIGAND FREE ENERGY PREDICTED BY IDOCK:    2.11 KCAL/MOL
REMARK 927      BINDING AFFINITY PREDICTED BY RF-SCORE:    0.00 PKD
ROOT
HETATM    1  C   UNL     1      -8.365  10.755  69.289  1.00  0.00    -0.072 C  
HETATM    2  C   UNL     1      -6.935  10.250  69.281  1.00  0.00    -0.073 C  
ENDROOT
BRANCH   2   3
HETATM    3  O   UNL     1      -6.177  10.909  68.259  1.00  0.00    -0.049 OA 
BRANCH   3   4
HETATM    4  C   UNL     1      -5.888   9.999  67.189  1.00  0.00    -0.050 C  
BRANCH   4   5
HETATM    5  C   UNL     1      -5.825   8.561  67.701  1.00  0.00    -0.043 C  
BRANCH   5   6
HETATM    6  N   UNL     1      -7.027   7.798  67.400  1.00  0.00    -0.076 NA 
HETATM    7  C   UNL     1      -7.645   7.638  66.170  1.00  0.00    -0.088 A  
HETATM    8  N   UNL     1      -8.713   6.873  66.279  1.00  0.00    -0.138 NA 
HETATM    9  C   UNL     1      -7.652   6.931  69.721  1.00  0.00    -0.104 A  
HETATM   10  C   UNL     1      -8.807   6.537  67.603  1.00  0.00    -0.112 A  
HETATM   11  C   UNL     1      -7.775   7.111  68.337  1.00  0.00    -0.120 A  
HETATM   12  C   UNL     1      -8.607   6.125  70.352  1.00  0.00    -0.134 A  
HETATM   13  C   UNL     1      -9.762   5.742  68.252  1.00  0.00    -0.153 A  
HETATM   14  C   UNL     1      -9.648   5.540  69.632  1.00  0.00    -0.210 A  
BRANCH   7  15
HETATM   15  C   UNL     1      -7.173   8.270  64.900  1.00  0.00    -0.081 C  
HETATM   16  C   UNL     1      -7.449   8.601  62.454  1.00  0.00    -0.104 C  
HETATM   17  C   UNL     1      -6.320  10.309  63.781  1.00  0.00    -0.102 C  
HETATM   18  C   UNL     1      -6.975   9.777  65.056  1.00  0.00    -0.119 C  
HETATM   19  N   UNL     1      -7.077  10.027  62.550  1.00  0.00    -0.116 NA 
HETATM   20  C   UNL     1      -8.112   8.030  63.715  1.00  0.00    -0.096 C  
BRANCH  19  21
HETATM   21  C   UNL     1      -8.255  10.891  62.377  1.00  0.00    -0.213 C  
BRANCH  21  22
HETATM   22  C   UNL     1      -9.568  10.244  62.858  1.00  0.00    -0.290 C  
BRANCH  22  23
HETATM   23  C   UNL     1     -10.095  10.977  64.065  1.00  0.00    -0.408 A  
HETATM   24  C   UNL     1     -10.576  12.283  63.940  1.00  0.00    -0.462 A  
HETATM   25  C   UNL     1     -10.935  13.013  65.072  1.00  0.00    -0.320 A  
HETATM   26  C   UNL     1     -10.822  12.454  66.359  1.00  0.00    -0.291 A  
HETATM   27  C   UNL     1     -10.028  10.392  65.327  1.00  0.00    -0.376 A  
HETATM   28  C   UNL     1     -10.395  11.119  66.460  1.00  0.00    -0.290 A  
BRANCH  26  29
HETATM   29  C   UNL     1     -11.076  13.331  67.599  1.00  0.00    -0.292 C  
HETATM   30  C   UNL     1      -9.800  14.032  68.099  1.00  0.00    -0.235 C  
HETATM   31  C   UNL     1     -12.119  14.415  67.246  1.00  0.00    -0.358 C  
HETATM   32  C   UNL     1     -11.612  12.539  68.809  1.00  0.00    -0.366 C  
HETATM   33  O   UNL     1      -8.652  13.328  67.932  1.00  0.00    -0.164 OA 
HETATM   34  O   UNL     1      -9.785  15.112  68.669  1.00  0.00    -0.202 OA 
ENDBRANCH  26  29
ENDBRANCH  22  23
ENDBRANCH  21  22
ENDBRANCH  19  21
ENDBRANCH   7  15
ENDBRANCH   5   6
ENDBRANCH   4   5
ENDBRANCH   3   4
ENDBRANCH   2   3
TORSDOF 9
ENDMDL
MODEL      201
REMARK 921   NORMALIZED FREE ENERGY PREDICTED BY IDOCK:   -2.59 KCAL/MOL
REMARK 922        TOTAL FREE ENERGY PREDICTED BY IDOCK:   -4.13 KCAL/MOL
REMARK 923 INTER-LIGAND FREE ENERGY PREDICTED BY IDOCK:   -4.97 KCAL/MOL
REMARK 924 INTRA-LIGAND FREE ENERGY PREDICTED BY IDOCK:    0.84 KCAL/MOL
REMARK 927      BINDING AFFINITY PREDICTED BY RF-SCORE:    0.00 PKD
ROOT
HETATM    1  C   UNL     1      -5.253   9.789  73.170  1.00  0.00     0.015 C  
HETATM    2  C   UNL     1      -5.954   8.503  72.777  1.00  0.00    -0.075 C  
ENDROOT
BRANCH   2   3
HETATM    3  O   UNL     1      -5.592   8.123  71.444  1.00  0.00    -0.034 OA 
BRANCH   3   4
HETATM    4  C   UNL     1      -5.138   9.267  70.706  1.00  0.00    -0.027 C  
BRANCH   4   5
HETATM    5  C   UNL     1      -5.779   9.307  69.319  1.00  0.00    -0.035 C  
BRANCH   5   6
HETATM    6  N   UNL     1      -5.783  10.640  68.735  1.00  0.00    -0.041 NA 
HETATM    7  C   UNL     1      -5.943  10.980  67.401  1.00  0.00    -0.049 A  
HETATM    8  N   UNL     1      -5.897  12.289  67.243  1.00  0.00    -0.157 NA 
HETATM    9  C   UNL     1      -5.377  12.085  70.803  1.00  0.00    -0.152 A  
HETATM   10  C   UNL     1      -5.691  12.814  68.491  1.00  0.00    -0.061 A  
HETATM   11  C   UNL     1      -5.601  11.809  69.447  1.00  0.00    -0.062 A  
HETATM   12  C   UNL     1      -5.264  13.429  71.176  1.00  0.00    -0.172 A  
HETATM   13  C   UNL     1      -5.564  14.156  68.880  1.00  0.00    -0.082 A  
HETATM   14  C   UNL     1      -5.354  14.451  70.232  1.00  0.00    -0.104 A  
BRANCH   7  15
HETATM   15  C   UNL     1      -6.117   9.993  66.292  1.00  0.00    -0.068 C  
HETATM   16  C   UNL     1      -7.622   8.567  64.925  1.00  0.00    -0.098 C  
HETATM   17  C   UNL     1      -5.497   9.319  63.990  1.00  0.00    -0.061 C  
HETATM   18  C   UNL     1      -5.432  10.458  65.007  1.00  0.00    -0.136 C  
HETATM   19  N   UNL     1      -6.862   8.853  63.691  1.00  0.00    -0.089 NA 
HETATM   20  C   UNL     1      -7.582   9.690  65.971  1.00  0.00    -0.102 C  
BRANCH  19  21
HETATM   21  C   UNL     1      -7.610   9.763  62.810  1.00  0.00    -0.121 C  
BRANCH  21  22
HETATM   22  C   UNL     1      -9.138   9.582  62.894  1.00  0.00    -0.180 C  
BRANCH  22  23
HETATM   23  C   UNL     1      -9.756  10.735  63.640  1.00  0.00    -0.376 A  
HETATM   24  C   UNL     1      -9.972  11.957  62.995  1.00  0.00    -0.191 A  
HETATM   25  C   UNL     1     -10.414  13.065  63.714  1.00  0.00    -0.104 A  
HETATM   26  C   UNL     1     -10.652  12.982  65.099  1.00  0.00    -0.327 A  
HETATM   27  C   UNL     1     -10.039  10.624  65.000  1.00  0.00    -0.388 A  
HETATM   28  C   UNL     1     -10.490  11.731  65.718  1.00  0.00    -0.302 A  
BRANCH  26  29
HETATM   29  C   UNL     1     -10.989  14.256  65.895  1.00  0.00    -0.304 C  
HETATM   30  C   UNL     1     -11.979  13.991  67.043  1.00  0.00    -0.438 C  
HETATM   31  C   UNL     1      -9.688  14.833  66.499  1.00  0.00    -0.295 C  
HETATM   32  C   UNL     1     -11.639  15.359  65.036  1.00  0.00    -0.189 C  
HETATM   33  O   UNL     1     -12.899  13.024  66.800  1.00  0.00     0.153 OA 
HETATM   34  O   UNL     1     -12.011  14.627  68.087  1.00  0.00    -0.313 OA 
ENDBRANCH  26  29
ENDBRANCH  22  23
ENDBRANCH  21  22
ENDBRANCH  19  21
ENDBRANCH   7  15
ENDBRANCH   5   6
ENDBRANCH   4   5
ENDBRANCH   3   4
ENDBRANCH   2   3
TORSDOF 9
ENDMDL
MODEL      202
REMARK 921   NORMALIZED FREE ENERGY PREDICTED BY IDOCK:   -2.48 KCAL/MOL
REMARK 922        TOTAL FREE ENERGY PREDICTED BY IDOCK:   -3.97 KCAL/MOL
REMARK 923 INTER-LIGAND FREE ENERGY PREDICTED BY IDOCK:   -4.37 KCAL/MOL
REMARK 924 INTRA-LIGAND FREE ENERGY PREDICTED BY IDOCK:    0.40 KCAL/MOL
REMARK 927      BINDING AFFINITY PREDICTED BY RF-SCORE:    0.00 PKD
ROOT
HETATM    1  C   UNL     1     -10.516  13.047  66.149  1.00  0.00    -0.289 C  
HETATM    2  C   UNL     1     -10.971  11.633  66.450  1.00  0.00    -0.295 C  
ENDROOT
BRANCH   2   3
HETATM    3  O   UNL     1     -11.780  11.609  67.633  1.00  0.00    -0.513 OA 
BRANCH   3   4
HETATM    4  C   UNL     1     -11.113  12.289  68.706  1.00  0.00    -0.251 C  
BRANCH   4   5
HETATM    5  C   UNL     1      -9.789  11.605  69.042  1.00  0.00     0.052 C  
BRANCH   5   6
HETATM    6  N   UNL     1      -8.629  12.407  68.685  1.00  0.00    -0.039 NA 
HETATM    7  C   UNL     1      -7.424  11.969  68.160  1.00  0.00    -0.112 A  
HETATM    8  N   UNL     1      -6.605  12.982  67.956  1.00  0.00    -0.099 NA 
HETATM    9  C   UNL     1      -9.429  14.746  69.334  1.00  0.00     0.004 A  
HETATM   10  C   UNL     1      -7.278  14.102  68.366  1.00  0.00    -0.109 A  
HETATM   11  C   UNL     1      -8.544  13.777  68.841  1.00  0.00     0.139 A  
HETATM   12  C   UNL     1      -9.000  16.078  69.315  1.00  0.00    -0.228 A  
HETATM   13  C   UNL     1      -6.859  15.440  68.365  1.00  0.00    -0.115 A  
HETATM   14  C   UNL     1      -7.735  16.423  68.840  1.00  0.00    -0.230 A  
BRANCH   7  15
HETATM   15  C   UNL     1      -7.092  10.536  67.887  1.00  0.00    -0.083 C  
HETATM   16  C   UNL     1      -7.227   8.151  68.564  1.00  0.00    -0.088 C  
HETATM   17  C   UNL     1      -6.935   8.720  66.208  1.00  0.00    -0.081 C  
HETATM   18  C   UNL     1      -7.473  10.129  66.463  1.00  0.00    -0.109 C  
HETATM   19  N   UNL     1      -7.411   7.709  67.166  1.00  0.00    -0.094 NA 
HETATM   20  C   UNL     1      -7.757   9.560  68.859  1.00  0.00    -0.076 C  
BRANCH  19  21
HETATM   21  C   UNL     1      -8.800   7.286  66.927  1.00  0.00    -0.132 C  
BRANCH  21  22
HETATM   22  C   UNL     1      -9.052   5.798  67.236  1.00  0.00    -0.110 C  
BRANCH  22  23
HETATM   23  C   UNL     1      -8.976   5.557  68.721  1.00  0.00    -0.120 A  
HETATM   24  C   UNL     1      -7.941   4.784  69.257  1.00  0.00    -0.070 A  
HETATM   25  C   UNL     1      -7.943   4.444  70.608  1.00  0.00    -0.060 A  
HETATM   26  C   UNL     1      -8.980   4.869  71.460  1.00  0.00    -0.160 A  
HETATM   27  C   UNL     1      -9.980   6.029  69.563  1.00  0.00    -0.225 A  
HETATM   28  C   UNL     1      -9.978   5.696  70.917  1.00  0.00    -0.251 A  
BRANCH  26  29
HETATM   29  C   UNL     1      -9.040   4.351  72.909  1.00  0.00    -0.132 C  
HETATM   30  C   UNL     1      -9.556   2.903  72.999  1.00  0.00    -0.098 C  
HETATM   31  C   UNL     1      -7.623   4.401  73.523  1.00  0.00    -0.078 C  
HETATM   32  C   UNL     1      -9.975   5.178  73.816  1.00  0.00    -0.194 C  
HETATM   33  O   UNL     1     -10.482   2.562  72.068  1.00  0.00    -0.053 OA 
HETATM   34  O   UNL     1      -9.230   2.108  73.868  1.00  0.00    -0.074 OA 
ENDBRANCH  26  29
ENDBRANCH  22  23
ENDBRANCH  21  22
ENDBRANCH  19  21
ENDBRANCH   7  15
ENDBRANCH   5   6
ENDBRANCH   4   5
ENDBRANCH   3   4
ENDBRANCH   2   3
TORSDOF 9
ENDMDL
MODEL      203
REMARK 921   NORMALIZED FREE ENERGY PREDICTED BY IDOCK:   -2.48 KCAL/MOL
REMARK 922        TOTAL FREE ENERGY PREDICTED BY IDOCK:   -3.97 KCAL/MOL
REMARK 923 INTER-LIGAND FREE ENERGY PREDICTED BY IDOCK:   -4.60 KCAL/MOL
REMARK 924 INTRA-LIGAND FREE ENERGY PREDICTED BY IDOCK:    0.63 KCAL/MOL
REMARK 927      BINDING AFFINITY PREDICTED BY RF-SCORE:    0.00 PKD
ROOT
HETATM    1  C   UNL     1     -11.919  14.946  66.447  1.00  0.00    -0.074 C  
HETATM    2  C   UNL     1     -10.745  14.765  65.506  1.00  0.00    -0.357 C  
ENDROOT
BRANCH   2   3
HETATM    3  O   UNL     1      -9.839  13.781  66.020  1.00  0.00    -0.297 OA 
BRANCH   3   4
HETATM    4  C   UNL     1     -10.363  13.202  67.224  1.00  0.00    -0.243 C  
BRANCH   4   5
HETATM    5  C   UNL     1      -9.480  13.548  68.422  1.00  0.00    -0.185 C  
BRANCH   5   6
HETATM    6  N   UNL     1      -8.206  14.137  68.038  1.00  0.00    -0.141 NA 
HETATM    7  C   UNL     1      -7.056  13.479  67.633  1.00  0.00    -0.168 A  
HETATM    8  N   UNL     1      -6.096  14.339  67.358  1.00  0.00    -0.314 NA 
HETATM    9  C   UNL     1      -8.694  16.623  68.367  1.00  0.00    -0.225 A  
HETATM   10  C   UNL     1      -6.620  15.581  67.598  1.00  0.00    -0.169 A  
HETATM   11  C   UNL     1      -7.936  15.491  68.039  1.00  0.00    -0.133 A  
HETATM   12  C   UNL     1      -8.081  17.873  68.217  1.00  0.00    -0.294 A  
HETATM   13  C   UNL     1      -6.017  16.841  67.465  1.00  0.00    -0.177 A  
HETATM   14  C   UNL     1      -6.764  17.984  67.775  1.00  0.00    -0.200 A  
BRANCH   7  15
HETATM   15  C   UNL     1      -6.919  11.992  67.547  1.00  0.00    -0.130 C  
HETATM   16  C   UNL     1      -5.502   9.966  67.774  1.00  0.00    -0.039 C  
HETATM   17  C   UNL     1      -7.921   9.778  68.029  1.00  0.00    -0.097 C  
HETATM   18  C   UNL     1      -8.025  11.275  68.322  1.00  0.00    -0.134 C  
HETATM   19  N   UNL     1      -6.613   9.187  68.357  1.00  0.00    -0.058 NA 
HETATM   20  C   UNL     1      -5.569  11.474  68.048  1.00  0.00    -0.043 C  
BRANCH  19  21
HETATM   21  C   UNL     1      -6.410   8.981  69.800  1.00  0.00    -0.038 C  
BRANCH  21  22
HETATM   22  C   UNL     1      -6.686   7.536  70.259  1.00  0.00    -0.047 C  
BRANCH  22  23
HETATM   23  C   UNL     1      -7.178   6.709  69.100  1.00  0.00    -0.091 A  
HETATM   24  C   UNL     1      -8.533   6.381  68.995  1.00  0.00    -0.124 A  
HETATM   25  C   UNL     1      -8.970   5.504  68.004  1.00  0.00    -0.108 A  
HETATM   26  C   UNL     1      -8.063   4.932  67.091  1.00  0.00    -0.107 A  
HETATM   27  C   UNL     1      -6.278   6.193  68.170  1.00  0.00    -0.029 A  
HETATM   28  C   UNL     1      -6.716   5.322  67.174  1.00  0.00    -0.059 A  
BRANCH  26  29
HETATM   29  C   UNL     1      -8.548   3.850  66.109  1.00  0.00    -0.112 C  
HETATM   30  C   UNL     1      -8.648   2.460  66.763  1.00  0.00    -0.112 C  
HETATM   31  C   UNL     1      -9.945   4.238  65.576  1.00  0.00    -0.233 C  
HETATM   32  C   UNL     1      -7.615   3.666  64.894  1.00  0.00    -0.077 C  
HETATM   33  O   UNL     1      -7.725   2.206  67.724  1.00  0.00    -0.058 OA 
HETATM   34  O   UNL     1      -9.444   1.596  66.427  1.00  0.00     0.076 OA 
ENDBRANCH  26  29
ENDBRANCH  22  23
ENDBRANCH  21  22
ENDBRANCH  19  21
ENDBRANCH   7  15
ENDBRANCH   5   6
ENDBRANCH   4   5
ENDBRANCH   3   4
ENDBRANCH   2   3
TORSDOF 9
ENDMDL
MODEL      204
REMARK 921   NORMALIZED FREE ENERGY PREDICTED BY IDOCK:   -2.46 KCAL/MOL
REMARK 922        TOTAL FREE ENERGY PREDICTED BY IDOCK:   -3.94 KCAL/MOL
REMARK 923 INTER-LIGAND FREE ENERGY PREDICTED BY IDOCK:   -4.87 KCAL/MOL
REMARK 924 INTRA-LIGAND FREE ENERGY PREDICTED BY IDOCK:    0.92 KCAL/MOL
REMARK 927      BINDING AFFINITY PREDICTED BY RF-SCORE:    0.00 PKD
ROOT
HETATM    1  C   UNL     1     -11.608  15.123  66.856  1.00  0.00    -0.160 C  
HETATM    2  C   UNL     1     -10.378  14.903  65.998  1.00  0.00    -0.299 C  
ENDROOT
BRANCH   2   3
HETATM    3  O   UNL     1      -9.839  13.595  66.220  1.00  0.00    -0.289 OA 
BRANCH   3   4
HETATM    4  C   UNL     1     -10.118  13.162  67.559  1.00  0.00    -0.222 C  
BRANCH   4   5
HETATM    5  C   UNL     1      -9.297  13.964  68.570  1.00  0.00    -0.164 C  
BRANCH   5   6
HETATM    6  N   UNL     1      -7.926  14.185  68.139  1.00  0.00    -0.131 NA 
HETATM    7  C   UNL     1      -6.960  13.232  67.859  1.00  0.00    -0.137 A  
HETATM    8  N   UNL     1      -5.830  13.803  67.490  1.00  0.00    -0.353 NA 
HETATM    9  C   UNL     1      -7.827  16.738  68.106  1.00  0.00    -0.182 A  
HETATM   10  C   UNL     1      -6.054  15.153  67.542  1.00  0.00    -0.019 A  
HETATM   11  C   UNL     1      -7.352  15.428  67.958  1.00  0.00    -0.121 A  
HETATM   12  C   UNL     1      -6.946  17.781  67.798  1.00  0.00    -0.191 A  
HETATM   13  C   UNL     1      -5.180  16.210  67.249  1.00  0.00    -0.038 A  
HETATM   14  C   UNL     1      -5.642  17.525  67.377  1.00  0.00    -0.154 A  
BRANCH   7  15
HETATM   15  C   UNL     1      -7.168  11.756  67.984  1.00  0.00    -0.084 C  
HETATM   16  C   UNL     1      -6.539   9.451  67.310  1.00  0.00    -0.071 C  
HETATM   17  C   UNL     1      -7.561   9.831  69.494  1.00  0.00    -0.114 C  
HETATM   18  C   UNL     1      -7.159  11.305  69.445  1.00  0.00    -0.090 C  
HETATM   19  N   UNL     1      -6.704   8.944  68.688  1.00  0.00    -0.058 NA 
HETATM   20  C   UNL     1      -6.133  10.928  67.220  1.00  0.00    -0.062 C  
BRANCH  19  21
HETATM   21  C   UNL     1      -5.399   8.670  69.308  1.00  0.00    -0.035 C  
BRANCH  21  22
HETATM   22  C   UNL     1      -5.414   7.464  70.266  1.00  0.00    -0.023 C  
BRANCH  22  23
HETATM   23  C   UNL     1      -6.814   7.214  70.763  1.00  0.00    -0.053 A  
HETATM   24  C   UNL     1      -7.171   7.568  72.067  1.00  0.00    -0.068 A  
HETATM   25  C   UNL     1      -8.419   7.214  72.576  1.00  0.00    -0.126 A  
HETATM   26  C   UNL     1      -9.344   6.498  71.793  1.00  0.00    -0.149 A  
HETATM   27  C   UNL     1      -7.739   6.553  69.959  1.00  0.00    -0.102 A  
HETATM   28  C   UNL     1      -8.991   6.206  70.464  1.00  0.00    -0.148 A  
BRANCH  26  29
HETATM   29  C   UNL     1     -10.650   5.987  72.428  1.00  0.00    -0.254 C  
HETATM   30  C   UNL     1     -10.650   4.461  72.632  1.00  0.00    -0.162 C  
HETATM   31  C   UNL     1     -10.841   6.661  73.805  1.00  0.00    -0.084 C  
HETATM   32  C   UNL     1     -11.902   6.289  71.579  1.00  0.00    -0.291 C  
HETATM   33  O   UNL     1      -9.976   3.753  71.692  1.00  0.00    -0.182 OA 
HETATM   34  O   UNL     1     -11.255   3.885  73.525  1.00  0.00    -0.250 OA 
ENDBRANCH  26  29
ENDBRANCH  22  23
ENDBRANCH  21  22
ENDBRANCH  19  21
ENDBRANCH   7  15
ENDBRANCH   5   6
ENDBRANCH   4   5
ENDBRANCH   3   4
ENDBRANCH   2   3
TORSDOF 9
ENDMDL
MODEL      205
REMARK 921   NORMALIZED FREE ENERGY PREDICTED BY IDOCK:   -2.22 KCAL/MOL
REMARK 922        TOTAL FREE ENERGY PREDICTED BY IDOCK:   -3.58 KCAL/MOL
REMARK 923 INTER-LIGAND FREE ENERGY PREDICTED BY IDOCK:   -3.39 KCAL/MOL
REMARK 924 INTRA-LIGAND FREE ENERGY PREDICTED BY IDOCK:   -0.19 KCAL/MOL
REMARK 927      BINDING AFFINITY PREDICTED BY RF-SCORE:    0.00 PKD
ROOT
HETATM    1  C   UNL     1      -5.160   3.399  69.333  1.00  0.00    -0.007 C  
HETATM    2  C   UNL     1      -5.225   2.648  68.018  1.00  0.00    -0.012 C  
ENDROOT
BRANCH   2   3
HETATM    3  O   UNL     1      -6.303   1.704  68.034  1.00  0.00    -0.024 OA 
BRANCH   3   4
HETATM    4  C   UNL     1      -7.560   2.381  67.893  1.00  0.00    -0.056 C  
BRANCH   4   5
HETATM    5  C   UNL     1      -7.465   3.488  66.844  1.00  0.00    -0.075 C  
BRANCH   5   6
HETATM    6  N   UNL     1      -8.727   3.732  66.161  1.00  0.00    -0.113 NA 
HETATM    7  C   UNL     1      -9.782   4.523  66.587  1.00  0.00    -0.207 A  
HETATM    8  N   UNL     1     -10.762   4.512  65.705  1.00  0.00    -0.236 NA 
HETATM    9  C   UNL     1      -8.441   2.293  64.069  1.00  0.00    -0.082 A  
HETATM   10  C   UNL     1     -10.348   3.691  64.690  1.00  0.00    -0.109 A  
HETATM   11  C   UNL     1      -9.084   3.174  64.950  1.00  0.00    -0.143 A  
HETATM   12  C   UNL     1      -9.114   1.958  62.889  1.00  0.00    -0.087 A  
HETATM   13  C   UNL     1     -11.014   3.335  63.508  1.00  0.00    -0.109 A  
HETATM   14  C   UNL     1     -10.381   2.467  62.610  1.00  0.00    -0.117 A  
BRANCH   7  15
HETATM   15  C   UNL     1      -9.812   5.265  67.885  1.00  0.00    -0.189 C  
HETATM   16  C   UNL     1      -9.124   7.237  69.228  1.00  0.00    -0.138 C  
HETATM   17  C   UNL     1     -11.167   6.037  69.810  1.00  0.00    -0.369 C  
HETATM   18  C   UNL     1     -11.239   5.441  68.404  1.00  0.00     0.844 C  
HETATM   19  N   UNL     1     -10.443   7.317  69.887  1.00  0.00    -0.220 NA 
HETATM   20  C   UNL     1      -9.155   6.645  67.812  1.00  0.00    -0.113 C  
BRANCH  19  21
HETATM   21  C   UNL     1     -11.218   8.459  69.378  1.00  0.00     0.227 C  
BRANCH  21  22
HETATM   22  C   UNL     1     -10.346   9.566  68.756  1.00  0.00    -0.228 C  
BRANCH  22  23
HETATM   23  C   UNL     1     -10.868  10.922  69.153  1.00  0.00    -0.280 A  
HETATM   24  C   UNL     1     -10.155  12.077  68.818  1.00  0.00    -0.113 A  
HETATM   25  C   UNL     1     -10.560  13.320  69.300  1.00  0.00     0.086 A  
HETATM   26  C   UNL     1     -11.691  13.440  70.131  1.00  0.00    -0.266 A  
HETATM   27  C   UNL     1     -12.019  11.033  69.930  1.00  0.00    -0.427 A  
HETATM   28  C   UNL     1     -12.430  12.277  70.406  1.00  0.00    -0.221 A  
BRANCH  26  29
HETATM   29  C   UNL     1     -12.025  14.799  70.775  1.00  0.00    -0.371 C  
HETATM   30  C   UNL     1     -13.448  14.842  71.359  1.00  0.00    -0.404 C  
HETATM   31  C   UNL     1     -11.022  15.077  71.918  1.00  0.00     0.241 C  
HETATM   32  C   UNL     1     -11.949  15.979  69.785  1.00  0.00    -0.188 C  
HETATM   33  O   UNL     1     -14.371  14.114  70.683  1.00  0.00     0.580 OA 
HETATM   34  O   UNL     1     -13.778  15.520  72.320  1.00  0.00    -0.463 OA 
ENDBRANCH  26  29
ENDBRANCH  22  23
ENDBRANCH  21  22
ENDBRANCH  19  21
ENDBRANCH   7  15
ENDBRANCH   5   6
ENDBRANCH   4   5
ENDBRANCH   3   4
ENDBRANCH   2   3
TORSDOF 9
ENDMDL
MODEL      206
REMARK 921   NORMALIZED FREE ENERGY PREDICTED BY IDOCK:   -2.07 KCAL/MOL
REMARK 922        TOTAL FREE ENERGY PREDICTED BY IDOCK:   -3.34 KCAL/MOL
REMARK 923 INTER-LIGAND FREE ENERGY PREDICTED BY IDOCK:   -2.88 KCAL/MOL
REMARK 924 INTRA-LIGAND FREE ENERGY PREDICTED BY IDOCK:   -0.46 KCAL/MOL
REMARK 927      BINDING AFFINITY PREDICTED BY RF-SCORE:    0.00 PKD
ROOT
HETATM    1  C   UNL     1      -8.615  17.721  66.698  1.00  0.00    -0.280 C  
HETATM    2  C   UNL     1      -7.360  16.987  67.130  1.00  0.00    -0.169 C  
ENDROOT
BRANCH   2   3
HETATM    3  O   UNL     1      -7.502  15.579  66.906  1.00  0.00    -0.195 OA 
BRANCH   3   4
HETATM    4  C   UNL     1      -7.395  14.864  68.146  1.00  0.00    -0.117 C  
BRANCH   4   5
HETATM    5  C   UNL     1      -6.149  13.979  68.156  1.00  0.00    -0.129 C  
BRANCH   5   6
HETATM    6  N   UNL     1      -6.023  13.191  69.373  1.00  0.00    -0.095 NA 
HETATM    7  C   UNL     1      -6.165  11.821  69.515  1.00  0.00    -0.115 A  
HETATM    8  N   UNL     1      -5.975  11.457  70.768  1.00  0.00    -0.355 NA 
HETATM    9  C   UNL     1      -5.536  15.018  71.093  1.00  0.00    -0.068 A  
HETATM   10  C   UNL     1      -5.717  12.608  71.462  1.00  0.00     0.400 A  
HETATM   11  C   UNL     1      -5.754  13.716  70.622  1.00  0.00    -0.187 A  
HETATM   12  C   UNL     1      -5.256  15.172  72.455  1.00  0.00     0.054 A  
HETATM   13  C   UNL     1      -5.448  12.781  72.828  1.00  0.00     0.685 A  
HETATM   14  C   UNL     1      -5.214  14.073  73.312  1.00  0.00    -0.309 A  
BRANCH   7  15
HETATM   15  C   UNL     1      -6.512  10.887  68.399  1.00  0.00    -0.057 C  
HETATM   16  C   UNL     1      -8.185   9.435  67.278  1.00  0.00    -0.117 C  
HETATM   17  C   UNL     1      -6.355  10.390  65.977  1.00  0.00    -0.111 C  
HETATM   18  C   UNL     1      -6.143  11.472  67.036  1.00  0.00    -0.131 C  
HETATM   19  N   UNL     1      -7.722   9.844  65.936  1.00  0.00    -0.106 NA 
HETATM   20  C   UNL     1      -7.991  10.497  68.369  1.00  0.00    -0.116 C  
BRANCH  19  21
HETATM   21  C   UNL     1      -8.692  10.745  65.296  1.00  0.00    -0.173 C  
BRANCH  21  22
HETATM   22  C   UNL     1     -10.144  10.514  65.759  1.00  0.00    -0.329 C  
BRANCH  22  23
HETATM   23  C   UNL     1     -10.661  11.738  66.469  1.00  0.00    -0.304 A  
HETATM   24  C   UNL     1     -10.016  12.968  66.313  1.00  0.00    -0.283 A  
HETATM   25  C   UNL     1     -10.406  14.069  67.073  1.00  0.00    -0.267 A  
HETATM   26  C   UNL     1     -11.453  13.969  68.009  1.00  0.00    -0.342 A  
HETATM   27  C   UNL     1     -11.734  11.638  67.352  1.00  0.00    -0.278 A  
HETATM   28  C   UNL     1     -12.130  12.742  68.106  1.00  0.00    -0.158 A  
BRANCH  26  29
HETATM   29  C   UNL     1     -11.760  15.154  68.943  1.00  0.00    -0.357 C  
HETATM   30  C   UNL     1     -11.356  14.876  70.402  1.00  0.00    -0.243 C  
HETATM   31  C   UNL     1     -10.984  16.398  68.454  1.00  0.00    -0.353 C  
HETATM   32  C   UNL     1     -13.257  15.522  68.992  1.00  0.00     1.890 C  
HETATM   33  O   UNL     1     -11.487  13.586  70.801  1.00  0.00     0.133 OA 
HETATM   34  O   UNL     1     -11.003  15.735  71.195  1.00  0.00    -0.292 OA 
ENDBRANCH  26  29
ENDBRANCH  22  23
ENDBRANCH  21  22
ENDBRANCH  19  21
ENDBRANCH   7  15
ENDBRANCH   5   6
ENDBRANCH   4   5
ENDBRANCH   3   4
ENDBRANCH   2   3
TORSDOF 9
ENDMDL
MODEL      207
REMARK 921   NORMALIZED FREE ENERGY PREDICTED BY IDOCK:   -1.89 KCAL/MOL
REMARK 922        TOTAL FREE ENERGY PREDICTED BY IDOCK:   -3.07 KCAL/MOL
REMARK 923 INTER-LIGAND FREE ENERGY PREDICTED BY IDOCK:   -5.64 KCAL/MOL
REMARK 924 INTRA-LIGAND FREE ENERGY PREDICTED BY IDOCK:    2.57 KCAL/MOL
REMARK 927      BINDING AFFINITY PREDICTED BY RF-SCORE:    0.00 PKD
ROOT
HETATM    1  C   UNL     1     -11.628  15.099  66.893  1.00  0.00    -0.160 C  
HETATM    2  C   UNL     1     -10.442  14.717  66.030  1.00  0.00    -0.305 C  
ENDROOT
BRANCH   2   3
HETATM    3  O   UNL     1     -10.103  13.339  66.227  1.00  0.00    -0.280 OA 
BRANCH   3   4
HETATM    4  C   UNL     1     -10.510  12.908  67.533  1.00  0.00    -0.223 C  
BRANCH   4   5
HETATM    5  C   UNL     1      -9.795  13.713  68.618  1.00  0.00    -0.138 C  
BRANCH   5   6
HETATM    6  N   UNL     1      -8.479  14.176  68.206  1.00  0.00    -0.163 NA 
HETATM    7  C   UNL     1      -7.437  13.421  67.693  1.00  0.00    -0.178 A  
HETATM    8  N   UNL     1      -6.393  14.183  67.427  1.00  0.00    -0.308 NA 
HETATM    9  C   UNL     1      -8.646  16.670  68.739  1.00  0.00    -0.261 A  
HETATM   10  C   UNL     1      -6.752  15.455  67.784  1.00  0.00    -0.166 A  
HETATM   11  C   UNL     1      -8.047  15.485  68.289  1.00  0.00    -0.133 A  
HETATM   12  C   UNL     1      -7.895  17.847  68.645  1.00  0.00    -0.294 A  
HETATM   13  C   UNL     1      -6.008  16.642  67.708  1.00  0.00    -0.154 A  
HETATM   14  C   UNL     1      -6.596  17.837  68.139  1.00  0.00    -0.191 A  
BRANCH   7  15
HETATM   15  C   UNL     1      -7.484  11.940  67.493  1.00  0.00    -0.136 C  
HETATM   16  C   UNL     1      -6.627   9.917  66.336  1.00  0.00    -0.073 C  
HETATM   17  C   UNL     1      -7.642   9.702  68.545  1.00  0.00    -0.080 C  
HETATM   18  C   UNL     1      -7.400  11.187  68.820  1.00  0.00    -0.114 C  
HETATM   19  N   UNL     1      -6.712   9.109  67.569  1.00  0.00    -0.068 NA 
HETATM   20  C   UNL     1      -6.382  11.414  66.571  1.00  0.00    -0.095 C  
BRANCH  19  21
HETATM   21  C   UNL     1      -5.373   8.850  68.121  1.00  0.00    -0.035 C  
BRANCH  21  22
HETATM   22  C   UNL     1      -5.299   7.575  68.983  1.00  0.00    -0.018 C  
BRANCH  22  23
HETATM   23  C   UNL     1      -6.648   7.277  69.584  1.00  0.00    -0.040 A  
HETATM   24  C   UNL     1      -7.601   6.559  68.854  1.00  0.00    -0.100 A  
HETATM   25  C   UNL     1      -8.894   6.400  69.349  1.00  0.00    -0.132 A  
HETATM   26  C   UNL     1      -9.269   6.955  70.587  1.00  0.00    -0.158 A  
HETATM   27  C   UNL     1      -6.990   7.785  70.835  1.00  0.00    -0.049 A  
HETATM   28  C   UNL     1      -8.281   7.620  71.334  1.00  0.00    -0.102 A  
BRANCH  26  29
HETATM   29  C   UNL     1     -10.740   6.899  71.036  1.00  0.00    -0.258 C  
HETATM   30  C   UNL     1     -11.406   8.287  71.057  1.00  0.00    -0.269 C  
HETATM   31  C   UNL     1     -11.532   5.995  70.063  1.00  0.00    -0.236 C  
HETATM   32  C   UNL     1     -10.924   6.332  72.459  1.00  0.00    -0.286 C  
HETATM   33  O   UNL     1     -10.585   9.314  71.390  1.00  0.00    -0.314 OA 
HETATM   34  O   UNL     1     -12.595   8.484  70.860  1.00  0.00    -0.124 OA 
ENDBRANCH  26  29
ENDBRANCH  22  23
ENDBRANCH  21  22
ENDBRANCH  19  21
ENDBRANCH   7  15
ENDBRANCH   5   6
ENDBRANCH   4   5
ENDBRANCH   3   4
ENDBRANCH   2   3
TORSDOF 9
ENDMDL
MODEL      208
REMARK 921   NORMALIZED FREE ENERGY PREDICTED BY IDOCK:   -1.59 KCAL/MOL
REMARK 922        TOTAL FREE ENERGY PREDICTED BY IDOCK:   -2.62 KCAL/MOL
REMARK 923 INTER-LIGAND FREE ENERGY PREDICTED BY IDOCK:   -7.06 KCAL/MOL
REMARK 924 INTRA-LIGAND FREE ENERGY PREDICTED BY IDOCK:    4.44 KCAL/MOL
REMARK 927      BINDING AFFINITY PREDICTED BY RF-SCORE:    0.00 PKD
ROOT
HETATM    1  C   UNL     1      -8.662   6.273  68.018  1.00  0.00    -0.114 C  
HETATM    2  C   UNL     1      -8.302   7.066  66.777  1.00  0.00    -0.116 C  
ENDROOT
BRANCH   2   3
HETATM    3  O   UNL     1      -9.157   8.209  66.647  1.00  0.00    -0.146 OA 
BRANCH   3   4
HETATM    4  C   UNL     1     -10.343   8.034  67.435  1.00  0.00    -0.284 C  
BRANCH   4   5
HETATM    5  C   UNL     1     -10.081   7.094  68.611  1.00  0.00    -0.173 C  
BRANCH   5   6
HETATM    6  N   UNL     1      -9.945   7.795  69.878  1.00  0.00    -0.188 NA 
HETATM    7  C   UNL     1      -9.543   9.105  70.084  1.00  0.00    -0.206 A  
HETATM    8  N   UNL     1      -9.544   9.399  71.370  1.00  0.00    -0.241 NA 
HETATM    9  C   UNL     1     -10.592   5.956  71.530  1.00  0.00    -0.300 A  
HETATM   10  C   UNL     1      -9.940   8.261  72.019  1.00  0.00    -0.257 A  
HETATM   11  C   UNL     1     -10.186   7.232  71.116  1.00  0.00    -0.190 A  
HETATM   12  C   UNL     1     -10.764   5.749  72.903  1.00  0.00    -0.282 A  
HETATM   13  C   UNL     1     -10.106   8.033  73.393  1.00  0.00    -0.111 A  
HETATM   14  C   UNL     1     -10.525   6.769  73.823  1.00  0.00    -0.383 A  
BRANCH   7  15
HETATM   15  C   UNL     1      -9.139  10.046  68.995  1.00  0.00    -0.172 C  
HETATM   16  C   UNL     1      -9.777  11.753  67.308  1.00  0.00    -0.178 C  
HETATM   17  C   UNL     1      -7.505  11.731  68.200  1.00  0.00    -0.098 C  
HETATM   18  C   UNL     1      -7.973  10.939  69.421  1.00  0.00    -0.027 C  
HETATM   19  N   UNL     1      -8.557  12.545  67.568  1.00  0.00    -0.172 NA 
HETATM   20  C   UNL     1     -10.279  10.945  68.512  1.00  0.00    -0.197 C  
BRANCH  19  21
HETATM   21  C   UNL     1      -8.876  13.771  68.317  1.00  0.00    -0.185 C  
BRANCH  21  22
HETATM   22  C   UNL     1      -7.639  14.459  68.926  1.00  0.00    -0.128 C  
BRANCH  22  23
HETATM   23  C   UNL     1      -7.401  15.786  68.254  1.00  0.00    -0.121 A  
HETATM   24  C   UNL     1      -6.628  16.766  68.884  1.00  0.00    -0.189 A  
HETATM   25  C   UNL     1      -6.519  18.041  68.332  1.00  0.00    -0.203 A  
HETATM   26  C   UNL     1      -7.180  18.370  67.134  1.00  0.00    -0.217 A  
HETATM   27  C   UNL     1      -8.017  16.081  67.040  1.00  0.00    -0.262 A  
HETATM   28  C   UNL     1      -7.901  17.354  66.483  1.00  0.00    -0.320 A  
BRANCH  26  29
HETATM   29  C   UNL     1      -7.170  19.824  66.630  1.00  0.00    -0.250 C  
HETATM   30  C   UNL     1      -6.490  19.969  65.257  1.00  0.00    -0.274 C  
HETATM   31  C   UNL     1      -8.627  20.327  66.505  1.00  0.00    -0.269 C  
HETATM   32  C   UNL     1      -6.418  20.791  67.567  1.00  0.00    -0.370 C  
HETATM   33  O   UNL     1      -5.459  19.117  65.031  1.00  0.00    -0.166 OA 
HETATM   34  O   UNL     1      -6.782  20.819  64.429  1.00  0.00    -0.268 OA 
ENDBRANCH  26  29
ENDBRANCH  22  23
ENDBRANCH  21  22
ENDBRANCH  19  21
ENDBRANCH   7  15
ENDBRANCH   5   6
ENDBRANCH   4   5
ENDBRANCH   3   4
ENDBRANCH   2   3
TORSDOF 9
ENDMDL
MODEL      209
REMARK 921   NORMALIZED FREE ENERGY PREDICTED BY IDOCK:   -1.19 KCAL/MOL
REMARK 922        TOTAL FREE ENERGY PREDICTED BY IDOCK:   -2.00 KCAL/MOL
REMARK 923 INTER-LIGAND FREE ENERGY PREDICTED BY IDOCK:   -4.30 KCAL/MOL
REMARK 924 INTRA-LIGAND FREE ENERGY PREDICTED BY IDOCK:    2.30 KCAL/MOL
REMARK 927      BINDING AFFINITY PREDICTED BY RF-SCORE:    0.00 PKD
ROOT
HETATM    1  C   UNL     1      -6.525  14.153  70.654  1.00  0.00     0.039 C  
HETATM    2  C   UNL     1      -5.947  13.806  69.296  1.00  0.00    -0.091 C  
ENDROOT
BRANCH   2   3
HETATM    3  O   UNL     1      -5.554  12.429  69.256  1.00  0.00    -0.068 OA 
BRANCH   3   4
HETATM    4  C   UNL     1      -6.355  11.710  68.308  1.00  0.00    -0.050 C  
BRANCH   4   5
HETATM    5  C   UNL     1      -7.823  12.122  68.414  1.00  0.00    -0.149 C  
BRANCH   5   6
HETATM    6  N   UNL     1      -8.733  10.987  68.411  1.00  0.00    -0.144 NA 
HETATM    7  C   UNL     1      -8.595   9.791  67.724  1.00  0.00    -0.125 A  
HETATM    8  N   UNL     1      -9.616   8.992  67.966  1.00  0.00    -0.145 NA 
HETATM    9  C   UNL     1     -10.593  11.844  69.939  1.00  0.00     0.748 A  
HETATM   10  C   UNL     1     -10.443   9.678  68.814  1.00  0.00    -0.215 A  
HETATM   11  C   UNL     1      -9.927  10.937  69.102  1.00  0.00    -0.161 A  
HETATM   12  C   UNL     1     -11.806  11.429  70.501  1.00  0.00    -0.394 A  
HETATM   13  C   UNL     1     -11.665   9.283  69.376  1.00  0.00     0.529 A  
HETATM   14  C   UNL     1     -12.337  10.170  70.225  1.00  0.00    -0.211 A  
BRANCH   7  15
HETATM   15  C   UNL     1      -7.455   9.466  66.814  1.00  0.00    -0.094 C  
HETATM   16  C   UNL     1      -6.442   7.958  65.120  1.00  0.00    -0.044 C  
HETATM   17  C   UNL     1      -5.784  10.308  65.188  1.00  0.00    -0.124 C  
HETATM   18  C   UNL     1      -7.064  10.663  65.946  1.00  0.00    -0.115 C  
HETATM   19  N   UNL     1      -5.891   9.097  64.357  1.00  0.00    -0.068 NA 
HETATM   20  C   UNL     1      -7.730   8.275  65.893  1.00  0.00    -0.087 C  
BRANCH  19  21
HETATM   21  C   UNL     1      -6.642   9.308  63.110  1.00  0.00    -0.091 C  
BRANCH  21  22
HETATM   22  C   UNL     1      -8.103   8.826  63.183  1.00  0.00    -0.176 C  
BRANCH  22  23
HETATM   23  C   UNL     1      -9.005   9.966  63.580  1.00  0.00    -0.278 A  
HETATM   24  C   UNL     1      -8.838  11.229  63.006  1.00  0.00    -0.125 A  
HETATM   25  C   UNL     1      -9.576  12.317  63.469  1.00  0.00     0.155 A  
HETATM   26  C   UNL     1     -10.502  12.169  64.519  1.00  0.00    -0.339 A  
HETATM   27  C   UNL     1      -9.957   9.793  64.583  1.00  0.00     0.088 A  
HETATM   28  C   UNL     1     -10.701  10.879  65.041  1.00  0.00    -0.216 A  
BRANCH  26  29
HETATM   29  C   UNL     1     -11.188  13.412  65.114  1.00  0.00    -0.321 C  
HETATM   30  C   UNL     1     -12.539  13.719  64.444  1.00  0.00    -0.169 C  
HETATM   31  C   UNL     1     -11.435  13.181  66.622  1.00  0.00    -0.389 C  
HETATM   32  C   UNL     1     -10.353  14.700  64.967  1.00  0.00    -0.432 C  
HETATM   33  O   UNL     1     -12.612  13.413  63.125  1.00  0.00    -0.710 OA 
HETATM   34  O   UNL     1     -13.481  14.258  65.007  1.00  0.00    -0.321 OA 
ENDBRANCH  26  29
ENDBRANCH  22  23
ENDBRANCH  21  22
ENDBRANCH  19  21
ENDBRANCH   7  15
ENDBRANCH   5   6
ENDBRANCH   4   5
ENDBRANCH   3   4
ENDBRANCH   2   3
TORSDOF 9
ENDMDL
MODEL      210
REMARK 921   NORMALIZED FREE ENERGY PREDICTED BY IDOCK:   -0.39 KCAL/MOL
REMARK 922        TOTAL FREE ENERGY PREDICTED BY IDOCK:   -0.78 KCAL/MOL
REMARK 923 INTER-LIGAND FREE ENERGY PREDICTED BY IDOCK:   -1.32 KCAL/MOL
REMARK 924 INTRA-LIGAND FREE ENERGY PREDICTED BY IDOCK:    0.54 KCAL/MOL
REMARK 927      BINDING AFFINITY PREDICTED BY RF-SCORE:    0.00 PKD
ROOT
HETATM    1  C   UNL     1      -5.253  12.241  73.073  1.00  0.00     0.578 C  
HETATM    2  C   UNL     1      -5.529  11.841  71.637  1.00  0.00     0.294 C  
ENDROOT
BRANCH   2   3
HETATM    3  O   UNL     1      -6.138  10.545  71.587  1.00  0.00    -0.244 OA 
BRANCH   3   4
HETATM    4  C   UNL     1      -5.141   9.534  71.383  1.00  0.00    -0.053 C  
BRANCH   4   5
HETATM    5  C   UNL     1      -5.645   8.461  70.418  1.00  0.00    -0.025 C  
BRANCH   5   6
HETATM    6  N   UNL     1      -6.939   7.917  70.801  1.00  0.00    -0.045 NA 
HETATM    7  C   UNL     1      -8.190   8.306  70.350  1.00  0.00    -0.114 A  
HETATM    8  N   UNL     1      -9.138   7.583  70.914  1.00  0.00    -0.152 NA 
HETATM    9  C   UNL     1      -6.243   6.149  72.510  1.00  0.00    -0.053 A  
HETATM   10  C   UNL     1      -8.500   6.715  71.759  1.00  0.00    -0.119 A  
HETATM   11  C   UNL     1      -7.123   6.906  71.723  1.00  0.00    -0.074 A  
HETATM   12  C   UNL     1      -6.800   5.164  73.333  1.00  0.00    -0.075 A  
HETATM   13  C   UNL     1      -9.043   5.731  72.598  1.00  0.00    -0.131 A  
HETATM   14  C   UNL     1      -8.178   4.956  73.380  1.00  0.00    -0.107 A  
BRANCH   7  15
HETATM   15  C   UNL     1      -8.430   9.414  69.375  1.00  0.00    -0.142 C  
HETATM   16  C   UNL     1      -9.269  10.159  67.160  1.00  0.00    -0.138 C  
HETATM   17  C   UNL     1      -9.204  11.741  69.017  1.00  0.00     0.238 C  
HETATM   18  C   UNL     1      -9.166  10.588  70.021  1.00  0.00     0.406 C  
HETATM   19  N   UNL     1      -9.832  11.400  67.729  1.00  0.00    -0.172 NA 
HETATM   20  C   UNL     1      -9.217   8.977  68.137  1.00  0.00    -0.141 C  
BRANCH  19  21
HETATM   21  C   UNL     1     -11.300  11.331  67.796  1.00  0.00    -0.285 C  
BRANCH  21  22
HETATM   22  C   UNL     1     -12.005  12.193  66.732  1.00  0.00    -0.170 C  
BRANCH  22  23
HETATM   23  C   UNL     1     -11.294  13.513  66.580  1.00  0.00    -0.344 A  
HETATM   24  C   UNL     1     -10.009  13.561  66.032  1.00  0.00    -0.308 A  
HETATM   25  C   UNL     1      -9.294  14.757  66.017  1.00  0.00    -0.249 A  
HETATM   26  C   UNL     1      -9.847  15.938  66.549  1.00  0.00    -0.277 A  
HETATM   27  C   UNL     1     -11.875  14.684  67.061  1.00  0.00    -0.358 A  
HETATM   28  C   UNL     1     -11.163  15.883  67.038  1.00  0.00    -0.024 A  
BRANCH  26  29
HETATM   29  C   UNL     1      -8.980  17.205  66.660  1.00  0.00    -0.278 C  
HETATM   30  C   UNL     1      -7.702  17.124  65.806  1.00  0.00     0.289 C  
HETATM   31  C   UNL     1      -9.804  18.425  66.189  1.00  0.00    -0.279 C  
HETATM   32  C   UNL     1      -8.497  17.491  68.097  1.00  0.00    -0.254 C  
HETATM   33  O   UNL     1      -7.163  15.885  65.690  1.00  0.00     1.911 OA 
HETATM   34  O   UNL     1      -7.146  18.090  65.306  1.00  0.00    -0.427 OA 
ENDBRANCH  26  29
ENDBRANCH  22  23
ENDBRANCH  21  22
ENDBRANCH  19  21
ENDBRANCH   7  15
ENDBRANCH   5   6
ENDBRANCH   4   5
ENDBRANCH   3   4
ENDBRANCH   2   3
TORSDOF 9
ENDMDL
MODEL      211
REMARK 921   NORMALIZED FREE ENERGY PREDICTED BY IDOCK:   -0.38 KCAL/MOL
REMARK 922        TOTAL FREE ENERGY PREDICTED BY IDOCK:   -0.76 KCAL/MOL
REMARK 923 INTER-LIGAND FREE ENERGY PREDICTED BY IDOCK:   -0.68 KCAL/MOL
REMARK 924 INTRA-LIGAND FREE ENERGY PREDICTED BY IDOCK:   -0.08 KCAL/MOL
REMARK 927      BINDING AFFINITY PREDICTED BY RF-SCORE:    0.00 PKD
ROOT
HETATM    1  C   UNL     1      -9.052   6.182  65.097  1.00  0.00     0.277 C  
HETATM    2  C   UNL     1      -8.382   7.483  65.492  1.00  0.00    -0.133 C  
ENDROOT
BRANCH   2   3
HETATM    3  O   UNL     1      -8.676   8.508  64.534  1.00  0.00    -0.094 OA 
BRANCH   3   4
HETATM    4  C   UNL     1      -8.043   9.739  64.912  1.00  0.00    -0.140 C  
BRANCH   4   5
HETATM    5  C   UNL     1      -6.876   9.479  65.864  1.00  0.00    -0.087 C  
BRANCH   5   6
HETATM    6  N   UNL     1      -7.074  10.071  67.179  1.00  0.00    -0.088 NA 
HETATM    7  C   UNL     1      -7.835  11.182  67.502  1.00  0.00    -0.117 A  
HETATM    8  N   UNL     1      -7.785  11.424  68.798  1.00  0.00    -0.139 NA 
HETATM    9  C   UNL     1      -5.624   8.545  68.628  1.00  0.00    -0.037 A  
HETATM   10  C   UNL     1      -6.967  10.463  69.331  1.00  0.00    -0.091 A  
HETATM   11  C   UNL     1      -6.493   9.608  68.343  1.00  0.00    -0.052 A  
HETATM   12  C   UNL     1      -5.256   8.356  69.965  1.00  0.00    -0.022 A  
HETATM   13  C   UNL     1      -6.579  10.267  70.664  1.00  0.00    -0.042 A  
HETATM   14  C   UNL     1      -5.723   9.203  70.970  1.00  0.00    -0.047 A  
BRANCH   7  15
HETATM   15  C   UNL     1      -8.589  12.008  66.510  1.00  0.00    -0.100 C  
HETATM   16  C   UNL     1     -10.641  12.369  65.158  1.00  0.00    -0.292 C  
HETATM   17  C   UNL     1      -9.244  14.278  65.761  1.00  0.00     0.222 C  
HETATM   18  C   UNL     1      -8.624  13.483  66.911  1.00  0.00    -0.114 C  
HETATM   19  N   UNL     1     -10.593  13.829  65.376  1.00  0.00    -0.307 NA 
HETATM   20  C   UNL     1     -10.029  11.537  66.293  1.00  0.00    -0.252 C  
BRANCH  19  21
HETATM   21  C   UNL     1     -11.642  14.256  66.316  1.00  0.00    -0.372 C  
BRANCH  21  22
HETATM   22  C   UNL     1     -11.259  15.499  67.142  1.00  0.00    -0.204 C  
BRANCH  22  23
HETATM   23  C   UNL     1     -11.672  15.314  68.579  1.00  0.00    -0.352 A  
HETATM   24  C   UNL     1     -12.899  15.812  69.028  1.00  0.00     1.059 A  
HETATM   25  C   UNL     1     -13.224  15.766  70.382  1.00  0.00     0.308 A  
HETATM   26  C   UNL     1     -12.330  15.219  71.323  1.00  0.00    -0.424 A  
HETATM   27  C   UNL     1     -10.801  14.722  69.491  1.00  0.00    -0.268 A  
HETATM   28  C   UNL     1     -11.130  14.668  70.845  1.00  0.00     0.048 A  
BRANCH  26  29
HETATM   29  C   UNL     1     -12.646  15.322  72.827  1.00  0.00    -0.489 C  
HETATM   30  C   UNL     1     -12.491  16.755  73.367  1.00  0.00     0.018 C  
HETATM   31  C   UNL     1     -14.103  14.866  73.070  1.00  0.00     0.338 C  
HETATM   32  C   UNL     1     -11.727  14.449  73.705  1.00  0.00     0.619 C  
HETATM   33  O   UNL     1     -11.514  17.490  72.780  1.00  0.00     0.539 OA 
HETATM   34  O   UNL     1     -13.135  17.213  74.299  1.00  0.00     0.156 OA 
ENDBRANCH  26  29
ENDBRANCH  22  23
ENDBRANCH  21  22
ENDBRANCH  19  21
ENDBRANCH   7  15
ENDBRANCH   5   6
ENDBRANCH   4   5
ENDBRANCH   3   4
ENDBRANCH   2   3
TORSDOF 9
ENDMDL
MODEL      212
REMARK 921   NORMALIZED FREE ENERGY PREDICTED BY IDOCK:    0.40 KCAL/MOL
REMARK 922        TOTAL FREE ENERGY PREDICTED BY IDOCK:    0.42 KCAL/MOL
REMARK 923 INTER-LIGAND FREE ENERGY PREDICTED BY IDOCK:    0.26 KCAL/MOL
REMARK 924 INTRA-LIGAND FREE ENERGY PREDICTED BY IDOCK:    0.16 KCAL/MOL
REMARK 927      BINDING AFFINITY PREDICTED BY RF-SCORE:    0.00 PKD
ROOT
HETATM    1  C   UNL     1      -9.022  14.389  70.978  1.00  0.00     3.973 C  
HETATM    2  C   UNL     1     -10.366  14.966  71.376  1.00  0.00     1.351 C  
ENDROOT
BRANCH   2   3
HETATM    3  O   UNL     1     -10.851  15.853  70.360  1.00  0.00    -0.320 OA 
BRANCH   3   4
HETATM    4  C   UNL     1      -9.800  16.720  69.913  1.00  0.00     0.458 C  
BRANCH   4   5
HETATM    5  C   UNL     1      -9.277  16.279  68.546  1.00  0.00    -0.211 C  
BRANCH   5   6
HETATM    6  N   UNL     1      -9.628  17.203  67.479  1.00  0.00    -0.251 NA 
HETATM    7  C   UNL     1     -10.455  16.968  66.392  1.00  0.00    -0.252 A  
HETATM    8  N   UNL     1     -10.546  18.042  65.632  1.00  0.00    -0.591 NA 
HETATM    9  C   UNL     1      -8.285  19.269  68.155  1.00  0.00    -0.354 A  
HETATM   10  C   UNL     1      -9.756  18.992  66.222  1.00  0.00    -0.354 A  
HETATM   11  C   UNL     1      -9.155  18.496  67.373  1.00  0.00    -0.275 A  
HETATM   12  C   UNL     1      -8.050  20.587  67.744  1.00  0.00    -0.176 A  
HETATM   13  C   UNL     1      -9.501  20.311  65.818  1.00  0.00    -0.066 A  
HETATM   14  C   UNL     1      -8.646  21.102  66.594  1.00  0.00     0.682 A  
BRANCH   7  15
HETATM   15  C   UNL     1     -11.131  15.665  66.110  1.00  0.00    -0.127 C  
HETATM   16  C   UNL     1     -11.559  13.779  64.552  1.00  0.00    -0.392 C  
HETATM   17  C   UNL     1     -11.767  13.425  66.958  1.00  0.00    -0.381 C  
HETATM   18  C   UNL     1     -10.898  14.652  67.232  1.00  0.00    -0.305 C  
HETATM   19  N   UNL     1     -11.524  12.792  65.650  1.00  0.00    -0.326 NA 
HETATM   20  C   UNL     1     -10.696  15.026  64.790  1.00  0.00    -0.354 C  
BRANCH  19  21
HETATM   21  C   UNL     1     -10.286  11.999  65.606  1.00  0.00    -0.252 C  
BRANCH  21  22
HETATM   22  C   UNL     1     -10.530  10.479  65.554  1.00  0.00    -0.220 C  
BRANCH  22  23
HETATM   23  C   UNL     1     -10.221   9.858  66.891  1.00  0.00    -0.302 A  
HETATM   24  C   UNL     1     -11.254   9.550  67.780  1.00  0.00     0.147 A  
HETATM   25  C   UNL     1     -10.965   9.105  69.069  1.00  0.00    -0.035 A  
HETATM   26  C   UNL     1      -9.634   8.955  69.502  1.00  0.00    -0.171 A  
HETATM   27  C   UNL     1      -8.899   9.663  67.287  1.00  0.00    -0.139 A  
HETATM   28  C   UNL     1      -8.610   9.209  68.574  1.00  0.00    -0.129 A  
BRANCH  26  29
HETATM   29  C   UNL     1      -9.343   8.612  70.974  1.00  0.00    -0.254 C  
HETATM   30  C   UNL     1      -8.928   7.143  71.169  1.00  0.00    -0.145 C  
HETATM   31  C   UNL     1      -8.196   9.513  71.486  1.00  0.00     0.723 C  
HETATM   32  C   UNL     1     -10.557   8.824  71.902  1.00  0.00    -0.425 C  
HETATM   33  O   UNL     1      -9.514   6.261  70.322  1.00  0.00    -0.159 OA 
HETATM   34  O   UNL     1      -8.178   6.749  72.050  1.00  0.00    -0.105 OA 
ENDBRANCH  26  29
ENDBRANCH  22  23
ENDBRANCH  21  22
ENDBRANCH  19  21
ENDBRANCH   7  15
ENDBRANCH   5   6
ENDBRANCH   4   5
ENDBRANCH   3   4
ENDBRANCH   2   3
TORSDOF 9
ENDMDL
MODEL      213
REMARK 921   NORMALIZED FREE ENERGY PREDICTED BY IDOCK:    0.68 KCAL/MOL
REMARK 922        TOTAL FREE ENERGY PREDICTED BY IDOCK:    0.85 KCAL/MOL
REMARK 923 INTER-LIGAND FREE ENERGY PREDICTED BY IDOCK:   -0.56 KCAL/MOL
REMARK 924 INTRA-LIGAND FREE ENERGY PREDICTED BY IDOCK:    1.41 KCAL/MOL
REMARK 927      BINDING AFFINITY PREDICTED BY RF-SCORE:    0.00 PKD
ROOT
HETATM    1  C   UNL     1      -5.675  12.302  73.117  1.00  0.00     1.758 C  
HETATM    2  C   UNL     1      -5.779  12.255  71.605  1.00  0.00     0.652 C  
ENDROOT
BRANCH   2   3
HETATM    3  O   UNL     1      -6.265  10.977  71.176  1.00  0.00    -0.327 OA 
BRANCH   3   4
HETATM    4  C   UNL     1      -5.180  10.160  70.714  1.00  0.00    -0.062 C  
BRANCH   4   5
HETATM    5  C   UNL     1      -5.468   9.614  69.316  1.00  0.00    -0.035 C  
BRANCH   5   6
HETATM    6  N   UNL     1      -6.788   9.012  69.202  1.00  0.00    -0.054 NA 
HETATM    7  C   UNL     1      -7.960   9.612  68.773  1.00  0.00    -0.089 A  
HETATM    8  N   UNL     1      -8.962   8.755  68.797  1.00  0.00    -0.138 NA 
HETATM    9  C   UNL     1      -6.321   6.645  70.044  1.00  0.00    -0.039 A  
HETATM   10  C   UNL     1      -8.442   7.577  69.263  1.00  0.00    -0.136 A  
HETATM   11  C   UNL     1      -7.085   7.706  69.541  1.00  0.00    -0.064 A  
HETATM   12  C   UNL     1      -6.972   5.422  70.245  1.00  0.00    -0.060 A  
HETATM   13  C   UNL     1      -9.081   6.348  69.482  1.00  0.00    -0.138 A  
HETATM   14  C   UNL     1      -8.330   5.273  69.971  1.00  0.00    -0.098 A  
BRANCH   7  15
HETATM   15  C   UNL     1      -8.075  11.045  68.361  1.00  0.00    -0.134 C  
HETATM   16  C   UNL     1      -8.633  12.724  66.619  1.00  0.00    -0.006 C  
HETATM   17  C   UNL     1      -8.791  13.336  68.977  1.00  0.00     0.455 C  
HETATM   18  C   UNL     1      -8.881  11.861  69.371  1.00  0.00     0.937 C  
HETATM   19  N   UNL     1      -9.257  13.625  67.610  1.00  0.00    -0.203 NA 
HETATM   20  C   UNL     1      -8.705  11.234  66.980  1.00  0.00    -0.152 C  
BRANCH  19  21
HETATM   21  C   UNL     1     -10.723  13.616  67.478  1.00  0.00    -0.259 C  
BRANCH  21  22
HETATM   22  C   UNL     1     -11.273  14.801  66.661  1.00  0.00    -0.346 C  
BRANCH  22  23
HETATM   23  C   UNL     1     -10.483  16.048  66.959  1.00  0.00    -0.307 A  
HETATM   24  C   UNL     1      -9.491  16.034  67.944  1.00  0.00    -0.210 A  
HETATM   25  C   UNL     1      -8.854  17.216  68.319  1.00  0.00    -0.245 A  
HETATM   26  C   UNL     1      -9.192  18.443  67.718  1.00  0.00    -0.287 A  
HETATM   27  C   UNL     1     -10.790  17.246  66.318  1.00  0.00     0.051 A  
HETATM   28  C   UNL     1     -10.148  18.427  66.687  1.00  0.00    -0.399 A  
BRANCH  26  29
HETATM   29  C   UNL     1      -8.587  19.751  68.258  1.00  0.00    -0.317 C  
HETATM   30  C   UNL     1      -7.101  19.605  68.631  1.00  0.00    -0.334 C  
HETATM   31  C   UNL     1      -8.711  20.850  67.178  1.00  0.00    -0.124 C  
HETATM   32  C   UNL     1      -9.283  20.266  69.535  1.00  0.00     0.713 C  
HETATM   33  O   UNL     1      -6.744  18.389  69.113  1.00  0.00    -0.267 OA 
HETATM   34  O   UNL     1      -6.284  20.512  68.575  1.00  0.00    -0.298 OA 
ENDBRANCH  26  29
ENDBRANCH  22  23
ENDBRANCH  21  22
ENDBRANCH  19  21
ENDBRANCH   7  15
ENDBRANCH   5   6
ENDBRANCH   4   5
ENDBRANCH   3   4
ENDBRANCH   2   3
TORSDOF 9
ENDMDL
MODEL      214
REMARK 921   NORMALIZED FREE ENERGY PREDICTED BY IDOCK:    0.91 KCAL/MOL
REMARK 922        TOTAL FREE ENERGY PREDICTED BY IDOCK:    1.20 KCAL/MOL
REMARK 923 INTER-LIGAND FREE ENERGY PREDICTED BY IDOCK:   -1.43 KCAL/MOL
REMARK 924 INTRA-LIGAND FREE ENERGY PREDICTED BY IDOCK:    2.63 KCAL/MOL
REMARK 927      BINDING AFFINITY PREDICTED BY RF-SCORE:    0.00 PKD
ROOT
HETATM    1  C   UNL     1      -8.275   1.965  64.056  1.00  0.00    -0.077 C  
HETATM    2  C   UNL     1      -7.673   2.264  65.416  1.00  0.00    -0.076 C  
ENDROOT
BRANCH   2   3
HETATM    3  O   UNL     1      -7.652   3.677  65.654  1.00  0.00    -0.076 OA 
BRANCH   3   4
HETATM    4  C   UNL     1      -6.534   4.025  66.483  1.00  0.00    -0.037 C  
BRANCH   4   5
HETATM    5  C   UNL     1      -6.995   4.371  67.898  1.00  0.00    -0.056 C  
BRANCH   5   6
HETATM    6  N   UNL     1      -8.135   5.275  67.919  1.00  0.00    -0.099 NA 
HETATM    7  C   UNL     1      -8.284   6.435  68.662  1.00  0.00    -0.121 A  
HETATM    8  N   UNL     1      -9.451   6.999  68.420  1.00  0.00    -0.133 NA 
HETATM    9  C   UNL     1      -9.720   4.104  66.292  1.00  0.00    -0.219 A  
HETATM   10  C   UNL     1     -10.083   6.190  67.515  1.00  0.00    -0.158 A  
HETATM   11  C   UNL     1      -9.293   5.092  67.190  1.00  0.00    -0.124 A  
HETATM   12  C   UNL     1     -10.981   4.267  65.707  1.00  0.00     0.569 A  
HETATM   13  C   UNL     1     -11.349   6.332  66.929  1.00  0.00     0.009 A  
HETATM   14  C   UNL     1     -11.786   5.362  66.019  1.00  0.00     1.675 A  
BRANCH   7  15
HETATM   15  C   UNL     1      -7.267   6.959  69.624  1.00  0.00    -0.080 C  
HETATM   16  C   UNL     1      -5.146   8.188  70.025  1.00  0.00    -0.023 C  
HETATM   17  C   UNL     1      -6.836   8.095  71.784  1.00  0.00    -0.073 C  
HETATM   18  C   UNL     1      -7.915   7.759  70.753  1.00  0.00    -0.101 C  
HETATM   19  N   UNL     1      -5.689   8.838  71.236  1.00  0.00    -0.038 NA 
HETATM   20  C   UNL     1      -6.199   7.836  68.966  1.00  0.00    -0.036 C  
BRANCH  19  21
HETATM   21  C   UNL     1      -5.977  10.259  70.986  1.00  0.00    -0.016 C  
BRANCH  21  22
HETATM   22  C   UNL     1      -5.713  10.693  69.531  1.00  0.00    -0.039 C  
BRANCH  22  23
HETATM   23  C   UNL     1      -6.747  11.698  69.095  1.00  0.00    -0.109 A  
HETATM   24  C   UNL     1      -6.577  13.055  69.385  1.00  0.00    -0.063 A  
HETATM   25  C   UNL     1      -7.592  13.967  69.107  1.00  0.00     0.030 A  
HETATM   26  C   UNL     1      -8.805  13.547  68.529  1.00  0.00    -0.086 A  
HETATM   27  C   UNL     1      -7.920  11.276  68.474  1.00  0.00    -0.145 A  
HETATM   28  C   UNL     1      -8.933  12.190  68.188  1.00  0.00    -0.195 A  
BRANCH  26  29
HETATM   29  C   UNL     1      -9.966  14.547  68.376  1.00  0.00    -0.241 C  
HETATM   30  C   UNL     1      -9.749  15.531  67.213  1.00  0.00    -0.218 C  
HETATM   31  C   UNL     1     -11.275  13.767  68.115  1.00  0.00    -0.298 C  
HETATM   32  C   UNL     1     -10.184  15.427  69.625  1.00  0.00    -0.283 C  
HETATM   33  O   UNL     1      -8.458  15.879  66.985  1.00  0.00    -0.181 OA 
HETATM   34  O   UNL     1     -10.650  16.036  66.560  1.00  0.00    -0.308 OA 
ENDBRANCH  26  29
ENDBRANCH  22  23
ENDBRANCH  21  22
ENDBRANCH  19  21
ENDBRANCH   7  15
ENDBRANCH   5   6
ENDBRANCH   4   5
ENDBRANCH   3   4
ENDBRANCH   2   3
TORSDOF 9
ENDMDL
MODEL      215
REMARK 921   NORMALIZED FREE ENERGY PREDICTED BY IDOCK:    3.17 KCAL/MOL
REMARK 922        TOTAL FREE ENERGY PREDICTED BY IDOCK:    4.66 KCAL/MOL
REMARK 923 INTER-LIGAND FREE ENERGY PREDICTED BY IDOCK:    2.57 KCAL/MOL
REMARK 924 INTRA-LIGAND FREE ENERGY PREDICTED BY IDOCK:    2.09 KCAL/MOL
REMARK 927      BINDING AFFINITY PREDICTED BY RF-SCORE:    0.00 PKD
ROOT
HETATM    1  C   UNL     1      -9.504  14.673  70.038  1.00  0.00     0.648 C  
HETATM    2  C   UNL     1      -8.726  15.676  69.209  1.00  0.00    -0.267 C  
ENDROOT
BRANCH   2   3
HETATM    3  O   UNL     1      -7.714  15.014  68.440  1.00  0.00    -0.105 OA 
BRANCH   3   4
HETATM    4  C   UNL     1      -8.259  14.546  67.198  1.00  0.00    -0.188 C  
BRANCH   4   5
HETATM    5  C   UNL     1      -9.730  14.940  67.068  1.00  0.00    -0.235 C  
BRANCH   5   6
HETATM    6  N   UNL     1     -10.450  14.133  66.094  1.00  0.00    -0.289 NA 
HETATM    7  C   UNL     1     -10.652  12.763  66.112  1.00  0.00    -0.266 A  
HETATM    8  N   UNL     1     -11.356  12.379  65.066  1.00  0.00    -0.311 NA 
HETATM    9  C   UNL     1     -11.148  15.914  64.400  1.00  0.00    -0.165 A  
HETATM   10  C   UNL     1     -11.609  13.514  64.342  1.00  0.00    -0.396 A  
HETATM   11  C   UNL     1     -11.044  14.629  64.950  1.00  0.00    -0.401 A  
HETATM   12  C   UNL     1     -11.868  16.046  63.207  1.00  0.00     3.008 A  
HETATM   13  C   UNL     1     -12.317  13.662  63.141  1.00  0.00     0.147 A  
HETATM   14  C   UNL     1     -12.444  14.940  62.584  1.00  0.00     3.616 A  
BRANCH   7  15
HETATM   15  C   UNL     1     -10.120  11.844  67.165  1.00  0.00    -0.222 C  
HETATM   16  C   UNL     1      -9.527  11.443  69.543  1.00  0.00     0.671 C  
HETATM   17  C   UNL     1     -10.095   9.552  68.108  1.00  0.00    -0.182 C  
HETATM   18  C   UNL     1     -10.819  10.485  67.136  1.00  0.00    -0.319 C  
HETATM   19  N   UNL     1     -10.028  10.055  69.491  1.00  0.00    -0.216 NA 
HETATM   20  C   UNL     1     -10.231  12.410  68.582  1.00  0.00    -0.169 C  
BRANCH  19  21
HETATM   21  C   UNL     1     -11.299   9.926  70.221  1.00  0.00    -0.291 C  
BRANCH  21  22
HETATM   22  C   UNL     1     -12.049   8.614  69.925  1.00  0.00     0.853 C  
BRANCH  22  23
HETATM   23  C   UNL     1     -11.371   7.462  70.620  1.00  0.00    -0.304 A  
HETATM   24  C   UNL     1     -11.112   7.522  71.993  1.00  0.00    -0.288 A  
HETATM   25  C   UNL     1     -10.364   6.523  72.613  1.00  0.00    -0.214 A  
HETATM   26  C   UNL     1      -9.856   5.436  71.877  1.00  0.00    -0.218 A  
HETATM   27  C   UNL     1     -10.920   6.365  69.889  1.00  0.00    -0.410 A  
HETATM   28  C   UNL     1     -10.179   5.361  70.511  1.00  0.00    -0.326 A  
BRANCH  26  29
HETATM   29  C   UNL     1      -8.906   4.431  72.553  1.00  0.00    -0.122 C  
HETATM   30  C   UNL     1      -8.541   3.252  71.635  1.00  0.00    -0.076 C  
HETATM   31  C   UNL     1      -7.601   5.158  72.952  1.00  0.00    -0.097 C  
HETATM   32  C   UNL     1      -9.497   3.794  73.828  1.00  0.00    -0.120 C  
HETATM   33  O   UNL     1      -9.520   2.861  70.781  1.00  0.00    -0.142 OA 
HETATM   34  O   UNL     1      -7.483   2.642  71.683  1.00  0.00    -0.039 OA 
ENDBRANCH  26  29
ENDBRANCH  22  23
ENDBRANCH  21  22
ENDBRANCH  19  21
ENDBRANCH   7  15
ENDBRANCH   5   6
ENDBRANCH   4   5
ENDBRANCH   3   4
ENDBRANCH   2   3
TORSDOF 9
ENDMDL
MODEL      216
REMARK 921   NORMALIZED FREE ENERGY PREDICTED BY IDOCK:    3.19 KCAL/MOL
REMARK 922        TOTAL FREE ENERGY PREDICTED BY IDOCK:    4.69 KCAL/MOL
REMARK 923 INTER-LIGAND FREE ENERGY PREDICTED BY IDOCK:   -1.53 KCAL/MOL
REMARK 924 INTRA-LIGAND FREE ENERGY PREDICTED BY IDOCK:    6.22 KCAL/MOL
REMARK 927      BINDING AFFINITY PREDICTED BY RF-SCORE:    0.00 PKD
ROOT
HETATM    1  C   UNL     1      -6.692   3.828  66.672  1.00  0.00    -0.046 C  
HETATM    2  C   UNL     1      -6.274   2.400  66.379  1.00  0.00    -0.024 C  
ENDROOT
BRANCH   2   3
HETATM    3  O   UNL     1      -7.155   1.478  67.033  1.00  0.00    -0.044 OA 
BRANCH   3   4
HETATM    4  C   UNL     1      -8.130   2.187  67.810  1.00  0.00    -0.063 C  
BRANCH   4   5
HETATM    5  C   UNL     1      -7.843   3.688  67.805  1.00  0.00    -0.077 C  
BRANCH   5   6
HETATM    6  N   UNL     1      -8.916   4.469  67.210  1.00  0.00    -0.113 NA 
HETATM    7  C   UNL     1      -9.453   5.660  67.670  1.00  0.00    -0.115 A  
HETATM    8  N   UNL     1     -10.411   6.083  66.868  1.00  0.00    -0.249 NA 
HETATM    9  C   UNL     1      -9.514   3.024  65.189  1.00  0.00    -0.103 A  
HETATM   10  C   UNL     1     -10.514   5.147  65.874  1.00  0.00    -0.125 A  
HETATM   11  C   UNL     1      -9.601   4.115  66.064  1.00  0.00    -0.194 A  
HETATM   12  C   UNL     1     -10.376   3.013  64.086  1.00  0.00    -0.082 A  
HETATM   13  C   UNL     1     -11.378   5.115  64.770  1.00  0.00     1.687 A  
HETATM   14  C   UNL     1     -11.295   4.040  63.877  1.00  0.00     0.579 A  
BRANCH   7  15
HETATM   15  C   UNL     1      -9.019   6.356  68.920  1.00  0.00    -0.123 C  
HETATM   16  C   UNL     1      -7.264   7.582  70.177  1.00  0.00    -0.068 C  
HETATM   17  C   UNL     1      -9.613   7.932  70.738  1.00  0.00    -0.165 C  
HETATM   18  C   UNL     1     -10.037   7.406  69.366  1.00  0.00    -0.185 C  
HETATM   19  N   UNL     1      -8.255   8.500  70.773  1.00  0.00    -0.117 NA 
HETATM   20  C   UNL     1      -7.653   7.034  68.798  1.00  0.00    -0.105 C  
BRANCH  19  21
HETATM   21  C   UNL     1      -8.165   9.838  70.166  1.00  0.00    -0.179 C  
BRANCH  21  22
HETATM   22  C   UNL     1      -7.707   9.816  68.696  1.00  0.00    -0.080 C  
BRANCH  22  23
HETATM   23  C   UNL     1      -8.595  10.703  67.863  1.00  0.00    -0.124 A  
HETATM   24  C   UNL     1      -9.983  10.665  68.029  1.00  0.00    -0.180 A  
HETATM   25  C   UNL     1     -10.815  11.379  67.169  1.00  0.00    -0.316 A  
HETATM   26  C   UNL     1     -10.281  12.152  66.121  1.00  0.00    -0.254 A  
HETATM   27  C   UNL     1      -8.050  11.506  66.863  1.00  0.00    -0.164 A  
HETATM   28  C   UNL     1      -8.882  12.227  66.008  1.00  0.00     0.146 A  
BRANCH  26  29
HETATM   29  C   UNL     1     -11.225  12.803  65.093  1.00  0.00    -0.327 C  
HETATM   30  C   UNL     1     -10.736  14.190  64.638  1.00  0.00    -0.389 C  
HETATM   31  C   UNL     1     -11.327  11.891  63.850  1.00  0.00    -0.509 C  
HETATM   32  C   UNL     1     -12.653  13.027  65.632  1.00  0.00    -0.349 C  
HETATM   33  O   UNL     1     -10.085  14.912  65.583  1.00  0.00    -0.313 OA 
HETATM   34  O   UNL     1     -10.954  14.669  63.535  1.00  0.00     1.237 OA 
ENDBRANCH  26  29
ENDBRANCH  22  23
ENDBRANCH  21  22
ENDBRANCH  19  21
ENDBRANCH   7  15
ENDBRANCH   5   6
ENDBRANCH   4   5
ENDBRANCH   3   4
ENDBRANCH   2   3
TORSDOF 9
ENDMDL
MODEL      217
REMARK 921   NORMALIZED FREE ENERGY PREDICTED BY IDOCK:    4.65 KCAL/MOL
REMARK 922        TOTAL FREE ENERGY PREDICTED BY IDOCK:    6.91 KCAL/MOL
REMARK 923 INTER-LIGAND FREE ENERGY PREDICTED BY IDOCK:   -0.19 KCAL/MOL
REMARK 924 INTRA-LIGAND FREE ENERGY PREDICTED BY IDOCK:    7.10 KCAL/MOL
REMARK 927      BINDING AFFINITY PREDICTED BY RF-SCORE:    0.00 PKD
ROOT
HETATM    1  C   UNL     1     -12.154   3.159  73.733  1.00  0.00     0.658 C  
HETATM    2  C   UNL     1     -13.548   3.611  73.343  1.00  0.00     3.117 C  
ENDROOT
BRANCH   2   3
HETATM    3  O   UNL     1     -13.598   5.038  73.231  1.00  0.00     1.164 OA 
BRANCH   3   4
HETATM    4  C   UNL     1     -12.283   5.566  73.004  1.00  0.00     0.396 C  
BRANCH   4   5
HETATM    5  C   UNL     1     -11.253   4.440  72.917  1.00  0.00    -0.066 C  
BRANCH   5   6
HETATM    6  N   UNL     1     -10.179   4.725  71.978  1.00  0.00    -0.194 NA 
HETATM    7  C   UNL     1      -9.781   5.961  71.494  1.00  0.00    -0.161 A  
HETATM    8  N   UNL     1      -8.766   5.834  70.662  1.00  0.00    -0.134 NA 
HETATM    9  C   UNL     1      -9.324   2.369  71.480  1.00  0.00    -0.193 A  
HETATM   10  C   UNL     1      -8.501   4.492  70.589  1.00  0.00    -0.086 A  
HETATM   11  C   UNL     1      -9.377   3.767  71.390  1.00  0.00    -0.138 A  
HETATM   12  C   UNL     1      -8.333   1.714  70.740  1.00  0.00    -0.069 A  
HETATM   13  C   UNL     1      -7.522   3.819  69.845  1.00  0.00    -0.048 A  
HETATM   14  C   UNL     1      -7.445   2.424  69.933  1.00  0.00    -0.043 A  
BRANCH   7  15
HETATM   15  C   UNL     1     -10.435   7.258  71.850  1.00  0.00    -0.224 C  
HETATM   16  C   UNL     1     -10.435   9.739  71.760  1.00  0.00     0.780 C  
HETATM   17  C   UNL     1     -12.545   8.544  72.032  1.00  0.00    -0.364 C  
HETATM   18  C   UNL     1     -11.916   7.269  71.470  1.00  0.00    -0.349 C  
HETATM   19  N   UNL     1     -11.900   9.787  71.577  1.00  0.00    -0.399 NA 
HETATM   20  C   UNL     1      -9.766   8.474  71.206  1.00  0.00    -0.270 C  
BRANCH  19  21
HETATM   21  C   UNL     1     -12.246  10.154  70.195  1.00  0.00    -0.116 C  
BRANCH  21  22
HETATM   22  C   UNL     1     -11.078   9.989  69.204  1.00  0.00    -0.232 C  
BRANCH  22  23
HETATM   23  C   UNL     1     -11.078  11.123  68.212  1.00  0.00    -0.310 A  
HETATM   24  C   UNL     1     -11.425  12.414  68.618  1.00  0.00    -0.348 A  
HETATM   25  C   UNL     1     -11.560  13.436  67.680  1.00  0.00    -0.377 A  
HETATM   26  C   UNL     1     -11.349  13.192  66.309  1.00  0.00    -0.348 A  
HETATM   27  C   UNL     1     -10.813  10.880  66.866  1.00  0.00    -0.307 A  
HETATM   28  C   UNL     1     -10.940  11.903  65.927  1.00  0.00    -0.354 A  
BRANCH  26  29
HETATM   29  C   UNL     1     -11.655  14.296  65.280  1.00  0.00    -0.348 C  
HETATM   30  C   UNL     1     -10.827  15.572  65.518  1.00  0.00    -0.361 C  
HETATM   31  C   UNL     1     -11.339  13.769  63.862  1.00  0.00    -0.055 C  
HETATM   32  C   UNL     1     -13.128  14.753  65.295  1.00  0.00     0.441 C  
HETATM   33  O   UNL     1     -10.552  15.848  66.817  1.00  0.00    -0.314 OA 
HETATM   34  O   UNL     1     -10.478  16.341  64.635  1.00  0.00    -0.538 OA 
ENDBRANCH  26  29
ENDBRANCH  22  23
ENDBRANCH  21  22
ENDBRANCH  19  21
ENDBRANCH   7  15
ENDBRANCH   5   6
ENDBRANCH   4   5
ENDBRANCH   3   4
ENDBRANCH   2   3
TORSDOF 9
ENDMDL
MODEL      218
REMARK 921   NORMALIZED FREE ENERGY PREDICTED BY IDOCK:    7.20 KCAL/MOL
REMARK 922        TOTAL FREE ENERGY PREDICTED BY IDOCK:   10.80 KCAL/MOL
REMARK 923 INTER-LIGAND FREE ENERGY PREDICTED BY IDOCK:    7.25 KCAL/MOL
REMARK 924 INTRA-LIGAND FREE ENERGY PREDICTED BY IDOCK:    3.56 KCAL/MOL
REMARK 927      BINDING AFFINITY PREDICTED BY RF-SCORE:    0.00 PKD
ROOT
HETATM    1  C   UNL     1      -6.403  13.223  73.216  1.00  0.00     2.525 C  
HETATM    2  C   UNL     1      -6.443  12.690  71.797  1.00  0.00     3.331 C  
ENDROOT
BRANCH   2   3
HETATM    3  O   UNL     1      -6.889  11.329  71.786  1.00  0.00     2.643 OA 
BRANCH   3   4
HETATM    4  C   UNL     1      -5.924  10.484  72.429  1.00  0.00     1.204 C  
BRANCH   4   5
HETATM    5  C   UNL     1      -5.147   9.666  71.397  1.00  0.00    -0.057 C  
BRANCH   5   6
HETATM    6  N   UNL     1      -5.999   8.781  70.616  1.00  0.00    -0.032 NA 
HETATM    7  C   UNL     1      -6.838   9.120  69.567  1.00  0.00    -0.048 A  
HETATM    8  N   UNL     1      -7.452   8.053  69.095  1.00  0.00    -0.093 NA 
HETATM    9  C   UNL     1      -5.539   6.535  71.744  1.00  0.00    -0.032 A  
HETATM   10  C   UNL     1      -7.019   6.999  69.854  1.00  0.00    -0.062 A  
HETATM   11  C   UNL     1      -6.119   7.422  70.826  1.00  0.00    -0.035 A  
HETATM   12  C   UNL     1      -5.885   5.183  71.638  1.00  0.00    -0.020 A  
HETATM   13  C   UNL     1      -7.365   5.643  69.771  1.00  0.00    -0.070 A  
HETATM   14  C   UNL     1      -6.784   4.740  70.669  1.00  0.00    -0.036 A  
BRANCH   7  15
HETATM   15  C   UNL     1      -7.036  10.513  69.059  1.00  0.00    -0.081 C  
HETATM   16  C   UNL     1      -7.370  12.054  67.141  1.00  0.00    -0.134 C  
HETATM   17  C   UNL     1      -8.176  12.693  69.355  1.00  0.00     1.035 C  
HETATM   18  C   UNL     1      -8.164  11.230  69.801  1.00  0.00     0.897 C  
HETATM   19  N   UNL     1      -8.329  12.880  67.902  1.00  0.00    -0.157 NA 
HETATM   20  C   UNL     1      -7.330  10.578  67.559  1.00  0.00    -0.092 C  
BRANCH  19  21
HETATM   21  C   UNL     1      -9.704  12.662  67.427  1.00  0.00    -0.199 C  
BRANCH  21  22
HETATM   22  C   UNL     1     -10.146  13.663  66.342  1.00  0.00    -0.295 C  
BRANCH  22  23
HETATM   23  C   UNL     1      -9.581  15.028  66.636  1.00  0.00    -0.281 A  
HETATM   24  C   UNL     1     -10.436  16.109  66.868  1.00  0.00    -0.300 A  
HETATM   25  C   UNL     1      -9.923  17.398  67.003  1.00  0.00    -0.295 A  
HETATM   26  C   UNL     1      -8.539  17.639  66.909  1.00  0.00    -0.260 A  
HETATM   27  C   UNL     1      -8.205  15.244  66.594  1.00  0.00    -0.140 A  
HETATM   28  C   UNL     1      -7.690  16.532  66.737  1.00  0.00    -0.294 A  
BRANCH  26  29
HETATM   29  C   UNL     1      -8.013  19.086  66.906  1.00  0.00    -0.270 C  
HETATM   30  C   UNL     1      -9.095  20.106  66.508  1.00  0.00    -0.307 C  
HETATM   31  C   UNL     1      -7.506  19.443  68.321  1.00  0.00    -0.341 C  
HETATM   32  C   UNL     1      -6.850  19.312  65.918  1.00  0.00    -0.289 C  
HETATM   33  O   UNL     1     -10.001  19.662  65.602  1.00  0.00    -0.392 OA 
HETATM   34  O   UNL     1      -9.132  21.262  66.905  1.00  0.00     0.217 OA 
ENDBRANCH  26  29
ENDBRANCH  22  23
ENDBRANCH  21  22
ENDBRANCH  19  21
ENDBRANCH   7  15
ENDBRANCH   5   6
ENDBRANCH   4   5
ENDBRANCH   3   4
ENDBRANCH   2   3
TORSDOF 9
ENDMDL
MODEL      219
REMARK 921   NORMALIZED FREE ENERGY PREDICTED BY IDOCK:    9.97 KCAL/MOL
REMARK 922        TOTAL FREE ENERGY PREDICTED BY IDOCK:   15.04 KCAL/MOL
REMARK 923 INTER-LIGAND FREE ENERGY PREDICTED BY IDOCK:   11.63 KCAL/MOL
REMARK 924 INTRA-LIGAND FREE ENERGY PREDICTED BY IDOCK:    3.40 KCAL/MOL
REMARK 927      BINDING AFFINITY PREDICTED BY RF-SCORE:    0.00 PKD
ROOT
HETATM    1  C   UNL     1      -6.460  12.990  71.680  1.00  0.00     2.525 C  
HETATM    2  C   UNL     1      -5.871  12.107  70.597  1.00  0.00    -0.066 C  
ENDROOT
BRANCH   2   3
HETATM    3  O   UNL     1      -5.502  10.832  71.137  1.00  0.00    -0.172 OA 
BRANCH   3   4
HETATM    4  C   UNL     1      -5.283   9.888  70.078  1.00  0.00    -0.037 C  
BRANCH   4   5
HETATM    5  C   UNL     1      -6.483   9.845  69.134  1.00  0.00    -0.048 C  
BRANCH   5   6
HETATM    6  N   UNL     1      -7.555   8.987  69.617  1.00  0.00    -0.074 NA 
HETATM    7  C   UNL     1      -7.716   7.628  69.400  1.00  0.00    -0.107 A  
HETATM    8  N   UNL     1      -8.804   7.184  69.997  1.00  0.00    -0.142 NA 
HETATM    9  C   UNL     1      -9.003  10.672  70.879  1.00  0.00     3.198 A  
HETATM   10  C   UNL     1      -9.373   8.271  70.605  1.00  0.00    -0.156 A  
HETATM   11  C   UNL     1      -8.625   9.420  70.375  1.00  0.00    -0.230 A  
HETATM   12  C   UNL     1     -10.169  10.730  71.651  1.00  0.00     5.144 A  
HETATM   13  C   UNL     1     -10.546   8.348  71.371  1.00  0.00    -0.296 A  
HETATM   14  C   UNL     1     -10.931   9.588  71.894  1.00  0.00     0.029 A  
BRANCH   7  15
HETATM   15  C   UNL     1      -6.792   6.788  68.578  1.00  0.00    -0.074 C  
HETATM   16  C   UNL     1      -6.276   4.604  67.513  1.00  0.00    -0.039 C  
HETATM   17  C   UNL     1      -5.314   6.651  66.593  1.00  0.00    -0.013 C  
HETATM   18  C   UNL     1      -6.396   7.488  67.278  1.00  0.00    -0.053 C  
HETATM   19  N   UNL     1      -5.712   5.260  66.315  1.00  0.00    -0.017 NA 
HETATM   20  C   UNL     1      -7.367   5.414  68.227  1.00  0.00    -0.072 C  
BRANCH  19  21
HETATM   21  C   UNL     1      -6.623   5.131  65.167  1.00  0.00    -0.040 C  
BRANCH  21  22
HETATM   22  C   UNL     1      -8.085   5.485  65.499  1.00  0.00    -0.120 C  
BRANCH  22  23
HETATM   23  C   UNL     1      -8.321   6.959  65.296  1.00  0.00    -0.102 A  
HETATM   24  C   UNL     1      -7.244   7.819  65.067  1.00  0.00    -0.065 A  
HETATM   25  C   UNL     1      -7.441   9.198  65.016  1.00  0.00    -0.105 A  
HETATM   26  C   UNL     1      -8.723   9.752  65.191  1.00  0.00    -0.192 A  
HETATM   27  C   UNL     1      -9.603   7.490  65.418  1.00  0.00     0.922 A  
HETATM   28  C   UNL     1      -9.803   8.868  65.358  1.00  0.00     0.294 A  
BRANCH  26  29
HETATM   29  C   UNL     1      -8.889  11.280  65.285  1.00  0.00    -0.015 C  
HETATM   30  C   UNL     1      -9.868  11.834  64.235  1.00  0.00    -0.206 C  
HETATM   31  C   UNL     1      -9.424  11.646  66.688  1.00  0.00    -0.213 C  
HETATM   32  C   UNL     1      -7.571  12.052  65.069  1.00  0.00     2.833 C  
HETATM   33  O   UNL     1      -9.874  11.176  63.049  1.00  0.00    -0.327 OA 
HETATM   34  O   UNL     1     -10.558  12.830  64.393  1.00  0.00    -0.333 OA 
ENDBRANCH  26  29
ENDBRANCH  22  23
ENDBRANCH  21  22
ENDBRANCH  19  21
ENDBRANCH   7  15
ENDBRANCH   5   6
ENDBRANCH   4   5
ENDBRANCH   3   4
ENDBRANCH   2   3
TORSDOF 9
ENDMDL
MODEL      220
REMARK 921   NORMALIZED FREE ENERGY PREDICTED BY IDOCK:   19.16 KCAL/MOL
REMARK 922        TOTAL FREE ENERGY PREDICTED BY IDOCK:   29.06 KCAL/MOL
REMARK 923 INTER-LIGAND FREE ENERGY PREDICTED BY IDOCK:    8.32 KCAL/MOL
REMARK 924 INTRA-LIGAND FREE ENERGY PREDICTED BY IDOCK:   20.74 KCAL/MOL
REMARK 927      BINDING AFFINITY PREDICTED BY RF-SCORE:    0.00 PKD
ROOT
HETATM    1  C   UNL     1      -9.066  13.760  70.501  1.00  0.00     4.196 C  
HETATM    2  C   UNL     1      -8.024  14.589  69.775  1.00  0.00     0.335 C  
ENDROOT
BRANCH   2   3
HETATM    3  O   UNL     1      -7.864  15.862  70.413  1.00  0.00     0.889 OA 
BRANCH   3   4
HETATM    4  C   UNL     1      -8.861  16.782  69.946  1.00  0.00     1.218 C  
BRANCH   4   5
HETATM    5  C   UNL     1      -9.714  16.146  68.848  1.00  0.00    -0.242 C  
BRANCH   5   6
HETATM    6  N   UNL     1      -8.992  15.148  68.074  1.00  0.00    -0.170 NA 
HETATM    7  C   UNL     1      -9.469  14.383  67.023  1.00  0.00    -0.248 A  
HETATM    8  N   UNL     1      -8.526  13.586  66.558  1.00  0.00     0.178 NA 
HETATM    9  C   UNL     1      -6.707  15.198  69.218  1.00  0.00    -0.146 A  
HETATM   10  C   UNL     1      -7.417  13.823  67.325  1.00  0.00    -0.027 A  
HETATM   11  C   UNL     1      -7.678  14.786  68.294  1.00  0.00    -0.120 A  
HETATM   12  C   UNL     1      -5.439  14.614  69.123  1.00  0.00    -0.092 A  
HETATM   13  C   UNL     1      -6.144  13.239  67.251  1.00  0.00     0.195 A  
HETATM   14  C   UNL     1      -5.159  13.648  68.157  1.00  0.00    -0.106 A  
BRANCH   7  15
HETATM   15  C   UNL     1     -10.870  14.438  66.504  1.00  0.00    -0.310 C  
HETATM   16  C   UNL     1     -12.449  14.215  64.601  1.00  0.00    -0.350 C  
HETATM   17  C   UNL     1     -13.251  13.863  66.878  1.00  0.00     2.258 C  
HETATM   18  C   UNL     1     -11.824  13.604  67.360  1.00  0.00    -0.429 C  
HETATM   19  N   UNL     1     -13.470  13.571  65.452  1.00  0.00    -0.376 NA 
HETATM   20  C   UNL     1     -11.002  13.976  65.052  1.00  0.00    -0.379 C  
BRANCH  19  21
HETATM   21  C   UNL     1     -13.568  12.132  65.158  1.00  0.00     3.280 C  
BRANCH  21  22
HETATM   22  C   UNL     1     -12.644  11.674  64.014  1.00  0.00    -0.127 C  
BRANCH  22  23
HETATM   23  C   UNL     1     -11.355  11.131  64.574  1.00  0.00     0.054 A  
HETATM   24  C   UNL     1     -10.207  11.083  63.778  1.00  0.00    -0.425 A  
HETATM   25  C   UNL     1      -9.053  10.457  64.244  1.00  0.00    -0.270 A  
HETATM   26  C   UNL     1      -9.016   9.863  65.520  1.00  0.00    -0.209 A  
HETATM   27  C   UNL     1     -11.317  10.594  65.859  1.00  0.00     0.598 A  
HETATM   28  C   UNL     1     -10.159   9.975  66.329  1.00  0.00    -0.310 A  
BRANCH  26  29
HETATM   29  C   UNL     1      -7.783   9.045  65.948  1.00  0.00    -0.094 C  
HETATM   30  C   UNL     1      -7.189   8.223  64.790  1.00  0.00    -0.082 C  
HETATM   31  C   UNL     1      -6.693  10.008  66.470  1.00  0.00    -0.082 C  
HETATM   32  C   UNL     1      -8.084   8.025  67.065  1.00  0.00    -0.116 C  
HETATM   33  O   UNL     1      -8.091   7.758  63.890  1.00  0.00    -0.126 OA 
HETATM   34  O   UNL     1      -6.006   7.933  64.687  1.00  0.00    -0.044 OA 
ENDBRANCH  26  29
ENDBRANCH  22  23
ENDBRANCH  21  22
ENDBRANCH  19  21
ENDBRANCH   7  15
ENDBRANCH   5   6
ENDBRANCH   4   5
ENDBRANCH   3   4
ENDBRANCH   2   3
TORSDOF 9
ENDMDL
MODEL      221
REMARK 921   NORMALIZED FREE ENERGY PREDICTED BY IDOCK:   21.51 KCAL/MOL
REMARK 922        TOTAL FREE ENERGY PREDICTED BY IDOCK:   32.64 KCAL/MOL
REMARK 923 INTER-LIGAND FREE ENERGY PREDICTED BY IDOCK:   26.47 KCAL/MOL
REMARK 924 INTRA-LIGAND FREE ENERGY PREDICTED BY IDOCK:    6.18 KCAL/MOL
REMARK 927      BINDING AFFINITY PREDICTED BY RF-SCORE:    0.00 PKD
ROOT
HETATM    1  C   UNL     1     -10.251  13.102  73.963  1.00  0.00    14.469 C  
HETATM    2  C   UNL     1     -11.689  13.177  73.488  1.00  0.00     6.347 C  
ENDROOT
BRANCH   2   3
HETATM    3  O   UNL     1     -11.843  12.480  72.246  1.00  0.00     2.073 OA 
BRANCH   3   4
HETATM    4  C   UNL     1     -11.155  13.175  71.196  1.00  0.00     3.001 C  
BRANCH   4   5
HETATM    5  C   UNL     1     -11.192  12.370  69.897  1.00  0.00     0.144 C  
BRANCH   5   6
HETATM    6  N   UNL     1     -11.707  11.022  70.080  1.00  0.00    -0.324 NA 
HETATM    7  C   UNL     1     -11.435   9.899  69.315  1.00  0.00     0.007 A  
HETATM    8  N   UNL     1     -12.077   8.847  69.781  1.00  0.00     0.739 NA 
HETATM    9  C   UNL     1     -13.228  11.347  72.107  1.00  0.00    -0.293 A  
HETATM   10  C   UNL     1     -12.793   9.288  70.862  1.00  0.00    -0.043 A  
HETATM   11  C   UNL     1     -12.595  10.649  71.069  1.00  0.00    -0.416 A  
HETATM   12  C   UNL     1     -14.067  10.615  72.956  1.00  0.00     2.145 A  
HETATM   13  C   UNL     1     -13.646   8.573  71.715  1.00  0.00    -0.419 A  
HETATM   14  C   UNL     1     -14.275   9.250  72.766  1.00  0.00     0.002 A  
BRANCH   7  15
HETATM   15  C   UNL     1     -10.551   9.893  68.108  1.00  0.00    -0.270 C  
HETATM   16  C   UNL     1     -10.218  10.431  65.707  1.00  0.00    -0.235 C  
HETATM   17  C   UNL     1      -8.283  10.282  67.188  1.00  0.00    -0.121 C  
HETATM   18  C   UNL     1      -9.179  10.496  68.409  1.00  0.00    -0.154 C  
HETATM   19  N   UNL     1      -8.820  10.848  65.939  1.00  0.00    -0.183 NA 
HETATM   20  C   UNL     1     -11.149  10.633  66.910  1.00  0.00    -0.162 C  
BRANCH  19  21
HETATM   21  C   UNL     1      -8.685  12.310  65.855  1.00  0.00     0.352 C  
BRANCH  21  22
HETATM   22  C   UNL     1     -10.028  13.042  65.670  1.00  0.00    -0.239 C  
BRANCH  22  23
HETATM   23  C   UNL     1      -9.934  14.444  66.213  1.00  0.00    -0.320 A  
HETATM   24  C   UNL     1     -11.091  15.132  66.590  1.00  0.00    -0.308 A  
HETATM   25  C   UNL     1     -11.023  16.473  66.961  1.00  0.00    -0.012 A  
HETATM   26  C   UNL     1      -9.795  17.162  66.967  1.00  0.00    -0.276 A  
HETATM   27  C   UNL     1      -8.705  15.097  66.266  1.00  0.00    -0.125 A  
HETATM   28  C   UNL     1      -8.635  16.437  66.646  1.00  0.00    -0.295 A  
BRANCH  26  29
HETATM   29  C   UNL     1      -9.770  18.679  67.231  1.00  0.00    -0.326 C  
HETATM   30  C   UNL     1     -11.140  19.341  67.000  1.00  0.00    -0.138 C  
HETATM   31  C   UNL     1      -9.349  18.931  68.696  1.00  0.00    -0.415 C  
HETATM   32  C   UNL     1      -8.785  19.441  66.320  1.00  0.00    -0.364 C  
HETATM   33  O   UNL     1     -11.889  18.789  66.013  1.00  0.00     1.973 OA 
HETATM   34  O   UNL     1     -11.535  20.333  67.595  1.00  0.00     0.654 OA 
ENDBRANCH  26  29
ENDBRANCH  22  23
ENDBRANCH  21  22
ENDBRANCH  19  21
ENDBRANCH   7  15
ENDBRANCH   5   6
ENDBRANCH   4   5
ENDBRANCH   3   4
ENDBRANCH   2   3
TORSDOF 9
ENDMDL
MODEL      222
REMARK 921   NORMALIZED FREE ENERGY PREDICTED BY IDOCK:   27.38 KCAL/MOL
REMARK 922        TOTAL FREE ENERGY PREDICTED BY IDOCK:   41.61 KCAL/MOL
REMARK 923 INTER-LIGAND FREE ENERGY PREDICTED BY IDOCK:   41.31 KCAL/MOL
REMARK 924 INTRA-LIGAND FREE ENERGY PREDICTED BY IDOCK:    0.30 KCAL/MOL
REMARK 927      BINDING AFFINITY PREDICTED BY RF-SCORE:    0.00 PKD
ROOT
HETATM    1  C   UNL     1      -9.861   6.686  66.027  1.00  0.00     0.204 C  
HETATM    2  C   UNL     1      -8.950   7.815  66.469  1.00  0.00    -0.161 C  
ENDROOT
BRANCH   2   3
HETATM    3  O   UNL     1      -8.735   8.735  65.392  1.00  0.00    -0.171 OA 
BRANCH   3   4
HETATM    4  C   UNL     1      -7.718   9.684  65.743  1.00  0.00    -0.106 C  
BRANCH   4   5
HETATM    5  C   UNL     1      -6.902   9.188  66.937  1.00  0.00    -0.080 C  
BRANCH   5   6
HETATM    6  N   UNL     1      -6.958  10.091  68.076  1.00  0.00    -0.079 NA 
HETATM    7  C   UNL     1      -6.986  11.476  68.060  1.00  0.00    -0.077 A  
HETATM    8  N   UNL     1      -7.041  11.958  69.286  1.00  0.00    -0.054 NA 
HETATM    9  C   UNL     1      -6.935   8.432  70.020  1.00  0.00    -0.043 A  
HETATM   10  C   UNL     1      -7.034  10.873  70.121  1.00  0.00     0.083 A  
HETATM   11  C   UNL     1      -6.968   9.688  69.397  1.00  0.00    -0.056 A  
HETATM   12  C   UNL     1      -6.990   8.407  71.418  1.00  0.00    -0.072 A  
HETATM   13  C   UNL     1      -7.076  10.830  71.522  1.00  0.00     3.158 A  
HETATM   14  C   UNL     1      -7.058   9.585  72.161  1.00  0.00     0.861 A  
BRANCH   7  15
HETATM   15  C   UNL     1      -6.937  12.308  66.818  1.00  0.00     0.180 C  
HETATM   16  C   UNL     1      -8.052  13.128  64.756  1.00  0.00     6.046 C  
HETATM   17  C   UNL     1      -6.282  14.460  65.780  1.00  0.00     8.823 C  
HETATM   18  C   UNL     1      -6.484  13.738  67.113  1.00  0.00     0.577 C  
HETATM   19  N   UNL     1      -7.473  14.478  64.915  1.00  0.00    10.258 NA 
HETATM   20  C   UNL     1      -8.272  12.371  66.073  1.00  0.00     0.764 C  
BRANCH  19  21
HETATM   21  C   UNL     1      -8.497  15.441  65.350  1.00  0.00     2.441 C  
BRANCH  21  22
HETATM   22  C   UNL     1      -8.027  16.368  66.487  1.00  0.00    -0.342 C  
BRANCH  22  23
HETATM   23  C   UNL     1      -8.985  16.292  67.647  1.00  0.00    -0.194 A  
HETATM   24  C   UNL     1     -10.179  17.020  67.622  1.00  0.00    -0.317 A  
HETATM   25  C   UNL     1     -11.001  17.063  68.746  1.00  0.00    -0.180 A  
HETATM   26  C   UNL     1     -10.651  16.378  69.926  1.00  0.00    -0.245 A  
HETATM   27  C   UNL     1      -8.653  15.567  68.789  1.00  0.00    -0.188 A  
HETATM   28  C   UNL     1      -9.480  15.603  69.911  1.00  0.00    -0.030 A  
BRANCH  26  29
HETATM   29  C   UNL     1     -11.496  16.569  71.199  1.00  0.00    -0.092 C  
HETATM   30  C   UNL     1     -12.572  15.481  71.363  1.00  0.00    -0.431 C  
HETATM   31  C   UNL     1     -10.567  16.523  72.434  1.00  0.00     3.296 C  
HETATM   32  C   UNL     1     -12.257  17.910  71.233  1.00  0.00     8.003 C  
HETATM   33  O   UNL     1     -13.102  15.015  70.205  1.00  0.00    -0.155 OA 
HETATM   34  O   UNL     1     -12.994  15.085  72.439  1.00  0.00    -0.313 OA 
ENDBRANCH  26  29
ENDBRANCH  22  23
ENDBRANCH  21  22
ENDBRANCH  19  21
ENDBRANCH   7  15
ENDBRANCH   5   6
ENDBRANCH   4   5
ENDBRANCH   3   4
ENDBRANCH   2   3
TORSDOF 9
ENDMDL
