MODEL        1
REMARK 921   NORMALIZED FREE ENERGY PREDICTED BY IDOCK:   -6.48 KCAL/MOL
REMARK 922        TOTAL FREE ENERGY PREDICTED BY IDOCK:  -13.86 KCAL/MOL
REMARK 923 INTER-LIGAND FREE ENERGY PREDICTED BY IDOCK:  -11.02 KCAL/MOL
REMARK 924 INTRA-LIGAND FREE ENERGY PREDICTED BY IDOCK:   -2.83 KCAL/MOL
REMARK 927      BINDING AFFINITY PREDICTED BY RF-SCORE:    0.00 PKD
ROOT
HETATM    1  C   UNL     1     -13.233  15.772  73.165  1.00  0.00    -0.694 C  
HETATM    2  C   UNL     1     -14.148  15.333  72.037  1.00  0.00    -0.562 C  
ENDROOT
BRANCH   2   3
HETATM    3  N   UNL     1     -13.432  15.216  70.787  1.00  0.00    -0.688 N  
HETATM    4  C   UNL     1     -12.762  14.059  70.458  1.00  0.00    -0.280 C  
HETATM    5  H   UNL     1     -13.422  16.003  70.138  1.00  0.00     0.000 HD 
HETATM    6  O   UNL     1     -12.719  13.076  71.188  1.00  0.00    -0.354 OA 
BRANCH   4   7
HETATM    7  C   UNL     1     -12.096  14.117  69.098  1.00  0.00    -0.362 C  
BRANCH   7   8
HETATM    8  C   UNL     1     -11.675  12.721  68.631  1.00  0.00    -0.360 C  
BRANCH   8   9
HETATM    9  C   UNL     1     -10.185  12.436  68.818  1.00  0.00    -0.103 C  
BRANCH   9  10
HETATM   10  C   UNL     1      -9.439  12.437  67.514  1.00  0.00    -0.187 C  
HETATM   11  C   UNL     1      -8.684  13.427  67.012  1.00  0.00    -0.195 C  
BRANCH  11  12
HETATM   12  C   UNL     1      -8.440  14.777  67.629  1.00  0.00    -0.185 C  
BRANCH  12  13
HETATM   13  C   UNL     1      -9.625  15.741  67.478  1.00  0.00    -0.224 C  
HETATM   14  C   UNL     1      -9.568  16.988  68.373  1.00  0.00    -0.277 C  
HETATM   15  C   UNL     1     -10.470  17.981  67.653  1.00  0.00    -0.422 C  
HETATM   16  O   UNL     1      -8.256  17.535  68.431  1.00  0.00    -0.260 OA 
HETATM   17  H   UNL     1      -8.220  18.306  68.985  1.00  0.00     0.000 HD 
HETATM   18  C   UNL     1     -10.103  17.792  66.184  1.00  0.00    -0.304 C  
HETATM   19  O   UNL     1      -8.992  18.628  65.852  1.00  0.00    -0.470 OA 
HETATM   20  C   UNL     1      -9.690  16.310  66.035  1.00  0.00    -0.370 C  
HETATM   21  H   UNL     1      -8.763  18.510  64.937  1.00  0.00     0.000 HD 
BRANCH  20  22
HETATM   22  C   UNL     1     -10.665  15.543  65.169  1.00  0.00    -0.460 C  
HETATM   23  C   UNL     1     -11.644  14.768  65.668  1.00  0.00    -0.290 C  
BRANCH  23  24
HETATM   24  C   UNL     1     -12.603  13.897  64.897  1.00  0.00    -0.347 C  
HETATM   25  H   UNL     1     -13.254  13.750  63.046  1.00  0.00     0.000 HD 
HETATM   26  O   UNL     1     -12.650  14.299  63.531  1.00  0.00    -0.814 OA 
BRANCH  24  27
HETATM   27  C   UNL     1     -12.224  12.411  64.932  1.00  0.00    -0.485 C  
BRANCH  27  28
HETATM   28  C   UNL     1     -11.738  11.871  63.584  1.00  0.00    -0.572 C  
BRANCH  28  29
HETATM   29  C   UNL     1     -10.415  11.159  63.720  1.00  0.00    -0.444 A  
HETATM   30  C   UNL     1      -9.447  11.269  62.713  1.00  0.00    -0.355 A  
HETATM   31  C   UNL     1      -8.240  10.576  62.814  1.00  0.00    -0.171 A  
HETATM   32  C   UNL     1      -7.991   9.769  63.922  1.00  0.00    -0.146 A  
HETATM   33  C   UNL     1      -8.946   9.657  64.931  1.00  0.00    -0.260 A  
HETATM   34  C   UNL     1     -10.154  10.348  64.832  1.00  0.00    -0.382 A  
ENDBRANCH  28  29
ENDBRANCH  27  28
ENDBRANCH  24  27
ENDBRANCH  23  24
ENDBRANCH  20  22
ENDBRANCH  12  13
ENDBRANCH  11  12
ENDBRANCH   9  10
ENDBRANCH   8   9
ENDBRANCH   7   8
ENDBRANCH   4   7
ENDBRANCH   2   3
TORSDOF 12
ENDMDL
MODEL        2
REMARK 921   NORMALIZED FREE ENERGY PREDICTED BY IDOCK:   -6.46 KCAL/MOL
REMARK 922        TOTAL FREE ENERGY PREDICTED BY IDOCK:  -13.83 KCAL/MOL
REMARK 923 INTER-LIGAND FREE ENERGY PREDICTED BY IDOCK:  -11.84 KCAL/MOL
REMARK 924 INTRA-LIGAND FREE ENERGY PREDICTED BY IDOCK:   -2.00 KCAL/MOL
REMARK 927      BINDING AFFINITY PREDICTED BY RF-SCORE:    0.00 PKD
ROOT
HETATM    1  C   UNL     1     -13.837   8.496  71.992  1.00  0.00    -0.470 C  
HETATM    2  C   UNL     1     -12.912   9.687  71.818  1.00  0.00    -0.420 C  
ENDROOT
BRANCH   2   3
HETATM    3  N   UNL     1     -13.524  10.909  72.288  1.00  0.00    -0.528 N  
HETATM    4  C   UNL     1     -13.148  12.132  71.781  1.00  0.00    -0.352 C  
HETATM    5  H   UNL     1     -14.247  10.865  73.007  1.00  0.00     0.000 HD 
HETATM    6  O   UNL     1     -12.282  12.268  70.926  1.00  0.00    -0.353 OA 
BRANCH   4   7
HETATM    7  C   UNL     1     -13.920  13.293  72.377  1.00  0.00    -0.557 C  
BRANCH   7   8
HETATM    8  C   UNL     1     -12.996  14.478  72.667  1.00  0.00    -0.538 C  
BRANCH   8   9
HETATM    9  C   UNL     1     -13.042  15.566  71.595  1.00  0.00    -0.561 C  
BRANCH   9  10
HETATM   10  C   UNL     1     -11.670  15.966  71.133  1.00  0.00    -0.490 C  
HETATM   11  C   UNL     1     -11.186  15.909  69.882  1.00  0.00    -0.348 C  
BRANCH  11  12
HETATM   12  C   UNL     1     -11.901  15.399  68.661  1.00  0.00    -0.317 C  
BRANCH  12  13
HETATM   13  C   UNL     1     -10.986  14.640  67.690  1.00  0.00    -0.296 C  
HETATM   14  C   UNL     1     -11.714  13.755  66.667  1.00  0.00    -0.394 C  
HETATM   15  C   UNL     1     -10.698  13.605  65.543  1.00  0.00    -0.296 C  
HETATM   16  O   UNL     1     -12.871  14.397  66.143  1.00  0.00    -0.446 OA 
HETATM   17  H   UNL     1     -13.322  13.850  65.511  1.00  0.00     0.000 HD 
HETATM   18  C   UNL     1     -10.112  15.008  65.407  1.00  0.00    -0.362 C  
HETATM   19  O   UNL     1     -10.917  15.784  64.517  1.00  0.00    -0.726 OA 
HETATM   20  C   UNL     1     -10.166  15.631  66.821  1.00  0.00    -0.278 C  
HETATM   21  H   UNL     1     -10.551  16.657  64.433  1.00  0.00     0.000 HD 
BRANCH  20  22
HETATM   22  C   UNL     1      -8.780  15.860  67.383  1.00  0.00    -0.197 C  
HETATM   23  C   UNL     1      -7.786  16.438  66.685  1.00  0.00    -0.316 C  
BRANCH  23  24
HETATM   24  C   UNL     1      -6.355  16.628  67.118  1.00  0.00    -0.184 C  
HETATM   25  H   UNL     1      -4.668  17.235  66.307  1.00  0.00     0.000 HD 
HETATM   26  O   UNL     1      -5.570  17.115  66.034  1.00  0.00    -0.300 OA 
BRANCH  24  27
HETATM   27  C   UNL     1      -6.206  17.616  68.282  1.00  0.00    -0.177 C  
BRANCH  27  28
HETATM   28  C   UNL     1      -6.452  19.074  67.883  1.00  0.00    -0.237 C  
BRANCH  28  29
HETATM   29  C   UNL     1      -7.922  19.353  67.700  1.00  0.00    -0.318 A  
HETATM   30  C   UNL     1      -8.793  19.300  68.796  1.00  0.00    -0.387 A  
HETATM   31  C   UNL     1     -10.161  19.514  68.624  1.00  0.00    -0.535 A  
HETATM   32  C   UNL     1     -10.670  19.782  67.355  1.00  0.00    -0.515 A  
HETATM   33  C   UNL     1      -9.810  19.841  66.259  1.00  0.00    -0.557 A  
HETATM   34  C   UNL     1      -8.443  19.627  66.428  1.00  0.00    -0.382 A  
ENDBRANCH  28  29
ENDBRANCH  27  28
ENDBRANCH  24  27
ENDBRANCH  23  24
ENDBRANCH  20  22
ENDBRANCH  12  13
ENDBRANCH  11  12
ENDBRANCH   9  10
ENDBRANCH   8   9
ENDBRANCH   7   8
ENDBRANCH   4   7
ENDBRANCH   2   3
TORSDOF 12
ENDMDL
MODEL        3
REMARK 921   NORMALIZED FREE ENERGY PREDICTED BY IDOCK:   -6.37 KCAL/MOL
REMARK 922        TOTAL FREE ENERGY PREDICTED BY IDOCK:  -13.67 KCAL/MOL
REMARK 923 INTER-LIGAND FREE ENERGY PREDICTED BY IDOCK:  -10.44 KCAL/MOL
REMARK 924 INTRA-LIGAND FREE ENERGY PREDICTED BY IDOCK:   -3.23 KCAL/MOL
REMARK 927      BINDING AFFINITY PREDICTED BY RF-SCORE:    0.00 PKD
ROOT
HETATM    1  C   UNL     1     -12.440  15.570  74.251  1.00  0.00    -0.792 C  
HETATM    2  C   UNL     1     -12.769  14.645  73.095  1.00  0.00    -0.444 C  
ENDROOT
BRANCH   2   3
HETATM    3  N   UNL     1     -12.010  14.982  71.911  1.00  0.00    -0.365 N  
HETATM    4  C   UNL     1     -12.629  15.498  70.794  1.00  0.00    -0.452 C  
HETATM    5  H   UNL     1     -11.001  14.836  71.903  1.00  0.00     0.000 HD 
HETATM    6  O   UNL     1     -13.836  15.692  70.724  1.00  0.00    -0.449 OA 
BRANCH   4   7
HETATM    7  C   UNL     1     -11.666  15.813  69.667  1.00  0.00    -0.363 C  
BRANCH   7   8
HETATM    8  C   UNL     1     -10.582  14.738  69.551  1.00  0.00    -0.200 C  
BRANCH   8   9
HETATM    9  C   UNL     1      -9.161  15.298  69.574  1.00  0.00    -0.188 C  
BRANCH   9  10
HETATM   10  C   UNL     1      -8.380  14.916  68.349  1.00  0.00    -0.153 C  
HETATM   11  C   UNL     1      -7.727  15.739  67.513  1.00  0.00    -0.186 C  
BRANCH  11  12
HETATM   12  C   UNL     1      -7.656  17.239  67.597  1.00  0.00    -0.190 C  
BRANCH  12  13
HETATM   13  C   UNL     1      -9.020  17.903  67.831  1.00  0.00    -0.264 C  
HETATM   14  C   UNL     1      -8.962  19.307  68.451  1.00  0.00    -0.352 C  
HETATM   15  C   UNL     1     -10.294  19.925  68.051  1.00  0.00    -0.547 C  
HETATM   16  O   UNL     1      -7.917  20.090  67.886  1.00  0.00    -0.298 OA 
HETATM   17  H   UNL     1      -7.881  20.959  68.270  1.00  0.00     0.000 HD 
HETATM   18  C   UNL     1     -10.467  19.484  66.600  1.00  0.00    -0.488 C  
HETATM   19  O   UNL     1      -9.823  20.418  65.731  1.00  0.00    -0.637 OA 
HETATM   20  C   UNL     1      -9.766  18.111  66.486  1.00  0.00    -0.344 C  
HETATM   21  H   UNL     1      -9.931  20.143  64.828  1.00  0.00     0.000 HD 
BRANCH  20  22
HETATM   22  C   UNL     1     -10.756  17.000  66.212  1.00  0.00    -0.086 C  
HETATM   23  C   UNL     1     -10.477  15.937  65.437  1.00  0.00    -0.429 C  
BRANCH  23  24
HETATM   24  C   UNL     1     -11.416  14.830  65.030  1.00  0.00    -0.389 C  
HETATM   25  H   UNL     1     -11.310  13.141  64.025  1.00  0.00     0.000 HD 
HETATM   26  O   UNL     1     -10.718  13.839  64.281  1.00  0.00    -0.372 OA 
BRANCH  24  27
HETATM   27  C   UNL     1     -12.075  14.132  66.226  1.00  0.00    -0.463 C  
BRANCH  27  28
HETATM   28  C   UNL     1     -12.067  12.604  66.123  1.00  0.00    -0.399 C  
BRANCH  28  29
HETATM   29  C   UNL     1     -11.230  11.984  67.214  1.00  0.00    -0.371 A  
HETATM   30  C   UNL     1      -9.849  11.822  67.039  1.00  0.00    -0.213 A  
HETATM   31  C   UNL     1      -9.078  11.208  68.027  1.00  0.00    -0.153 A  
HETATM   32  C   UNL     1      -9.680  10.751  69.197  1.00  0.00    -0.181 A  
HETATM   33  C   UNL     1     -11.053  10.912  69.382  1.00  0.00    -0.317 A  
HETATM   34  C   UNL     1     -11.825  11.525  68.396  1.00  0.00    -0.353 A  
ENDBRANCH  28  29
ENDBRANCH  27  28
ENDBRANCH  24  27
ENDBRANCH  23  24
ENDBRANCH  20  22
ENDBRANCH  12  13
ENDBRANCH  11  12
ENDBRANCH   9  10
ENDBRANCH   8   9
ENDBRANCH   7   8
ENDBRANCH   4   7
ENDBRANCH   2   3
TORSDOF 12
ENDMDL
MODEL        4
REMARK 921   NORMALIZED FREE ENERGY PREDICTED BY IDOCK:   -6.34 KCAL/MOL
REMARK 922        TOTAL FREE ENERGY PREDICTED BY IDOCK:  -13.63 KCAL/MOL
REMARK 923 INTER-LIGAND FREE ENERGY PREDICTED BY IDOCK:  -11.18 KCAL/MOL
REMARK 924 INTRA-LIGAND FREE ENERGY PREDICTED BY IDOCK:   -2.45 KCAL/MOL
REMARK 927      BINDING AFFINITY PREDICTED BY RF-SCORE:    0.00 PKD
ROOT
HETATM    1  C   UNL     1      -9.462  10.178  64.059  1.00  0.00    -0.341 C  
HETATM    2  C   UNL     1     -10.078  11.097  63.021  1.00  0.00    -0.268 C  
ENDROOT
BRANCH   2   3
HETATM    3  N   UNL     1     -10.604  12.302  63.622  1.00  0.00    -0.444 N  
HETATM    4  C   UNL     1     -11.950  12.588  63.581  1.00  0.00    -0.537 C  
HETATM    5  H   UNL     1      -9.967  12.951  64.085  1.00  0.00     0.000 HD 
HETATM    6  O   UNL     1     -12.774  11.864  63.036  1.00  0.00    -0.472 OA 
BRANCH   4   7
HETATM    7  C   UNL     1     -12.312  13.879  64.288  1.00  0.00    -0.390 C  
BRANCH   7   8
HETATM    8  C   UNL     1     -12.867  13.604  65.688  1.00  0.00    -0.425 C  
BRANCH   8   9
HETATM    9  C   UNL     1     -12.057  14.259  66.806  1.00  0.00    -0.446 C  
BRANCH   9  10
HETATM   10  C   UNL     1     -10.692  13.647  66.952  1.00  0.00    -0.275 C  
HETATM   11  C   UNL     1      -9.508  14.250  66.758  1.00  0.00    -0.287 C  
BRANCH  11  12
HETATM   12  C   UNL     1      -9.280  15.670  66.319  1.00  0.00    -0.365 C  
BRANCH  12  13
HETATM   13  C   UNL     1      -9.150  16.658  67.487  1.00  0.00    -0.204 C  
HETATM   14  C   UNL     1      -8.127  17.783  67.277  1.00  0.00    -0.211 C  
HETATM   15  C   UNL     1      -8.591  18.868  68.240  1.00  0.00    -0.364 C  
HETATM   16  O   UNL     1      -8.183  18.305  65.954  1.00  0.00    -0.506 OA 
HETATM   17  H   UNL     1      -7.550  19.002  65.823  1.00  0.00     0.000 HD 
HETATM   18  C   UNL     1     -10.109  18.858  68.078  1.00  0.00    -0.377 C  
HETATM   19  O   UNL     1     -10.485  19.717  66.999  1.00  0.00    -0.433 OA 
HETATM   20  C   UNL     1     -10.491  17.401  67.729  1.00  0.00    -0.376 C  
HETATM   21  H   UNL     1     -11.430  19.711  66.898  1.00  0.00     0.000 HD 
BRANCH  20  22
HETATM   22  C   UNL     1     -11.303  16.758  68.833  1.00  0.00    -0.016 C  
HETATM   23  C   UNL     1     -10.753  16.220  69.936  1.00  0.00    -0.322 C  
BRANCH  23  24
HETATM   24  C   UNL     1     -11.460  15.479  71.041  1.00  0.00    -0.383 C  
HETATM   25  H   UNL     1     -12.181  15.889  72.826  1.00  0.00     0.000 HD 
HETATM   26  O   UNL     1     -11.735  16.357  72.129  1.00  0.00    -0.506 OA 
BRANCH  24  27
HETATM   27  C   UNL     1     -12.791  14.860  70.594  1.00  0.00    -0.406 C  
BRANCH  27  28
HETATM   28  C   UNL     1     -13.289  13.745  71.518  1.00  0.00    -0.391 C  
BRANCH  28  29
HETATM   29  C   UNL     1     -12.746  12.401  71.100  1.00  0.00    -0.336 A  
HETATM   30  C   UNL     1     -13.050  11.254  71.845  1.00  0.00    -0.510 A  
HETATM   31  C   UNL     1     -12.515  10.016  71.488  1.00  0.00    -0.516 A  
HETATM   32  C   UNL     1     -11.671   9.915  70.384  1.00  0.00    -0.333 A  
HETATM   33  C   UNL     1     -11.366  11.050  69.634  1.00  0.00    -0.363 A  
HETATM   34  C   UNL     1     -11.900  12.288  69.989  1.00  0.00    -0.372 A  
ENDBRANCH  28  29
ENDBRANCH  27  28
ENDBRANCH  24  27
ENDBRANCH  23  24
ENDBRANCH  20  22
ENDBRANCH  12  13
ENDBRANCH  11  12
ENDBRANCH   9  10
ENDBRANCH   8   9
ENDBRANCH   7   8
ENDBRANCH   4   7
ENDBRANCH   2   3
TORSDOF 12
ENDMDL
MODEL        5
REMARK 921   NORMALIZED FREE ENERGY PREDICTED BY IDOCK:   -6.33 KCAL/MOL
REMARK 922        TOTAL FREE ENERGY PREDICTED BY IDOCK:  -13.60 KCAL/MOL
REMARK 923 INTER-LIGAND FREE ENERGY PREDICTED BY IDOCK:  -11.22 KCAL/MOL
REMARK 924 INTRA-LIGAND FREE ENERGY PREDICTED BY IDOCK:   -2.38 KCAL/MOL
REMARK 927      BINDING AFFINITY PREDICTED BY RF-SCORE:    0.00 PKD
ROOT
HETATM    1  C   UNL     1     -11.990  16.107  72.442  1.00  0.00    -0.649 C  
HETATM    2  C   UNL     1     -12.905  15.441  71.431  1.00  0.00    -0.439 C  
ENDROOT
BRANCH   2   3
HETATM    3  N   UNL     1     -12.606  14.033  71.289  1.00  0.00    -0.349 N  
HETATM    4  C   UNL     1     -13.387  13.076  71.897  1.00  0.00    -0.446 C  
HETATM    5  H   UNL     1     -11.803  13.745  70.730  1.00  0.00     0.000 HD 
HETATM    6  O   UNL     1     -14.359  13.344  72.592  1.00  0.00    -0.709 OA 
BRANCH   4   7
HETATM    7  C   UNL     1     -12.932  11.659  71.610  1.00  0.00    -0.483 C  
BRANCH   7   8
HETATM    8  C   UNL     1     -12.241  11.568  70.247  1.00  0.00    -0.415 C  
BRANCH   8   9
HETATM    9  C   UNL     1     -11.589  10.211  69.981  1.00  0.00    -0.323 C  
BRANCH   9  10
HETATM   10  C   UNL     1     -10.179  10.347  69.481  1.00  0.00    -0.258 C  
HETATM   11  C   UNL     1      -9.787  10.686  68.242  1.00  0.00    -0.174 C  
BRANCH  11  12
HETATM   12  C   UNL     1     -10.674  10.975  67.062  1.00  0.00    -0.319 C  
BRANCH  12  13
HETATM   13  C   UNL     1     -10.463  12.375  66.469  1.00  0.00    -0.254 C  
HETATM   14  C   UNL     1     -10.476  12.440  64.934  1.00  0.00    -0.298 C  
HETATM   15  C   UNL     1     -10.822  13.894  64.645  1.00  0.00    -0.420 C  
HETATM   16  O   UNL     1     -11.497  11.617  64.381  1.00  0.00    -0.304 OA 
HETATM   17  H   UNL     1     -11.504  11.657  63.432  1.00  0.00     0.000 HD 
HETATM   18  C   UNL     1     -11.915  14.207  65.664  1.00  0.00    -0.396 C  
HETATM   19  O   UNL     1     -13.191  13.843  65.131  1.00  0.00    -0.768 OA 
HETATM   20  C   UNL     1     -11.608  13.331  66.900  1.00  0.00    -0.408 C  
HETATM   21  H   UNL     1     -13.870  14.038  65.766  1.00  0.00     0.000 HD 
BRANCH  20  22
HETATM   22  C   UNL     1     -11.220  14.172  68.097  1.00  0.00    -0.299 C  
HETATM   23  C   UNL     1     -10.855  15.462  68.006  1.00  0.00    -0.292 C  
BRANCH  23  24
HETATM   24  C   UNL     1     -10.366  16.355  69.118  1.00  0.00    -0.289 C  
HETATM   25  H   UNL     1      -8.760  16.512  70.245  1.00  0.00     0.000 HD 
HETATM   26  O   UNL     1      -9.068  15.949  69.544  1.00  0.00    -0.256 OA 
BRANCH  24  27
HETATM   27  C   UNL     1     -10.281  17.831  68.709  1.00  0.00    -0.373 C  
BRANCH  27  28
HETATM   28  C   UNL     1     -10.324  18.051  67.195  1.00  0.00    -0.382 C  
BRANCH  28  29
HETATM   29  C   UNL     1      -8.961  18.400  66.650  1.00  0.00    -0.295 A  
HETATM   30  C   UNL     1      -8.666  19.719  66.280  1.00  0.00    -0.403 A  
HETATM   31  C   UNL     1      -7.423  20.039  65.734  1.00  0.00    -0.311 A  
HETATM   32  C   UNL     1      -6.465  19.044  65.553  1.00  0.00    -0.306 A  
HETATM   33  C   UNL     1      -6.748  17.730  65.923  1.00  0.00    -0.286 A  
HETATM   34  C   UNL     1      -7.990  17.408  66.468  1.00  0.00    -0.317 A  
ENDBRANCH  28  29
ENDBRANCH  27  28
ENDBRANCH  24  27
ENDBRANCH  23  24
ENDBRANCH  20  22
ENDBRANCH  12  13
ENDBRANCH  11  12
ENDBRANCH   9  10
ENDBRANCH   8   9
ENDBRANCH   7   8
ENDBRANCH   4   7
ENDBRANCH   2   3
TORSDOF 12
ENDMDL
MODEL        6
REMARK 921   NORMALIZED FREE ENERGY PREDICTED BY IDOCK:   -6.32 KCAL/MOL
REMARK 922        TOTAL FREE ENERGY PREDICTED BY IDOCK:  -13.59 KCAL/MOL
REMARK 923 INTER-LIGAND FREE ENERGY PREDICTED BY IDOCK:  -10.72 KCAL/MOL
REMARK 924 INTRA-LIGAND FREE ENERGY PREDICTED BY IDOCK:   -2.87 KCAL/MOL
REMARK 927      BINDING AFFINITY PREDICTED BY RF-SCORE:    0.00 PKD
ROOT
HETATM    1  C   UNL     1     -12.887  14.256  65.492  1.00  0.00    -0.334 C  
HETATM    2  C   UNL     1     -12.140  14.505  64.195  1.00  0.00    -0.350 C  
ENDROOT
BRANCH   2   3
HETATM    3  N   UNL     1     -11.005  13.621  64.057  1.00  0.00    -0.551 N  
HETATM    4  C   UNL     1     -11.148  12.358  63.528  1.00  0.00    -0.458 C  
HETATM    5  H   UNL     1     -10.082  13.939  64.356  1.00  0.00     0.000 HD 
HETATM    6  O   UNL     1     -12.222  11.902  63.158  1.00  0.00    -0.448 OA 
BRANCH   4   7
HETATM    7  C   UNL     1      -9.842  11.593  63.439  1.00  0.00    -0.424 C  
BRANCH   7   8
HETATM    8  C   UNL     1      -9.892  10.319  64.287  1.00  0.00    -0.357 C  
BRANCH   8   9
HETATM    9  C   UNL     1      -9.202  10.459  65.643  1.00  0.00    -0.220 C  
BRANCH   9  10
HETATM   10  C   UNL     1     -10.050   9.938  66.768  1.00  0.00    -0.292 C  
HETATM   11  C   UNL     1     -10.988  10.610  67.455  1.00  0.00    -0.371 C  
BRANCH  11  12
HETATM   12  C   UNL     1     -11.378  12.051  67.276  1.00  0.00    -0.394 C  
BRANCH  12  13
HETATM   13  C   UNL     1     -10.685  13.000  68.263  1.00  0.00    -0.261 C  
HETATM   14  C   UNL     1      -9.341  13.569  67.785  1.00  0.00    -0.213 C  
HETATM   15  C   UNL     1      -9.177  14.835  68.615  1.00  0.00    -0.194 C  
HETATM   16  O   UNL     1      -9.385  13.938  66.411  1.00  0.00    -0.368 OA 
HETATM   17  H   UNL     1      -8.554  14.290  66.114  1.00  0.00     0.000 HD 
HETATM   18  C   UNL     1     -10.577  15.445  68.610  1.00  0.00    -0.239 C  
HETATM   19  O   UNL     1     -10.736  16.276  67.457  1.00  0.00    -0.316 OA 
HETATM   20  C   UNL     1     -11.560  14.256  68.524  1.00  0.00    -0.355 C  
HETATM   21  H   UNL     1     -11.608  16.655  67.454  1.00  0.00     0.000 HD 
BRANCH  20  22
HETATM   22  C   UNL     1     -12.382  14.119  69.787  1.00  0.00    -0.350 C  
HETATM   23  C   UNL     1     -12.185  13.146  70.694  1.00  0.00    -0.402 C  
BRANCH  23  24
HETATM   24  C   UNL     1     -13.002  12.869  71.930  1.00  0.00    -0.301 C  
HETATM   25  H   UNL     1     -14.665  13.538  72.743  1.00  0.00     0.000 HD 
HETATM   26  O   UNL     1     -14.150  13.713  71.964  1.00  0.00    -0.450 OA 
BRANCH  24  27
HETATM   27  C   UNL     1     -13.489  11.417  72.015  1.00  0.00    -0.289 C  
BRANCH  27  28
HETATM   28  C   UNL     1     -12.946  10.523  70.897  1.00  0.00    -0.455 C  
BRANCH  28  29
HETATM   29  C   UNL     1     -11.894   9.573  71.414  1.00  0.00    -0.464 A  
HETATM   30  C   UNL     1     -12.213   8.641  72.409  1.00  0.00    -0.419 A  
HETATM   31  C   UNL     1     -11.233   7.790  72.922  1.00  0.00    -0.434 A  
HETATM   32  C   UNL     1      -9.926   7.866  72.445  1.00  0.00    -0.291 A  
HETATM   33  C   UNL     1      -9.600   8.788  71.451  1.00  0.00    -0.337 A  
HETATM   34  C   UNL     1     -10.578   9.639  70.938  1.00  0.00    -0.386 A  
ENDBRANCH  28  29
ENDBRANCH  27  28
ENDBRANCH  24  27
ENDBRANCH  23  24
ENDBRANCH  20  22
ENDBRANCH  12  13
ENDBRANCH  11  12
ENDBRANCH   9  10
ENDBRANCH   8   9
ENDBRANCH   7   8
ENDBRANCH   4   7
ENDBRANCH   2   3
TORSDOF 12
ENDMDL
MODEL        7
REMARK 921   NORMALIZED FREE ENERGY PREDICTED BY IDOCK:   -6.31 KCAL/MOL
REMARK 922        TOTAL FREE ENERGY PREDICTED BY IDOCK:  -13.58 KCAL/MOL
REMARK 923 INTER-LIGAND FREE ENERGY PREDICTED BY IDOCK:  -11.10 KCAL/MOL
REMARK 924 INTRA-LIGAND FREE ENERGY PREDICTED BY IDOCK:   -2.47 KCAL/MOL
REMARK 927      BINDING AFFINITY PREDICTED BY RF-SCORE:    0.00 PKD
ROOT
HETATM    1  C   UNL     1     -11.470   6.940  70.812  1.00  0.00    -0.381 C  
HETATM    2  C   UNL     1     -11.580   7.850  72.021  1.00  0.00    -0.308 C  
ENDROOT
BRANCH   2   3
HETATM    3  N   UNL     1     -11.759   9.231  71.633  1.00  0.00    -0.369 N  
HETATM    4  C   UNL     1     -12.958   9.876  71.838  1.00  0.00    -0.448 C  
HETATM    5  H   UNL     1     -10.985   9.735  71.201  1.00  0.00     0.000 HD 
HETATM    6  O   UNL     1     -13.935   9.336  72.340  1.00  0.00    -0.460 OA 
BRANCH   4   7
HETATM    7  C   UNL     1     -12.944  11.325  71.391  1.00  0.00    -0.482 C  
BRANCH   7   8
HETATM    8  C   UNL     1     -11.872  11.562  70.325  1.00  0.00    -0.431 C  
BRANCH   8   9
HETATM    9  C   UNL     1     -12.026  12.891  69.587  1.00  0.00    -0.358 C  
BRANCH   9  10
HETATM   10  C   UNL     1     -12.167  14.051  70.531  1.00  0.00    -0.435 C  
HETATM   11  C   UNL     1     -11.469  15.198  70.516  1.00  0.00    -0.342 C  
BRANCH  11  12
HETATM   12  C   UNL     1     -10.362  15.568  69.567  1.00  0.00    -0.271 C  
BRANCH  12  13
HETATM   13  C   UNL     1     -10.852  16.311  68.316  1.00  0.00    -0.340 C  
HETATM   14  C   UNL     1     -10.360  17.760  68.185  1.00  0.00    -0.391 C  
HETATM   15  C   UNL     1     -10.483  18.041  66.694  1.00  0.00    -0.332 C  
HETATM   16  O   UNL     1      -8.991  17.886  68.553  1.00  0.00    -0.286 OA 
HETATM   17  H   UNL     1      -8.686  18.782  68.471  1.00  0.00     0.000 HD 
HETATM   18  C   UNL     1      -9.977  16.754  66.048  1.00  0.00    -0.313 C  
HETATM   19  O   UNL     1      -8.557  16.816  65.897  1.00  0.00    -0.500 OA 
HETATM   20  C   UNL     1     -10.338  15.615  67.028  1.00  0.00    -0.289 C  
HETATM   21  H   UNL     1      -8.241  16.015  65.495  1.00  0.00     0.000 HD 
BRANCH  20  22
HETATM   22  C   UNL     1     -11.372  14.679  66.440  1.00  0.00    -0.348 C  
HETATM   23  C   UNL     1     -11.242  14.098  65.235  1.00  0.00    -0.326 C  
BRANCH  23  24
HETATM   24  C   UNL     1     -12.249  13.230  64.525  1.00  0.00    -0.400 C  
HETATM   25  H   UNL     1     -13.287  13.292  62.854  1.00  0.00     0.000 HD 
HETATM   26  O   UNL     1     -12.652  13.839  63.301  1.00  0.00    -0.830 OA 
BRANCH  24  27
HETATM   27  C   UNL     1     -11.710  11.833  64.193  1.00  0.00    -0.376 C  
BRANCH  27  28
HETATM   28  C   UNL     1     -10.241  11.636  64.578  1.00  0.00    -0.337 C  
BRANCH  28  29
HETATM   29  C   UNL     1     -10.082  10.538  65.600  1.00  0.00    -0.333 A  
HETATM   30  C   UNL     1      -9.344   9.388  65.291  1.00  0.00    -0.303 A  
HETATM   31  C   UNL     1      -9.232   8.350  66.217  1.00  0.00    -0.263 A  
HETATM   32  C   UNL     1      -9.856   8.453  67.459  1.00  0.00    -0.235 A  
HETATM   33  C   UNL     1     -10.588   9.596  67.777  1.00  0.00    -0.320 A  
HETATM   34  C   UNL     1     -10.702  10.634  66.852  1.00  0.00    -0.297 A  
ENDBRANCH  28  29
ENDBRANCH  27  28
ENDBRANCH  24  27
ENDBRANCH  23  24
ENDBRANCH  20  22
ENDBRANCH  12  13
ENDBRANCH  11  12
ENDBRANCH   9  10
ENDBRANCH   8   9
ENDBRANCH   7   8
ENDBRANCH   4   7
ENDBRANCH   2   3
TORSDOF 12
ENDMDL
MODEL        8
REMARK 921   NORMALIZED FREE ENERGY PREDICTED BY IDOCK:   -6.29 KCAL/MOL
REMARK 922        TOTAL FREE ENERGY PREDICTED BY IDOCK:  -13.54 KCAL/MOL
REMARK 923 INTER-LIGAND FREE ENERGY PREDICTED BY IDOCK:  -11.13 KCAL/MOL
REMARK 924 INTRA-LIGAND FREE ENERGY PREDICTED BY IDOCK:   -2.41 KCAL/MOL
REMARK 927      BINDING AFFINITY PREDICTED BY RF-SCORE:    0.00 PKD
ROOT
HETATM    1  C   UNL     1     -10.162  19.670  67.614  1.00  0.00    -0.567 C  
HETATM    2  C   UNL     1      -9.903  18.613  68.671  1.00  0.00    -0.385 C  
ENDROOT
BRANCH   2   3
HETATM    3  N   UNL     1     -10.096  17.279  68.148  1.00  0.00    -0.306 N  
HETATM    4  C   UNL     1      -9.122  16.315  68.284  1.00  0.00    -0.197 C  
HETATM    5  H   UNL     1     -10.966  17.048  67.669  1.00  0.00     0.000 HD 
HETATM    6  O   UNL     1      -8.047  16.519  68.835  1.00  0.00    -0.227 OA 
BRANCH   4   7
HETATM    7  C   UNL     1      -9.517  14.975  67.696  1.00  0.00    -0.195 C  
BRANCH   7   8
HETATM    8  C   UNL     1      -9.561  15.037  66.167  1.00  0.00    -0.345 C  
BRANCH   8   9
HETATM    9  C   UNL     1     -10.960  15.282  65.604  1.00  0.00    -0.348 C  
BRANCH   9  10
HETATM   10  C   UNL     1     -11.940  14.232  66.043  1.00  0.00    -0.412 C  
HETATM   11  C   UNL     1     -12.152  13.033  65.477  1.00  0.00    -0.501 C  
BRANCH  11  12
HETATM   12  C   UNL     1     -11.477  12.482  64.251  1.00  0.00    -0.423 C  
BRANCH  12  13
HETATM   13  C   UNL     1     -10.783  11.133  64.490  1.00  0.00    -0.368 C  
HETATM   14  C   UNL     1      -9.760  10.729  63.418  1.00  0.00    -0.351 C  
HETATM   15  C   UNL     1      -8.862   9.736  64.144  1.00  0.00    -0.260 C  
HETATM   16  O   UNL     1      -8.965  11.834  63.005  1.00  0.00    -0.637 OA 
HETATM   17  H   UNL     1      -8.332  11.584  62.342  1.00  0.00     0.000 HD 
HETATM   18  C   UNL     1      -8.666  10.374  65.517  1.00  0.00    -0.177 C  
HETATM   19  O   UNL     1      -7.560  11.278  65.476  1.00  0.00    -0.350 OA 
HETATM   20  C   UNL     1      -9.962  11.164  65.808  1.00  0.00    -0.292 C  
HETATM   21  H   UNL     1      -7.438  11.675  66.331  1.00  0.00     0.000 HD 
BRANCH  20  22
HETATM   22  C   UNL     1     -10.732  10.568  66.966  1.00  0.00    -0.310 C  
HETATM   23  C   UNL     1     -10.563  10.955  68.242  1.00  0.00    -0.223 C  
BRANCH  23  24
HETATM   24  C   UNL     1     -11.208  10.365  69.470  1.00  0.00    -0.269 C  
HETATM   25  H   UNL     1     -10.621   9.613  71.192  1.00  0.00     0.000 HD 
HETATM   26  O   UNL     1     -10.214   9.985  70.418  1.00  0.00    -0.266 OA 
BRANCH  24  27
HETATM   27  C   UNL     1     -12.170  11.335  70.169  1.00  0.00    -0.410 C  
BRANCH  27  28
HETATM   28  C   UNL     1     -12.059  12.776  69.664  1.00  0.00    -0.286 C  
BRANCH  28  29
HETATM   29  C   UNL     1     -12.312  13.768  70.773  1.00  0.00    -0.451 A  
HETATM   30  C   UNL     1     -13.190  13.450  71.817  1.00  0.00    -0.495 A  
HETATM   31  C   UNL     1     -13.462  14.380  72.821  1.00  0.00    -0.582 A  
HETATM   32  C   UNL     1     -12.859  15.636  72.788  1.00  0.00    -0.552 A  
HETATM   33  C   UNL     1     -11.980  15.960  71.755  1.00  0.00    -0.573 A  
HETATM   34  C   UNL     1     -11.708  15.031  70.751  1.00  0.00    -0.371 A  
ENDBRANCH  28  29
ENDBRANCH  27  28
ENDBRANCH  24  27
ENDBRANCH  23  24
ENDBRANCH  20  22
ENDBRANCH  12  13
ENDBRANCH  11  12
ENDBRANCH   9  10
ENDBRANCH   8   9
ENDBRANCH   7   8
ENDBRANCH   4   7
ENDBRANCH   2   3
TORSDOF 12
ENDMDL
MODEL        9
REMARK 921   NORMALIZED FREE ENERGY PREDICTED BY IDOCK:   -6.27 KCAL/MOL
REMARK 922        TOTAL FREE ENERGY PREDICTED BY IDOCK:  -13.50 KCAL/MOL
REMARK 923 INTER-LIGAND FREE ENERGY PREDICTED BY IDOCK:  -10.85 KCAL/MOL
REMARK 924 INTRA-LIGAND FREE ENERGY PREDICTED BY IDOCK:   -2.65 KCAL/MOL
REMARK 927      BINDING AFFINITY PREDICTED BY RF-SCORE:    0.00 PKD
ROOT
HETATM    1  C   UNL     1     -13.934  13.470  72.370  1.00  0.00    -0.638 C  
HETATM    2  C   UNL     1     -14.204  14.839  71.774  1.00  0.00    -0.541 C  
ENDROOT
BRANCH   2   3
HETATM    3  N   UNL     1     -13.384  15.084  70.609  1.00  0.00    -0.658 N  
HETATM    4  C   UNL     1     -12.175  15.734  70.715  1.00  0.00    -0.399 C  
HETATM    5  H   UNL     1     -13.706  14.770  69.694  1.00  0.00     0.000 HD 
HETATM    6  O   UNL     1     -11.726  16.150  71.776  1.00  0.00    -0.470 OA 
BRANCH   4   7
HETATM    7  C   UNL     1     -11.450  15.873  69.392  1.00  0.00    -0.351 C  
BRANCH   7   8
HETATM    8  C   UNL     1     -11.869  14.770  68.416  1.00  0.00    -0.319 C  
BRANCH   8   9
HETATM    9  C   UNL     1     -11.064  13.480  68.570  1.00  0.00    -0.300 C  
BRANCH   9  10
HETATM   10  C   UNL     1     -11.647  12.349  67.770  1.00  0.00    -0.413 C  
HETATM   11  C   UNL     1     -11.658  11.046  68.096  1.00  0.00    -0.345 C  
BRANCH  11  12
HETATM   12  C   UNL     1     -11.058  10.418  69.323  1.00  0.00    -0.303 C  
BRANCH  12  13
HETATM   13  C   UNL     1     -10.154   9.216  69.015  1.00  0.00    -0.199 C  
HETATM   14  C   UNL     1     -10.418   7.968  69.870  1.00  0.00    -0.233 C  
HETATM   15  C   UNL     1      -9.851   6.835  69.026  1.00  0.00    -0.152 C  
HETATM   16  O   UNL     1     -11.811   7.737  70.051  1.00  0.00    -0.461 OA 
HETATM   17  H   UNL     1     -11.974   6.965  70.580  1.00  0.00     0.000 HD 
HETATM   18  C   UNL     1     -10.303   7.187  67.611  1.00  0.00    -0.215 C  
HETATM   19  O   UNL     1     -11.607   6.651  67.374  1.00  0.00    -0.727 OA 
HETATM   20  C   UNL     1     -10.366   8.731  67.556  1.00  0.00    -0.334 C  
HETATM   21  H   UNL     1     -11.889   6.871  66.493  1.00  0.00     0.000 HD 
BRANCH  20  22
HETATM   22  C   UNL     1      -9.326   9.299  66.615  1.00  0.00    -0.219 C  
HETATM   23  C   UNL     1      -9.589   9.639  65.342  1.00  0.00    -0.361 C  
BRANCH  23  24
HETATM   24  C   UNL     1      -8.609  10.123  64.303  1.00  0.00    -0.193 C  
HETATM   25  H   UNL     1      -7.438   9.324  62.938  1.00  0.00     0.000 HD 
HETATM   26  O   UNL     1      -8.056   9.019  63.592  1.00  0.00    -0.146 OA 
BRANCH  24  27
HETATM   27  C   UNL     1      -9.242  11.069  63.275  1.00  0.00    -0.283 C  
BRANCH  27  28
HETATM   28  C   UNL     1     -10.727  11.344  63.529  1.00  0.00    -0.453 C  
BRANCH  28  29
HETATM   29  C   UNL     1     -10.958  12.773  63.953  1.00  0.00    -0.458 A  
HETATM   30  C   UNL     1      -9.966  13.469  64.656  1.00  0.00    -0.112 A  
HETATM   31  C   UNL     1     -10.191  14.776  65.090  1.00  0.00    -0.410 A  
HETATM   32  C   UNL     1     -11.409  15.397  64.824  1.00  0.00    -0.381 A  
HETATM   33  C   UNL     1     -12.401  14.714  64.121  1.00  0.00    -0.294 A  
HETATM   34  C   UNL     1     -12.178  13.408  63.687  1.00  0.00    -0.480 A  
ENDBRANCH  28  29
ENDBRANCH  27  28
ENDBRANCH  24  27
ENDBRANCH  23  24
ENDBRANCH  20  22
ENDBRANCH  12  13
ENDBRANCH  11  12
ENDBRANCH   9  10
ENDBRANCH   8   9
ENDBRANCH   7   8
ENDBRANCH   4   7
ENDBRANCH   2   3
TORSDOF 12
ENDMDL
MODEL       10
REMARK 921   NORMALIZED FREE ENERGY PREDICTED BY IDOCK:   -6.24 KCAL/MOL
REMARK 922        TOTAL FREE ENERGY PREDICTED BY IDOCK:  -13.45 KCAL/MOL
REMARK 923 INTER-LIGAND FREE ENERGY PREDICTED BY IDOCK:  -11.01 KCAL/MOL
REMARK 924 INTRA-LIGAND FREE ENERGY PREDICTED BY IDOCK:   -2.44 KCAL/MOL
REMARK 927      BINDING AFFINITY PREDICTED BY RF-SCORE:    0.00 PKD
ROOT
HETATM    1  C   UNL     1      -6.680  19.520  65.250  1.00  0.00    -0.283 C  
HETATM    2  C   UNL     1      -7.555  20.416  66.107  1.00  0.00    -0.129 C  
ENDROOT
BRANCH   2   3
HETATM    3  N   UNL     1      -8.487  19.648  66.901  1.00  0.00    -0.293 N  
HETATM    4  C   UNL     1      -9.809  19.536  66.535  1.00  0.00    -0.404 C  
HETATM    5  H   UNL     1      -8.160  19.181  67.747  1.00  0.00     0.000 HD 
HETATM    6  O   UNL     1     -10.279  20.075  65.541  1.00  0.00    -0.369 OA 
BRANCH   4   7
HETATM    7  C   UNL     1     -10.622  18.669  67.476  1.00  0.00    -0.472 C  
BRANCH   7   8
HETATM    8  C   UNL     1      -9.758  18.143  68.625  1.00  0.00    -0.367 C  
BRANCH   8   9
HETATM    9  C   UNL     1     -10.054  16.692  68.998  1.00  0.00    -0.293 C  
BRANCH   9  10
HETATM   10  C   UNL     1      -9.432  15.720  68.037  1.00  0.00    -0.202 C  
HETATM   11  C   UNL     1     -10.069  14.910  67.176  1.00  0.00    -0.240 C  
BRANCH  11  12
HETATM   12  C   UNL     1     -11.556  14.769  67.001  1.00  0.00    -0.352 C  
BRANCH  12  13
HETATM   13  C   UNL     1     -11.958  13.572  66.128  1.00  0.00    -0.454 C  
HETATM   14  C   UNL     1     -12.351  13.922  64.685  1.00  0.00    -0.388 C  
HETATM   15  C   UNL     1     -12.138  12.615  63.934  1.00  0.00    -0.567 C  
HETATM   16  O   UNL     1     -11.487  14.905  64.127  1.00  0.00    -0.630 OA 
HETATM   17  H   UNL     1     -11.731  15.122  63.235  1.00  0.00     0.000 HD 
HETATM   18  C   UNL     1     -10.826  12.086  64.508  1.00  0.00    -0.314 C  
HETATM   19  O   UNL     1      -9.725  12.634  63.779  1.00  0.00    -0.678 OA 
HETATM   20  C   UNL     1     -10.770  12.585  65.971  1.00  0.00    -0.292 C  
HETATM   21  H   UNL     1      -8.908  12.305  64.137  1.00  0.00     0.000 HD 
BRANCH  20  22
HETATM   22  C   UNL     1     -10.855  11.438  66.955  1.00  0.00    -0.335 C  
HETATM   23  C   UNL     1     -10.295  11.471  68.177  1.00  0.00    -0.211 C  
BRANCH  23  24
HETATM   24  C   UNL     1     -10.243  10.355  69.189  1.00  0.00    -0.222 C  
HETATM   25  H   UNL     1      -8.866   9.410  70.229  1.00  0.00     0.000 HD 
HETATM   26  O   UNL     1      -8.898  10.113  69.591  1.00  0.00    -0.195 OA 
BRANCH  24  27
HETATM   27  C   UNL     1     -11.061  10.653  70.453  1.00  0.00    -0.253 C  
BRANCH  27  28
HETATM   28  C   UNL     1     -12.449  11.230  70.162  1.00  0.00    -0.297 C  
BRANCH  28  29
HETATM   29  C   UNL     1     -12.641  12.567  70.834  1.00  0.00    -0.331 A  
HETATM   30  C   UNL     1     -13.319  12.651  72.057  1.00  0.00    -0.555 A  
HETATM   31  C   UNL     1     -13.538  13.890  72.660  1.00  0.00    -0.626 A  
HETATM   32  C   UNL     1     -13.081  15.054  72.046  1.00  0.00    -0.440 A  
HETATM   33  C   UNL     1     -12.402  14.980  70.830  1.00  0.00    -0.393 A  
HETATM   34  C   UNL     1     -12.183  13.742  70.226  1.00  0.00    -0.429 A  
ENDBRANCH  28  29
ENDBRANCH  27  28
ENDBRANCH  24  27
ENDBRANCH  23  24
ENDBRANCH  20  22
ENDBRANCH  12  13
ENDBRANCH  11  12
ENDBRANCH   9  10
ENDBRANCH   8   9
ENDBRANCH   7   8
ENDBRANCH   4   7
ENDBRANCH   2   3
TORSDOF 12
ENDMDL
MODEL       11
REMARK 921   NORMALIZED FREE ENERGY PREDICTED BY IDOCK:   -6.24 KCAL/MOL
REMARK 922        TOTAL FREE ENERGY PREDICTED BY IDOCK:  -13.44 KCAL/MOL
REMARK 923 INTER-LIGAND FREE ENERGY PREDICTED BY IDOCK:  -10.64 KCAL/MOL
REMARK 924 INTRA-LIGAND FREE ENERGY PREDICTED BY IDOCK:   -2.81 KCAL/MOL
REMARK 927      BINDING AFFINITY PREDICTED BY RF-SCORE:    0.00 PKD
ROOT
HETATM    1  C   UNL     1      -9.286  10.566  62.696  1.00  0.00    -0.337 C  
HETATM    2  C   UNL     1      -8.960   9.453  63.675  1.00  0.00    -0.115 C  
ENDROOT
BRANCH   2   3
HETATM    3  N   UNL     1      -9.773   9.538  64.867  1.00  0.00    -0.438 N  
HETATM    4  C   UNL     1      -9.449   8.827  66.000  1.00  0.00    -0.233 C  
HETATM    5  H   UNL     1     -10.602  10.133  64.868  1.00  0.00     0.000 HD 
HETATM    6  O   UNL     1      -8.478   8.084  66.073  1.00  0.00    -0.121 OA 
BRANCH   4   7
HETATM    7  C   UNL     1     -10.404   9.065  67.152  1.00  0.00    -0.342 C  
BRANCH   7   8
HETATM    8  C   UNL     1     -10.333  10.516  67.635  1.00  0.00    -0.257 C  
BRANCH   8   9
HETATM    9  C   UNL     1      -9.483  10.702  68.892  1.00  0.00    -0.199 C  
BRANCH   9  10
HETATM   10  C   UNL     1      -8.830   9.421  69.329  1.00  0.00    -0.150 C  
HETATM   11  C   UNL     1      -9.128   8.688  70.413  1.00  0.00    -0.176 C  
BRANCH  11  12
HETATM   12  C   UNL     1     -10.165   9.001  71.457  1.00  0.00    -0.414 C  
BRANCH  12  13
HETATM   13  C   UNL     1     -11.602   8.737  70.988  1.00  0.00    -0.337 C  
HETATM   14  C   UNL     1     -12.180   7.373  71.396  1.00  0.00    -0.342 C  
HETATM   15  C   UNL     1     -13.685   7.594  71.334  1.00  0.00    -0.392 C  
HETATM   16  O   UNL     1     -11.832   7.033  72.734  1.00  0.00    -0.512 OA 
HETATM   17  H   UNL     1     -12.189   6.189  72.986  1.00  0.00     0.000 HD 
HETATM   18  C   UNL     1     -13.865   8.978  71.953  1.00  0.00    -0.423 C  
HETATM   19  O   UNL     1     -13.986   8.860  73.373  1.00  0.00    -1.236 OA 
HETATM   20  C   UNL     1     -12.581   9.768  71.612  1.00  0.00    -0.509 C  
HETATM   21  H   UNL     1     -14.098   9.722  73.758  1.00  0.00     0.000 HD 
BRANCH  20  22
HETATM   22  C   UNL     1     -12.866  10.918  70.670  1.00  0.00    -0.340 C  
HETATM   23  C   UNL     1     -12.326  12.141  70.814  1.00  0.00    -0.391 C  
BRANCH  23  24
HETATM   24  C   UNL     1     -12.615  13.370  69.991  1.00  0.00    -0.028 C  
HETATM   25  H   UNL     1     -13.197  15.222  70.314  1.00  0.00     0.000 HD 
HETATM   26  O   UNL     1     -13.015  14.447  70.833  1.00  0.00    -0.342 OA 
BRANCH  24  27
HETATM   27  C   UNL     1     -11.406  13.842  69.173  1.00  0.00    -0.331 C  
BRANCH  27  28
HETATM   28  C   UNL     1     -11.771  14.818  68.050  1.00  0.00    -0.360 C  
BRANCH  28  29
HETATM   29  C   UNL     1     -11.602  14.182  66.693  1.00  0.00    -0.399 A  
HETATM   30  C   UNL     1     -12.726  13.788  65.954  1.00  0.00    -0.452 A  
HETATM   31  C   UNL     1     -12.574  13.159  64.718  1.00  0.00    -0.426 A  
HETATM   32  C   UNL     1     -11.299  12.919  64.210  1.00  0.00    -0.417 A  
HETATM   33  C   UNL     1     -10.175  13.312  64.936  1.00  0.00    -0.313 A  
HETATM   34  C   UNL     1     -10.325  13.940  66.172  1.00  0.00    -0.303 A  
ENDBRANCH  28  29
ENDBRANCH  27  28
ENDBRANCH  24  27
ENDBRANCH  23  24
ENDBRANCH  20  22
ENDBRANCH  12  13
ENDBRANCH  11  12
ENDBRANCH   9  10
ENDBRANCH   8   9
ENDBRANCH   7   8
ENDBRANCH   4   7
ENDBRANCH   2   3
TORSDOF 12
ENDMDL
MODEL       12
REMARK 921   NORMALIZED FREE ENERGY PREDICTED BY IDOCK:   -6.23 KCAL/MOL
REMARK 922        TOTAL FREE ENERGY PREDICTED BY IDOCK:  -13.44 KCAL/MOL
REMARK 923 INTER-LIGAND FREE ENERGY PREDICTED BY IDOCK:  -11.34 KCAL/MOL
REMARK 924 INTRA-LIGAND FREE ENERGY PREDICTED BY IDOCK:   -2.09 KCAL/MOL
REMARK 927      BINDING AFFINITY PREDICTED BY RF-SCORE:    0.00 PKD
ROOT
HETATM    1  C   UNL     1     -10.692  19.177  67.309  1.00  0.00    -0.585 C  
HETATM    2  C   UNL     1      -9.761  19.226  68.506  1.00  0.00    -0.414 C  
ENDROOT
BRANCH   2   3
HETATM    3  N   UNL     1      -9.155  17.938  68.761  1.00  0.00    -0.252 N  
HETATM    4  C   UNL     1      -7.848  17.686  68.411  1.00  0.00    -0.268 C  
HETATM    5  H   UNL     1      -9.706  17.205  69.208  1.00  0.00     0.000 HD 
HETATM    6  O   UNL     1      -7.128  18.511  67.862  1.00  0.00    -0.219 OA 
BRANCH   4   7
HETATM    7  C   UNL     1      -7.385  16.292  68.783  1.00  0.00    -0.191 C  
BRANCH   7   8
HETATM    8  C   UNL     1      -7.422  15.357  67.571  1.00  0.00    -0.215 C  
BRANCH   8   9
HETATM    9  C   UNL     1      -8.798  14.746  67.312  1.00  0.00    -0.218 C  
BRANCH   9  10
HETATM   10  C   UNL     1      -9.476  15.359  66.119  1.00  0.00    -0.371 C  
HETATM   11  C   UNL     1     -10.748  15.179  65.728  1.00  0.00    -0.359 C  
BRANCH  11  12
HETATM   12  C   UNL     1     -11.776  14.295  66.379  1.00  0.00    -0.403 C  
BRANCH  12  13
HETATM   13  C   UNL     1     -11.957  12.945  65.670  1.00  0.00    -0.490 C  
HETATM   14  C   UNL     1     -12.726  13.005  64.342  1.00  0.00    -0.201 C  
HETATM   15  C   UNL     1     -12.277  11.744  63.616  1.00  0.00    -0.489 C  
HETATM   16  O   UNL     1     -12.343  14.132  63.562  1.00  0.00    -1.065 OA 
HETATM   17  H   UNL     1     -12.819  14.169  62.741  1.00  0.00     0.000 HD 
HETATM   18  C   UNL     1     -10.778  11.689  63.897  1.00  0.00    -0.398 C  
HETATM   19  O   UNL     1     -10.074  12.453  62.914  1.00  0.00    -0.408 OA 
HETATM   20  C   UNL     1     -10.580  12.338  65.286  1.00  0.00    -0.322 C  
HETATM   21  H   UNL     1      -9.141  12.418  63.090  1.00  0.00     0.000 HD 
BRANCH  20  22
HETATM   22  C   UNL     1     -10.102  11.331  66.310  1.00  0.00    -0.271 C  
HETATM   23  C   UNL     1     -10.916  10.747  67.207  1.00  0.00    -0.359 C  
BRANCH  23  24
HETATM   24  C   UNL     1     -10.527   9.808  68.319  1.00  0.00    -0.216 C  
HETATM   25  H   UNL     1      -8.953   8.738  68.824  1.00  0.00     0.000 HD 
HETATM   26  O   UNL     1      -9.199   9.330  68.122  1.00  0.00    -0.131 OA 
BRANCH  24  27
HETATM   27  C   UNL     1     -10.584  10.462  69.706  1.00  0.00    -0.302 C  
BRANCH  27  28
HETATM   28  C   UNL     1     -11.997  10.526  70.294  1.00  0.00    -0.411 C  
BRANCH  28  29
HETATM   29  C   UNL     1     -12.351  11.928  70.725  1.00  0.00    -0.416 A  
HETATM   30  C   UNL     1     -13.071  12.142  71.907  1.00  0.00    -0.475 A  
HETATM   31  C   UNL     1     -13.440  13.433  72.286  1.00  0.00    -0.683 A  
HETATM   32  C   UNL     1     -13.091  14.520  71.487  1.00  0.00    -0.413 A  
HETATM   33  C   UNL     1     -12.370  14.317  70.312  1.00  0.00    -0.418 A  
HETATM   34  C   UNL     1     -12.001  13.027  69.930  1.00  0.00    -0.381 A  
ENDBRANCH  28  29
ENDBRANCH  27  28
ENDBRANCH  24  27
ENDBRANCH  23  24
ENDBRANCH  20  22
ENDBRANCH  12  13
ENDBRANCH  11  12
ENDBRANCH   9  10
ENDBRANCH   8   9
ENDBRANCH   7   8
ENDBRANCH   4   7
ENDBRANCH   2   3
TORSDOF 12
ENDMDL
MODEL       13
REMARK 921   NORMALIZED FREE ENERGY PREDICTED BY IDOCK:   -6.22 KCAL/MOL
REMARK 922        TOTAL FREE ENERGY PREDICTED BY IDOCK:  -13.41 KCAL/MOL
REMARK 923 INTER-LIGAND FREE ENERGY PREDICTED BY IDOCK:   -9.94 KCAL/MOL
REMARK 924 INTRA-LIGAND FREE ENERGY PREDICTED BY IDOCK:   -3.47 KCAL/MOL
REMARK 927      BINDING AFFINITY PREDICTED BY RF-SCORE:    0.00 PKD
ROOT
HETATM    1  C   UNL     1     -14.350   8.482  72.067  1.00  0.00    -0.537 C  
HETATM    2  C   UNL     1     -13.690   9.833  71.864  1.00  0.00    -0.253 C  
ENDROOT
BRANCH   2   3
HETATM    3  N   UNL     1     -12.792   9.821  70.730  1.00  0.00    -0.537 N  
HETATM    4  C   UNL     1     -11.477   9.439  70.870  1.00  0.00    -0.316 C  
HETATM    5  H   UNL     1     -13.139  10.100  69.813  1.00  0.00     0.000 HD 
HETATM    6  O   UNL     1     -10.985   9.101  71.940  1.00  0.00    -0.364 OA 
BRANCH   4   7
HETATM    7  C   UNL     1     -10.702   9.465  69.567  1.00  0.00    -0.238 C  
BRANCH   7   8
HETATM    8  C   UNL     1      -9.276   9.978  69.785  1.00  0.00    -0.227 C  
BRANCH   8   9
HETATM    9  C   UNL     1      -8.405   9.911  68.531  1.00  0.00    -0.108 C  
BRANCH   9  10
HETATM   10  C   UNL     1      -7.700  11.209  68.260  1.00  0.00    -0.116 C  
HETATM   11  C   UNL     1      -7.996  12.110  67.310  1.00  0.00    -0.176 C  
BRANCH  11  12
HETATM   12  C   UNL     1      -9.084  12.008  66.278  1.00  0.00    -0.165 C  
BRANCH  12  13
HETATM   13  C   UNL     1     -10.091  13.166  66.335  1.00  0.00    -0.281 C  
HETATM   14  C   UNL     1     -10.247  13.958  65.029  1.00  0.00    -0.358 C  
HETATM   15  C   UNL     1     -11.620  14.601  65.167  1.00  0.00    -0.371 C  
HETATM   16  O   UNL     1     -10.265  13.102  63.892  1.00  0.00    -0.668 OA 
HETATM   17  H   UNL     1     -10.361  13.592  63.084  1.00  0.00     0.000 HD 
HETATM   18  C   UNL     1     -12.475  13.486  65.762  1.00  0.00    -0.462 C  
HETATM   19  O   UNL     1     -13.009  12.674  64.714  1.00  0.00    -0.816 OA 
HETATM   20  C   UNL     1     -11.520  12.635  66.632  1.00  0.00    -0.409 C  
HETATM   21  H   UNL     1     -13.541  11.980  65.085  1.00  0.00     0.000 HD 
BRANCH  20  22
HETATM   22  C   UNL     1     -11.865  12.735  68.102  1.00  0.00    -0.372 C  
HETATM   23  C   UNL     1     -12.113  13.901  68.724  1.00  0.00    -0.344 C  
BRANCH  23  24
HETATM   24  C   UNL     1     -12.374  14.115  70.193  1.00  0.00    -0.351 C  
HETATM   25  H   UNL     1     -12.571  13.002  71.804  1.00  0.00     0.000 HD 
HETATM   26  O   UNL     1     -12.407  12.866  70.878  1.00  0.00    -0.370 OA 
BRANCH  24  27
HETATM   27  C   UNL     1     -11.310  14.989  70.870  1.00  0.00    -0.305 C  
BRANCH  27  28
HETATM   28  C   UNL     1     -11.201  16.394  70.272  1.00  0.00    -0.259 C  
BRANCH  28  29
HETATM   29  C   UNL     1     -10.245  16.423  69.105  1.00  0.00    -0.280 A  
HETATM   30  C   UNL     1      -9.041  15.709  69.162  1.00  0.00    -0.256 A  
HETATM   31  C   UNL     1      -8.134  15.768  68.104  1.00  0.00    -0.140 A  
HETATM   32  C   UNL     1      -8.422  16.541  66.981  1.00  0.00    -0.225 A  
HETATM   33  C   UNL     1      -9.619  17.251  66.914  1.00  0.00    -0.272 A  
HETATM   34  C   UNL     1     -10.528  17.194  67.971  1.00  0.00    -0.369 A  
ENDBRANCH  28  29
ENDBRANCH  27  28
ENDBRANCH  24  27
ENDBRANCH  23  24
ENDBRANCH  20  22
ENDBRANCH  12  13
ENDBRANCH  11  12
ENDBRANCH   9  10
ENDBRANCH   8   9
ENDBRANCH   7   8
ENDBRANCH   4   7
ENDBRANCH   2   3
TORSDOF 12
ENDMDL
MODEL       14
REMARK 921   NORMALIZED FREE ENERGY PREDICTED BY IDOCK:   -6.21 KCAL/MOL
REMARK 922        TOTAL FREE ENERGY PREDICTED BY IDOCK:  -13.40 KCAL/MOL
REMARK 923 INTER-LIGAND FREE ENERGY PREDICTED BY IDOCK:  -10.32 KCAL/MOL
REMARK 924 INTRA-LIGAND FREE ENERGY PREDICTED BY IDOCK:   -3.08 KCAL/MOL
REMARK 927      BINDING AFFINITY PREDICTED BY RF-SCORE:    0.00 PKD
ROOT
HETATM    1  C   UNL     1      -7.006  11.941  68.956  1.00  0.00    -0.098 C  
HETATM    2  C   UNL     1      -6.556  13.026  67.995  1.00  0.00    -0.116 C  
ENDROOT
BRANCH   2   3
HETATM    3  N   UNL     1      -7.644  13.481  67.160  1.00  0.00    -0.369 N  
HETATM    4  C   UNL     1      -8.119  14.770  67.253  1.00  0.00    -0.207 C  
HETATM    5  H   UNL     1      -8.066  12.837  66.491  1.00  0.00     0.000 HD 
HETATM    6  O   UNL     1      -7.672  15.596  68.038  1.00  0.00    -0.120 OA 
BRANCH   4   7
HETATM    7  C   UNL     1      -9.242  15.067  66.279  1.00  0.00    -0.324 C  
BRANCH   7   8
HETATM    8  C   UNL     1     -10.588  14.581  66.824  1.00  0.00    -0.276 C  
BRANCH   8   9
HETATM    9  C   UNL     1     -11.757  14.823  65.871  1.00  0.00    -0.248 C  
BRANCH   9  10
HETATM   10  C   UNL     1     -12.588  13.588  65.668  1.00  0.00    -0.512 C  
HETATM   11  C   UNL     1     -12.294  12.529  64.897  1.00  0.00    -0.539 C  
BRANCH  11  12
HETATM   12  C   UNL     1     -11.076  12.354  64.033  1.00  0.00    -0.452 C  
BRANCH  12  13
HETATM   13  C   UNL     1     -10.414  10.976  64.182  1.00  0.00    -0.434 C  
HETATM   14  C   UNL     1      -9.431  10.602  63.063  1.00  0.00    -0.338 C  
HETATM   15  C   UNL     1      -8.543   9.548  63.711  1.00  0.00    -0.222 C  
HETATM   16  O   UNL     1      -8.615  11.706  62.688  1.00  0.00    -0.640 OA 
HETATM   17  H   UNL     1      -8.007  11.475  61.995  1.00  0.00     0.000 HD 
HETATM   18  C   UNL     1      -8.295  10.107  65.110  1.00  0.00    -0.161 C  
HETATM   19  O   UNL     1      -7.164  10.981  65.087  1.00  0.00    -0.346 OA 
HETATM   20  C   UNL     1      -9.560  10.915  65.477  1.00  0.00    -0.266 C  
HETATM   21  H   UNL     1      -7.010  11.329  65.958  1.00  0.00     0.000 HD 
BRANCH  20  22
HETATM   22  C   UNL     1     -10.317  10.278  66.622  1.00  0.00    -0.283 C  
HETATM   23  C   UNL     1     -10.502  10.880  67.810  1.00  0.00    -0.238 C  
BRANCH  23  24
HETATM   24  C   UNL     1     -11.156  10.299  69.037  1.00  0.00    -0.230 C  
HETATM   25  H   UNL     1     -10.582   9.576  70.776  1.00  0.00     0.000 HD 
HETATM   26  O   UNL     1     -10.170   9.942  70.003  1.00  0.00    -0.244 OA 
BRANCH  24  27
HETATM   27  C   UNL     1     -12.137  11.267  69.711  1.00  0.00    -0.394 C  
BRANCH  27  28
HETATM   28  C   UNL     1     -11.825  12.742  69.440  1.00  0.00    -0.359 C  
BRANCH  28  29
HETATM   29  C   UNL     1     -12.397  13.632  70.515  1.00  0.00    -0.425 A  
HETATM   30  C   UNL     1     -12.060  14.991  70.559  1.00  0.00    -0.379 A  
HETATM   31  C   UNL     1     -12.551  15.809  71.577  1.00  0.00    -0.517 A  
HETATM   32  C   UNL     1     -13.381  15.275  72.560  1.00  0.00    -0.553 A  
HETATM   33  C   UNL     1     -13.725  13.924  72.523  1.00  0.00    -0.665 A  
HETATM   34  C   UNL     1     -13.235  13.105  71.506  1.00  0.00    -0.368 A  
ENDBRANCH  28  29
ENDBRANCH  27  28
ENDBRANCH  24  27
ENDBRANCH  23  24
ENDBRANCH  20  22
ENDBRANCH  12  13
ENDBRANCH  11  12
ENDBRANCH   9  10
ENDBRANCH   8   9
ENDBRANCH   7   8
ENDBRANCH   4   7
ENDBRANCH   2   3
TORSDOF 12
ENDMDL
MODEL       15
REMARK 921   NORMALIZED FREE ENERGY PREDICTED BY IDOCK:   -6.14 KCAL/MOL
REMARK 922        TOTAL FREE ENERGY PREDICTED BY IDOCK:  -13.28 KCAL/MOL
REMARK 923 INTER-LIGAND FREE ENERGY PREDICTED BY IDOCK:  -11.08 KCAL/MOL
REMARK 924 INTRA-LIGAND FREE ENERGY PREDICTED BY IDOCK:   -2.20 KCAL/MOL
REMARK 927      BINDING AFFINITY PREDICTED BY RF-SCORE:    0.00 PKD
ROOT
HETATM    1  C   UNL     1     -12.236  16.256  73.920  1.00  0.00    -0.586 C  
HETATM    2  C   UNL     1     -13.059  15.075  73.440  1.00  0.00    -0.425 C  
ENDROOT
BRANCH   2   3
HETATM    3  N   UNL     1     -12.457  14.441  72.289  1.00  0.00    -0.277 N  
HETATM    4  C   UNL     1     -12.854  14.764  71.011  1.00  0.00    -0.352 C  
HETATM    5  H   UNL     1     -11.727  13.741  72.426  1.00  0.00     0.000 HD 
HETATM    6  O   UNL     1     -13.730  15.584  70.767  1.00  0.00    -0.475 OA 
BRANCH   4   7
HETATM    7  C   UNL     1     -12.091  14.014  69.938  1.00  0.00    -0.406 C  
BRANCH   7   8
HETATM    8  C   UNL     1     -11.003  14.896  69.318  1.00  0.00    -0.279 C  
BRANCH   8   9
HETATM    9  C   UNL     1      -9.931  14.107  68.567  1.00  0.00    -0.235 C  
BRANCH   9  10
HETATM   10  C   UNL     1      -9.714  14.629  67.175  1.00  0.00    -0.235 C  
HETATM   11  C   UNL     1     -10.610  14.676  66.177  1.00  0.00    -0.314 C  
BRANCH  11  12
HETATM   12  C   UNL     1     -12.031  14.185  66.217  1.00  0.00    -0.448 C  
BRANCH  12  13
HETATM   13  C   UNL     1     -12.247  12.875  65.447  1.00  0.00    -0.528 C  
HETATM   14  C   UNL     1     -12.899  13.032  64.065  1.00  0.00     0.045 C  
HETATM   15  C   UNL     1     -12.480  11.766  63.330  1.00  0.00    -0.490 C  
HETATM   16  O   UNL     1     -12.375  14.153  63.360  1.00  0.00    -1.109 OA 
HETATM   17  H   UNL     1     -12.778  14.250  62.505  1.00  0.00     0.000 HD 
HETATM   18  C   UNL     1     -11.016  11.594  63.728  1.00  0.00    -0.422 C  
HETATM   19  O   UNL     1     -10.183  12.335  62.833  1.00  0.00    -0.443 OA 
HETATM   20  C   UNL     1     -10.889  12.183  65.151  1.00  0.00    -0.343 C  
HETATM   21  H   UNL     1      -9.272  12.228  63.081  1.00  0.00     0.000 HD 
BRANCH  20  22
HETATM   22  C   UNL     1     -10.567  11.112  66.171  1.00  0.00    -0.305 C  
HETATM   23  C   UNL     1      -9.321  10.855  66.604  1.00  0.00    -0.191 C  
BRANCH  23  24
HETATM   24  C   UNL     1      -8.886   9.758  67.541  1.00  0.00    -0.125 C  
HETATM   25  H   UNL     1      -7.484   9.483  68.895  1.00  0.00     0.000 HD 
HETATM   26  O   UNL     1      -7.757  10.175  68.304  1.00  0.00    -0.086 OA 
BRANCH  24  27
HETATM   27  C   UNL     1      -9.985   9.340  68.527  1.00  0.00    -0.193 C  
BRANCH  27  28
HETATM   28  C   UNL     1     -10.075  10.242  69.762  1.00  0.00    -0.244 C  
BRANCH  28  29
HETATM   29  C   UNL     1     -11.137   9.761  70.718  1.00  0.00    -0.415 A  
HETATM   30  C   UNL     1     -12.411  10.344  70.710  1.00  0.00    -0.463 A  
HETATM   31  C   UNL     1     -13.383   9.934  71.622  1.00  0.00    -0.481 A  
HETATM   32  C   UNL     1     -13.090   8.937  72.551  1.00  0.00    -0.426 A  
HETATM   33  C   UNL     1     -11.827   8.348  72.564  1.00  0.00    -0.427 A  
HETATM   34  C   UNL     1     -10.854   8.757  71.653  1.00  0.00    -0.399 A  
ENDBRANCH  28  29
ENDBRANCH  27  28
ENDBRANCH  24  27
ENDBRANCH  23  24
ENDBRANCH  20  22
ENDBRANCH  12  13
ENDBRANCH  11  12
ENDBRANCH   9  10
ENDBRANCH   8   9
ENDBRANCH   7   8
ENDBRANCH   4   7
ENDBRANCH   2   3
TORSDOF 12
ENDMDL
MODEL       16
REMARK 921   NORMALIZED FREE ENERGY PREDICTED BY IDOCK:   -6.12 KCAL/MOL
REMARK 922        TOTAL FREE ENERGY PREDICTED BY IDOCK:  -13.24 KCAL/MOL
REMARK 923 INTER-LIGAND FREE ENERGY PREDICTED BY IDOCK:  -10.17 KCAL/MOL
REMARK 924 INTRA-LIGAND FREE ENERGY PREDICTED BY IDOCK:   -3.07 KCAL/MOL
REMARK 927      BINDING AFFINITY PREDICTED BY RF-SCORE:    0.00 PKD
ROOT
HETATM    1  C   UNL     1     -14.152  13.736  72.382  1.00  0.00    -0.593 C  
HETATM    2  C   UNL     1     -14.328  15.134  71.818  1.00  0.00    -0.597 C  
ENDROOT
BRANCH   2   3
HETATM    3  N   UNL     1     -13.664  15.280  70.542  1.00  0.00    -0.702 N  
HETATM    4  C   UNL     1     -12.336  15.637  70.470  1.00  0.00    -0.403 C  
HETATM    5  H   UNL     1     -14.188  15.116  69.682  1.00  0.00     0.000 HD 
HETATM    6  O   UNL     1     -11.646  15.861  71.456  1.00  0.00    -0.405 OA 
BRANCH   4   7
HETATM    7  C   UNL     1     -11.812  15.714  69.049  1.00  0.00    -0.379 C  
BRANCH   7   8
HETATM    8  C   UNL     1     -11.952  14.365  68.338  1.00  0.00    -0.328 C  
BRANCH   8   9
HETATM    9  C   UNL     1     -11.323  13.202  69.103  1.00  0.00    -0.335 C  
BRANCH   9  10
HETATM   10  C   UNL     1     -11.882  11.874  68.677  1.00  0.00    -0.365 C  
HETATM   11  C   UNL     1     -12.281  10.869  69.473  1.00  0.00    -0.331 C  
BRANCH  11  12
HETATM   12  C   UNL     1     -12.227  10.832  70.975  1.00  0.00    -0.485 C  
BRANCH  12  13
HETATM   13  C   UNL     1     -11.573   9.560  71.532  1.00  0.00    -0.465 C  
HETATM   14  C   UNL     1     -12.548   8.532  72.124  1.00  0.00    -0.377 C  
HETATM   15  C   UNL     1     -11.768   7.226  72.057  1.00  0.00    -0.329 C  
HETATM   16  O   UNL     1     -13.718   8.396  71.325  1.00  0.00    -0.536 OA 
HETATM   17  H   UNL     1     -14.322   7.760  71.691  1.00  0.00     0.000 HD 
HETATM   18  C   UNL     1     -11.093   7.287  70.689  1.00  0.00    -0.264 C  
HETATM   19  O   UNL     1     -11.972   6.760  69.693  1.00  0.00    -0.650 OA 
HETATM   20  C   UNL     1     -10.836   8.785  70.407  1.00  0.00    -0.256 C  
HETATM   21  H   UNL     1     -11.551   6.798  68.842  1.00  0.00     0.000 HD 
BRANCH  20  22
HETATM   22  C   UNL     1      -9.357   9.102  70.377  1.00  0.00    -0.272 C  
HETATM   23  C   UNL     1      -8.822  10.050  69.588  1.00  0.00    -0.217 C  
BRANCH  23  24
HETATM   24  C   UNL     1      -7.361  10.379  69.417  1.00  0.00    -0.123 C  
HETATM   25  H   UNL     1      -5.649   9.407  69.424  1.00  0.00     0.000 HD 
HETATM   26  O   UNL     1      -6.570   9.199  69.532  1.00  0.00    -0.042 OA 
BRANCH  24  27
HETATM   27  C   UNL     1      -7.044  11.021  68.060  1.00  0.00    -0.077 C  
BRANCH  27  28
HETATM   28  C   UNL     1      -7.532  12.467  67.938  1.00  0.00    -0.120 C  
BRANCH  28  29
HETATM   29  C   UNL     1      -8.566  12.609  66.849  1.00  0.00    -0.151 A  
HETATM   30  C   UNL     1      -9.080  13.871  66.524  1.00  0.00    -0.165 A  
HETATM   31  C   UNL     1     -10.068  14.002  65.548  1.00  0.00    -0.343 A  
HETATM   32  C   UNL     1     -10.552  12.873  64.891  1.00  0.00    -0.342 A  
HETATM   33  C   UNL     1     -10.045  11.614  65.205  1.00  0.00    -0.305 A  
HETATM   34  C   UNL     1      -9.057  11.480  66.180  1.00  0.00    -0.217 A  
ENDBRANCH  28  29
ENDBRANCH  27  28
ENDBRANCH  24  27
ENDBRANCH  23  24
ENDBRANCH  20  22
ENDBRANCH  12  13
ENDBRANCH  11  12
ENDBRANCH   9  10
ENDBRANCH   8   9
ENDBRANCH   7   8
ENDBRANCH   4   7
ENDBRANCH   2   3
TORSDOF 12
ENDMDL
MODEL       17
REMARK 921   NORMALIZED FREE ENERGY PREDICTED BY IDOCK:   -6.12 KCAL/MOL
REMARK 922        TOTAL FREE ENERGY PREDICTED BY IDOCK:  -13.24 KCAL/MOL
REMARK 923 INTER-LIGAND FREE ENERGY PREDICTED BY IDOCK:  -10.27 KCAL/MOL
REMARK 924 INTRA-LIGAND FREE ENERGY PREDICTED BY IDOCK:   -2.97 KCAL/MOL
REMARK 927      BINDING AFFINITY PREDICTED BY RF-SCORE:    0.00 PKD
ROOT
HETATM    1  C   UNL     1     -12.281  16.194  74.406  1.00  0.00    -0.583 C  
HETATM    2  C   UNL     1     -13.219  15.965  73.236  1.00  0.00    -0.595 C  
ENDROOT
BRANCH   2   3
HETATM    3  N   UNL     1     -12.714  14.949  72.340  1.00  0.00    -0.327 N  
HETATM    4  C   UNL     1     -13.370  13.748  72.187  1.00  0.00    -0.476 C  
HETATM    5  H   UNL     1     -11.858  15.124  71.814  1.00  0.00     0.000 HD 
HETATM    6  O   UNL     1     -14.396  13.460  72.791  1.00  0.00    -0.633 OA 
BRANCH   4   7
HETATM    7  C   UNL     1     -12.704  12.824  71.186  1.00  0.00    -0.355 C  
BRANCH   7   8
HETATM    8  C   UNL     1     -12.766  11.368  71.655  1.00  0.00    -0.427 C  
BRANCH   8   9
HETATM    9  C   UNL     1     -11.866  10.429  70.853  1.00  0.00    -0.475 C  
BRANCH   9  10
HETATM   10  C   UNL     1     -12.111  10.534  69.374  1.00  0.00    -0.175 C  
HETATM   11  C   UNL     1     -11.221  10.871  68.427  1.00  0.00    -0.347 C  
BRANCH  11  12
HETATM   12  C   UNL     1      -9.782  11.253  68.636  1.00  0.00    -0.200 C  
BRANCH  12  13
HETATM   13  C   UNL     1      -8.898  10.998  67.407  1.00  0.00    -0.138 C  
HETATM   14  C   UNL     1      -7.849   9.889  67.579  1.00  0.00    -0.098 C  
HETATM   15  C   UNL     1      -7.545   9.466  66.148  1.00  0.00    -0.096 C  
HETATM   16  O   UNL     1      -8.378   8.767  68.275  1.00  0.00    -0.123 OA 
HETATM   17  H   UNL     1      -7.730   8.081  68.382  1.00  0.00     0.000 HD 
HETATM   18  C   UNL     1      -8.920   9.442  65.486  1.00  0.00    -0.204 C  
HETATM   19  O   UNL     1      -9.530   8.165  65.687  1.00  0.00    -0.430 OA 
HETATM   20  C   UNL     1      -9.756  10.528  66.202  1.00  0.00    -0.259 C  
HETATM   21  H   UNL     1     -10.387   8.151  65.275  1.00  0.00     0.000 HD 
BRANCH  20  22
HETATM   22  C   UNL     1     -10.098  11.672  65.272  1.00  0.00    -0.305 C  
HETATM   23  C   UNL     1     -11.350  11.938  64.859  1.00  0.00    -0.337 C  
BRANCH  23  24
HETATM   24  C   UNL     1     -11.781  12.989  63.869  1.00  0.00    -0.468 C  
HETATM   25  H   UNL     1     -13.149  13.178  62.466  1.00  0.00     0.000 HD 
HETATM   26  O   UNL     1     -12.878  12.515  63.090  1.00  0.00    -0.599 OA 
BRANCH  24  27
HETATM   27  C   UNL     1     -12.216  14.300  64.535  1.00  0.00    -0.476 C  
BRANCH  27  28
HETATM   28  C   UNL     1     -11.043  15.173  64.992  1.00  0.00    -0.428 C  
BRANCH  28  29
HETATM   29  C   UNL     1     -10.841  15.085  66.484  1.00  0.00    -0.320 A  
HETATM   30  C   UNL     1      -9.586  15.363  67.043  1.00  0.00    -0.227 A  
HETATM   31  C   UNL     1      -9.382  15.240  68.418  1.00  0.00    -0.194 A  
HETATM   32  C   UNL     1     -10.429  14.839  69.244  1.00  0.00    -0.231 A  
HETATM   33  C   UNL     1     -11.682  14.565  68.698  1.00  0.00    -0.364 A  
HETATM   34  C   UNL     1     -11.888  14.687  67.324  1.00  0.00    -0.375 A  
ENDBRANCH  28  29
ENDBRANCH  27  28
ENDBRANCH  24  27
ENDBRANCH  23  24
ENDBRANCH  20  22
ENDBRANCH  12  13
ENDBRANCH  11  12
ENDBRANCH   9  10
ENDBRANCH   8   9
ENDBRANCH   7   8
ENDBRANCH   4   7
ENDBRANCH   2   3
TORSDOF 12
ENDMDL
MODEL       18
REMARK 921   NORMALIZED FREE ENERGY PREDICTED BY IDOCK:   -6.10 KCAL/MOL
REMARK 922        TOTAL FREE ENERGY PREDICTED BY IDOCK:  -13.21 KCAL/MOL
REMARK 923 INTER-LIGAND FREE ENERGY PREDICTED BY IDOCK:   -9.95 KCAL/MOL
REMARK 924 INTRA-LIGAND FREE ENERGY PREDICTED BY IDOCK:   -3.26 KCAL/MOL
REMARK 927      BINDING AFFINITY PREDICTED BY RF-SCORE:    0.00 PKD
ROOT
HETATM    1  C   UNL     1     -12.463   9.639  71.724  1.00  0.00    -0.487 C  
HETATM    2  C   UNL     1     -13.400  10.832  71.761  1.00  0.00    -0.326 C  
ENDROOT
BRANCH   2   3
HETATM    3  N   UNL     1     -12.686  12.075  71.576  1.00  0.00    -0.309 N  
HETATM    4  C   UNL     1     -13.209  13.268  72.021  1.00  0.00    -0.446 C  
HETATM    5  H   UNL     1     -11.779  12.068  71.108  1.00  0.00     0.000 HD 
HETATM    6  O   UNL     1     -14.294  13.358  72.582  1.00  0.00    -0.709 OA 
BRANCH   4   7
HETATM    7  C   UNL     1     -12.304  14.455  71.761  1.00  0.00    -0.390 C  
BRANCH   7   8
HETATM    8  C   UNL     1     -12.755  15.230  70.520  1.00  0.00    -0.440 C  
BRANCH   8   9
HETATM    9  C   UNL     1     -11.949  14.897  69.265  1.00  0.00    -0.326 C  
BRANCH   9  10
HETATM   10  C   UNL     1     -10.474  15.096  69.469  1.00  0.00    -0.268 C  
HETATM   11  C   UNL     1      -9.764  16.211  69.230  1.00  0.00    -0.242 C  
BRANCH  11  12
HETATM   12  C   UNL     1     -10.283  17.507  68.672  1.00  0.00    -0.373 C  
BRANCH  12  13
HETATM   13  C   UNL     1      -9.615  17.914  67.350  1.00  0.00    -0.271 C  
HETATM   14  C   UNL     1      -8.553  19.016  67.470  1.00  0.00    -0.286 C  
HETATM   15  C   UNL     1      -7.698  18.819  66.226  1.00  0.00    -0.295 C  
HETATM   16  O   UNL     1      -7.728  18.830  68.615  1.00  0.00    -0.311 OA 
HETATM   17  H   UNL     1      -7.070  19.512  68.689  1.00  0.00     0.000 HD 
HETATM   18  C   UNL     1      -7.553  17.302  66.132  1.00  0.00    -0.282 C  
HETATM   19  O   UNL     1      -6.436  16.874  66.914  1.00  0.00    -0.178 OA 
HETATM   20  C   UNL     1      -8.852  16.713  66.730  1.00  0.00    -0.259 C  
HETATM   21  H   UNL     1      -6.346  15.930  66.856  1.00  0.00     0.000 HD 
BRANCH  20  22
HETATM   22  C   UNL     1      -9.677  16.001  65.680  1.00  0.00    -0.273 C  
HETATM   23  C   UNL     1     -11.003  15.807  65.789  1.00  0.00    -0.216 C  
BRANCH  23  24
HETATM   24  C   UNL     1     -11.894  15.035  64.850  1.00  0.00    -0.298 C  
HETATM   25  H   UNL     1     -12.799  15.350  63.131  1.00  0.00     0.000 HD 
HETATM   26  O   UNL     1     -12.237  15.836  63.723  1.00  0.00    -0.699 OA 
BRANCH  24  27
HETATM   27  C   UNL     1     -11.244  13.748  64.327  1.00  0.00    -0.321 C  
BRANCH  27  28
HETATM   28  C   UNL     1     -11.788  12.477  64.984  1.00  0.00    -0.445 C  
BRANCH  28  29
HETATM   29  C   UNL     1     -11.067  12.171  66.273  1.00  0.00    -0.353 A  
HETATM   30  C   UNL     1     -11.772  11.672  67.376  1.00  0.00    -0.278 A  
HETATM   31  C   UNL     1     -11.118  11.431  68.584  1.00  0.00    -0.290 A  
HETATM   32  C   UNL     1      -9.753  11.686  68.700  1.00  0.00    -0.151 A  
HETATM   33  C   UNL     1      -9.041  12.179  67.606  1.00  0.00    -0.181 A  
HETATM   34  C   UNL     1      -9.694  12.422  66.398  1.00  0.00    -0.246 A  
ENDBRANCH  28  29
ENDBRANCH  27  28
ENDBRANCH  24  27
ENDBRANCH  23  24
ENDBRANCH  20  22
ENDBRANCH  12  13
ENDBRANCH  11  12
ENDBRANCH   9  10
ENDBRANCH   8   9
ENDBRANCH   7   8
ENDBRANCH   4   7
ENDBRANCH   2   3
TORSDOF 12
ENDMDL
MODEL       19
REMARK 921   NORMALIZED FREE ENERGY PREDICTED BY IDOCK:   -6.09 KCAL/MOL
REMARK 922        TOTAL FREE ENERGY PREDICTED BY IDOCK:  -13.20 KCAL/MOL
REMARK 923 INTER-LIGAND FREE ENERGY PREDICTED BY IDOCK:  -11.09 KCAL/MOL
REMARK 924 INTRA-LIGAND FREE ENERGY PREDICTED BY IDOCK:   -2.11 KCAL/MOL
REMARK 927      BINDING AFFINITY PREDICTED BY RF-SCORE:    0.00 PKD
ROOT
HETATM    1  C   UNL     1     -11.374   5.559  72.533  1.00  0.00    -0.323 C  
HETATM    2  C   UNL     1     -11.424   6.235  71.176  1.00  0.00    -0.299 C  
ENDROOT
BRANCH   2   3
HETATM    3  N   UNL     1     -12.335   7.358  71.175  1.00  0.00    -0.415 N  
HETATM    4  C   UNL     1     -11.933   8.599  71.616  1.00  0.00    -0.326 C  
HETATM    5  H   UNL     1     -13.290   7.229  70.842  1.00  0.00     0.000 HD 
HETATM    6  O   UNL     1     -10.807   8.830  72.039  1.00  0.00    -0.332 OA 
BRANCH   4   7
HETATM    7  C   UNL     1     -13.017   9.653  71.513  1.00  0.00    -0.486 C  
BRANCH   7   8
HETATM    8  C   UNL     1     -12.447  10.984  71.015  1.00  0.00    -0.512 C  
BRANCH   8   9
HETATM    9  C   UNL     1     -12.062  10.969  69.537  1.00  0.00    -0.400 C  
BRANCH   9  10
HETATM   10  C   UNL     1     -10.573  10.936  69.338  1.00  0.00    -0.233 C  
HETATM   11  C   UNL     1      -9.913  10.810  68.176  1.00  0.00    -0.176 C  
BRANCH  11  12
HETATM   12  C   UNL     1     -10.516  10.640  66.809  1.00  0.00    -0.303 C  
BRANCH  12  13
HETATM   13  C   UNL     1     -10.599  11.948  66.010  1.00  0.00    -0.304 C  
HETATM   14  C   UNL     1     -10.121  11.853  64.554  1.00  0.00    -0.271 C  
HETATM   15  C   UNL     1     -10.815  13.027  63.877  1.00  0.00    -0.347 C  
HETATM   16  O   UNL     1     -10.564  10.652  63.932  1.00  0.00    -0.479 OA 
HETATM   17  H   UNL     1     -10.268  10.593  63.031  1.00  0.00     0.000 HD 
HETATM   18  C   UNL     1     -12.222  12.995  64.468  1.00  0.00    -0.416 C  
HETATM   19  O   UNL     1     -13.049  12.120  63.698  1.00  0.00    -0.787 OA 
HETATM   20  C   UNL     1     -12.071  12.429  65.898  1.00  0.00    -0.352 C  
HETATM   21  H   UNL     1     -13.925  12.100  64.066  1.00  0.00     0.000 HD 
BRANCH  20  22
HETATM   22  C   UNL     1     -12.406  13.467  66.948  1.00  0.00    -0.289 C  
HETATM   23  C   UNL     1     -11.483  14.052  67.730  1.00  0.00    -0.351 C  
BRANCH  23  24
HETATM   24  C   UNL     1     -11.722  15.021  68.859  1.00  0.00    -0.328 C  
HETATM   25  H   UNL     1     -12.673  15.027  70.583  1.00  0.00     0.000 HD 
HETATM   26  O   UNL     1     -12.522  14.415  69.871  1.00  0.00    -0.327 OA 
BRANCH  24  27
HETATM   27  C   UNL     1     -10.425  15.506  69.520  1.00  0.00    -0.263 C  
BRANCH  27  28
HETATM   28  C   UNL     1      -9.386  16.025  68.521  1.00  0.00    -0.213 C  
BRANCH  28  29
HETATM   29  C   UNL     1      -9.723  17.419  68.052  1.00  0.00    -0.281 A  
HETATM   30  C   UNL     1     -10.017  17.657  66.704  1.00  0.00    -0.328 A  
HETATM   31  C   UNL     1     -10.285  18.951  66.257  1.00  0.00    -0.491 A  
HETATM   32  C   UNL     1     -10.261  20.017  67.154  1.00  0.00    -0.580 A  
HETATM   33  C   UNL     1      -9.973  19.789  68.498  1.00  0.00    -0.538 A  
HETATM   34  C   UNL     1      -9.704  18.496  68.947  1.00  0.00    -0.342 A  
ENDBRANCH  28  29
ENDBRANCH  27  28
ENDBRANCH  24  27
ENDBRANCH  23  24
ENDBRANCH  20  22
ENDBRANCH  12  13
ENDBRANCH  11  12
ENDBRANCH   9  10
ENDBRANCH   8   9
ENDBRANCH   7   8
ENDBRANCH   4   7
ENDBRANCH   2   3
TORSDOF 12
ENDMDL
MODEL       20
REMARK 921   NORMALIZED FREE ENERGY PREDICTED BY IDOCK:   -6.08 KCAL/MOL
REMARK 922        TOTAL FREE ENERGY PREDICTED BY IDOCK:  -13.18 KCAL/MOL
REMARK 923 INTER-LIGAND FREE ENERGY PREDICTED BY IDOCK:   -9.88 KCAL/MOL
REMARK 924 INTRA-LIGAND FREE ENERGY PREDICTED BY IDOCK:   -3.30 KCAL/MOL
REMARK 927      BINDING AFFINITY PREDICTED BY RF-SCORE:    0.00 PKD
ROOT
HETATM    1  C   UNL     1     -10.040  10.542  64.340  1.00  0.00    -0.395 C  
HETATM    2  C   UNL     1     -10.325  11.854  63.633  1.00  0.00    -0.441 C  
ENDROOT
BRANCH   2   3
HETATM    3  N   UNL     1     -10.942  12.813  64.520  1.00  0.00    -0.321 N  
HETATM    4  C   UNL     1     -12.312  12.902  64.627  1.00  0.00    -0.439 C  
HETATM    5  H   UNL     1     -10.354  13.435  65.075  1.00  0.00     0.000 HD 
HETATM    6  O   UNL     1     -13.084  12.199  63.987  1.00  0.00    -0.723 OA 
BRANCH   4   7
HETATM    7  C   UNL     1     -12.770  13.947  65.626  1.00  0.00    -0.534 C  
BRANCH   7   8
HETATM    8  C   UNL     1     -11.824  14.011  66.828  1.00  0.00    -0.450 C  
BRANCH   8   9
HETATM    9  C   UNL     1     -11.971  12.830  67.786  1.00  0.00    -0.316 C  
BRANCH   9  10
HETATM   10  C   UNL     1     -11.850  13.247  69.224  1.00  0.00    -0.383 C  
HETATM   11  C   UNL     1     -12.115  12.503  70.310  1.00  0.00    -0.373 C  
BRANCH  11  12
HETATM   12  C   UNL     1     -12.625  11.089  70.332  1.00  0.00    -0.349 C  
BRANCH  12  13
HETATM   13  C   UNL     1     -11.591  10.074  70.840  1.00  0.00    -0.463 C  
HETATM   14  C   UNL     1     -12.166   8.921  71.676  1.00  0.00    -0.343 C  
HETATM   15  C   UNL     1     -11.109   7.833  71.551  1.00  0.00    -0.270 C  
HETATM   16  O   UNL     1     -13.383   8.429  71.126  1.00  0.00    -0.523 OA 
HETATM   17  H   UNL     1     -13.739   7.716  71.643  1.00  0.00     0.000 HD 
HETATM   18  C   UNL     1     -10.711   7.893  70.079  1.00  0.00    -0.244 C  
HETATM   19  O   UNL     1     -11.587   7.069  69.307  1.00  0.00    -0.534 OA 
HETATM   20  C   UNL     1     -10.886   9.368  69.650  1.00  0.00    -0.245 C  
HETATM   21  H   UNL     1     -11.339   7.107  68.390  1.00  0.00     0.000 HD 
BRANCH  20  22
HETATM   22  C   UNL     1      -9.559  10.014  69.316  1.00  0.00    -0.227 C  
HETATM   23  C   UNL     1      -9.356  10.758  68.215  1.00  0.00    -0.161 C  
BRANCH  23  24
HETATM   24  C   UNL     1      -8.058  11.364  67.747  1.00  0.00    -0.121 C  
HETATM   25  H   UNL     1      -6.587  10.874  66.534  1.00  0.00     0.000 HD 
HETATM   26  O   UNL     1      -7.406  10.491  66.828  1.00  0.00    -0.104 OA 
BRANCH  24  27
HETATM   27  C   UNL     1      -8.243  12.718  67.051  1.00  0.00    -0.099 C  
BRANCH  27  28
HETATM   28  C   UNL     1      -7.700  13.901  67.857  1.00  0.00    -0.161 C  
BRANCH  28  29
HETATM   29  C   UNL     1      -8.573  15.121  67.702  1.00  0.00    -0.180 A  
HETATM   30  C   UNL     1      -8.727  15.723  66.446  1.00  0.00    -0.372 A  
HETATM   31  C   UNL     1      -9.498  16.878  66.305  1.00  0.00    -0.298 A  
HETATM   32  C   UNL     1     -10.121  17.439  67.418  1.00  0.00    -0.321 A  
HETATM   33  C   UNL     1      -9.977  16.845  68.670  1.00  0.00    -0.279 A  
HETATM   34  C   UNL     1      -9.207  15.691  68.813  1.00  0.00    -0.211 A  
ENDBRANCH  28  29
ENDBRANCH  27  28
ENDBRANCH  24  27
ENDBRANCH  23  24
ENDBRANCH  20  22
ENDBRANCH  12  13
ENDBRANCH  11  12
ENDBRANCH   9  10
ENDBRANCH   8   9
ENDBRANCH   7   8
ENDBRANCH   4   7
ENDBRANCH   2   3
TORSDOF 12
ENDMDL
MODEL       21
REMARK 921   NORMALIZED FREE ENERGY PREDICTED BY IDOCK:   -6.06 KCAL/MOL
REMARK 922        TOTAL FREE ENERGY PREDICTED BY IDOCK:  -13.14 KCAL/MOL
REMARK 923 INTER-LIGAND FREE ENERGY PREDICTED BY IDOCK:  -10.70 KCAL/MOL
REMARK 924 INTRA-LIGAND FREE ENERGY PREDICTED BY IDOCK:   -2.44 KCAL/MOL
REMARK 927      BINDING AFFINITY PREDICTED BY RF-SCORE:    0.00 PKD
ROOT
HETATM    1  C   UNL     1     -10.188  19.939  65.832  1.00  0.00    -0.552 C  
HETATM    2  C   UNL     1     -10.875  19.794  67.177  1.00  0.00    -0.343 C  
ENDROOT
BRANCH   2   3
HETATM    3  N   UNL     1     -10.623  18.498  67.765  1.00  0.00    -0.406 N  
HETATM    4  C   UNL     1      -9.516  18.279  68.554  1.00  0.00    -0.331 C  
HETATM    5  H   UNL     1     -11.276  17.733  67.593  1.00  0.00     0.000 HD 
HETATM    6  O   UNL     1      -8.683  19.142  68.798  1.00  0.00    -0.354 OA 
BRANCH   4   7
HETATM    7  C   UNL     1      -9.439  16.867  69.102  1.00  0.00    -0.135 C  
BRANCH   7   8
HETATM    8  C   UNL     1     -10.799  16.408  69.635  1.00  0.00    -0.346 C  
BRANCH   8   9
HETATM    9  C   UNL     1     -10.945  14.889  69.710  1.00  0.00    -0.280 C  
BRANCH   9  10
HETATM   10  C   UNL     1     -10.091  14.186  68.694  1.00  0.00    -0.229 C  
HETATM   11  C   UNL     1     -10.461  13.767  67.473  1.00  0.00    -0.245 C  
BRANCH  11  12
HETATM   12  C   UNL     1     -11.828  13.878  66.857  1.00  0.00    -0.453 C  
BRANCH  12  13
HETATM   13  C   UNL     1     -12.095  12.829  65.769  1.00  0.00    -0.505 C  
HETATM   14  C   UNL     1     -12.347  13.398  64.365  1.00  0.00    -0.341 C  
HETATM   15  C   UNL     1     -12.012  12.231  63.446  1.00  0.00    -0.588 C  
HETATM   16  O   UNL     1     -11.463  14.473  64.065  1.00  0.00    -0.617 OA 
HETATM   17  H   UNL     1     -11.619  14.825  63.197  1.00  0.00     0.000 HD 
HETATM   18  C   UNL     1     -10.750  11.641  64.069  1.00  0.00    -0.384 C  
HETATM   19  O   UNL     1      -9.598  12.316  63.560  1.00  0.00    -0.650 OA 
HETATM   20  C   UNL     1     -10.865  11.900  65.589  1.00  0.00    -0.333 C  
HETATM   21  H   UNL     1      -8.813  11.948  63.949  1.00  0.00     0.000 HD 
BRANCH  20  22
HETATM   22  C   UNL     1     -11.014  10.610  66.366  1.00  0.00    -0.056 C  
HETATM   23  C   UNL     1      -9.971   9.844  66.732  1.00  0.00    -0.272 C  
BRANCH  23  24
HETATM   24  C   UNL     1     -10.018   8.505  67.422  1.00  0.00    -0.214 C  
HETATM   25  H   UNL     1      -9.423   6.666  67.051  1.00  0.00     0.000 HD 
HETATM   26  O   UNL     1      -9.393   7.510  66.615  1.00  0.00    -0.159 OA 
BRANCH  24  27
HETATM   27  C   UNL     1      -9.315   8.507  68.786  1.00  0.00    -0.143 C  
BRANCH  27  28
HETATM   28  C   UNL     1      -9.414   9.845  69.523  1.00  0.00    -0.239 C  
BRANCH  28  29
HETATM   29  C   UNL     1     -10.707   9.956  70.292  1.00  0.00    -0.367 A  
HETATM   30  C   UNL     1     -11.131   8.904  71.115  1.00  0.00    -0.354 A  
HETATM   31  C   UNL     1     -12.348   8.983  71.793  1.00  0.00    -0.438 A  
HETATM   32  C   UNL     1     -13.150  10.113  71.654  1.00  0.00    -0.550 A  
HETATM   33  C   UNL     1     -12.735  11.167  70.842  1.00  0.00    -0.438 A  
HETATM   34  C   UNL     1     -11.519  11.090  70.162  1.00  0.00    -0.383 A  
ENDBRANCH  28  29
ENDBRANCH  27  28
ENDBRANCH  24  27
ENDBRANCH  23  24
ENDBRANCH  20  22
ENDBRANCH  12  13
ENDBRANCH  11  12
ENDBRANCH   9  10
ENDBRANCH   8   9
ENDBRANCH   7   8
ENDBRANCH   4   7
ENDBRANCH   2   3
TORSDOF 12
ENDMDL
MODEL       22
REMARK 921   NORMALIZED FREE ENERGY PREDICTED BY IDOCK:   -6.04 KCAL/MOL
REMARK 922        TOTAL FREE ENERGY PREDICTED BY IDOCK:  -13.12 KCAL/MOL
REMARK 923 INTER-LIGAND FREE ENERGY PREDICTED BY IDOCK:  -10.79 KCAL/MOL
REMARK 924 INTRA-LIGAND FREE ENERGY PREDICTED BY IDOCK:   -2.33 KCAL/MOL
REMARK 927      BINDING AFFINITY PREDICTED BY RF-SCORE:    0.00 PKD
ROOT
HETATM    1  C   UNL     1     -10.944   6.189  68.751  1.00  0.00    -0.421 C  
HETATM    2  C   UNL     1     -10.971   6.559  67.280  1.00  0.00    -0.400 C  
ENDROOT
BRANCH   2   3
HETATM    3  N   UNL     1     -10.596   7.940  67.072  1.00  0.00    -0.384 N  
HETATM    4  C   UNL     1      -9.321   8.278  66.677  1.00  0.00    -0.192 C  
HETATM    5  H   UNL     1     -11.287   8.675  67.221  1.00  0.00     0.000 HD 
HETATM    6  O   UNL     1      -8.435   7.455  66.489  1.00  0.00    -0.117 OA 
BRANCH   4   7
HETATM    7  C   UNL     1      -9.128   9.769  66.485  1.00  0.00    -0.182 C  
BRANCH   7   8
HETATM    8  C   UNL     1     -10.209  10.352  65.571  1.00  0.00    -0.316 C  
BRANCH   8   9
HETATM    9  C   UNL     1     -10.876  11.606  66.135  1.00  0.00    -0.343 C  
BRANCH   9  10
HETATM   10  C   UNL     1     -11.681  12.335  65.097  1.00  0.00    -0.414 C  
HETATM   11  C   UNL     1     -12.268  13.537  65.222  1.00  0.00    -0.474 C  
BRANCH  11  12
HETATM   12  C   UNL     1     -12.280  14.412  66.445  1.00  0.00    -0.363 C  
BRANCH  12  13
HETATM   13  C   UNL     1     -10.893  14.950  66.825  1.00  0.00    -0.320 C  
HETATM   14  C   UNL     1     -10.094  15.564  65.666  1.00  0.00    -0.376 C  
HETATM   15  C   UNL     1      -9.103  16.482  66.368  1.00  0.00    -0.332 C  
HETATM   16  O   UNL     1     -10.918  16.358  64.820  1.00  0.00    -0.664 OA 
HETATM   17  H   UNL     1     -10.424  16.738  64.103  1.00  0.00     0.000 HD 
HETATM   18  C   UNL     1      -9.943  17.142  67.459  1.00  0.00    -0.279 C  
HETATM   19  O   UNL     1     -10.584  18.307  66.936  1.00  0.00    -0.379 OA 
HETATM   20  C   UNL     1     -11.016  16.103  67.857  1.00  0.00    -0.318 C  
HETATM   21  H   UNL     1     -11.107  18.718  67.615  1.00  0.00     0.000 HD 
BRANCH  20  22
HETATM   22  C   UNL     1     -10.819  15.613  69.276  1.00  0.00    -0.250 C  
HETATM   23  C   UNL     1     -11.748  15.749  70.238  1.00  0.00    -0.373 C  
BRANCH  23  24
HETATM   24  C   UNL     1     -11.616  15.381  71.694  1.00  0.00    -0.423 C  
HETATM   25  H   UNL     1     -11.748  16.294  73.433  1.00  0.00     0.000 HD 
HETATM   26  O   UNL     1     -11.831  16.526  72.516  1.00  0.00    -0.534 OA 
BRANCH  24  27
HETATM   27  C   UNL     1     -12.611  14.299  72.134  1.00  0.00    -0.352 C  
BRANCH  27  28
HETATM   28  C   UNL     1     -13.257  13.551  70.964  1.00  0.00    -0.146 C  
BRANCH  28  29
HETATM   29  C   UNL     1     -12.634  12.191  70.770  1.00  0.00    -0.305 A  
HETATM   30  C   UNL     1     -12.955  11.137  71.636  1.00  0.00    -0.548 A  
HETATM   31  C   UNL     1     -12.348   9.890  71.488  1.00  0.00    -0.504 A  
HETATM   32  C   UNL     1     -11.414   9.686  70.474  1.00  0.00    -0.352 A  
HETATM   33  C   UNL     1     -11.091  10.727  69.605  1.00  0.00    -0.339 A  
HETATM   34  C   UNL     1     -11.697  11.974  69.752  1.00  0.00    -0.390 A  
ENDBRANCH  28  29
ENDBRANCH  27  28
ENDBRANCH  24  27
ENDBRANCH  23  24
ENDBRANCH  20  22
ENDBRANCH  12  13
ENDBRANCH  11  12
ENDBRANCH   9  10
ENDBRANCH   8   9
ENDBRANCH   7   8
ENDBRANCH   4   7
ENDBRANCH   2   3
TORSDOF 12
ENDMDL
MODEL       23
REMARK 921   NORMALIZED FREE ENERGY PREDICTED BY IDOCK:   -6.04 KCAL/MOL
REMARK 922        TOTAL FREE ENERGY PREDICTED BY IDOCK:  -13.11 KCAL/MOL
REMARK 923 INTER-LIGAND FREE ENERGY PREDICTED BY IDOCK:  -10.98 KCAL/MOL
REMARK 924 INTRA-LIGAND FREE ENERGY PREDICTED BY IDOCK:   -2.13 KCAL/MOL
REMARK 927      BINDING AFFINITY PREDICTED BY RF-SCORE:    0.00 PKD
ROOT
HETATM    1  C   UNL     1      -8.843   4.580  64.046  1.00  0.00    -0.144 C  
HETATM    2  C   UNL     1      -9.965   4.106  64.952  1.00  0.00    -0.199 C  
ENDROOT
BRANCH   2   3
HETATM    3  N   UNL     1     -10.530   5.197  65.714  1.00  0.00    -0.477 N  
HETATM    4  C   UNL     1     -10.310   5.306  67.069  1.00  0.00    -0.236 C  
HETATM    5  H   UNL     1     -11.100   5.897  65.241  1.00  0.00     0.000 HD 
HETATM    6  O   UNL     1      -9.646   4.500  67.709  1.00  0.00    -0.150 OA 
BRANCH   4   7
HETATM    7  C   UNL     1     -10.960   6.528  67.687  1.00  0.00    -0.426 C  
BRANCH   7   8
HETATM    8  C   UNL     1     -10.081   7.768  67.510  1.00  0.00    -0.272 C  
BRANCH   8   9
HETATM    9  C   UNL     1      -8.913   7.836  68.494  1.00  0.00    -0.133 C  
BRANCH   9  10
HETATM   10  C   UNL     1      -8.796   9.185  69.143  1.00  0.00    -0.146 C  
HETATM   11  C   UNL     1      -9.288   9.558  70.335  1.00  0.00    -0.311 C  
BRANCH  11  12
HETATM   12  C   UNL     1     -10.099   8.715  71.280  1.00  0.00    -0.312 C  
BRANCH  12  13
HETATM   13  C   UNL     1     -11.555   8.524  70.831  1.00  0.00    -0.295 C  
HETATM   14  C   UNL     1     -12.200   7.197  71.261  1.00  0.00    -0.365 C  
HETATM   15  C   UNL     1     -13.691   7.498  71.215  1.00  0.00    -0.344 C  
HETATM   16  O   UNL     1     -11.853   6.852  72.598  1.00  0.00    -0.479 OA 
HETATM   17  H   UNL     1     -12.252   6.032  72.863  1.00  0.00     0.000 HD 
HETATM   18  C   UNL     1     -13.789   8.896  71.821  1.00  0.00    -0.417 C  
HETATM   19  O   UNL     1     -13.898   8.799  73.243  1.00  0.00    -1.115 OA 
HETATM   20  C   UNL     1     -12.469   9.612  71.456  1.00  0.00    -0.476 C  
HETATM   21  H   UNL     1     -13.959   9.670  73.619  1.00  0.00     0.000 HD 
BRANCH  20  22
HETATM   22  C   UNL     1     -12.704  10.766  70.505  1.00  0.00    -0.388 C  
HETATM   23  C   UNL     1     -11.913  11.852  70.453  1.00  0.00    -0.400 C  
BRANCH  23  24
HETATM   24  C   UNL     1     -12.111  13.088  69.613  1.00  0.00    -0.241 C  
HETATM   25  H   UNL     1     -11.900  15.033  69.831  1.00  0.00     0.000 HD 
HETATM   26  O   UNL     1     -11.775  14.254  70.360  1.00  0.00    -0.286 OA 
BRANCH  24  27
HETATM   27  C   UNL     1     -11.259  13.091  68.338  1.00  0.00    -0.304 C  
BRANCH  27  28
HETATM   28  C   UNL     1     -12.012  13.585  67.099  1.00  0.00    -0.426 C  
BRANCH  28  29
HETATM   29  C   UNL     1     -11.594  12.829  65.863  1.00  0.00    -0.428 A  
HETATM   30  C   UNL     1     -12.168  13.133  64.622  1.00  0.00    -0.471 A  
HETATM   31  C   UNL     1     -11.817  12.407  63.483  1.00  0.00    -0.605 A  
HETATM   32  C   UNL     1     -10.890  11.371  63.576  1.00  0.00    -0.430 A  
HETATM   33  C   UNL     1     -10.310  11.063  64.806  1.00  0.00    -0.389 A  
HETATM   34  C   UNL     1     -10.660  11.788  65.945  1.00  0.00    -0.314 A  
ENDBRANCH  28  29
ENDBRANCH  27  28
ENDBRANCH  24  27
ENDBRANCH  23  24
ENDBRANCH  20  22
ENDBRANCH  12  13
ENDBRANCH  11  12
ENDBRANCH   9  10
ENDBRANCH   8   9
ENDBRANCH   7   8
ENDBRANCH   4   7
ENDBRANCH   2   3
TORSDOF 12
ENDMDL
MODEL       24
REMARK 921   NORMALIZED FREE ENERGY PREDICTED BY IDOCK:   -6.03 KCAL/MOL
REMARK 922        TOTAL FREE ENERGY PREDICTED BY IDOCK:  -13.10 KCAL/MOL
REMARK 923 INTER-LIGAND FREE ENERGY PREDICTED BY IDOCK:   -9.57 KCAL/MOL
REMARK 924 INTRA-LIGAND FREE ENERGY PREDICTED BY IDOCK:   -3.53 KCAL/MOL
REMARK 927      BINDING AFFINITY PREDICTED BY RF-SCORE:    0.00 PKD
ROOT
HETATM    1  C   UNL     1     -10.993   6.479  67.750  1.00  0.00    -0.407 C  
HETATM    2  C   UNL     1     -11.302   6.229  69.214  1.00  0.00    -0.341 C  
ENDROOT
BRANCH   2   3
HETATM    3  N   UNL     1     -11.192   7.440  69.996  1.00  0.00    -0.406 N  
HETATM    4  C   UNL     1     -11.802   7.550  71.225  1.00  0.00    -0.294 C  
HETATM    5  H   UNL     1     -10.654   8.226  69.631  1.00  0.00     0.000 HD 
HETATM    6  O   UNL     1     -12.473   6.656  71.725  1.00  0.00    -0.352 OA 
BRANCH   4   7
HETATM    7  C   UNL     1     -11.550   8.882  71.903  1.00  0.00    -0.442 C  
BRANCH   7   8
HETATM    8  C   UNL     1     -12.530   9.948  71.405  1.00  0.00    -0.495 C  
BRANCH   8   9
HETATM    9  C   UNL     1     -11.881  11.007  70.515  1.00  0.00    -0.464 C  
BRANCH   9  10
HETATM   10  C   UNL     1     -11.998  10.671  69.056  1.00  0.00    -0.186 C  
HETATM   11  C   UNL     1     -11.003  10.595  68.158  1.00  0.00    -0.321 C  
BRANCH  11  12
HETATM   12  C   UNL     1      -9.544  10.863  68.404  1.00  0.00    -0.177 C  
BRANCH  12  13
HETATM   13  C   UNL     1      -8.676  10.718  67.146  1.00  0.00    -0.131 C  
HETATM   14  C   UNL     1      -7.544   9.685  67.252  1.00  0.00    -0.091 C  
HETATM   15  C   UNL     1      -7.247   9.336  65.800  1.00  0.00    -0.090 C  
HETATM   16  O   UNL     1      -7.971   8.502  67.919  1.00  0.00    -0.106 OA 
HETATM   17  H   UNL     1      -7.272   7.863  67.985  1.00  0.00     0.000 HD 
HETATM   18  C   UNL     1      -8.633   9.234  65.170  1.00  0.00    -0.172 C  
HETATM   19  O   UNL     1      -9.143   7.909  65.337  1.00  0.00    -0.394 OA 
HETATM   20  C   UNL     1      -9.528  10.228  65.944  1.00  0.00    -0.241 C  
HETATM   21  H   UNL     1     -10.006   7.846  64.945  1.00  0.00     0.000 HD 
BRANCH  20  22
HETATM   22  C   UNL     1      -9.977  11.376  65.066  1.00  0.00    -0.312 C  
HETATM   23  C   UNL     1     -11.231  11.500  64.598  1.00  0.00    -0.276 C  
BRANCH  23  24
HETATM   24  C   UNL     1     -11.753  12.547  63.648  1.00  0.00    -0.515 C  
HETATM   25  H   UNL     1     -13.403  12.880  62.627  1.00  0.00     0.000 HD 
HETATM   26  O   UNL     1     -13.074  12.219  63.226  1.00  0.00    -0.668 OA 
BRANCH  24  27
HETATM   27  C   UNL     1     -11.797  13.951  64.266  1.00  0.00    -0.441 C  
BRANCH  27  28
HETATM   28  C   UNL     1     -12.576  14.015  65.583  1.00  0.00    -0.542 C  
BRANCH  28  29
HETATM   29  C   UNL     1     -11.651  14.187  66.762  1.00  0.00    -0.409 A  
HETATM   30  C   UNL     1     -12.151  14.110  68.069  1.00  0.00    -0.303 A  
HETATM   31  C   UNL     1     -11.308  14.312  69.162  1.00  0.00    -0.312 A  
HETATM   32  C   UNL     1      -9.959  14.594  68.958  1.00  0.00    -0.195 A  
HETATM   33  C   UNL     1      -9.452  14.668  67.662  1.00  0.00    -0.205 A  
HETATM   34  C   UNL     1     -10.293  14.467  66.568  1.00  0.00    -0.281 A  
ENDBRANCH  28  29
ENDBRANCH  27  28
ENDBRANCH  24  27
ENDBRANCH  23  24
ENDBRANCH  20  22
ENDBRANCH  12  13
ENDBRANCH  11  12
ENDBRANCH   9  10
ENDBRANCH   8   9
ENDBRANCH   7   8
ENDBRANCH   4   7
ENDBRANCH   2   3
TORSDOF 12
ENDMDL
MODEL       25
REMARK 921   NORMALIZED FREE ENERGY PREDICTED BY IDOCK:   -6.01 KCAL/MOL
REMARK 922        TOTAL FREE ENERGY PREDICTED BY IDOCK:  -13.07 KCAL/MOL
REMARK 923 INTER-LIGAND FREE ENERGY PREDICTED BY IDOCK:  -11.01 KCAL/MOL
REMARK 924 INTRA-LIGAND FREE ENERGY PREDICTED BY IDOCK:   -2.05 KCAL/MOL
REMARK 927      BINDING AFFINITY PREDICTED BY RF-SCORE:    0.00 PKD
ROOT
HETATM    1  C   UNL     1      -9.911  19.658  68.042  1.00  0.00    -0.524 C  
HETATM    2  C   UNL     1     -10.723  19.015  66.934  1.00  0.00    -0.399 C  
ENDROOT
BRANCH   2   3
HETATM    3  N   UNL     1     -10.449  17.599  66.826  1.00  0.00    -0.320 N  
HETATM    4  C   UNL     1     -10.665  16.922  65.647  1.00  0.00    -0.167 C  
HETATM    5  H   UNL     1     -10.091  17.094  67.637  1.00  0.00     0.000 HD 
HETATM    6  O   UNL     1     -11.103  17.455  64.636  1.00  0.00    -1.029 OA 
BRANCH   4   7
HETATM    7  C   UNL     1     -10.294  15.454  65.722  1.00  0.00    -0.381 C  
BRANCH   7   8
HETATM    8  C   UNL     1     -11.540  14.578  65.874  1.00  0.00    -0.349 C  
BRANCH   8   9
HETATM    9  C   UNL     1     -12.294  14.355  64.563  1.00  0.00    -0.440 C  
BRANCH   9  10
HETATM   10  C   UNL     1     -12.878  12.974  64.473  1.00  0.00    -0.225 C  
HETATM   11  C   UNL     1     -12.240  11.843  64.131  1.00  0.00    -0.382 C  
BRANCH  11  12
HETATM   12  C   UNL     1     -10.797  11.709  63.726  1.00  0.00    -0.493 C  
BRANCH  12  13
HETATM   13  C   UNL     1     -10.058  10.585  64.466  1.00  0.00    -0.402 C  
HETATM   14  C   UNL     1      -8.871   9.977  63.704  1.00  0.00    -0.232 C  
HETATM   15  C   UNL     1      -8.021   9.362  64.808  1.00  0.00    -0.122 C  
HETATM   16  O   UNL     1      -8.099  10.976  63.048  1.00  0.00    -0.380 OA 
HETATM   17  H   UNL     1      -7.364  10.600  62.577  1.00  0.00     0.000 HD 
HETATM   18  C   UNL     1      -8.062  10.415  65.913  1.00  0.00    -0.149 C  
HETATM   19  O   UNL     1      -7.022  11.373  65.707  1.00  0.00    -0.353 OA 
HETATM   20  C   UNL     1      -9.435  11.114  65.785  1.00  0.00    -0.248 C  
HETATM   21  H   UNL     1      -7.048  12.028  66.395  1.00  0.00     0.000 HD 
BRANCH  20  22
HETATM   22  C   UNL     1     -10.319  10.830  66.981  1.00  0.00    -0.275 C  
HETATM   23  C   UNL     1     -10.136   9.783  67.803  1.00  0.00    -0.223 C  
BRANCH  23  24
HETATM   24  C   UNL     1     -11.009   9.363  68.958  1.00  0.00    -0.067 C  
HETATM   25  H   UNL     1     -11.186   7.802  70.144  1.00  0.00     0.000 HD 
HETATM   26  O   UNL     1     -10.635   8.067  69.416  1.00  0.00    -0.229 OA 
BRANCH  24  27
HETATM   27  C   UNL     1     -10.925  10.321  70.153  1.00  0.00    -0.377 C  
BRANCH  27  28
HETATM   28  C   UNL     1     -12.268  10.545  70.853  1.00  0.00    -0.490 C  
BRANCH  28  29
HETATM   29  C   UNL     1     -12.569  12.015  71.011  1.00  0.00    -0.370 A  
HETATM   30  C   UNL     1     -12.026  12.946  70.115  1.00  0.00    -0.373 A  
HETATM   31  C   UNL     1     -12.265  14.310  70.282  1.00  0.00    -0.407 A  
HETATM   32  C   UNL     1     -13.046  14.755  71.346  1.00  0.00    -0.424 A  
HETATM   33  C   UNL     1     -13.593  13.836  72.240  1.00  0.00    -0.656 A  
HETATM   34  C   UNL     1     -13.356  12.472  72.075  1.00  0.00    -0.528 A  
ENDBRANCH  28  29
ENDBRANCH  27  28
ENDBRANCH  24  27
ENDBRANCH  23  24
ENDBRANCH  20  22
ENDBRANCH  12  13
ENDBRANCH  11  12
ENDBRANCH   9  10
ENDBRANCH   8   9
ENDBRANCH   7   8
ENDBRANCH   4   7
ENDBRANCH   2   3
TORSDOF 12
ENDMDL
MODEL       26
REMARK 921   NORMALIZED FREE ENERGY PREDICTED BY IDOCK:   -6.00 KCAL/MOL
REMARK 922        TOTAL FREE ENERGY PREDICTED BY IDOCK:  -13.04 KCAL/MOL
REMARK 923 INTER-LIGAND FREE ENERGY PREDICTED BY IDOCK:  -11.34 KCAL/MOL
REMARK 924 INTRA-LIGAND FREE ENERGY PREDICTED BY IDOCK:   -1.70 KCAL/MOL
REMARK 927      BINDING AFFINITY PREDICTED BY RF-SCORE:    0.00 PKD
ROOT
HETATM    1  C   UNL     1     -10.206   7.678  67.907  1.00  0.00    -0.250 C  
HETATM    2  C   UNL     1     -10.709   6.323  68.369  1.00  0.00    -0.290 C  
ENDROOT
BRANCH   2   3
HETATM    3  N   UNL     1     -11.514   6.434  69.565  1.00  0.00    -0.586 N  
HETATM    4  C   UNL     1     -10.942   6.360  70.815  1.00  0.00    -0.290 C  
HETATM    5  H   UNL     1     -12.521   6.569  69.481  1.00  0.00     0.000 HD 
HETATM    6  O   UNL     1      -9.743   6.190  70.997  1.00  0.00    -0.174 OA 
BRANCH   4   7
HETATM    7  C   UNL     1     -11.941   6.525  71.943  1.00  0.00    -0.389 C  
BRANCH   7   8
HETATM    8  C   UNL     1     -12.703   7.846  71.816  1.00  0.00    -0.353 C  
BRANCH   8   9
HETATM    9  C   UNL     1     -11.814   9.081  71.957  1.00  0.00    -0.426 C  
BRANCH   9  10
HETATM   10  C   UNL     1     -11.775   9.900  70.698  1.00  0.00    -0.404 C  
HETATM   11  C   UNL     1     -12.229  11.152  70.531  1.00  0.00    -0.475 C  
BRANCH  11  12
HETATM   12  C   UNL     1     -12.912  12.010  71.561  1.00  0.00    -0.407 C  
BRANCH  12  13
HETATM   13  C   UNL     1     -13.357  13.376  71.020  1.00  0.00    -0.009 C  
HETATM   14  C   UNL     1     -14.020  14.299  72.053  1.00  0.00    -0.504 C  
HETATM   15  C   UNL     1     -13.831  15.688  71.458  1.00  0.00    -0.396 C  
HETATM   16  O   UNL     1     -13.348  14.255  73.307  1.00  0.00    -0.596 OA 
HETATM   17  H   UNL     1     -13.758  14.826  73.946  1.00  0.00     0.000 HD 
HETATM   18  C   UNL     1     -12.401  15.653  70.925  1.00  0.00    -0.429 C  
HETATM   19  O   UNL     1     -11.490  16.023  71.963  1.00  0.00    -0.395 OA 
HETATM   20  C   UNL     1     -12.136  14.188  70.510  1.00  0.00    -0.420 C  
HETATM   21  H   UNL     1     -10.600  16.001  71.631  1.00  0.00     0.000 HD 
BRANCH  20  22
HETATM   22  C   UNL     1     -11.956  14.055  69.013  1.00  0.00    -0.392 C  
HETATM   23  C   UNL     1     -10.755  13.942  68.421  1.00  0.00    -0.267 C  
BRANCH  23  24
HETATM   24  C   UNL     1     -10.464  13.898  66.943  1.00  0.00    -0.276 C  
HETATM   25  H   UNL     1     -11.495  13.786  65.270  1.00  0.00     0.000 HD 
HETATM   26  O   UNL     1     -11.678  13.814  66.202  1.00  0.00    -0.339 OA 
BRANCH  24  27
HETATM   27  C   UNL     1      -9.699  15.131  66.444  1.00  0.00    -0.300 C  
BRANCH  27  28
HETATM   28  C   UNL     1     -10.610  16.259  65.953  1.00  0.00    -0.307 C  
BRANCH  28  29
HETATM   29  C   UNL     1     -10.348  17.543  66.700  1.00  0.00    -0.319 A  
HETATM   30  C   UNL     1      -9.958  17.509  68.045  1.00  0.00    -0.310 A  
HETATM   31  C   UNL     1      -9.757  18.695  68.753  1.00  0.00    -0.407 A  
HETATM   32  C   UNL     1      -9.945  19.923  68.122  1.00  0.00    -0.551 A  
HETATM   33  C   UNL     1     -10.329  19.966  66.783  1.00  0.00    -0.599 A  
HETATM   34  C   UNL     1     -10.531  18.783  66.074  1.00  0.00    -0.483 A  
ENDBRANCH  28  29
ENDBRANCH  27  28
ENDBRANCH  24  27
ENDBRANCH  23  24
ENDBRANCH  20  22
ENDBRANCH  12  13
ENDBRANCH  11  12
ENDBRANCH   9  10
ENDBRANCH   8   9
ENDBRANCH   7   8
ENDBRANCH   4   7
ENDBRANCH   2   3
TORSDOF 12
ENDMDL
MODEL       27
REMARK 921   NORMALIZED FREE ENERGY PREDICTED BY IDOCK:   -5.98 KCAL/MOL
REMARK 922        TOTAL FREE ENERGY PREDICTED BY IDOCK:  -13.02 KCAL/MOL
REMARK 923 INTER-LIGAND FREE ENERGY PREDICTED BY IDOCK:   -9.71 KCAL/MOL
REMARK 924 INTRA-LIGAND FREE ENERGY PREDICTED BY IDOCK:   -3.31 KCAL/MOL
REMARK 927      BINDING AFFINITY PREDICTED BY RF-SCORE:    0.00 PKD
ROOT
HETATM    1  C   UNL     1     -10.667   7.930  72.670  1.00  0.00    -0.411 C  
HETATM    2  C   UNL     1     -11.976   8.454  72.110  1.00  0.00    -0.374 C  
ENDROOT
BRANCH   2   3
HETATM    3  N   UNL     1     -11.756   9.465  71.100  1.00  0.00    -0.319 N  
HETATM    4  C   UNL     1     -12.454  10.652  71.120  1.00  0.00    -0.418 C  
HETATM    5  H   UNL     1     -11.073   9.297  70.361  1.00  0.00     0.000 HD 
HETATM    6  O   UNL     1     -13.297  10.922  71.966  1.00  0.00    -0.448 OA 
BRANCH   4   7
HETATM    7  C   UNL     1     -12.067  11.594  69.998  1.00  0.00    -0.395 C  
BRANCH   7   8
HETATM    8  C   UNL     1     -10.909  11.025  69.175  1.00  0.00    -0.283 C  
BRANCH   8   9
HETATM    9  C   UNL     1     -11.292  10.682  67.736  1.00  0.00    -0.320 C  
BRANCH   9  10
HETATM   10  C   UNL     1     -10.641   9.413  67.262  1.00  0.00    -0.314 C  
HETATM   11  C   UNL     1      -9.422   9.281  66.715  1.00  0.00    -0.228 C  
BRANCH  11  12
HETATM   12  C   UNL     1      -8.443  10.383  66.419  1.00  0.00    -0.138 C  
BRANCH  12  13
HETATM   13  C   UNL     1      -7.987  10.420  64.954  1.00  0.00    -0.115 C  
HETATM   14  C   UNL     1      -6.748   9.569  64.637  1.00  0.00    -0.094 C  
HETATM   15  C   UNL     1      -6.862   9.324  63.138  1.00  0.00    -0.090 C  
HETATM   16  O   UNL     1      -6.788   8.311  65.301  1.00  0.00    -0.058 OA 
HETATM   17  H   UNL     1      -6.021   7.785  65.105  1.00  0.00     0.000 HD 
HETATM   18  C   UNL     1      -8.347   9.033  62.940  1.00  0.00    -0.202 C  
HETATM   19  O   UNL     1      -8.598   7.640  63.142  1.00  0.00    -0.372 OA 
HETATM   20  C   UNL     1      -9.090   9.849  64.022  1.00  0.00    -0.300 C  
HETATM   21  H   UNL     1      -9.522   7.459  63.019  1.00  0.00     0.000 HD 
BRANCH  20  22
HETATM   22  C   UNL     1      -9.936  10.945  63.412  1.00  0.00    -0.414 C  
HETATM   23  C   UNL     1     -10.980  11.509  64.044  1.00  0.00    -0.454 C  
BRANCH  23  24
HETATM   24  C   UNL     1     -11.937  12.535  63.492  1.00  0.00    -0.543 C  
HETATM   25  H   UNL     1     -13.880  12.708  63.231  1.00  0.00     0.000 HD 
HETATM   26  O   UNL     1     -13.278  12.060  63.579  1.00  0.00    -0.724 OA 
BRANCH  24  27
HETATM   27  C   UNL     1     -11.870  13.878  64.232  1.00  0.00    -0.441 C  
BRANCH  27  28
HETATM   28  C   UNL     1     -12.466  13.831  65.641  1.00  0.00    -0.541 C  
BRANCH  28  29
HETATM   29  C   UNL     1     -11.418  14.101  66.692  1.00  0.00    -0.378 A  
HETATM   30  C   UNL     1     -11.782  14.658  67.925  1.00  0.00    -0.379 A  
HETATM   31  C   UNL     1     -10.811  14.951  68.883  1.00  0.00    -0.253 A  
HETATM   32  C   UNL     1      -9.469  14.691  68.616  1.00  0.00    -0.211 A  
HETATM   33  C   UNL     1      -9.097  14.133  67.394  1.00  0.00    -0.199 A  
HETATM   34  C   UNL     1     -10.066  13.839  66.435  1.00  0.00    -0.297 A  
ENDBRANCH  28  29
ENDBRANCH  27  28
ENDBRANCH  24  27
ENDBRANCH  23  24
ENDBRANCH  20  22
ENDBRANCH  12  13
ENDBRANCH  11  12
ENDBRANCH   9  10
ENDBRANCH   8   9
ENDBRANCH   7   8
ENDBRANCH   4   7
ENDBRANCH   2   3
TORSDOF 12
ENDMDL
MODEL       28
REMARK 921   NORMALIZED FREE ENERGY PREDICTED BY IDOCK:   -5.97 KCAL/MOL
REMARK 922        TOTAL FREE ENERGY PREDICTED BY IDOCK:  -12.99 KCAL/MOL
REMARK 923 INTER-LIGAND FREE ENERGY PREDICTED BY IDOCK:   -9.96 KCAL/MOL
REMARK 924 INTRA-LIGAND FREE ENERGY PREDICTED BY IDOCK:   -3.03 KCAL/MOL
REMARK 927      BINDING AFFINITY PREDICTED BY RF-SCORE:    0.00 PKD
ROOT
HETATM    1  C   UNL     1     -12.467  13.989  65.790  1.00  0.00    -0.523 C  
HETATM    2  C   UNL     1     -11.262  13.422  65.062  1.00  0.00    -0.317 C  
ENDROOT
BRANCH   2   3
HETATM    3  N   UNL     1     -10.098  13.377  65.918  1.00  0.00    -0.291 N  
HETATM    4  C   UNL     1      -9.752  12.223  66.586  1.00  0.00    -0.222 C  
HETATM    5  H   UNL     1      -9.523  14.212  66.028  1.00  0.00     0.000 HD 
HETATM    6  O   UNL     1     -10.396  11.185  66.512  1.00  0.00    -0.227 OA 
BRANCH   4   7
HETATM    7  C   UNL     1      -8.487  12.364  67.410  1.00  0.00    -0.179 C  
BRANCH   7   8
HETATM    8  C   UNL     1      -8.397  13.752  68.048  1.00  0.00    -0.171 C  
BRANCH   8   9
HETATM    9  C   UNL     1      -7.284  14.622  67.465  1.00  0.00    -0.216 C  
BRANCH   9  10
HETATM   10  C   UNL     1      -6.682  15.537  68.492  1.00  0.00    -0.113 C  
HETATM   11  C   UNL     1      -6.693  16.880  68.490  1.00  0.00    -0.168 C  
BRANCH  11  12
HETATM   12  C   UNL     1      -7.285  17.775  67.436  1.00  0.00    -0.201 C  
BRANCH  12  13
HETATM   13  C   UNL     1      -8.563  18.494  67.893  1.00  0.00    -0.304 C  
HETATM   14  C   UNL     1      -8.619  19.992  67.561  1.00  0.00    -0.340 C  
HETATM   15  C   UNL     1     -10.110  20.302  67.579  1.00  0.00    -0.519 C  
HETATM   16  O   UNL     1      -8.122  20.262  66.255  1.00  0.00    -0.478 OA 
HETATM   17  H   UNL     1      -8.157  21.189  66.050  1.00  0.00     0.000 HD 
HETATM   18  C   UNL     1     -10.730  19.100  66.870  1.00  0.00    -0.424 C  
HETATM   19  O   UNL     1     -10.745  19.328  65.459  1.00  0.00    -0.489 OA 
HETATM   20  C   UNL     1      -9.810  17.899  67.185  1.00  0.00    -0.308 C  
HETATM   21  H   UNL     1     -11.130  18.580  65.018  1.00  0.00     0.000 HD 
BRANCH  20  22
HETATM   22  C   UNL     1     -10.510  16.870  68.046  1.00  0.00    -0.347 C  
HETATM   23  C   UNL     1     -10.336  16.779  69.376  1.00  0.00    -0.276 C  
BRANCH  23  24
HETATM   24  C   UNL     1     -10.911  15.740  70.304  1.00  0.00    -0.357 C  
HETATM   25  H   UNL     1     -12.133  15.697  71.847  1.00  0.00     0.000 HD 
HETATM   26  O   UNL     1     -11.771  16.352  71.262  1.00  0.00    -0.403 OA 
BRANCH  24  27
HETATM   27  C   UNL     1     -11.722  14.663  69.572  1.00  0.00    -0.366 C  
BRANCH  27  28
HETATM   28  C   UNL     1     -12.753  13.963  70.462  1.00  0.00    -0.318 C  
BRANCH  28  29
HETATM   29  C   UNL     1     -12.421  12.503  70.644  1.00  0.00    -0.323 A  
HETATM   30  C   UNL     1     -11.455  11.892  69.834  1.00  0.00    -0.264 A  
HETATM   31  C   UNL     1     -11.176  10.532  69.969  1.00  0.00    -0.386 A  
HETATM   32  C   UNL     1     -11.860   9.771  70.914  1.00  0.00    -0.420 A  
HETATM   33  C   UNL     1     -12.821  10.370  71.727  1.00  0.00    -0.561 A  
HETATM   34  C   UNL     1     -13.101  11.730  71.594  1.00  0.00    -0.443 A  
ENDBRANCH  28  29
ENDBRANCH  27  28
ENDBRANCH  24  27
ENDBRANCH  23  24
ENDBRANCH  20  22
ENDBRANCH  12  13
ENDBRANCH  11  12
ENDBRANCH   9  10
ENDBRANCH   8   9
ENDBRANCH   7   8
ENDBRANCH   4   7
ENDBRANCH   2   3
TORSDOF 12
ENDMDL
MODEL       29
REMARK 921   NORMALIZED FREE ENERGY PREDICTED BY IDOCK:   -5.97 KCAL/MOL
REMARK 922        TOTAL FREE ENERGY PREDICTED BY IDOCK:  -12.99 KCAL/MOL
REMARK 923 INTER-LIGAND FREE ENERGY PREDICTED BY IDOCK:  -10.64 KCAL/MOL
REMARK 924 INTRA-LIGAND FREE ENERGY PREDICTED BY IDOCK:   -2.35 KCAL/MOL
REMARK 927      BINDING AFFINITY PREDICTED BY RF-SCORE:    0.00 PKD
ROOT
HETATM    1  C   UNL     1     -13.818   8.737  71.849  1.00  0.00    -0.491 C  
HETATM    2  C   UNL     1     -12.845   9.901  71.878  1.00  0.00    -0.429 C  
ENDROOT
BRANCH   2   3
HETATM    3  N   UNL     1     -13.489  11.122  72.306  1.00  0.00    -0.527 N  
HETATM    4  C   UNL     1     -13.233  12.319  71.675  1.00  0.00    -0.257 C  
HETATM    5  H   UNL     1     -14.143  11.097  73.089  1.00  0.00     0.000 HD 
HETATM    6  O   UNL     1     -12.454  12.432  70.738  1.00  0.00    -0.349 OA 
BRANCH   4   7
HETATM    7  C   UNL     1     -14.022  13.480  72.249  1.00  0.00    -0.638 C  
BRANCH   7   8
HETATM    8  C   UNL     1     -13.102  14.655  72.592  1.00  0.00    -0.549 C  
BRANCH   8   9
HETATM    9  C   UNL     1     -12.873  15.614  71.424  1.00  0.00    -0.546 C  
BRANCH   9  10
HETATM   10  C   UNL     1     -11.413  15.833  71.147  1.00  0.00    -0.466 C  
HETATM   11  C   UNL     1     -10.826  15.961  69.947  1.00  0.00    -0.333 C  
BRANCH  11  12
HETATM   12  C   UNL     1     -11.494  15.881  68.602  1.00  0.00    -0.391 C  
BRANCH  12  13
HETATM   13  C   UNL     1     -10.525  16.069  67.426  1.00  0.00    -0.308 C  
HETATM   14  C   UNL     1     -10.389  17.513  66.920  1.00  0.00    -0.315 C  
HETATM   15  C   UNL     1      -9.038  17.515  66.218  1.00  0.00    -0.221 C  
HETATM   16  O   UNL     1     -10.336  18.444  67.995  1.00  0.00    -0.366 OA 
HETATM   17  H   UNL     1     -10.252  19.338  67.683  1.00  0.00     0.000 HD 
HETATM   18  C   UNL     1      -8.151  16.699  67.155  1.00  0.00    -0.182 C  
HETATM   19  O   UNL     1      -7.585  17.555  68.150  1.00  0.00    -0.206 OA 
HETATM   20  C   UNL     1      -9.082  15.670  67.835  1.00  0.00    -0.185 C  
HETATM   21  H   UNL     1      -7.033  17.047  68.734  1.00  0.00     0.000 HD 
BRANCH  20  22
HETATM   22  C   UNL     1      -8.748  14.254  67.417  1.00  0.00    -0.217 C  
HETATM   23  C   UNL     1      -9.062  13.173  68.153  1.00  0.00    -0.200 C  
BRANCH  23  24
HETATM   24  C   UNL     1      -8.696  11.738  67.873  1.00  0.00    -0.164 C  
HETATM   25  H   UNL     1      -7.901  10.231  68.857  1.00  0.00     0.000 HD 
HETATM   26  O   UNL     1      -8.132  11.135  69.034  1.00  0.00    -0.139 OA 
BRANCH  24  27
HETATM   27  C   UNL     1      -9.897  10.885  67.442  1.00  0.00    -0.199 C  
BRANCH  27  28
HETATM   28  C   UNL     1     -11.224  11.649  67.450  1.00  0.00    -0.358 C  
BRANCH  28  29
HETATM   29  C   UNL     1     -11.536  12.224  66.091  1.00  0.00    -0.429 A  
HETATM   30  C   UNL     1     -12.332  13.371  65.976  1.00  0.00    -0.471 A  
HETATM   31  C   UNL     1     -12.660  13.882  64.720  1.00  0.00    -0.329 A  
HETATM   32  C   UNL     1     -12.195  13.250  63.568  1.00  0.00    -0.513 A  
HETATM   33  C   UNL     1     -11.398  12.110  63.672  1.00  0.00    -0.545 A  
HETATM   34  C   UNL     1     -11.070  11.598  64.927  1.00  0.00    -0.317 A  
ENDBRANCH  28  29
ENDBRANCH  27  28
ENDBRANCH  24  27
ENDBRANCH  23  24
ENDBRANCH  20  22
ENDBRANCH  12  13
ENDBRANCH  11  12
ENDBRANCH   9  10
ENDBRANCH   8   9
ENDBRANCH   7   8
ENDBRANCH   4   7
ENDBRANCH   2   3
TORSDOF 12
ENDMDL
MODEL       30
REMARK 921   NORMALIZED FREE ENERGY PREDICTED BY IDOCK:   -5.97 KCAL/MOL
REMARK 922        TOTAL FREE ENERGY PREDICTED BY IDOCK:  -12.99 KCAL/MOL
REMARK 923 INTER-LIGAND FREE ENERGY PREDICTED BY IDOCK:   -9.55 KCAL/MOL
REMARK 924 INTRA-LIGAND FREE ENERGY PREDICTED BY IDOCK:   -3.44 KCAL/MOL
REMARK 927      BINDING AFFINITY PREDICTED BY RF-SCORE:    0.00 PKD
ROOT
HETATM    1  C   UNL     1     -10.973  15.971  64.887  1.00  0.00    -0.399 C  
HETATM    2  C   UNL     1     -11.898  14.963  64.230  1.00  0.00    -0.297 C  
ENDROOT
BRANCH   2   3
HETATM    3  N   UNL     1     -11.212  13.724  63.939  1.00  0.00    -0.551 N  
HETATM    4  C   UNL     1     -11.904  12.538  63.829  1.00  0.00    -0.496 C  
HETATM    5  H   UNL     1     -10.200  13.728  63.813  1.00  0.00     0.000 HD 
HETATM    6  O   UNL     1     -13.116  12.452  63.977  1.00  0.00    -0.763 OA 
BRANCH   4   7
HETATM    7  C   UNL     1     -11.018  11.355  63.494  1.00  0.00    -0.406 C  
BRANCH   7   8
HETATM    8  C   UNL     1      -9.701  11.416  64.272  1.00  0.00    -0.263 C  
BRANCH   8   9
HETATM    9  C   UNL     1      -9.176  10.044  64.694  1.00  0.00    -0.310 C  
BRANCH   9  10
HETATM   10  C   UNL     1     -10.006   9.431  65.786  1.00  0.00    -0.278 C  
HETATM   11  C   UNL     1     -10.006   9.760  67.087  1.00  0.00    -0.252 C  
BRANCH  11  12
HETATM   12  C   UNL     1      -9.149  10.800  67.755  1.00  0.00    -0.151 C  
BRANCH  12  13
HETATM   13  C   UNL     1      -9.954  11.836  68.551  1.00  0.00    -0.203 C  
HETATM   14  C   UNL     1      -9.632  13.302  68.223  1.00  0.00    -0.221 C  
HETATM   15  C   UNL     1     -10.883  14.047  68.670  1.00  0.00    -0.272 C  
HETATM   16  O   UNL     1      -9.466  13.504  66.824  1.00  0.00    -0.254 OA 
HETATM   17  H   UNL     1      -9.267  14.410  66.620  1.00  0.00     0.000 HD 
HETATM   18  C   UNL     1     -12.020  13.146  68.195  1.00  0.00    -0.294 C  
HETATM   19  O   UNL     1     -12.362  13.471  66.846  1.00  0.00    -0.345 OA 
HETATM   20  C   UNL     1     -11.471  11.702  68.250  1.00  0.00    -0.369 C  
HETATM   21  H   UNL     1     -13.070  12.910  66.551  1.00  0.00     0.000 HD 
BRANCH  20  22
HETATM   22  C   UNL     1     -12.183  10.873  69.297  1.00  0.00    -0.240 C  
HETATM   23  C   UNL     1     -11.858  10.893  70.601  1.00  0.00    -0.453 C  
BRANCH  23  24
HETATM   24  C   UNL     1     -12.439  10.044  71.702  1.00  0.00    -0.418 C  
HETATM   25  H   UNL     1     -14.070   8.982  72.000  1.00  0.00     0.000 HD 
HETATM   26  O   UNL     1     -13.704   9.518  71.306  1.00  0.00    -0.336 OA 
BRANCH  24  27
HETATM   27  C   UNL     1     -11.542   8.859  72.084  1.00  0.00    -0.400 C  
BRANCH  27  28
HETATM   28  C   UNL     1     -10.137   8.935  71.479  1.00  0.00    -0.394 C  
BRANCH  28  29
HETATM   29  C   UNL     1      -9.973   7.953  70.346  1.00  0.00    -0.192 A  
HETATM   30  C   UNL     1      -8.709   7.728  69.785  1.00  0.00    -0.139 A  
HETATM   31  C   UNL     1      -8.558   6.855  68.708  1.00  0.00    -0.124 A  
HETATM   32  C   UNL     1      -9.670   6.200  68.182  1.00  0.00    -0.125 A  
HETATM   33  C   UNL     1     -10.931   6.414  68.736  1.00  0.00    -0.404 A  
HETATM   34  C   UNL     1     -11.084   7.287  69.812  1.00  0.00    -0.203 A  
ENDBRANCH  28  29
ENDBRANCH  27  28
ENDBRANCH  24  27
ENDBRANCH  23  24
ENDBRANCH  20  22
ENDBRANCH  12  13
ENDBRANCH  11  12
ENDBRANCH   9  10
ENDBRANCH   8   9
ENDBRANCH   7   8
ENDBRANCH   4   7
ENDBRANCH   2   3
TORSDOF 12
ENDMDL
MODEL       31
REMARK 921   NORMALIZED FREE ENERGY PREDICTED BY IDOCK:   -5.95 KCAL/MOL
REMARK 922        TOTAL FREE ENERGY PREDICTED BY IDOCK:  -12.97 KCAL/MOL
REMARK 923 INTER-LIGAND FREE ENERGY PREDICTED BY IDOCK:  -10.56 KCAL/MOL
REMARK 924 INTRA-LIGAND FREE ENERGY PREDICTED BY IDOCK:   -2.40 KCAL/MOL
REMARK 927      BINDING AFFINITY PREDICTED BY RF-SCORE:    0.00 PKD
ROOT
HETATM    1  C   UNL     1     -13.979  13.698  72.437  1.00  0.00    -0.651 C  
HETATM    2  C   UNL     1     -14.215  14.901  71.543  1.00  0.00    -0.527 C  
ENDROOT
BRANCH   2   3
HETATM    3  N   UNL     1     -13.169  15.043  70.556  1.00  0.00    -0.657 N  
HETATM    4  C   UNL     1     -12.024  15.757  70.834  1.00  0.00    -0.413 C  
HETATM    5  H   UNL     1     -13.280  14.609  69.640  1.00  0.00     0.000 HD 
HETATM    6  O   UNL     1     -11.822  16.315  71.905  1.00  0.00    -0.496 OA 
BRANCH   4   7
HETATM    7  C   UNL     1     -11.033  15.771  69.686  1.00  0.00    -0.306 C  
BRANCH   7   8
HETATM    8  C   UNL     1     -11.754  15.843  68.337  1.00  0.00    -0.246 C  
BRANCH   8   9
HETATM    9  C   UNL     1     -11.222  14.849  67.306  1.00  0.00    -0.348 C  
BRANCH   9  10
HETATM   10  C   UNL     1     -12.315  14.288  66.442  1.00  0.00    -0.378 C  
HETATM   11  C   UNL     1     -12.175  13.488  65.373  1.00  0.00    -0.482 C  
BRANCH  11  12
HETATM   12  C   UNL     1     -10.884  12.996  64.778  1.00  0.00    -0.357 C  
BRANCH  12  13
HETATM   13  C   UNL     1     -10.462  11.613  65.294  1.00  0.00    -0.323 C  
HETATM   14  C   UNL     1     -10.046  10.612  64.206  1.00  0.00    -0.343 C  
HETATM   15  C   UNL     1      -9.174   9.615  64.958  1.00  0.00    -0.310 C  
HETATM   16  O   UNL     1      -9.252  11.229  63.198  1.00  0.00    -0.363 OA 
HETATM   17  H   UNL     1      -8.995  10.610  62.525  1.00  0.00     0.000 HD 
HETATM   18  C   UNL     1      -8.331  10.500  65.872  1.00  0.00    -0.161 C  
HETATM   19  O   UNL     1      -7.159  10.933  65.178  1.00  0.00    -0.357 OA 
HETATM   20  C   UNL     1      -9.211  11.727  66.206  1.00  0.00    -0.227 C  
HETATM   21  H   UNL     1      -6.635  11.485  65.747  1.00  0.00     0.000 HD 
BRANCH  20  22
HETATM   22  C   UNL     1      -9.583  11.764  67.673  1.00  0.00    -0.184 C  
HETATM   23  C   UNL     1     -10.736  11.269  68.154  1.00  0.00    -0.244 C  
BRANCH  23  24
HETATM   24  C   UNL     1     -11.239  11.339  69.573  1.00  0.00    -0.272 C  
HETATM   25  H   UNL     1     -12.478  12.459  70.615  1.00  0.00     0.000 HD 
HETATM   26  O   UNL     1     -12.161  12.416  69.720  1.00  0.00    -0.285 OA 
BRANCH  24  27
HETATM   27  C   UNL     1     -11.948  10.055  70.023  1.00  0.00    -0.146 C  
BRANCH  27  28
HETATM   28  C   UNL     1     -11.673   9.683  71.483  1.00  0.00    -0.472 C  
BRANCH  28  29
HETATM   29  C   UNL     1     -11.321   8.223  71.623  1.00  0.00    -0.329 A  
HETATM   30  C   UNL     1     -11.290   7.394  70.494  1.00  0.00    -0.295 A  
HETATM   31  C   UNL     1     -11.008   6.034  70.623  1.00  0.00    -0.376 A  
HETATM   32  C   UNL     1     -10.755   5.491  71.881  1.00  0.00    -0.292 A  
HETATM   33  C   UNL     1     -10.780   6.309  73.010  1.00  0.00    -0.278 A  
HETATM   34  C   UNL     1     -11.062   7.669  72.883  1.00  0.00    -0.448 A  
ENDBRANCH  28  29
ENDBRANCH  27  28
ENDBRANCH  24  27
ENDBRANCH  23  24
ENDBRANCH  20  22
ENDBRANCH  12  13
ENDBRANCH  11  12
ENDBRANCH   9  10
ENDBRANCH   8   9
ENDBRANCH   7   8
ENDBRANCH   4   7
ENDBRANCH   2   3
TORSDOF 12
ENDMDL
MODEL       32
REMARK 921   NORMALIZED FREE ENERGY PREDICTED BY IDOCK:   -5.95 KCAL/MOL
REMARK 922        TOTAL FREE ENERGY PREDICTED BY IDOCK:  -12.96 KCAL/MOL
REMARK 923 INTER-LIGAND FREE ENERGY PREDICTED BY IDOCK:  -10.25 KCAL/MOL
REMARK 924 INTRA-LIGAND FREE ENERGY PREDICTED BY IDOCK:   -2.71 KCAL/MOL
REMARK 927      BINDING AFFINITY PREDICTED BY RF-SCORE:    0.00 PKD
ROOT
HETATM    1  C   UNL     1     -10.887  16.227  65.304  1.00  0.00    -0.310 C  
HETATM    2  C   UNL     1     -11.850  15.855  64.191  1.00  0.00     0.028 C  
ENDROOT
BRANCH   2   3
HETATM    3  N   UNL     1     -11.729  14.462  63.826  1.00  0.00    -0.624 N  
HETATM    4  C   UNL     1     -12.532  13.504  64.402  1.00  0.00    -0.267 C  
HETATM    5  H   UNL     1     -11.037  14.184  63.130  1.00  0.00     0.000 HD 
HETATM    6  O   UNL     1     -13.378  13.758  65.251  1.00  0.00    -0.710 OA 
BRANCH   4   7
HETATM    7  C   UNL     1     -12.276  12.108  63.872  1.00  0.00    -0.587 C  
BRANCH   7   8
HETATM    8  C   UNL     1     -10.776  11.841  63.726  1.00  0.00    -0.480 C  
BRANCH   8   9
HETATM    9  C   UNL     1     -10.228  10.853  64.755  1.00  0.00    -0.398 C  
BRANCH   9  10
HETATM   10  C   UNL     1     -10.866  11.026  66.104  1.00  0.00    -0.212 C  
HETATM   11  C   UNL     1     -10.604  11.983  67.009  1.00  0.00    -0.258 C  
BRANCH  11  12
HETATM   12  C   UNL     1      -9.586  13.083  66.889  1.00  0.00    -0.243 C  
BRANCH  12  13
HETATM   13  C   UNL     1      -9.099  13.614  68.245  1.00  0.00    -0.193 C  
HETATM   14  C   UNL     1      -7.579  13.803  68.362  1.00  0.00    -0.135 C  
HETATM   15  C   UNL     1      -7.435  14.819  69.486  1.00  0.00    -0.120 C  
HETATM   16  O   UNL     1      -7.025  14.365  67.177  1.00  0.00    -0.367 OA 
HETATM   17  H   UNL     1      -6.085  14.482  67.249  1.00  0.00     0.000 HD 
HETATM   18  C   UNL     1      -8.545  15.827  69.197  1.00  0.00    -0.256 C  
HETATM   19  O   UNL     1      -8.066  16.826  68.294  1.00  0.00    -0.187 OA 
HETATM   20  C   UNL     1      -9.681  15.027  68.521  1.00  0.00    -0.217 C  
HETATM   21  H   UNL     1      -8.758  17.453  68.114  1.00  0.00     0.000 HD 
BRANCH  20  22
HETATM   22  C   UNL     1     -10.917  14.967  69.393  1.00  0.00    -0.284 C  
HETATM   23  C   UNL     1     -11.032  15.629  70.557  1.00  0.00    -0.371 C  
BRANCH  23  24
HETATM   24  C   UNL     1     -12.175  15.564  71.537  1.00  0.00    -0.397 C  
HETATM   25  H   UNL     1     -14.138  15.708  71.481  1.00  0.00     0.000 HD 
HETATM   26  O   UNL     1     -13.417  15.749  70.863  1.00  0.00    -0.568 OA 
BRANCH  24  27
HETATM   27  C   UNL     1     -12.248  14.228  72.287  1.00  0.00    -0.132 C  
BRANCH  27  28
HETATM   28  C   UNL     1     -13.404  13.332  71.832  1.00  0.00    -0.540 C  
BRANCH  28  29
HETATM   29  C   UNL     1     -12.921  11.949  71.475  1.00  0.00    -0.427 A  
HETATM   30  C   UNL     1     -13.377  10.835  72.194  1.00  0.00    -0.314 A  
HETATM   31  C   UNL     1     -12.899   9.559  71.897  1.00  0.00    -0.508 A  
HETATM   32  C   UNL     1     -11.962   9.384  70.881  1.00  0.00    -0.351 A  
HETATM   33  C   UNL     1     -11.506  10.485  70.158  1.00  0.00    -0.405 A  
HETATM   34  C   UNL     1     -11.982  11.763  70.453  1.00  0.00    -0.422 A  
ENDBRANCH  28  29
ENDBRANCH  27  28
ENDBRANCH  24  27
ENDBRANCH  23  24
ENDBRANCH  20  22
ENDBRANCH  12  13
ENDBRANCH  11  12
ENDBRANCH   9  10
ENDBRANCH   8   9
ENDBRANCH   7   8
ENDBRANCH   4   7
ENDBRANCH   2   3
TORSDOF 12
ENDMDL
MODEL       33
REMARK 921   NORMALIZED FREE ENERGY PREDICTED BY IDOCK:   -5.94 KCAL/MOL
REMARK 922        TOTAL FREE ENERGY PREDICTED BY IDOCK:  -12.94 KCAL/MOL
REMARK 923 INTER-LIGAND FREE ENERGY PREDICTED BY IDOCK:   -9.60 KCAL/MOL
REMARK 924 INTRA-LIGAND FREE ENERGY PREDICTED BY IDOCK:   -3.34 KCAL/MOL
REMARK 927      BINDING AFFINITY PREDICTED BY RF-SCORE:    0.00 PKD
ROOT
HETATM    1  C   UNL     1     -11.265  11.378  63.476  1.00  0.00    -0.322 C  
HETATM    2  C   UNL     1      -9.877  11.952  63.695  1.00  0.00    -0.316 C  
ENDROOT
BRANCH   2   3
HETATM    3  N   UNL     1      -9.409  11.712  65.041  1.00  0.00    -0.412 N  
HETATM    4  C   UNL     1      -8.663  10.595  65.345  1.00  0.00    -0.185 C  
HETATM    5  H   UNL     1      -9.636  12.380  65.778  1.00  0.00     0.000 HD 
HETATM    6  O   UNL     1      -8.360   9.744  64.519  1.00  0.00    -0.143 OA 
BRANCH   4   7
HETATM    7  C   UNL     1      -8.243  10.532  66.800  1.00  0.00    -0.126 C  
BRANCH   7   8
HETATM    8  C   UNL     1      -8.798  11.723  67.586  1.00  0.00    -0.162 C  
BRANCH   8   9
HETATM    9  C   UNL     1      -9.631  11.320  68.802  1.00  0.00    -0.160 C  
BRANCH   9  10
HETATM   10  C   UNL     1     -11.104  11.326  68.508  1.00  0.00    -0.288 C  
HETATM   11  C   UNL     1     -12.078  11.869  69.255  1.00  0.00    -0.270 C  
BRANCH  11  12
HETATM   12  C   UNL     1     -11.918  12.568  70.577  1.00  0.00    -0.277 C  
BRANCH  12  13
HETATM   13  C   UNL     1     -12.516  13.982  70.597  1.00  0.00    -0.435 C  
HETATM   14  C   UNL     1     -13.723  14.164  71.530  1.00  0.00    -0.318 C  
HETATM   15  C   UNL     1     -13.740  15.663  71.796  1.00  0.00    -0.482 C  
HETATM   16  O   UNL     1     -13.537  13.491  72.770  1.00  0.00    -0.672 OA 
HETATM   17  H   UNL     1     -14.283  13.603  73.347  1.00  0.00     0.000 HD 
HETATM   18  C   UNL     1     -12.266  16.004  71.997  1.00  0.00    -0.506 C  
HETATM   19  O   UNL     1     -11.907  15.809  73.367  1.00  0.00    -0.414 OA 
HETATM   20  C   UNL     1     -11.475  15.010  71.115  1.00  0.00    -0.355 C  
HETATM   21  H   UNL     1     -10.989  16.021  73.491  1.00  0.00     0.000 HD 
BRANCH  20  22
HETATM   22  C   UNL     1     -10.765  15.715  69.979  1.00  0.00    -0.345 C  
HETATM   23  C   UNL     1      -9.477  15.493  69.663  1.00  0.00    -0.244 C  
BRANCH  23  24
HETATM   24  C   UNL     1      -8.657  16.204  68.618  1.00  0.00    -0.210 C  
HETATM   25  H   UNL     1      -6.820  16.889  68.442  1.00  0.00     0.000 HD 
HETATM   26  O   UNL     1      -7.337  16.441  69.101  1.00  0.00    -0.212 OA 
BRANCH  24  27
HETATM   27  C   UNL     1      -8.538  15.414  67.308  1.00  0.00    -0.216 C  
BRANCH  27  28
HETATM   28  C   UNL     1      -9.259  16.073  66.129  1.00  0.00    -0.388 C  
BRANCH  28  29
HETATM   29  C   UNL     1     -10.509  15.317  65.756  1.00  0.00    -0.365 A  
HETATM   30  C   UNL     1     -11.087  15.488  64.491  1.00  0.00    -0.290 A  
HETATM   31  C   UNL     1     -12.268  14.825  64.157  1.00  0.00    -0.321 A  
HETATM   32  C   UNL     1     -12.882  13.986  65.085  1.00  0.00    -0.368 A  
HETATM   33  C   UNL     1     -12.312  13.806  66.345  1.00  0.00    -0.460 A  
HETATM   34  C   UNL     1     -11.132  14.469  66.681  1.00  0.00    -0.333 A  
ENDBRANCH  28  29
ENDBRANCH  27  28
ENDBRANCH  24  27
ENDBRANCH  23  24
ENDBRANCH  20  22
ENDBRANCH  12  13
ENDBRANCH  11  12
ENDBRANCH   9  10
ENDBRANCH   8   9
ENDBRANCH   7   8
ENDBRANCH   4   7
ENDBRANCH   2   3
TORSDOF 12
ENDMDL
MODEL       34
REMARK 921   NORMALIZED FREE ENERGY PREDICTED BY IDOCK:   -5.93 KCAL/MOL
REMARK 922        TOTAL FREE ENERGY PREDICTED BY IDOCK:  -12.93 KCAL/MOL
REMARK 923 INTER-LIGAND FREE ENERGY PREDICTED BY IDOCK:  -10.52 KCAL/MOL
REMARK 924 INTRA-LIGAND FREE ENERGY PREDICTED BY IDOCK:   -2.41 KCAL/MOL
REMARK 927      BINDING AFFINITY PREDICTED BY RF-SCORE:    0.00 PKD
ROOT
HETATM    1  C   UNL     1     -12.299  12.352  63.960  1.00  0.00    -0.579 C  
HETATM    2  C   UNL     1     -10.826  12.271  64.318  1.00  0.00    -0.348 C  
ENDROOT
BRANCH   2   3
HETATM    3  N   UNL     1     -10.550  11.145  65.181  1.00  0.00    -0.275 N  
HETATM    4  C   UNL     1      -9.771  10.094  64.750  1.00  0.00    -0.322 C  
HETATM    5  H   UNL     1     -10.939  11.127  66.124  1.00  0.00     0.000 HD 
HETATM    6  O   UNL     1      -9.279  10.038  63.630  1.00  0.00    -0.253 OA 
BRANCH   4   7
HETATM    7  C   UNL     1      -9.572   9.023  65.803  1.00  0.00    -0.287 C  
BRANCH   7   8
HETATM    8  C   UNL     1     -10.516   9.235  66.990  1.00  0.00    -0.303 C  
BRANCH   8   9
HETATM    9  C   UNL     1     -10.040   8.564  68.278  1.00  0.00    -0.225 C  
BRANCH   9  10
HETATM   10  C   UNL     1      -9.356   9.531  69.202  1.00  0.00    -0.163 C  
HETATM   11  C   UNL     1      -9.424   9.558  70.543  1.00  0.00    -0.306 C  
BRANCH  11  12
HETATM   12  C   UNL     1     -10.230   8.644  71.424  1.00  0.00    -0.324 C  
BRANCH  12  13
HETATM   13  C   UNL     1     -11.703   8.535  71.006  1.00  0.00    -0.310 C  
HETATM   14  C   UNL     1     -12.427   7.273  71.497  1.00  0.00    -0.373 C  
HETATM   15  C   UNL     1     -13.896   7.672  71.463  1.00  0.00    -0.466 C  
HETATM   16  O   UNL     1     -12.080   6.956  72.841  1.00  0.00    -0.432 OA 
HETATM   17  H   UNL     1     -12.528   6.175  73.145  1.00  0.00     0.000 HD 
HETATM   18  C   UNL     1     -13.889   9.095  72.015  1.00  0.00    -0.420 C  
HETATM   19  O   UNL     1     -13.978   9.060  73.441  1.00  0.00    -1.220 OA 
HETATM   20  C   UNL     1     -12.530   9.706  71.602  1.00  0.00    -0.494 C  
HETATM   21  H   UNL     1     -13.973   9.946  73.785  1.00  0.00     0.000 HD 
BRANCH  20  22
HETATM   22  C   UNL     1     -12.704  10.836  70.611  1.00  0.00    -0.417 C  
HETATM   23  C   UNL     1     -12.204  12.069  70.802  1.00  0.00    -0.382 C  
BRANCH  23  24
HETATM   24  C   UNL     1     -12.399  13.280  69.926  1.00  0.00    -0.163 C  
HETATM   25  H   UNL     1     -11.799  15.155  69.898  1.00  0.00     0.000 HD 
HETATM   26  O   UNL     1     -11.676  14.392  70.450  1.00  0.00    -0.284 OA 
BRANCH  24  27
HETATM   27  C   UNL     1     -11.929  13.059  68.482  1.00  0.00    -0.296 C  
BRANCH  27  28
HETATM   28  C   UNL     1     -10.418  12.848  68.355  1.00  0.00    -0.260 C  
BRANCH  28  29
HETATM   29  C   UNL     1      -9.761  13.995  67.628  1.00  0.00    -0.228 A  
HETATM   30  C   UNL     1      -8.411  14.293  67.855  1.00  0.00    -0.162 A  
HETATM   31  C   UNL     1      -7.810  15.379  67.219  1.00  0.00    -0.237 A  
HETATM   32  C   UNL     1      -8.555  16.177  66.352  1.00  0.00    -0.365 A  
HETATM   33  C   UNL     1      -9.897  15.886  66.117  1.00  0.00    -0.343 A  
HETATM   34  C   UNL     1     -10.500  14.800  66.753  1.00  0.00    -0.282 A  
ENDBRANCH  28  29
ENDBRANCH  27  28
ENDBRANCH  24  27
ENDBRANCH  23  24
ENDBRANCH  20  22
ENDBRANCH  12  13
ENDBRANCH  11  12
ENDBRANCH   9  10
ENDBRANCH   8   9
ENDBRANCH   7   8
ENDBRANCH   4   7
ENDBRANCH   2   3
TORSDOF 12
ENDMDL
MODEL       35
REMARK 921   NORMALIZED FREE ENERGY PREDICTED BY IDOCK:   -5.92 KCAL/MOL
REMARK 922        TOTAL FREE ENERGY PREDICTED BY IDOCK:  -12.91 KCAL/MOL
REMARK 923 INTER-LIGAND FREE ENERGY PREDICTED BY IDOCK:  -10.32 KCAL/MOL
REMARK 924 INTRA-LIGAND FREE ENERGY PREDICTED BY IDOCK:   -2.58 KCAL/MOL
REMARK 927      BINDING AFFINITY PREDICTED BY RF-SCORE:    0.00 PKD
ROOT
HETATM    1  C   UNL     1      -7.165  13.878  67.629  1.00  0.00    -0.187 C  
HETATM    2  C   UNL     1      -6.656  12.503  67.239  1.00  0.00    -0.123 C  
ENDROOT
BRANCH   2   3
HETATM    3  N   UNL     1      -7.683  11.720  66.588  1.00  0.00    -0.337 N  
HETATM    4  C   UNL     1      -8.443  10.816  67.295  1.00  0.00    -0.124 C  
HETATM    5  H   UNL     1      -7.846  11.840  65.588  1.00  0.00     0.000 HD 
HETATM    6  O   UNL     1      -8.299  10.609  68.493  1.00  0.00    -0.116 OA 
BRANCH   4   7
HETATM    7  C   UNL     1      -9.483  10.113  66.446  1.00  0.00    -0.223 C  
BRANCH   7   8
HETATM    8  C   UNL     1     -10.884  10.285  67.038  1.00  0.00    -0.248 C  
BRANCH   8   9
HETATM    9  C   UNL     1     -11.372  11.733  67.045  1.00  0.00    -0.387 C  
BRANCH   9  10
HETATM   10  C   UNL     1     -11.477  12.303  65.658  1.00  0.00    -0.416 C  
HETATM   11  C   UNL     1     -11.745  13.575  65.322  1.00  0.00    -0.341 C  
BRANCH  11  12
HETATM   12  C   UNL     1     -12.034  14.714  66.260  1.00  0.00    -0.262 C  
BRANCH  12  13
HETATM   13  C   UNL     1     -10.771  15.338  66.871  1.00  0.00    -0.313 C  
HETATM   14  C   UNL     1      -9.900  16.137  65.891  1.00  0.00    -0.353 C  
HETATM   15  C   UNL     1      -9.109  17.068  66.799  1.00  0.00    -0.266 C  
HETATM   16  O   UNL     1     -10.689  16.932  65.012  1.00  0.00    -0.700 OA 
HETATM   17  H   UNL     1     -10.151  17.426  64.406  1.00  0.00     0.000 HD 
HETATM   18  C   UNL     1     -10.146  17.534  67.818  1.00  0.00    -0.330 C  
HETATM   19  O   UNL     1     -10.835  18.681  67.316  1.00  0.00    -0.426 OA 
HETATM   20  C   UNL     1     -11.145  16.365  67.974  1.00  0.00    -0.292 C  
HETATM   21  H   UNL     1     -11.480  18.971  67.950  1.00  0.00     0.000 HD 
BRANCH  20  22
HETATM   22  C   UNL     1     -11.081  15.756  69.358  1.00  0.00    -0.314 C  
HETATM   23  C   UNL     1     -12.162  15.301  70.015  1.00  0.00    -0.385 C  
BRANCH  23  24
HETATM   24  C   UNL     1     -12.217  14.766  71.423  1.00  0.00    -0.342 C  
HETATM   25  H   UNL     1     -13.029  15.290  73.138  1.00  0.00     0.000 HD 
HETATM   26  O   UNL     1     -12.994  15.627  72.251  1.00  0.00    -0.390 OA 
BRANCH  24  27
HETATM   27  C   UNL     1     -12.830  13.362  71.508  1.00  0.00    -0.427 C  
BRANCH  27  28
HETATM   28  C   UNL     1     -12.264  12.383  70.475  1.00  0.00    -0.382 C  
BRANCH  28  29
HETATM   29  C   UNL     1     -12.346  10.959  70.964  1.00  0.00    -0.498 A  
HETATM   30  C   UNL     1     -13.381  10.566  71.823  1.00  0.00    -0.446 A  
HETATM   31  C   UNL     1     -13.436   9.261  72.313  1.00  0.00    -0.548 A  
HETATM   32  C   UNL     1     -12.457   8.338  71.949  1.00  0.00    -0.376 A  
HETATM   33  C   UNL     1     -11.427   8.719  71.091  1.00  0.00    -0.344 A  
HETATM   34  C   UNL     1     -11.370  10.023  70.600  1.00  0.00    -0.425 A  
ENDBRANCH  28  29
ENDBRANCH  27  28
ENDBRANCH  24  27
ENDBRANCH  23  24
ENDBRANCH  20  22
ENDBRANCH  12  13
ENDBRANCH  11  12
ENDBRANCH   9  10
ENDBRANCH   8   9
ENDBRANCH   7   8
ENDBRANCH   4   7
ENDBRANCH   2   3
TORSDOF 12
ENDMDL
MODEL       36
REMARK 921   NORMALIZED FREE ENERGY PREDICTED BY IDOCK:   -5.90 KCAL/MOL
REMARK 922        TOTAL FREE ENERGY PREDICTED BY IDOCK:  -12.87 KCAL/MOL
REMARK 923 INTER-LIGAND FREE ENERGY PREDICTED BY IDOCK:  -10.55 KCAL/MOL
REMARK 924 INTRA-LIGAND FREE ENERGY PREDICTED BY IDOCK:   -2.32 KCAL/MOL
REMARK 927      BINDING AFFINITY PREDICTED BY RF-SCORE:    0.00 PKD
ROOT
HETATM    1  C   UNL     1     -12.462  15.856  74.354  1.00  0.00    -0.767 C  
HETATM    2  C   UNL     1     -13.390  15.531  73.198  1.00  0.00    -0.528 C  
ENDROOT
BRANCH   2   3
HETATM    3  N   UNL     1     -12.826  14.522  72.330  1.00  0.00    -0.347 N  
HETATM    4  C   UNL     1     -12.665  14.754  70.983  1.00  0.00    -0.345 C  
HETATM    5  H   UNL     1     -12.542  13.624  72.723  1.00  0.00     0.000 HD 
HETATM    6  O   UNL     1     -12.990  15.801  70.437  1.00  0.00    -0.409 OA 
BRANCH   4   7
HETATM    7  C   UNL     1     -12.033  13.590  70.245  1.00  0.00    -0.386 C  
BRANCH   7   8
HETATM    8  C   UNL     1     -11.278  14.070  69.003  1.00  0.00    -0.311 C  
BRANCH   8   9
HETATM    9  C   UNL     1     -10.911  12.944  68.037  1.00  0.00    -0.261 C  
BRANCH   9  10
HETATM   10  C   UNL     1     -12.008  12.662  67.051  1.00  0.00    -0.330 C  
HETATM   11  C   UNL     1     -11.874  12.409  65.739  1.00  0.00    -0.467 C  
BRANCH  11  12
HETATM   12  C   UNL     1     -10.594  12.383  64.951  1.00  0.00    -0.326 C  
BRANCH  12  13
HETATM   13  C   UNL     1     -10.078  10.965  64.670  1.00  0.00    -0.391 C  
HETATM   14  C   UNL     1      -9.672  10.697  63.213  1.00  0.00    -0.340 C  
HETATM   15  C   UNL     1      -8.716   9.518  63.324  1.00  0.00    -0.238 C  
HETATM   16  O   UNL     1      -8.964  11.797  62.652  1.00  0.00    -0.580 OA 
HETATM   17  H   UNL     1      -8.713  11.632  61.751  1.00  0.00     0.000 HD 
HETATM   18  C   UNL     1      -7.869   9.863  64.546  1.00  0.00    -0.142 C  
HETATM   19  O   UNL     1      -6.757  10.670  64.152  1.00  0.00    -0.352 OA 
HETATM   20  C   UNL     1      -8.787  10.679  65.484  1.00  0.00    -0.202 C  
HETATM   21  H   UNL     1      -6.231  10.885  64.913  1.00  0.00     0.000 HD 
BRANCH  20  22
HETATM   22  C   UNL     1      -9.083   9.932  66.766  1.00  0.00    -0.164 C  
HETATM   23  C   UNL     1     -10.049   9.003  66.873  1.00  0.00    -0.338 C  
BRANCH  23  24
HETATM   24  C   UNL     1     -10.482   8.273  68.119  1.00  0.00    -0.171 C  
HETATM   25  H   UNL     1     -11.022   6.445  68.609  1.00  0.00     0.000 HD 
HETATM   26  O   UNL     1     -10.750   6.905  67.824  1.00  0.00    -0.224 OA 
BRANCH  24  27
HETATM   27  C   UNL     1      -9.428   8.310  69.234  1.00  0.00    -0.155 C  
BRANCH  27  28
HETATM   28  C   UNL     1      -9.612   9.475  70.210  1.00  0.00    -0.314 C  
BRANCH  28  29
HETATM   29  C   UNL     1     -10.928   9.378  70.941  1.00  0.00    -0.391 A  
HETATM   30  C   UNL     1     -11.083   8.473  71.998  1.00  0.00    -0.412 A  
HETATM   31  C   UNL     1     -12.311   8.348  72.648  1.00  0.00    -0.278 A  
HETATM   32  C   UNL     1     -13.394   9.127  72.246  1.00  0.00    -0.540 A  
HETATM   33  C   UNL     1     -13.248  10.034  71.198  1.00  0.00    -0.441 A  
HETATM   34  C   UNL     1     -12.021  10.160  70.547  1.00  0.00    -0.400 A  
ENDBRANCH  28  29
ENDBRANCH  27  28
ENDBRANCH  24  27
ENDBRANCH  23  24
ENDBRANCH  20  22
ENDBRANCH  12  13
ENDBRANCH  11  12
ENDBRANCH   9  10
ENDBRANCH   8   9
ENDBRANCH   7   8
ENDBRANCH   4   7
ENDBRANCH   2   3
TORSDOF 12
ENDMDL
MODEL       37
REMARK 921   NORMALIZED FREE ENERGY PREDICTED BY IDOCK:   -5.89 KCAL/MOL
REMARK 922        TOTAL FREE ENERGY PREDICTED BY IDOCK:  -12.86 KCAL/MOL
REMARK 923 INTER-LIGAND FREE ENERGY PREDICTED BY IDOCK:  -10.22 KCAL/MOL
REMARK 924 INTRA-LIGAND FREE ENERGY PREDICTED BY IDOCK:   -2.64 KCAL/MOL
REMARK 927      BINDING AFFINITY PREDICTED BY RF-SCORE:    0.00 PKD
ROOT
HETATM    1  C   UNL     1     -14.193   7.464  71.538  1.00  0.00    -0.571 C  
HETATM    2  C   UNL     1     -13.905   8.893  71.957  1.00  0.00    -0.456 C  
ENDROOT
BRANCH   2   3
HETATM    3  N   UNL     1     -13.215   9.624  70.918  1.00  0.00    -0.583 N  
HETATM    4  C   UNL     1     -12.940  10.966  71.056  1.00  0.00    -0.303 C  
HETATM    5  H   UNL     1     -12.928   9.137  70.068  1.00  0.00     0.000 HD 
HETATM    6  O   UNL     1     -13.261  11.620  72.040  1.00  0.00    -0.501 OA 
BRANCH   4   7
HETATM    7  C   UNL     1     -12.189  11.549  69.876  1.00  0.00    -0.328 C  
BRANCH   7   8
HETATM    8  C   UNL     1     -12.091  13.073  69.984  1.00  0.00    -0.367 C  
BRANCH   8   9
HETATM    9  C   UNL     1     -11.926  13.772  68.635  1.00  0.00    -0.401 C  
BRANCH   9  10
HETATM   10  C   UNL     1     -10.596  13.478  68.002  1.00  0.00    -0.247 C  
HETATM   11  C   UNL     1     -10.373  12.869  66.827  1.00  0.00    -0.250 C  
BRANCH  11  12
HETATM   12  C   UNL     1     -11.409  12.313  65.889  1.00  0.00    -0.406 C  
BRANCH  12  13
HETATM   13  C   UNL     1     -10.899  11.136  65.045  1.00  0.00    -0.244 C  
HETATM   14  C   UNL     1     -10.349  11.516  63.663  1.00  0.00    -0.417 C  
HETATM   15  C   UNL     1      -9.437  10.349  63.312  1.00  0.00    -0.361 C  
HETATM   16  O   UNL     1      -9.561  12.700  63.717  1.00  0.00    -0.672 OA 
HETATM   17  H   UNL     1      -9.221  12.936  62.861  1.00  0.00     0.000 HD 
HETATM   18  C   UNL     1      -8.715  10.057  64.625  1.00  0.00    -0.191 C  
HETATM   19  O   UNL     1      -7.550  10.878  64.729  1.00  0.00    -0.348 OA 
HETATM   20  C   UNL     1      -9.708  10.431  65.749  1.00  0.00    -0.285 C  
HETATM   21  H   UNL     1      -7.102  10.696  65.546  1.00  0.00     0.000 HD 
BRANCH  20  22
HETATM   22  C   UNL     1     -10.153   9.214  66.529  1.00  0.00    -0.357 C  
HETATM   23  C   UNL     1      -9.720   7.969  66.266  1.00  0.00    -0.197 C  
BRANCH  23  24
HETATM   24  C   UNL     1     -10.169   6.687  66.919  1.00  0.00    -0.220 C  
HETATM   25  H   UNL     1      -9.326   5.129  67.777  1.00  0.00     0.000 HD 
HETATM   26  O   UNL     1      -9.042   5.937  67.365  1.00  0.00    -0.112 OA 
BRANCH  24  27
HETATM   27  C   UNL     1     -11.083   6.917  68.129  1.00  0.00    -0.165 C  
BRANCH  27  28
HETATM   28  C   UNL     1     -10.928   5.858  69.224  1.00  0.00    -0.397 C  
BRANCH  28  29
HETATM   29  C   UNL     1     -10.708   6.491  70.575  1.00  0.00    -0.305 A  
HETATM   30  C   UNL     1     -11.045   5.796  71.744  1.00  0.00    -0.301 A  
HETATM   31  C   UNL     1     -10.885   6.394  72.994  1.00  0.00    -0.287 A  
HETATM   32  C   UNL     1     -10.387   7.693  73.086  1.00  0.00    -0.411 A  
HETATM   33  C   UNL     1     -10.045   8.391  71.929  1.00  0.00    -0.337 A  
HETATM   34  C   UNL     1     -10.205   7.794  70.678  1.00  0.00    -0.199 A  
ENDBRANCH  28  29
ENDBRANCH  27  28
ENDBRANCH  24  27
ENDBRANCH  23  24
ENDBRANCH  20  22
ENDBRANCH  12  13
ENDBRANCH  11  12
ENDBRANCH   9  10
ENDBRANCH   8   9
ENDBRANCH   7   8
ENDBRANCH   4   7
ENDBRANCH   2   3
TORSDOF 12
ENDMDL
MODEL       38
REMARK 921   NORMALIZED FREE ENERGY PREDICTED BY IDOCK:   -5.88 KCAL/MOL
REMARK 922        TOTAL FREE ENERGY PREDICTED BY IDOCK:  -12.84 KCAL/MOL
REMARK 923 INTER-LIGAND FREE ENERGY PREDICTED BY IDOCK:  -10.37 KCAL/MOL
REMARK 924 INTRA-LIGAND FREE ENERGY PREDICTED BY IDOCK:   -2.47 KCAL/MOL
REMARK 927      BINDING AFFINITY PREDICTED BY RF-SCORE:    0.00 PKD
ROOT
HETATM    1  C   UNL     1      -8.273   9.819  70.167  1.00  0.00    -0.202 C  
HETATM    2  C   UNL     1      -7.889   8.489  70.787  1.00  0.00    -0.097 C  
ENDROOT
BRANCH   2   3
HETATM    3  N   UNL     1      -8.995   7.897  71.504  1.00  0.00    -0.132 N  
HETATM    4  C   UNL     1      -9.160   8.108  72.855  1.00  0.00    -0.267 C  
HETATM    5  H   UNL     1      -9.664   7.313  71.002  1.00  0.00     0.000 HD 
HETATM    6  O   UNL     1      -8.395   8.787  73.527  1.00  0.00    -0.357 OA 
BRANCH   4   7
HETATM    7  C   UNL     1     -10.390   7.429  73.423  1.00  0.00    -0.411 C  
BRANCH   7   8
HETATM    8  C   UNL     1     -11.561   7.496  72.438  1.00  0.00    -0.356 C  
BRANCH   8   9
HETATM    9  C   UNL     1     -12.288   8.840  72.444  1.00  0.00    -0.414 C  
BRANCH   9  10
HETATM   10  C   UNL     1     -12.404   9.428  71.066  1.00  0.00    -0.332 C  
HETATM   11  C   UNL     1     -12.489  10.728  70.743  1.00  0.00    -0.481 C  
BRANCH  11  12
HETATM   12  C   UNL     1     -12.519  11.893  71.693  1.00  0.00    -0.100 C  
BRANCH  12  13
HETATM   13  C   UNL     1     -13.200  13.140  71.109  1.00  0.00    -0.109 C  
HETATM   14  C   UNL     1     -13.972  13.995  72.125  1.00  0.00    -0.538 C  
HETATM   15  C   UNL     1     -14.033  15.364  71.460  1.00  0.00    -0.601 C  
HETATM   16  O   UNL     1     -13.262  14.124  73.352  1.00  0.00    -0.495 OA 
HETATM   17  H   UNL     1     -13.740  14.653  73.980  1.00  0.00     0.000 HD 
HETATM   18  C   UNL     1     -12.634  15.534  70.873  1.00  0.00    -0.456 C  
HETATM   19  O   UNL     1     -11.763  16.100  71.856  1.00  0.00    -0.475 OA 
HETATM   20  C   UNL     1     -12.146  14.112  70.514  1.00  0.00    -0.420 C  
HETATM   21  H   UNL     1     -10.893  16.206  71.490  1.00  0.00     0.000 HD 
BRANCH  20  22
HETATM   22  C   UNL     1     -11.995  13.934  69.019  1.00  0.00    -0.402 C  
HETATM   23  C   UNL     1     -11.552  14.905  68.201  1.00  0.00    -0.356 C  
BRANCH  23  24
HETATM   24  C   UNL     1     -11.453  14.860  66.698  1.00  0.00    -0.296 C  
HETATM   25  H   UNL     1     -10.029  14.909  65.341  1.00  0.00     0.000 HD 
HETATM   26  O   UNL     1     -10.091  14.938  66.288  1.00  0.00    -0.259 OA 
BRANCH  24  27
HETATM   27  C   UNL     1     -12.048  13.580  66.095  1.00  0.00    -0.482 C  
BRANCH  27  28
HETATM   28  C   UNL     1     -11.070  12.813  65.201  1.00  0.00    -0.323 C  
BRANCH  28  29
HETATM   29  C   UNL     1     -10.745  11.457  65.777  1.00  0.00    -0.309 A  
HETATM   30  C   UNL     1     -11.127  11.137  67.087  1.00  0.00    -0.352 A  
HETATM   31  C   UNL     1     -10.790   9.901  67.639  1.00  0.00    -0.318 A  
HETATM   32  C   UNL     1     -10.068   8.976  66.889  1.00  0.00    -0.338 A  
HETATM   33  C   UNL     1      -9.687   9.284  65.584  1.00  0.00    -0.302 A  
HETATM   34  C   UNL     1     -10.022  10.519  65.029  1.00  0.00    -0.388 A  
ENDBRANCH  28  29
ENDBRANCH  27  28
ENDBRANCH  24  27
ENDBRANCH  23  24
ENDBRANCH  20  22
ENDBRANCH  12  13
ENDBRANCH  11  12
ENDBRANCH   9  10
ENDBRANCH   8   9
ENDBRANCH   7   8
ENDBRANCH   4   7
ENDBRANCH   2   3
TORSDOF 12
ENDMDL
MODEL       39
REMARK 921   NORMALIZED FREE ENERGY PREDICTED BY IDOCK:   -5.88 KCAL/MOL
REMARK 922        TOTAL FREE ENERGY PREDICTED BY IDOCK:  -12.83 KCAL/MOL
REMARK 923 INTER-LIGAND FREE ENERGY PREDICTED BY IDOCK:  -11.04 KCAL/MOL
REMARK 924 INTRA-LIGAND FREE ENERGY PREDICTED BY IDOCK:   -1.79 KCAL/MOL
REMARK 927      BINDING AFFINITY PREDICTED BY RF-SCORE:    0.00 PKD
ROOT
HETATM    1  C   UNL     1      -9.969   3.671  73.940  1.00  0.00    -0.167 C  
HETATM    2  C   UNL     1     -10.249   4.184  72.539  1.00  0.00    -0.174 C  
ENDROOT
BRANCH   2   3
HETATM    3  N   UNL     1     -11.154   5.311  72.556  1.00  0.00    -0.245 N  
HETATM    4  C   UNL     1     -11.357   6.076  71.430  1.00  0.00    -0.236 C  
HETATM    5  H   UNL     1     -11.650   5.543  73.417  1.00  0.00     0.000 HD 
HETATM    6  O   UNL     1     -10.790   5.867  70.365  1.00  0.00    -0.278 OA 
BRANCH   4   7
HETATM    7  C   UNL     1     -12.359   7.194  71.636  1.00  0.00    -0.398 C  
BRANCH   7   8
HETATM    8  C   UNL     1     -11.725   8.373  72.378  1.00  0.00    -0.452 C  
BRANCH   8   9
HETATM    9  C   UNL     1     -10.761   9.189  71.517  1.00  0.00    -0.437 C  
BRANCH   9  10
HETATM   10  C   UNL     1     -11.427   9.747  70.292  1.00  0.00    -0.317 C  
HETATM   11  C   UNL     1     -12.097  10.907  70.190  1.00  0.00    -0.431 C  
BRANCH  11  12
HETATM   12  C   UNL     1     -12.360  11.897  71.291  1.00  0.00    -0.212 C  
BRANCH  12  13
HETATM   13  C   UNL     1     -12.849  13.260  70.783  1.00  0.00    -0.194 C  
HETATM   14  C   UNL     1     -13.838  13.983  71.709  1.00  0.00    -0.392 C  
HETATM   15  C   UNL     1     -13.705  15.443  71.297  1.00  0.00    -0.558 C  
HETATM   16  O   UNL     1     -13.461  13.867  73.076  1.00  0.00    -0.637 OA 
HETATM   17  H   UNL     1     -14.073  14.314  73.649  1.00  0.00     0.000 HD 
HETATM   18  C   UNL     1     -12.201  15.623  71.112  1.00  0.00    -0.413 C  
HETATM   19  O   UNL     1     -11.598  15.967  72.361  1.00  0.00    -0.435 OA 
HETATM   20  C   UNL     1     -11.662  14.251  70.644  1.00  0.00    -0.287 C  
HETATM   21  H   UNL     1     -10.662  16.078  72.246  1.00  0.00     0.000 HD 
BRANCH  20  22
HETATM   22  C   UNL     1     -11.140  14.311  69.225  1.00  0.00    -0.297 C  
HETATM   23  C   UNL     1     -11.873  13.962  68.153  1.00  0.00    -0.407 C  
BRANCH  23  24
HETATM   24  C   UNL     1     -11.420  13.899  66.717  1.00  0.00    -0.352 C  
HETATM   25  H   UNL     1     -12.181  14.281  64.942  1.00  0.00     0.000 HD 
HETATM   26  O   UNL     1     -12.467  14.321  65.847  1.00  0.00    -0.437 OA 
BRANCH  24  27
HETATM   27  C   UNL     1     -10.196  14.779  66.433  1.00  0.00    -0.299 C  
BRANCH  27  28
HETATM   28  C   UNL     1     -10.519  16.032  65.614  1.00  0.00    -0.416 C  
BRANCH  28  29
HETATM   29  C   UNL     1     -10.399  17.282  66.449  1.00  0.00    -0.316 A  
HETATM   30  C   UNL     1     -10.167  17.190  67.828  1.00  0.00    -0.324 A  
HETATM   31  C   UNL     1     -10.099  18.342  68.612  1.00  0.00    -0.407 A  
HETATM   32  C   UNL     1     -10.262  19.595  68.024  1.00  0.00    -0.579 A  
HETATM   33  C   UNL     1     -10.489  19.696  66.653  1.00  0.00    -0.610 A  
HETATM   34  C   UNL     1     -10.558  18.546  65.867  1.00  0.00    -0.336 A  
ENDBRANCH  28  29
ENDBRANCH  27  28
ENDBRANCH  24  27
ENDBRANCH  23  24
ENDBRANCH  20  22
ENDBRANCH  12  13
ENDBRANCH  11  12
ENDBRANCH   9  10
ENDBRANCH   8   9
ENDBRANCH   7   8
ENDBRANCH   4   7
ENDBRANCH   2   3
TORSDOF 12
ENDMDL
MODEL       40
REMARK 921   NORMALIZED FREE ENERGY PREDICTED BY IDOCK:   -5.87 KCAL/MOL
REMARK 922        TOTAL FREE ENERGY PREDICTED BY IDOCK:  -12.82 KCAL/MOL
REMARK 923 INTER-LIGAND FREE ENERGY PREDICTED BY IDOCK:  -10.51 KCAL/MOL
REMARK 924 INTRA-LIGAND FREE ENERGY PREDICTED BY IDOCK:   -2.31 KCAL/MOL
REMARK 927      BINDING AFFINITY PREDICTED BY RF-SCORE:    0.00 PKD
ROOT
HETATM    1  C   UNL     1     -10.486   5.607  71.788  1.00  0.00    -0.284 C  
HETATM    2  C   UNL     1     -11.475   6.616  72.340  1.00  0.00    -0.262 C  
ENDROOT
BRANCH   2   3
HETATM    3  N   UNL     1     -11.426   7.863  71.611  1.00  0.00    -0.255 N  
HETATM    4  C   UNL     1     -12.257   8.911  71.939  1.00  0.00    -0.374 C  
HETATM    5  H   UNL     1     -10.766   7.969  70.841  1.00  0.00     0.000 HD 
HETATM    6  O   UNL     1     -13.082   8.857  72.842  1.00  0.00    -0.339 OA 
BRANCH   4   7
HETATM    7  C   UNL     1     -12.039  10.141  71.081  1.00  0.00    -0.485 C  
BRANCH   7   8
HETATM    8  C   UNL     1     -11.379   9.774  69.749  1.00  0.00    -0.201 C  
BRANCH   8   9
HETATM    9  C   UNL     1     -10.446  10.857  69.210  1.00  0.00    -0.230 C  
BRANCH   9  10
HETATM   10  C   UNL     1      -9.141  10.292  68.726  1.00  0.00    -0.159 C  
HETATM   11  C   UNL     1      -8.853   9.860  67.488  1.00  0.00    -0.131 C  
BRANCH  11  12
HETATM   12  C   UNL     1      -9.787   9.813  66.309  1.00  0.00    -0.315 C  
BRANCH  12  13
HETATM   13  C   UNL     1      -9.657  11.027  65.379  1.00  0.00    -0.267 C  
HETATM   14  C   UNL     1      -9.222  10.702  63.942  1.00  0.00    -0.243 C  
HETATM   15  C   UNL     1      -9.715  11.901  63.144  1.00  0.00    -0.216 C  
HETATM   16  O   UNL     1      -9.871   9.536  63.446  1.00  0.00    -0.319 OA 
HETATM   17  H   UNL     1      -9.602   9.335  62.558  1.00  0.00     0.000 HD 
HETATM   18  C   UNL     1     -11.099  12.170  63.729  1.00  0.00    -0.436 C  
HETATM   19  O   UNL     1     -12.073  11.375  63.050  1.00  0.00    -0.934 OA 
HETATM   20  C   UNL     1     -11.027  11.738  65.211  1.00  0.00    -0.350 C  
HETATM   21  H   UNL     1     -12.935  11.542  63.415  1.00  0.00     0.000 HD 
BRANCH  20  22
HETATM   22  C   UNL     1     -11.167  12.920  66.145  1.00  0.00    -0.326 C  
HETATM   23  C   UNL     1     -10.401  14.022  66.062  1.00  0.00    -0.312 C  
BRANCH  23  24
HETATM   24  C   UNL     1     -10.399  15.206  66.994  1.00  0.00    -0.271 C  
HETATM   25  H   UNL     1     -10.755  17.139  66.877  1.00  0.00     0.000 HD 
HETATM   26  O   UNL     1     -10.757  16.392  66.289  1.00  0.00    -0.266 OA 
BRANCH  24  27
HETATM   27  C   UNL     1     -11.374  15.050  68.167  1.00  0.00    -0.343 C  
BRANCH  27  28
HETATM   28  C   UNL     1     -10.694  14.651  69.480  1.00  0.00    -0.202 C  
BRANCH  28  29
HETATM   29  C   UNL     1     -11.640  14.769  70.648  1.00  0.00    -0.324 A  
HETATM   30  C   UNL     1     -11.621  15.911  71.460  1.00  0.00    -0.537 A  
HETATM   31  C   UNL     1     -12.463  16.006  72.568  1.00  0.00    -0.558 A  
HETATM   32  C   UNL     1     -13.332  14.960  72.874  1.00  0.00    -0.576 A  
HETATM   33  C   UNL     1     -13.361  13.821  72.070  1.00  0.00    -0.536 A  
HETATM   34  C   UNL     1     -12.519  13.725  70.962  1.00  0.00    -0.458 A  
ENDBRANCH  28  29
ENDBRANCH  27  28
ENDBRANCH  24  27
ENDBRANCH  23  24
ENDBRANCH  20  22
ENDBRANCH  12  13
ENDBRANCH  11  12
ENDBRANCH   9  10
ENDBRANCH   8   9
ENDBRANCH   7   8
ENDBRANCH   4   7
ENDBRANCH   2   3
TORSDOF 12
ENDMDL
MODEL       41
REMARK 921   NORMALIZED FREE ENERGY PREDICTED BY IDOCK:   -5.87 KCAL/MOL
REMARK 922        TOTAL FREE ENERGY PREDICTED BY IDOCK:  -12.82 KCAL/MOL
REMARK 923 INTER-LIGAND FREE ENERGY PREDICTED BY IDOCK:   -9.67 KCAL/MOL
REMARK 924 INTRA-LIGAND FREE ENERGY PREDICTED BY IDOCK:   -3.15 KCAL/MOL
REMARK 927      BINDING AFFINITY PREDICTED BY RF-SCORE:    0.00 PKD
ROOT
HETATM    1  C   UNL     1     -11.142   6.176  69.121  1.00  0.00    -0.448 C  
HETATM    2  C   UNL     1     -11.507   6.505  70.556  1.00  0.00    -0.387 C  
ENDROOT
BRANCH   2   3
HETATM    3  N   UNL     1     -12.446   7.602  70.629  1.00  0.00    -0.521 N  
HETATM    4  C   UNL     1     -12.198   8.697  71.426  1.00  0.00    -0.304 C  
HETATM    5  H   UNL     1     -13.305   7.564  70.081  1.00  0.00     0.000 HD 
HETATM    6  O   UNL     1     -11.195   8.810  72.120  1.00  0.00    -0.353 OA 
BRANCH   4   7
HETATM    7  C   UNL     1     -13.283   9.753  71.349  1.00  0.00    -0.482 C  
BRANCH   7   8
HETATM    8  C   UNL     1     -12.716  11.091  70.868  1.00  0.00    -0.452 C  
BRANCH   8   9
HETATM    9  C   UNL     1     -12.157  11.043  69.447  1.00  0.00    -0.389 C  
BRANCH   9  10
HETATM   10  C   UNL     1     -10.692  11.370  69.401  1.00  0.00    -0.152 C  
HETATM   11  C   UNL     1      -9.799  10.969  68.483  1.00  0.00    -0.194 C  
BRANCH  11  12
HETATM   12  C   UNL     1     -10.058  10.070  67.305  1.00  0.00    -0.259 C  
BRANCH  12  13
HETATM   13  C   UNL     1      -9.044  10.248  66.166  1.00  0.00    -0.181 C  
HETATM   14  C   UNL     1      -7.744   9.445  66.321  1.00  0.00    -0.097 C  
HETATM   15  C   UNL     1      -7.223   9.338  64.894  1.00  0.00    -0.102 C  
HETATM   16  O   UNL     1      -7.992   8.130  66.806  1.00  0.00    -0.100 OA 
HETATM   17  H   UNL     1      -7.188   7.633  66.902  1.00  0.00     0.000 HD 
HETATM   18  C   UNL     1      -8.481   9.051  64.078  1.00  0.00    -0.163 C  
HETATM   19  O   UNL     1      -8.724   7.642  64.047  1.00  0.00    -0.288 OA 
HETATM   20  C   UNL     1      -9.640   9.754  64.820  1.00  0.00    -0.284 C  
HETATM   21  H   UNL     1      -9.507   7.463  63.539  1.00  0.00     0.000 HD 
BRANCH  20  22
HETATM   22  C   UNL     1     -10.215  10.893  64.005  1.00  0.00    -0.422 C  
HETATM   23  C   UNL     1     -11.169  11.721  64.465  1.00  0.00    -0.368 C  
BRANCH  23  24
HETATM   24  C   UNL     1     -11.868  12.820  63.707  1.00  0.00    -0.499 C  
HETATM   25  H   UNL     1     -13.568  13.054  62.741  1.00  0.00     0.000 HD 
HETATM   26  O   UNL     1     -13.127  12.361  63.219  1.00  0.00    -0.630 OA 
BRANCH  24  27
HETATM   27  C   UNL     1     -12.127  14.068  64.560  1.00  0.00    -0.484 C  
BRANCH  27  28
HETATM   28  C   UNL     1     -12.602  13.751  65.981  1.00  0.00    -0.458 C  
BRANCH  28  29
HETATM   29  C   UNL     1     -11.604  14.218  67.011  1.00  0.00    -0.406 A  
HETATM   30  C   UNL     1     -10.234  14.212  66.720  1.00  0.00    -0.262 A  
HETATM   31  C   UNL     1      -9.304  14.601  67.685  1.00  0.00    -0.200 A  
HETATM   32  C   UNL     1      -9.737  14.997  68.949  1.00  0.00    -0.224 A  
HETATM   33  C   UNL     1     -11.099  15.010  69.246  1.00  0.00    -0.280 A  
HETATM   34  C   UNL     1     -12.029  14.622  68.283  1.00  0.00    -0.282 A  
ENDBRANCH  28  29
ENDBRANCH  27  28
ENDBRANCH  24  27
ENDBRANCH  23  24
ENDBRANCH  20  22
ENDBRANCH  12  13
ENDBRANCH  11  12
ENDBRANCH   9  10
ENDBRANCH   8   9
ENDBRANCH   7   8
ENDBRANCH   4   7
ENDBRANCH   2   3
TORSDOF 12
ENDMDL
MODEL       42
REMARK 921   NORMALIZED FREE ENERGY PREDICTED BY IDOCK:   -5.86 KCAL/MOL
REMARK 922        TOTAL FREE ENERGY PREDICTED BY IDOCK:  -12.81 KCAL/MOL
REMARK 923 INTER-LIGAND FREE ENERGY PREDICTED BY IDOCK:   -9.73 KCAL/MOL
REMARK 924 INTRA-LIGAND FREE ENERGY PREDICTED BY IDOCK:   -3.09 KCAL/MOL
REMARK 927      BINDING AFFINITY PREDICTED BY RF-SCORE:    0.00 PKD
ROOT
HETATM    1  C   UNL     1      -7.636  10.114  65.091  1.00  0.00    -0.141 C  
HETATM    2  C   UNL     1      -6.403  10.559  65.856  1.00  0.00    -0.128 C  
ENDROOT
BRANCH   2   3
HETATM    3  N   UNL     1      -6.561  11.892  66.391  1.00  0.00    -0.322 N  
HETATM    4  C   UNL     1      -6.523  12.122  67.748  1.00  0.00    -0.095 C  
HETATM    5  H   UNL     1      -6.702  12.676  65.753  1.00  0.00     0.000 HD 
HETATM    6  O   UNL     1      -6.368  11.234  68.576  1.00  0.00    -0.046 OA 
BRANCH   4   7
HETATM    7  C   UNL     1      -6.680  13.585  68.114  1.00  0.00    -0.120 C  
BRANCH   7   8
HETATM    8  C   UNL     1      -8.150  13.937  68.357  1.00  0.00    -0.145 C  
BRANCH   8   9
HETATM    9  C   UNL     1      -8.663  15.068  67.466  1.00  0.00    -0.194 C  
BRANCH   9  10
HETATM   10  C   UNL     1     -10.092  15.421  67.764  1.00  0.00    -0.227 C  
HETATM   11  C   UNL     1     -11.143  15.319  66.934  1.00  0.00    -0.288 C  
BRANCH  11  12
HETATM   12  C   UNL     1     -11.121  14.858  65.503  1.00  0.00    -0.353 C  
BRANCH  12  13
HETATM   13  C   UNL     1     -11.777  13.486  65.293  1.00  0.00    -0.341 C  
HETATM   14  C   UNL     1     -12.650  13.367  64.035  1.00  0.00    -0.120 C  
HETATM   15  C   UNL     1     -12.684  11.868  63.769  1.00  0.00    -0.466 C  
HETATM   16  O   UNL     1     -12.048  14.007  62.915  1.00  0.00    -0.618 OA 
HETATM   17  H   UNL     1     -12.588  13.934  62.136  1.00  0.00     0.000 HD 
HETATM   18  C   UNL     1     -11.245  11.430  64.029  1.00  0.00    -0.269 C  
HETATM   19  O   UNL     1     -10.472  11.578  62.836  1.00  0.00    -0.639 OA 
HETATM   20  C   UNL     1     -10.698  12.384  65.115  1.00  0.00    -0.327 C  
HETATM   21  H   UNL     1      -9.576  11.306  62.998  1.00  0.00     0.000 HD 
BRANCH  20  22
HETATM   22  C   UNL     1     -10.419  11.653  66.411  1.00  0.00    -0.283 C  
HETATM   23  C   UNL     1     -11.301  11.581  67.423  1.00  0.00    -0.367 C  
BRANCH  23  24
HETATM   24  C   UNL     1     -11.086  10.961  68.780  1.00  0.00    -0.256 C  
HETATM   25  H   UNL     1      -9.558  10.462  69.916  1.00  0.00     0.000 HD 
HETATM   26  O   UNL     1      -9.693  10.852  69.061  1.00  0.00    -0.202 OA 
BRANCH  24  27
HETATM   27  C   UNL     1     -11.729  11.766  69.916  1.00  0.00    -0.399 C  
BRANCH  27  28
HETATM   28  C   UNL     1     -11.989  13.232  69.557  1.00  0.00    -0.366 C  
BRANCH  28  29
HETATM   29  C   UNL     1     -12.277  14.057  70.787  1.00  0.00    -0.438 A  
HETATM   30  C   UNL     1     -13.299  13.678  71.667  1.00  0.00    -0.424 A  
HETATM   31  C   UNL     1     -13.598  14.462  72.782  1.00  0.00    -0.531 A  
HETATM   32  C   UNL     1     -12.879  15.631  73.025  1.00  0.00    -0.599 A  
HETATM   33  C   UNL     1     -11.858  16.013  72.157  1.00  0.00    -0.623 A  
HETATM   34  C   UNL     1     -11.557  15.231  71.042  1.00  0.00    -0.399 A  
ENDBRANCH  28  29
ENDBRANCH  27  28
ENDBRANCH  24  27
ENDBRANCH  23  24
ENDBRANCH  20  22
ENDBRANCH  12  13
ENDBRANCH  11  12
ENDBRANCH   9  10
ENDBRANCH   8   9
ENDBRANCH   7   8
ENDBRANCH   4   7
ENDBRANCH   2   3
TORSDOF 12
ENDMDL
MODEL       43
REMARK 921   NORMALIZED FREE ENERGY PREDICTED BY IDOCK:   -5.86 KCAL/MOL
REMARK 922        TOTAL FREE ENERGY PREDICTED BY IDOCK:  -12.80 KCAL/MOL
REMARK 923 INTER-LIGAND FREE ENERGY PREDICTED BY IDOCK:  -10.42 KCAL/MOL
REMARK 924 INTRA-LIGAND FREE ENERGY PREDICTED BY IDOCK:   -2.38 KCAL/MOL
REMARK 927      BINDING AFFINITY PREDICTED BY RF-SCORE:    0.00 PKD
ROOT
HETATM    1  C   UNL     1      -9.835   3.419  71.770  1.00  0.00    -0.229 C  
HETATM    2  C   UNL     1      -9.713   4.759  71.070  1.00  0.00    -0.187 C  
ENDROOT
BRANCH   2   3
HETATM    3  N   UNL     1     -10.707   5.698  71.540  1.00  0.00    -0.248 N  
HETATM    4  C   UNL     1     -11.525   6.368  70.658  1.00  0.00    -0.362 C  
HETATM    5  H   UNL     1     -10.804   5.866  72.541  1.00  0.00     0.000 HD 
HETATM    6  O   UNL     1     -11.461   6.228  69.443  1.00  0.00    -0.427 OA 
BRANCH   4   7
HETATM    7  C   UNL     1     -12.519   7.287  71.341  1.00  0.00    -0.418 C  
BRANCH   7   8
HETATM    8  C   UNL     1     -11.822   8.191  72.361  1.00  0.00    -0.448 C  
BRANCH   8   9
HETATM    9  C   UNL     1     -10.804   9.146  71.737  1.00  0.00    -0.416 C  
BRANCH   9  10
HETATM   10  C   UNL     1     -11.460  10.213  70.909  1.00  0.00    -0.444 C  
HETATM   11  C   UNL     1     -11.362  10.385  69.581  1.00  0.00    -0.333 C  
BRANCH  11  12
HETATM   12  C   UNL     1     -10.542   9.565  68.623  1.00  0.00    -0.239 C  
BRANCH  12  13
HETATM   13  C   UNL     1      -9.649  10.410  67.704  1.00  0.00    -0.168 C  
HETATM   14  C   UNL     1      -8.252   9.830  67.440  1.00  0.00    -0.114 C  
HETATM   15  C   UNL     1      -7.834  10.494  66.135  1.00  0.00    -0.145 C  
HETATM   16  O   UNL     1      -8.297   8.422  67.231  1.00  0.00    -0.121 OA 
HETATM   17  H   UNL     1      -7.433   8.063  67.069  1.00  0.00     0.000 HD 
HETATM   18  C   UNL     1      -9.106  10.451  65.293  1.00  0.00    -0.193 C  
HETATM   19  O   UNL     1      -9.175   9.210  64.586  1.00  0.00    -0.434 OA 
HETATM   20  C   UNL     1     -10.282  10.538  66.292  1.00  0.00    -0.296 C  
HETATM   21  H   UNL     1      -9.967   9.183  64.062  1.00  0.00     0.000 HD 
BRANCH  20  22
HETATM   22  C   UNL     1     -11.055  11.830  66.134  1.00  0.00    -0.358 C  
HETATM   23  C   UNL     1     -10.813  12.929  66.870  1.00  0.00    -0.278 C  
BRANCH  23  24
HETATM   24  C   UNL     1     -11.580  14.226  66.855  1.00  0.00    -0.387 C  
HETATM   25  H   UNL     1     -13.198  14.939  65.989  1.00  0.00     0.000 HD 
HETATM   26  O   UNL     1     -12.714  14.121  65.998  1.00  0.00    -0.469 OA 
BRANCH  24  27
HETATM   27  C   UNL     1     -12.082  14.643  68.243  1.00  0.00    -0.214 C  
BRANCH  27  28
HETATM   28  C   UNL     1     -11.328  13.972  69.394  1.00  0.00    -0.317 C  
BRANCH  28  29
HETATM   29  C   UNL     1     -11.897  14.373  70.732  1.00  0.00    -0.349 A  
HETATM   30  C   UNL     1     -12.822  13.545  71.382  1.00  0.00    -0.440 A  
HETATM   31  C   UNL     1     -13.385  13.932  72.599  1.00  0.00    -0.640 A  
HETATM   32  C   UNL     1     -13.027  15.149  73.175  1.00  0.00    -0.627 A  
HETATM   33  C   UNL     1     -12.104  15.977  72.538  1.00  0.00    -0.635 A  
HETATM   34  C   UNL     1     -11.541  15.593  71.322  1.00  0.00    -0.485 A  
ENDBRANCH  28  29
ENDBRANCH  27  28
ENDBRANCH  24  27
ENDBRANCH  23  24
ENDBRANCH  20  22
ENDBRANCH  12  13
ENDBRANCH  11  12
ENDBRANCH   9  10
ENDBRANCH   8   9
ENDBRANCH   7   8
ENDBRANCH   4   7
ENDBRANCH   2   3
TORSDOF 12
ENDMDL
MODEL       44
REMARK 921   NORMALIZED FREE ENERGY PREDICTED BY IDOCK:   -5.84 KCAL/MOL
REMARK 922        TOTAL FREE ENERGY PREDICTED BY IDOCK:  -12.76 KCAL/MOL
REMARK 923 INTER-LIGAND FREE ENERGY PREDICTED BY IDOCK:  -10.27 KCAL/MOL
REMARK 924 INTRA-LIGAND FREE ENERGY PREDICTED BY IDOCK:   -2.49 KCAL/MOL
REMARK 927      BINDING AFFINITY PREDICTED BY RF-SCORE:    0.00 PKD
ROOT
HETATM    1  C   UNL     1     -11.567  14.741  64.775  1.00  0.00    -0.418 C  
HETATM    2  C   UNL     1     -11.836  13.342  64.253  1.00  0.00    -0.417 C  
ENDROOT
BRANCH   2   3
HETATM    3  N   UNL     1     -10.942  12.372  64.845  1.00  0.00    -0.292 N  
HETATM    4  C   UNL     1     -11.192  11.845  66.092  1.00  0.00    -0.333 C  
HETATM    5  H   UNL     1     -10.113  12.074  64.331  1.00  0.00     0.000 HD 
HETATM    6  O   UNL     1     -12.159  12.160  66.774  1.00  0.00    -0.609 OA 
BRANCH   4   7
HETATM    7  C   UNL     1     -10.159  10.826  66.531  1.00  0.00    -0.277 C  
BRANCH   7   8
HETATM    8  C   UNL     1      -8.765  11.200  66.021  1.00  0.00    -0.185 C  
BRANCH   8   9
HETATM    9  C   UNL     1      -7.884  11.863  67.079  1.00  0.00    -0.152 C  
BRANCH   9  10
HETATM   10  C   UNL     1      -8.694  12.519  68.161  1.00  0.00    -0.190 C  
HETATM   11  C   UNL     1      -9.079  13.804  68.221  1.00  0.00    -0.195 C  
BRANCH  11  12
HETATM   12  C   UNL     1      -8.758  14.889  67.231  1.00  0.00    -0.224 C  
BRANCH  12  13
HETATM   13  C   UNL     1      -9.082  16.299  67.743  1.00  0.00    -0.195 C  
HETATM   14  C   UNL     1      -8.216  17.421  67.151  1.00  0.00    -0.210 C  
HETATM   15  C   UNL     1      -9.069  18.667  67.349  1.00  0.00    -0.290 C  
HETATM   16  O   UNL     1      -8.003  17.242  65.755  1.00  0.00    -0.511 OA 
HETATM   17  H   UNL     1      -7.467  17.936  65.389  1.00  0.00     0.000 HD 
HETATM   18  C   UNL     1     -10.474  18.195  66.984  1.00  0.00    -0.370 C  
HETATM   19  O   UNL     1     -10.679  18.333  65.576  1.00  0.00    -0.596 OA 
HETATM   20  C   UNL     1     -10.534  16.699  67.366  1.00  0.00    -0.314 C  
HETATM   21  H   UNL     1     -11.554  18.039  65.349  1.00  0.00     0.000 HD 
BRANCH  20  22
HETATM   22  C   UNL     1     -11.501  16.452  68.504  1.00  0.00    -0.209 C  
HETATM   23  C   UNL     1     -11.126  15.954  69.696  1.00  0.00    -0.320 C  
BRANCH  23  24
HETATM   24  C   UNL     1     -12.018  15.587  70.854  1.00  0.00    -0.375 C  
HETATM   25  H   UNL     1     -13.946  15.594  71.254  1.00  0.00     0.000 HD 
HETATM   26  O   UNL     1     -13.384  15.826  70.523  1.00  0.00    -0.418 OA 
BRANCH  24  27
HETATM   27  C   UNL     1     -11.890  14.116  71.268  1.00  0.00    -0.139 C  
BRANCH  27  28
HETATM   28  C   UNL     1     -12.145  13.133  70.122  1.00  0.00    -0.392 C  
BRANCH  28  29
HETATM   29  C   UNL     1     -12.172  11.707  70.615  1.00  0.00    -0.461 A  
HETATM   30  C   UNL     1     -11.327  10.747  70.044  1.00  0.00    -0.397 A  
HETATM   31  C   UNL     1     -11.379   9.418  70.466  1.00  0.00    -0.328 A  
HETATM   32  C   UNL     1     -12.277   9.038  71.462  1.00  0.00    -0.403 A  
HETATM   33  C   UNL     1     -13.118   9.988  72.039  1.00  0.00    -0.541 A  
HETATM   34  C   UNL     1     -13.068  11.317  71.619  1.00  0.00    -0.513 A  
ENDBRANCH  28  29
ENDBRANCH  27  28
ENDBRANCH  24  27
ENDBRANCH  23  24
ENDBRANCH  20  22
ENDBRANCH  12  13
ENDBRANCH  11  12
ENDBRANCH   9  10
ENDBRANCH   8   9
ENDBRANCH   7   8
ENDBRANCH   4   7
ENDBRANCH   2   3
TORSDOF 12
ENDMDL
MODEL       45
REMARK 921   NORMALIZED FREE ENERGY PREDICTED BY IDOCK:   -5.83 KCAL/MOL
REMARK 922        TOTAL FREE ENERGY PREDICTED BY IDOCK:  -12.76 KCAL/MOL
REMARK 923 INTER-LIGAND FREE ENERGY PREDICTED BY IDOCK:  -10.90 KCAL/MOL
REMARK 924 INTRA-LIGAND FREE ENERGY PREDICTED BY IDOCK:   -1.87 KCAL/MOL
REMARK 927      BINDING AFFINITY PREDICTED BY RF-SCORE:    0.00 PKD
ROOT
HETATM    1  C   UNL     1      -9.536  15.740  65.928  1.00  0.00    -0.382 C  
HETATM    2  C   UNL     1     -10.837  15.646  65.153  1.00  0.00    -0.431 C  
ENDROOT
BRANCH   2   3
HETATM    3  N   UNL     1     -10.951  14.385  64.456  1.00  0.00    -0.600 N  
HETATM    4  C   UNL     1     -12.133  13.679  64.454  1.00  0.00    -0.427 C  
HETATM    5  H   UNL     1     -10.143  14.012  63.958  1.00  0.00     0.000 HD 
HETATM    6  O   UNL     1     -13.142  14.056  65.037  1.00  0.00    -0.742 OA 
BRANCH   4   7
HETATM    7  C   UNL     1     -12.065  12.397  63.648  1.00  0.00    -0.648 C  
BRANCH   7   8
HETATM    8  C   UNL     1     -10.622  11.902  63.522  1.00  0.00    -0.507 C  
BRANCH   8   9
HETATM    9  C   UNL     1     -10.292  10.737  64.454  1.00  0.00    -0.405 C  
BRANCH   9  10
HETATM   10  C   UNL     1     -10.621  11.046  65.887  1.00  0.00    -0.270 C  
HETATM   11  C   UNL     1     -10.297  10.320  66.968  1.00  0.00    -0.299 C  
BRANCH  11  12
HETATM   12  C   UNL     1      -9.556   9.011  66.987  1.00  0.00    -0.231 C  
BRANCH  12  13
HETATM   13  C   UNL     1     -10.410   7.832  67.475  1.00  0.00    -0.333 C  
HETATM   14  C   UNL     1     -10.467   6.631  66.520  1.00  0.00    -0.047 C  
HETATM   15  C   UNL     1     -10.847   5.472  67.432  1.00  0.00    -0.118 C  
HETATM   16  O   UNL     1      -9.193   6.352  65.949  1.00  0.00    -0.311 OA 
HETATM   17  H   UNL     1      -9.228   5.609  65.358  1.00  0.00     0.000 HD 
HETATM   18  C   UNL     1     -10.003   5.714  68.681  1.00  0.00    -0.162 C  
HETATM   19  O   UNL     1      -8.718   5.107  68.520  1.00  0.00    -0.097 OA 
HETATM   20  C   UNL     1      -9.835   7.246  68.792  1.00  0.00    -0.161 C  
HETATM   21  H   UNL     1      -8.193   5.258  69.298  1.00  0.00     0.000 HD 
BRANCH  20  22
HETATM   22  C   UNL     1     -10.542   7.798  70.012  1.00  0.00    -0.238 C  
HETATM   23  C   UNL     1     -11.453   7.103  70.714  1.00  0.00    -0.342 C  
BRANCH  23  24
HETATM   24  C   UNL     1     -12.275   7.591  71.879  1.00  0.00    -0.306 C  
HETATM   25  H   UNL     1     -11.975   8.618  73.531  1.00  0.00     0.000 HD 
HETATM   26  O   UNL     1     -11.456   8.311  72.797  1.00  0.00    -0.391 OA 
BRANCH  24  27
HETATM   27  C   UNL     1     -13.425   8.515  71.458  1.00  0.00    -0.325 C  
BRANCH  27  28
HETATM   28  C   UNL     1     -13.507   9.804  72.281  1.00  0.00    -0.443 C  
BRANCH  28  29
HETATM   29  C   UNL     1     -12.990  10.988  71.502  1.00  0.00    -0.553 A  
HETATM   30  C   UNL     1     -13.195  12.290  71.978  1.00  0.00    -0.508 A  
HETATM   31  C   UNL     1     -12.758  13.390  71.239  1.00  0.00    -0.424 A  
HETATM   32  C   UNL     1     -12.115  13.198  70.018  1.00  0.00    -0.375 A  
HETATM   33  C   UNL     1     -11.904  11.906  69.538  1.00  0.00    -0.395 A  
HETATM   34  C   UNL     1     -12.339  10.806  70.275  1.00  0.00    -0.423 A  
ENDBRANCH  28  29
ENDBRANCH  27  28
ENDBRANCH  24  27
ENDBRANCH  23  24
ENDBRANCH  20  22
ENDBRANCH  12  13
ENDBRANCH  11  12
ENDBRANCH   9  10
ENDBRANCH   8   9
ENDBRANCH   7   8
ENDBRANCH   4   7
ENDBRANCH   2   3
TORSDOF 12
ENDMDL
MODEL       46
REMARK 921   NORMALIZED FREE ENERGY PREDICTED BY IDOCK:   -5.82 KCAL/MOL
REMARK 922        TOTAL FREE ENERGY PREDICTED BY IDOCK:  -12.74 KCAL/MOL
REMARK 923 INTER-LIGAND FREE ENERGY PREDICTED BY IDOCK:  -10.87 KCAL/MOL
REMARK 924 INTRA-LIGAND FREE ENERGY PREDICTED BY IDOCK:   -1.87 KCAL/MOL
REMARK 927      BINDING AFFINITY PREDICTED BY RF-SCORE:    0.00 PKD
ROOT
HETATM    1  C   UNL     1     -10.338   6.845  73.827  1.00  0.00    -0.409 C  
HETATM    2  C   UNL     1     -10.991   7.796  72.843  1.00  0.00    -0.407 C  
ENDROOT
BRANCH   2   3
HETATM    3  N   UNL     1     -10.651   7.464  71.477  1.00  0.00    -0.207 N  
HETATM    4  C   UNL     1     -11.594   6.948  70.617  1.00  0.00    -0.353 C  
HETATM    5  H   UNL     1      -9.698   7.615  71.146  1.00  0.00     0.000 HD 
HETATM    6  O   UNL     1     -12.754   6.729  70.943  1.00  0.00    -0.301 OA 
BRANCH   4   7
HETATM    7  C   UNL     1     -11.056   6.689  69.223  1.00  0.00    -0.345 C  
BRANCH   7   8
HETATM    8  C   UNL     1     -10.626   7.994  68.548  1.00  0.00    -0.144 C  
BRANCH   8   9
HETATM    9  C   UNL     1      -9.901   7.785  67.219  1.00  0.00    -0.249 C  
BRANCH   9  10
HETATM   10  C   UNL     1      -8.827   8.810  66.991  1.00  0.00    -0.139 C  
HETATM   11  C   UNL     1      -8.837   9.811  66.097  1.00  0.00    -0.162 C  
BRANCH  11  12
HETATM   12  C   UNL     1      -9.916  10.113  65.094  1.00  0.00    -0.379 C  
BRANCH  12  13
HETATM   13  C   UNL     1     -10.252  11.608  64.990  1.00  0.00    -0.321 C  
HETATM   14  C   UNL     1     -10.662  12.087  63.590  1.00  0.00    -0.449 C  
HETATM   15  C   UNL     1     -11.454  13.357  63.869  1.00  0.00    -0.351 C  
HETATM   16  O   UNL     1     -11.523  11.154  62.945  1.00  0.00    -0.791 OA 
HETATM   17  H   UNL     1     -11.777  11.450  62.079  1.00  0.00     0.000 HD 
HETATM   18  C   UNL     1     -12.302  12.985  65.083  1.00  0.00    -0.484 C  
HETATM   19  O   UNL     1     -13.520  12.373  64.652  1.00  0.00    -0.671 OA 
HETATM   20  C   UNL     1     -11.470  11.960  65.886  1.00  0.00    -0.340 C  
HETATM   21  H   UNL     1     -14.047  12.142  65.408  1.00  0.00     0.000 HD 
BRANCH  20  22
HETATM   22  C   UNL     1     -11.042  12.516  67.227  1.00  0.00    -0.319 C  
HETATM   23  C   UNL     1     -10.202  13.556  67.361  1.00  0.00    -0.237 C  
BRANCH  23  24
HETATM   24  C   UNL     1      -9.645  14.123  68.642  1.00  0.00    -0.179 C  
HETATM   25  H   UNL     1      -7.875  14.576  69.373  1.00  0.00     0.000 HD 
HETATM   26  O   UNL     1      -8.225  14.218  68.566  1.00  0.00    -0.139 OA 
BRANCH  24  27
HETATM   27  C   UNL     1     -10.188  15.521  68.966  1.00  0.00    -0.229 C  
BRANCH  27  28
HETATM   28  C   UNL     1     -11.717  15.581  69.044  1.00  0.00    -0.392 C  
BRANCH  28  29
HETATM   29  C   UNL     1     -12.215  15.149  70.401  1.00  0.00    -0.391 A  
HETATM   30  C   UNL     1     -12.085  16.003  71.504  1.00  0.00    -0.513 A  
HETATM   31  C   UNL     1     -12.505  15.591  72.770  1.00  0.00    -0.519 A  
HETATM   32  C   UNL     1     -13.057  14.324  72.943  1.00  0.00    -0.589 A  
HETATM   33  C   UNL     1     -13.194  13.469  71.850  1.00  0.00    -0.510 A  
HETATM   34  C   UNL     1     -12.775  13.879  70.584  1.00  0.00    -0.351 A  
ENDBRANCH  28  29
ENDBRANCH  27  28
ENDBRANCH  24  27
ENDBRANCH  23  24
ENDBRANCH  20  22
ENDBRANCH  12  13
ENDBRANCH  11  12
ENDBRANCH   9  10
ENDBRANCH   8   9
ENDBRANCH   7   8
ENDBRANCH   4   7
ENDBRANCH   2   3
TORSDOF 12
ENDMDL
MODEL       47
REMARK 921   NORMALIZED FREE ENERGY PREDICTED BY IDOCK:   -5.82 KCAL/MOL
REMARK 922        TOTAL FREE ENERGY PREDICTED BY IDOCK:  -12.73 KCAL/MOL
REMARK 923 INTER-LIGAND FREE ENERGY PREDICTED BY IDOCK:  -10.70 KCAL/MOL
REMARK 924 INTRA-LIGAND FREE ENERGY PREDICTED BY IDOCK:   -2.03 KCAL/MOL
REMARK 927      BINDING AFFINITY PREDICTED BY RF-SCORE:    0.00 PKD
ROOT
HETATM    1  C   UNL     1     -10.114   8.330  67.327  1.00  0.00    -0.315 C  
HETATM    2  C   UNL     1      -9.246   8.565  66.105  1.00  0.00    -0.211 C  
ENDROOT
BRANCH   2   3
HETATM    3  N   UNL     1      -9.872   9.480  65.178  1.00  0.00    -0.437 N  
HETATM    4  C   UNL     1      -9.217   9.896  64.040  1.00  0.00    -0.253 C  
HETATM    5  H   UNL     1     -10.813   9.825  65.369  1.00  0.00     0.000 HD 
HETATM    6  O   UNL     1      -8.084   9.536  63.747  1.00  0.00    -0.133 OA 
BRANCH   4   7
HETATM    7  C   UNL     1     -10.043  10.831  63.180  1.00  0.00    -0.268 C  
BRANCH   7   8
HETATM    8  C   UNL     1     -10.240  12.184  63.869  1.00  0.00    -0.426 C  
BRANCH   8   9
HETATM    9  C   UNL     1     -11.597  12.825  63.583  1.00  0.00    -0.572 C  
BRANCH   9  10
HETATM   10  C   UNL     1     -12.553  12.667  64.731  1.00  0.00    -0.530 C  
HETATM   11  C   UNL     1     -12.683  13.474  65.796  1.00  0.00    -0.433 C  
BRANCH  11  12
HETATM   12  C   UNL     1     -11.874  14.706  66.098  1.00  0.00    -0.282 C  
BRANCH  12  13
HETATM   13  C   UNL     1     -10.897  14.524  67.268  1.00  0.00    -0.297 C  
HETATM   14  C   UNL     1      -9.435  14.285  66.864  1.00  0.00    -0.263 C  
HETATM   15  C   UNL     1      -8.653  14.705  68.101  1.00  0.00    -0.166 C  
HETATM   16  O   UNL     1      -9.044  15.122  65.781  1.00  0.00    -0.455 OA 
HETATM   17  H   UNL     1      -8.140  14.974  65.530  1.00  0.00     0.000 HD 
HETATM   18  C   UNL     1      -9.366  15.976  68.555  1.00  0.00    -0.213 C  
HETATM   19  O   UNL     1      -8.815  17.107  67.876  1.00  0.00    -0.219 OA 
HETATM   20  C   UNL     1     -10.846  15.804  68.144  1.00  0.00    -0.307 C  
HETATM   21  H   UNL     1      -9.259  17.899  68.159  1.00  0.00     0.000 HD 
BRANCH  20  22
HETATM   22  C   UNL     1     -11.752  15.699  69.352  1.00  0.00    -0.395 C  
HETATM   23  C   UNL     1     -11.611  14.756  70.300  1.00  0.00    -0.333 C  
BRANCH  23  24
HETATM   24  C   UNL     1     -12.509  14.509  71.485  1.00  0.00    -0.355 C  
HETATM   25  H   UNL     1     -14.228  15.189  72.162  1.00  0.00     0.000 HD 
HETATM   26  O   UNL     1     -13.662  15.345  71.415  1.00  0.00    -0.487 OA 
BRANCH  24  27
HETATM   27  C   UNL     1     -12.993  13.057  71.580  1.00  0.00    -0.417 C  
BRANCH  27  28
HETATM   28  C   UNL     1     -12.222  12.094  70.672  1.00  0.00    -0.392 C  
BRANCH  28  29
HETATM   29  C   UNL     1     -12.375  10.665  71.129  1.00  0.00    -0.505 A  
HETATM   30  C   UNL     1     -11.382   9.720  70.836  1.00  0.00    -0.439 A  
HETATM   31  C   UNL     1     -11.539   8.388  71.218  1.00  0.00    -0.326 A  
HETATM   32  C   UNL     1     -12.689   7.988  71.895  1.00  0.00    -0.354 A  
HETATM   33  C   UNL     1     -13.680   8.922  72.195  1.00  0.00    -0.527 A  
HETATM   34  C   UNL     1     -13.526  10.254  71.814  1.00  0.00    -0.387 A  
ENDBRANCH  28  29
ENDBRANCH  27  28
ENDBRANCH  24  27
ENDBRANCH  23  24
ENDBRANCH  20  22
ENDBRANCH  12  13
ENDBRANCH  11  12
ENDBRANCH   9  10
ENDBRANCH   8   9
ENDBRANCH   7   8
ENDBRANCH   4   7
ENDBRANCH   2   3
TORSDOF 12
ENDMDL
MODEL       48
REMARK 921   NORMALIZED FREE ENERGY PREDICTED BY IDOCK:   -5.81 KCAL/MOL
REMARK 922        TOTAL FREE ENERGY PREDICTED BY IDOCK:  -12.72 KCAL/MOL
REMARK 923 INTER-LIGAND FREE ENERGY PREDICTED BY IDOCK:  -10.32 KCAL/MOL
REMARK 924 INTRA-LIGAND FREE ENERGY PREDICTED BY IDOCK:   -2.40 KCAL/MOL
REMARK 927      BINDING AFFINITY PREDICTED BY RF-SCORE:    0.00 PKD
ROOT
HETATM    1  C   UNL     1     -12.048  15.980  72.035  1.00  0.00    -0.606 C  
HETATM    2  C   UNL     1     -13.055  15.271  71.149  1.00  0.00    -0.479 C  
ENDROOT
BRANCH   2   3
HETATM    3  N   UNL     1     -12.588  13.960  70.756  1.00  0.00    -0.351 N  
HETATM    4  C   UNL     1     -12.958  12.835  71.458  1.00  0.00    -0.292 C  
HETATM    5  H   UNL     1     -11.975  13.868  69.946  1.00  0.00     0.000 HD 
HETATM    6  O   UNL     1     -13.681  12.866  72.446  1.00  0.00    -0.565 OA 
BRANCH   4   7
HETATM    7  C   UNL     1     -12.392  11.554  70.879  1.00  0.00    -0.460 C  
BRANCH   7   8
HETATM    8  C   UNL     1     -12.098  11.708  69.384  1.00  0.00    -0.328 C  
BRANCH   8   9
HETATM    9  C   UNL     1     -10.650  11.393  69.010  1.00  0.00    -0.224 C  
BRANCH   9  10
HETATM   10  C   UNL     1     -10.358   9.921  69.059  1.00  0.00    -0.224 C  
HETATM   11  C   UNL     1     -10.388   9.053  68.035  1.00  0.00    -0.275 C  
BRANCH  11  12
HETATM   12  C   UNL     1     -10.754   9.354  66.608  1.00  0.00    -0.076 C  
BRANCH  12  13
HETATM   13  C   UNL     1      -9.659  10.111  65.843  1.00  0.00    -0.274 C  
HETATM   14  C   UNL     1      -8.450   9.260  65.426  1.00  0.00    -0.145 C  
HETATM   15  C   UNL     1      -7.853  10.041  64.264  1.00  0.00    -0.144 C  
HETATM   16  O   UNL     1      -8.848   7.979  64.948  1.00  0.00    -0.389 OA 
HETATM   17  H   UNL     1      -8.100   7.453  64.689  1.00  0.00     0.000 HD 
HETATM   18  C   UNL     1      -9.078  10.488  63.470  1.00  0.00    -0.247 C  
HETATM   19  O   UNL     1      -9.447   9.470  62.538  1.00  0.00    -0.562 OA 
HETATM   20  C   UNL     1     -10.212  10.670  64.505  1.00  0.00    -0.399 C  
HETATM   21  H   UNL     1     -10.210   9.748  62.044  1.00  0.00     0.000 HD 
BRANCH  20  22
HETATM   22  C   UNL     1     -10.627  12.120  64.628  1.00  0.00    -0.340 C  
HETATM   23  C   UNL     1     -11.529  12.556  65.525  1.00  0.00    -0.389 C  
BRANCH  23  24
HETATM   24  C   UNL     1     -12.076  13.953  65.666  1.00  0.00    -0.421 C  
HETATM   25  H   UNL     1     -13.820  14.849  65.484  1.00  0.00     0.000 HD 
HETATM   26  O   UNL     1     -13.475  13.968  65.395  1.00  0.00    -0.679 OA 
BRANCH  24  27
HETATM   27  C   UNL     1     -11.868  14.541  67.068  1.00  0.00    -0.408 C  
BRANCH  27  28
HETATM   28  C   UNL     1     -10.397  14.624  67.485  1.00  0.00    -0.234 C  
BRANCH  28  29
HETATM   29  C   UNL     1      -9.940  16.056  67.608  1.00  0.00    -0.239 A  
HETATM   30  C   UNL     1     -10.607  16.938  68.469  1.00  0.00    -0.367 A  
HETATM   31  C   UNL     1     -10.217  18.275  68.553  1.00  0.00    -0.402 A  
HETATM   32  C   UNL     1      -9.158  18.741  67.777  1.00  0.00    -0.311 A  
HETATM   33  C   UNL     1      -8.486  17.870  66.921  1.00  0.00    -0.260 A  
HETATM   34  C   UNL     1      -8.875  16.534  66.835  1.00  0.00    -0.233 A  
ENDBRANCH  28  29
ENDBRANCH  27  28
ENDBRANCH  24  27
ENDBRANCH  23  24
ENDBRANCH  20  22
ENDBRANCH  12  13
ENDBRANCH  11  12
ENDBRANCH   9  10
ENDBRANCH   8   9
ENDBRANCH   7   8
ENDBRANCH   4   7
ENDBRANCH   2   3
TORSDOF 12
ENDMDL
MODEL       49
REMARK 921   NORMALIZED FREE ENERGY PREDICTED BY IDOCK:   -5.81 KCAL/MOL
REMARK 922        TOTAL FREE ENERGY PREDICTED BY IDOCK:  -12.72 KCAL/MOL
REMARK 923 INTER-LIGAND FREE ENERGY PREDICTED BY IDOCK:  -11.06 KCAL/MOL
REMARK 924 INTRA-LIGAND FREE ENERGY PREDICTED BY IDOCK:   -1.66 KCAL/MOL
REMARK 927      BINDING AFFINITY PREDICTED BY RF-SCORE:    0.00 PKD
ROOT
HETATM    1  C   UNL     1     -10.570  16.350  65.681  1.00  0.00    -0.337 C  
HETATM    2  C   UNL     1     -11.225  15.655  64.501  1.00  0.00    -0.325 C  
ENDROOT
BRANCH   2   3
HETATM    3  N   UNL     1     -10.871  14.254  64.445  1.00  0.00    -0.612 N  
HETATM    4  C   UNL     1     -11.724  13.327  63.891  1.00  0.00    -0.431 C  
HETATM    5  H   UNL     1      -9.974  13.948  64.823  1.00  0.00     0.000 HD 
HETATM    6  O   UNL     1     -12.820  13.616  63.427  1.00  0.00    -0.569 OA 
BRANCH   4   7
HETATM    7  C   UNL     1     -11.167  11.918  63.899  1.00  0.00    -0.497 C  
BRANCH   7   8
HETATM    8  C   UNL     1      -9.977  11.802  64.855  1.00  0.00    -0.280 C  
BRANCH   8   9
HETATM    9  C   UNL     1     -10.311  11.085  66.163  1.00  0.00    -0.306 C  
BRANCH   9  10
HETATM   10  C   UNL     1     -11.632  11.523  66.728  1.00  0.00    -0.133 C  
HETATM   11  C   UNL     1     -11.865  12.580  67.523  1.00  0.00    -0.389 C  
BRANCH  11  12
HETATM   12  C   UNL     1     -10.846  13.550  68.055  1.00  0.00    -0.266 C  
BRANCH  12  13
HETATM   13  C   UNL     1     -10.922  13.742  69.576  1.00  0.00    -0.081 C  
HETATM   14  C   UNL     1     -10.915  15.203  70.049  1.00  0.00    -0.271 C  
HETATM   15  C   UNL     1     -11.552  15.131  71.430  1.00  0.00    -0.424 C  
HETATM   16  O   UNL     1     -11.728  16.028  69.222  1.00  0.00    -0.350 OA 
HETATM   17  H   UNL     1     -11.724  16.932  69.514  1.00  0.00     0.000 HD 
HETATM   18  C   UNL     1     -12.708  14.152  71.235  1.00  0.00    -0.361 C  
HETATM   19  O   UNL     1     -13.867  14.858  70.785  1.00  0.00    -0.624 OA 
HETATM   20  C   UNL     1     -12.250  13.166  70.136  1.00  0.00    -0.360 C  
HETATM   21  H   UNL     1     -14.586  14.248  70.664  1.00  0.00     0.000 HD 
BRANCH  20  22
HETATM   22  C   UNL     1     -12.073  11.765  70.682  1.00  0.00    -0.407 C  
HETATM   23  C   UNL     1     -12.973  11.165  71.480  1.00  0.00    -0.542 C  
BRANCH  23  24
HETATM   24  C   UNL     1     -12.849   9.819  72.146  1.00  0.00    -0.360 C  
HETATM   25  H   UNL     1     -14.061   8.409  72.794  1.00  0.00     0.000 HD 
HETATM   26  O   UNL     1     -14.140   9.258  72.374  1.00  0.00    -0.436 OA 
BRANCH  24  27
HETATM   27  C   UNL     1     -12.044   8.810  71.317  1.00  0.00    -0.344 C  
BRANCH  27  28
HETATM   28  C   UNL     1     -12.546   7.369  71.449  1.00  0.00    -0.405 C  
BRANCH  28  29
HETATM   29  C   UNL     1     -11.588   6.392  70.814  1.00  0.00    -0.402 A  
HETATM   30  C   UNL     1     -10.866   5.494  71.611  1.00  0.00    -0.271 A  
HETATM   31  C   UNL     1      -9.946   4.619  71.034  1.00  0.00    -0.270 A  
HETATM   32  C   UNL     1      -9.740   4.634  69.656  1.00  0.00    -0.283 A  
HETATM   33  C   UNL     1     -10.457   5.521  68.854  1.00  0.00    -0.282 A  
HETATM   34  C   UNL     1     -11.377   6.397  69.430  1.00  0.00    -0.443 A  
ENDBRANCH  28  29
ENDBRANCH  27  28
ENDBRANCH  24  27
ENDBRANCH  23  24
ENDBRANCH  20  22
ENDBRANCH  12  13
ENDBRANCH  11  12
ENDBRANCH   9  10
ENDBRANCH   8   9
ENDBRANCH   7   8
ENDBRANCH   4   7
ENDBRANCH   2   3
TORSDOF 12
ENDMDL
MODEL       50
REMARK 921   NORMALIZED FREE ENERGY PREDICTED BY IDOCK:   -5.80 KCAL/MOL
REMARK 922        TOTAL FREE ENERGY PREDICTED BY IDOCK:  -12.71 KCAL/MOL
REMARK 923 INTER-LIGAND FREE ENERGY PREDICTED BY IDOCK:  -10.09 KCAL/MOL
REMARK 924 INTRA-LIGAND FREE ENERGY PREDICTED BY IDOCK:   -2.62 KCAL/MOL
REMARK 927      BINDING AFFINITY PREDICTED BY RF-SCORE:    0.00 PKD
ROOT
HETATM    1  C   UNL     1      -8.862   4.719  71.257  1.00  0.00    -0.153 C  
HETATM    2  C   UNL     1      -9.311   5.981  70.545  1.00  0.00    -0.160 C  
ENDROOT
BRANCH   2   3
HETATM    3  N   UNL     1      -9.998   6.882  71.444  1.00  0.00    -0.182 N  
HETATM    4  C   UNL     1     -11.336   7.164  71.282  1.00  0.00    -0.268 C  
HETATM    5  H   UNL     1      -9.482   7.317  72.209  1.00  0.00     0.000 HD 
HETATM    6  O   UNL     1     -12.018   6.691  70.381  1.00  0.00    -0.396 OA 
BRANCH   4   7
HETATM    7  C   UNL     1     -11.882   8.107  72.335  1.00  0.00    -0.448 C  
BRANCH   7   8
HETATM    8  C   UNL     1     -12.530   9.336  71.691  1.00  0.00    -0.448 C  
BRANCH   8   9
HETATM    9  C   UNL     1     -11.547  10.207  70.910  1.00  0.00    -0.459 C  
BRANCH   9  10
HETATM   10  C   UNL     1     -12.149  10.746  69.644  1.00  0.00    -0.361 C  
HETATM   11  C   UNL     1     -11.980  11.971  69.122  1.00  0.00    -0.326 C  
BRANCH  11  12
HETATM   12  C   UNL     1     -11.174  13.097  69.708  1.00  0.00    -0.017 C  
BRANCH  12  13
HETATM   13  C   UNL     1     -11.999  14.363  69.980  1.00  0.00    -0.394 C  
HETATM   14  C   UNL     1     -13.254  14.150  70.839  1.00  0.00    -0.225 C  
HETATM   15  C   UNL     1     -13.530  15.534  71.411  1.00  0.00    -0.583 C  
HETATM   16  O   UNL     1     -13.006  13.259  71.921  1.00  0.00    -0.342 OA 
HETATM   17  H   UNL     1     -13.782  13.127  72.453  1.00  0.00     0.000 HD 
HETATM   18  C   UNL     1     -12.141  16.045  71.785  1.00  0.00    -0.499 C  
HETATM   19  O   UNL     1     -11.808  15.615  73.107  1.00  0.00    -0.448 OA 
HETATM   20  C   UNL     1     -11.164  15.402  70.776  1.00  0.00    -0.378 C  
HETATM   21  H   UNL     1     -10.944  15.933  73.340  1.00  0.00     0.000 HD 
BRANCH  20  22
HETATM   22  C   UNL     1     -10.537  16.438  69.867  1.00  0.00    -0.245 C  
HETATM   23  C   UNL     1     -10.974  16.687  68.621  1.00  0.00    -0.328 C  
BRANCH  23  24
HETATM   24  C   UNL     1     -10.367  17.626  67.610  1.00  0.00    -0.368 C  
HETATM   25  H   UNL     1      -8.731  18.708  67.441  1.00  0.00     0.000 HD 
HETATM   26  O   UNL     1      -9.114  18.116  68.079  1.00  0.00    -0.270 OA 
BRANCH  24  27
HETATM   27  C   UNL     1     -10.128  16.966  66.246  1.00  0.00    -0.335 C  
BRANCH  27  28
HETATM   28  C   UNL     1      -9.368  15.640  66.332  1.00  0.00    -0.332 C  
BRANCH  28  29
HETATM   29  C   UNL     1     -10.258  14.472  65.985  1.00  0.00    -0.329 A  
HETATM   30  C   UNL     1     -11.615  14.678  65.706  1.00  0.00    -0.328 A  
HETATM   31  C   UNL     1     -12.452  13.597  65.428  1.00  0.00    -0.537 A  
HETATM   32  C   UNL     1     -11.939  12.302  65.427  1.00  0.00    -0.395 A  
HETATM   33  C   UNL     1     -10.589  12.087  65.699  1.00  0.00    -0.303 A  
HETATM   34  C   UNL     1      -9.751  13.167  65.978  1.00  0.00    -0.234 A  
ENDBRANCH  28  29
ENDBRANCH  27  28
ENDBRANCH  24  27
ENDBRANCH  23  24
ENDBRANCH  20  22
ENDBRANCH  12  13
ENDBRANCH  11  12
ENDBRANCH   9  10
ENDBRANCH   8   9
ENDBRANCH   7   8
ENDBRANCH   4   7
ENDBRANCH   2   3
TORSDOF 12
ENDMDL
MODEL       51
REMARK 921   NORMALIZED FREE ENERGY PREDICTED BY IDOCK:   -5.80 KCAL/MOL
REMARK 922        TOTAL FREE ENERGY PREDICTED BY IDOCK:  -12.71 KCAL/MOL
REMARK 923 INTER-LIGAND FREE ENERGY PREDICTED BY IDOCK:  -10.12 KCAL/MOL
REMARK 924 INTRA-LIGAND FREE ENERGY PREDICTED BY IDOCK:   -2.59 KCAL/MOL
REMARK 927      BINDING AFFINITY PREDICTED BY RF-SCORE:    0.00 PKD
ROOT
HETATM    1  C   UNL     1     -10.227   7.491  66.920  1.00  0.00    -0.359 C  
HETATM    2  C   UNL     1     -11.061   6.364  67.501  1.00  0.00    -0.306 C  
ENDROOT
BRANCH   2   3
HETATM    3  N   UNL     1     -11.468   6.650  68.858  1.00  0.00    -0.602 N  
HETATM    4  C   UNL     1     -10.949   5.943  69.920  1.00  0.00    -0.374 C  
HETATM    5  H   UNL     1     -12.152   7.387  69.032  1.00  0.00     0.000 HD 
HETATM    6  O   UNL     1     -10.134   5.039  69.791  1.00  0.00    -0.231 OA 
BRANCH   4   7
HETATM    7  C   UNL     1     -11.477   6.405  71.264  1.00  0.00    -0.371 C  
BRANCH   7   8
HETATM    8  C   UNL     1     -12.576   7.457  71.092  1.00  0.00    -0.330 C  
BRANCH   8   9
HETATM    9  C   UNL     1     -12.113   8.880  71.399  1.00  0.00    -0.381 C  
BRANCH   9  10
HETATM   10  C   UNL     1     -13.235   9.746  71.899  1.00  0.00    -0.545 C  
HETATM   11  C   UNL     1     -13.328  11.083  71.813  1.00  0.00    -0.400 C  
BRANCH  11  12
HETATM   12  C   UNL     1     -12.312  12.022  71.225  1.00  0.00    -0.195 C  
BRANCH  12  13
HETATM   13  C   UNL     1     -12.898  13.383  70.822  1.00  0.00    -0.221 C  
HETATM   14  C   UNL     1     -13.882  13.992  71.832  1.00  0.00    -0.445 C  
HETATM   15  C   UNL     1     -13.849  15.478  71.504  1.00  0.00    -0.539 C  
HETATM   16  O   UNL     1     -13.436  13.818  73.173  1.00  0.00    -0.504 OA 
HETATM   17  H   UNL     1     -14.044  14.195  73.797  1.00  0.00     0.000 HD 
HETATM   18  C   UNL     1     -12.366  15.755  71.266  1.00  0.00    -0.438 C  
HETATM   19  O   UNL     1     -11.726  16.060  72.508  1.00  0.00    -0.463 OA 
HETATM   20  C   UNL     1     -11.775  14.447  70.693  1.00  0.00    -0.315 C  
HETATM   21  H   UNL     1     -10.804  16.232  72.359  1.00  0.00     0.000 HD 
BRANCH  20  22
HETATM   22  C   UNL     1     -11.323  14.620  69.259  1.00  0.00    -0.313 C  
HETATM   23  C   UNL     1     -12.017  14.154  68.206  1.00  0.00    -0.367 C  
BRANCH  23  24
HETATM   24  C   UNL     1     -11.610  14.193  66.755  1.00  0.00    -0.391 C  
HETATM   25  H   UNL     1     -10.130  14.931  65.687  1.00  0.00     0.000 HD 
HETATM   26  O   UNL     1     -10.386  14.907  66.602  1.00  0.00    -0.273 OA 
BRANCH  24  27
HETATM   27  C   UNL     1     -11.414  12.797  66.149  1.00  0.00    -0.399 C  
BRANCH  27  28
HETATM   28  C   UNL     1     -11.604  11.660  67.156  1.00  0.00    -0.291 C  
BRANCH  28  29
HETATM   29  C   UNL     1     -10.289  11.238  67.764  1.00  0.00    -0.208 A  
HETATM   30  C   UNL     1     -10.267  10.504  68.958  1.00  0.00    -0.233 A  
HETATM   31  C   UNL     1      -9.053  10.150  69.547  1.00  0.00    -0.213 A  
HETATM   32  C   UNL     1      -7.852  10.526  68.949  1.00  0.00    -0.124 A  
HETATM   33  C   UNL     1      -7.865  11.252  67.759  1.00  0.00    -0.115 A  
HETATM   34  C   UNL     1      -9.077  11.607  67.168  1.00  0.00    -0.171 A  
ENDBRANCH  28  29
ENDBRANCH  27  28
ENDBRANCH  24  27
ENDBRANCH  23  24
ENDBRANCH  20  22
ENDBRANCH  12  13
ENDBRANCH  11  12
ENDBRANCH   9  10
ENDBRANCH   8   9
ENDBRANCH   7   8
ENDBRANCH   4   7
ENDBRANCH   2   3
TORSDOF 12
ENDMDL
MODEL       52
REMARK 921   NORMALIZED FREE ENERGY PREDICTED BY IDOCK:   -5.80 KCAL/MOL
REMARK 922        TOTAL FREE ENERGY PREDICTED BY IDOCK:  -12.71 KCAL/MOL
REMARK 923 INTER-LIGAND FREE ENERGY PREDICTED BY IDOCK:  -10.14 KCAL/MOL
REMARK 924 INTRA-LIGAND FREE ENERGY PREDICTED BY IDOCK:   -2.57 KCAL/MOL
REMARK 927      BINDING AFFINITY PREDICTED BY RF-SCORE:    0.00 PKD
ROOT
HETATM    1  C   UNL     1     -13.058  10.795  71.757  1.00  0.00    -0.573 C  
HETATM    2  C   UNL     1     -13.376   9.312  71.725  1.00  0.00    -0.409 C  
ENDROOT
BRANCH   2   3
HETATM    3  N   UNL     1     -12.364   8.567  71.011  1.00  0.00    -0.467 N  
HETATM    4  C   UNL     1     -11.464   7.768  71.681  1.00  0.00    -0.261 C  
HETATM    5  H   UNL     1     -12.315   8.634  69.995  1.00  0.00     0.000 HD 
HETATM    6  O   UNL     1     -11.453   7.645  72.899  1.00  0.00    -0.354 OA 
BRANCH   4   7
HETATM    7  C   UNL     1     -10.500   7.047  70.761  1.00  0.00    -0.231 C  
BRANCH   7   8
HETATM    8  C   UNL     1     -11.251   6.202  69.728  1.00  0.00    -0.494 C  
BRANCH   8   9
HETATM    9  C   UNL     1     -10.470   5.982  68.434  1.00  0.00    -0.290 C  
BRANCH   9  10
HETATM   10  C   UNL     1     -11.018   6.794  67.295  1.00  0.00    -0.433 C  
HETATM   11  C   UNL     1     -10.633   8.023  66.915  1.00  0.00    -0.324 C  
BRANCH  11  12
HETATM   12  C   UNL     1      -9.583   8.880  67.566  1.00  0.00    -0.183 C  
BRANCH  12  13
HETATM   13  C   UNL     1      -8.582   9.483  66.570  1.00  0.00    -0.142 C  
HETATM   14  C   UNL     1      -7.285   8.681  66.387  1.00  0.00    -0.080 C  
HETATM   15  C   UNL     1      -6.781   9.133  65.023  1.00  0.00    -0.073 C  
HETATM   16  O   UNL     1      -7.534   7.281  66.331  1.00  0.00    -0.080 OA 
HETATM   17  H   UNL     1      -6.732   6.785  66.217  1.00  0.00     0.000 HD 
HETATM   18  C   UNL     1      -8.050   9.183  64.175  1.00  0.00    -0.149 C  
HETATM   19  O   UNL     1      -8.301   7.896  63.607  1.00  0.00    -0.357 OA 
HETATM   20  C   UNL     1      -9.196   9.547  65.146  1.00  0.00    -0.305 C  
HETATM   21  H   UNL     1      -9.092   7.927  63.080  1.00  0.00     0.000 HD 
BRANCH  20  22
HETATM   22  C   UNL     1      -9.774  10.912  64.841  1.00  0.00    -0.318 C  
HETATM   23  C   UNL     1     -10.714  11.123  63.904  1.00  0.00    -0.407 C  
BRANCH  23  24
HETATM   24  C   UNL     1     -11.284  12.447  63.462  1.00  0.00    -0.469 C  
HETATM   25  H   UNL     1     -13.059  13.191  63.051  1.00  0.00     0.000 HD 
HETATM   26  O   UNL     1     -12.700  12.356  63.329  1.00  0.00    -0.688 OA 
BRANCH  24  27
HETATM   27  C   UNL     1     -10.981  13.588  64.442  1.00  0.00    -0.399 C  
BRANCH  27  28
HETATM   28  C   UNL     1     -12.173  13.973  65.321  1.00  0.00    -0.451 C  
BRANCH  28  29
HETATM   29  C   UNL     1     -11.944  13.584  66.761  1.00  0.00    -0.453 A  
HETATM   30  C   UNL     1     -11.744  14.572  67.735  1.00  0.00    -0.403 A  
HETATM   31  C   UNL     1     -11.487  14.216  69.059  1.00  0.00    -0.322 A  
HETATM   32  C   UNL     1     -11.427  12.872  69.421  1.00  0.00    -0.323 A  
HETATM   33  C   UNL     1     -11.628  11.883  68.459  1.00  0.00    -0.375 A  
HETATM   34  C   UNL     1     -11.885  12.236  67.135  1.00  0.00    -0.328 A  
ENDBRANCH  28  29
ENDBRANCH  27  28
ENDBRANCH  24  27
ENDBRANCH  23  24
ENDBRANCH  20  22
ENDBRANCH  12  13
ENDBRANCH  11  12
ENDBRANCH   9  10
ENDBRANCH   8   9
ENDBRANCH   7   8
ENDBRANCH   4   7
ENDBRANCH   2   3
TORSDOF 12
ENDMDL
MODEL       53
REMARK 921   NORMALIZED FREE ENERGY PREDICTED BY IDOCK:   -5.79 KCAL/MOL
REMARK 922        TOTAL FREE ENERGY PREDICTED BY IDOCK:  -12.68 KCAL/MOL
REMARK 923 INTER-LIGAND FREE ENERGY PREDICTED BY IDOCK:  -10.37 KCAL/MOL
REMARK 924 INTRA-LIGAND FREE ENERGY PREDICTED BY IDOCK:   -2.31 KCAL/MOL
REMARK 927      BINDING AFFINITY PREDICTED BY RF-SCORE:    0.00 PKD
ROOT
HETATM    1  C   UNL     1     -10.390   4.140  63.207  1.00  0.00    -0.062 C  
HETATM    2  C   UNL     1     -10.851   3.773  64.606  1.00  0.00     0.004 C  
ENDROOT
BRANCH   2   3
HETATM    3  N   UNL     1     -11.203   4.946  65.374  1.00  0.00    -0.898 N  
HETATM    4  C   UNL     1     -10.388   5.403  66.386  1.00  0.00    -0.247 C  
HETATM    5  H   UNL     1     -12.069   5.443  65.164  1.00  0.00     0.000 HD 
HETATM    6  O   UNL     1      -9.340   4.856  66.704  1.00  0.00    -0.127 OA 
BRANCH   4   7
HETATM    7  C   UNL     1     -10.911   6.658  67.057  1.00  0.00    -0.463 C  
BRANCH   7   8
HETATM    8  C   UNL     1      -9.843   7.289  67.954  1.00  0.00    -0.172 C  
BRANCH   8   9
HETATM    9  C   UNL     1      -9.508   8.733  67.583  1.00  0.00    -0.168 C  
BRANCH   9  10
HETATM   10  C   UNL     1     -10.238   9.186  66.351  1.00  0.00    -0.300 C  
HETATM   11  C   UNL     1     -10.113  10.365  65.721  1.00  0.00    -0.329 C  
BRANCH  11  12
HETATM   12  C   UNL     1      -9.234  11.516  66.127  1.00  0.00    -0.230 C  
BRANCH  12  13
HETATM   13  C   UNL     1     -10.000  12.833  66.316  1.00  0.00    -0.269 C  
HETATM   14  C   UNL     1     -10.047  13.742  65.080  1.00  0.00    -0.283 C  
HETATM   15  C   UNL     1     -11.267  14.617  65.330  1.00  0.00    -0.347 C  
HETATM   16  O   UNL     1     -10.266  12.998  63.886  1.00  0.00    -0.594 OA 
HETATM   17  H   UNL     1     -10.295  13.560  63.121  1.00  0.00     0.000 HD 
HETATM   18  C   UNL     1     -12.297  13.637  65.885  1.00  0.00    -0.471 C  
HETATM   19  O   UNL     1     -13.012  13.026  64.808  1.00  0.00    -0.735 OA 
HETATM   20  C   UNL     1     -11.492  12.557  66.643  1.00  0.00    -0.417 C  
HETATM   21  H   UNL     1     -13.653  12.416  65.154  1.00  0.00     0.000 HD 
BRANCH  20  22
HETATM   22  C   UNL     1     -11.762  12.602  68.132  1.00  0.00    -0.396 C  
HETATM   23  C   UNL     1     -11.566  11.553  68.950  1.00  0.00    -0.384 C  
BRANCH  23  24
HETATM   24  C   UNL     1     -11.889  11.466  70.419  1.00  0.00    -0.335 C  
HETATM   25  H   UNL     1     -12.626  12.650  71.810  1.00  0.00     0.000 HD 
HETATM   26  O   UNL     1     -12.422  12.704  70.883  1.00  0.00    -0.369 OA 
BRANCH  24  27
HETATM   27  C   UNL     1     -12.908  10.368  70.748  1.00  0.00    -0.450 C  
BRANCH  27  28
HETATM   28  C   UNL     1     -12.637   9.658  72.077  1.00  0.00    -0.443 C  
BRANCH  28  29
HETATM   29  C   UNL     1     -11.731   8.466  71.890  1.00  0.00    -0.398 A  
HETATM   30  C   UNL     1     -12.266   7.226  71.517  1.00  0.00    -0.387 A  
HETATM   31  C   UNL     1     -11.439   6.110  71.386  1.00  0.00    -0.317 A  
HETATM   32  C   UNL     1     -10.071   6.225  71.626  1.00  0.00    -0.214 A  
HETATM   33  C   UNL     1      -9.529   7.456  71.993  1.00  0.00    -0.162 A  
HETATM   34  C   UNL     1     -10.355   8.573  72.126  1.00  0.00    -0.409 A  
ENDBRANCH  28  29
ENDBRANCH  27  28
ENDBRANCH  24  27
ENDBRANCH  23  24
ENDBRANCH  20  22
ENDBRANCH  12  13
ENDBRANCH  11  12
ENDBRANCH   9  10
ENDBRANCH   8   9
ENDBRANCH   7   8
ENDBRANCH   4   7
ENDBRANCH   2   3
TORSDOF 12
ENDMDL
MODEL       54
REMARK 921   NORMALIZED FREE ENERGY PREDICTED BY IDOCK:   -5.79 KCAL/MOL
REMARK 922        TOTAL FREE ENERGY PREDICTED BY IDOCK:  -12.68 KCAL/MOL
REMARK 923 INTER-LIGAND FREE ENERGY PREDICTED BY IDOCK:   -9.46 KCAL/MOL
REMARK 924 INTRA-LIGAND FREE ENERGY PREDICTED BY IDOCK:   -3.22 KCAL/MOL
REMARK 927      BINDING AFFINITY PREDICTED BY RF-SCORE:    0.00 PKD
ROOT
HETATM    1  C   UNL     1      -9.348   3.938  72.013  1.00  0.00    -0.186 C  
HETATM    2  C   UNL     1      -9.619   4.927  70.895  1.00  0.00    -0.176 C  
ENDROOT
BRANCH   2   3
HETATM    3  N   UNL     1     -10.288   6.112  71.384  1.00  0.00    -0.209 N  
HETATM    4  C   UNL     1     -11.349   6.662  70.700  1.00  0.00    -0.347 C  
HETATM    5  H   UNL     1      -9.969   6.547  72.250  1.00  0.00     0.000 HD 
HETATM    6  O   UNL     1     -11.781   6.204  69.650  1.00  0.00    -0.331 OA 
BRANCH   4   7
HETATM    7  C   UNL     1     -11.935   7.882  71.382  1.00  0.00    -0.331 C  
BRANCH   7   8
HETATM    8  C   UNL     1     -10.843   8.895  71.732  1.00  0.00    -0.436 C  
BRANCH   8   9
HETATM    9  C   UNL     1     -10.432   9.783  70.558  1.00  0.00    -0.366 C  
BRANCH   9  10
HETATM   10  C   UNL     1     -11.618  10.281  69.782  1.00  0.00    -0.294 C  
HETATM   11  C   UNL     1     -12.355  11.374  70.038  1.00  0.00    -0.311 C  
BRANCH  11  12
HETATM   12  C   UNL     1     -12.178  12.332  71.184  1.00  0.00    -0.102 C  
BRANCH  12  13
HETATM   13  C   UNL     1     -12.817  13.706  70.935  1.00  0.00    -0.321 C  
HETATM   14  C   UNL     1     -14.100  13.981  71.733  1.00  0.00    -0.368 C  
HETATM   15  C   UNL     1     -14.183  15.501  71.757  1.00  0.00    -0.563 C  
HETATM   16  O   UNL     1     -13.997  13.516  73.074  1.00  0.00    -0.436 OA 
HETATM   17  H   UNL     1     -14.790  13.686  73.568  1.00  0.00     0.000 HD 
HETATM   18  C   UNL     1     -12.740  15.929  72.013  1.00  0.00    -0.432 C  
HETATM   19  O   UNL     1     -12.489  15.965  73.420  1.00  0.00    -0.432 OA 
HETATM   20  C   UNL     1     -11.852  14.845  71.361  1.00  0.00    -0.404 C  
HETATM   21  H   UNL     1     -11.591  16.231  73.578  1.00  0.00     0.000 HD 
BRANCH  20  22
HETATM   22  C   UNL     1     -11.072  15.394  70.186  1.00  0.00    -0.324 C  
HETATM   23  C   UNL     1     -11.635  15.698  69.004  1.00  0.00    -0.396 C  
BRANCH  23  24
HETATM   24  C   UNL     1     -10.937  16.159  67.750  1.00  0.00    -0.293 C  
HETATM   25  H   UNL     1      -9.093  16.549  67.183  1.00  0.00     0.000 HD 
HETATM   26  O   UNL     1      -9.533  16.258  67.973  1.00  0.00    -0.219 OA 
BRANCH  24  27
HETATM   27  C   UNL     1     -11.154  15.216  66.560  1.00  0.00    -0.305 C  
BRANCH  27  28
HETATM   28  C   UNL     1     -11.795  13.880  66.946  1.00  0.00    -0.453 C  
BRANCH  28  29
HETATM   29  C   UNL     1     -10.786  12.759  66.923  1.00  0.00    -0.272 A  
HETATM   30  C   UNL     1     -10.906  11.722  65.988  1.00  0.00    -0.343 A  
HETATM   31  C   UNL     1     -10.001  10.660  65.991  1.00  0.00    -0.295 A  
HETATM   32  C   UNL     1      -8.970  10.625  66.928  1.00  0.00    -0.147 A  
HETATM   33  C   UNL     1      -8.840  11.655  67.859  1.00  0.00    -0.155 A  
HETATM   34  C   UNL     1      -9.744  12.717  67.858  1.00  0.00    -0.217 A  
ENDBRANCH  28  29
ENDBRANCH  27  28
ENDBRANCH  24  27
ENDBRANCH  23  24
ENDBRANCH  20  22
ENDBRANCH  12  13
ENDBRANCH  11  12
ENDBRANCH   9  10
ENDBRANCH   8   9
ENDBRANCH   7   8
ENDBRANCH   4   7
ENDBRANCH   2   3
TORSDOF 12
ENDMDL
MODEL       55
REMARK 921   NORMALIZED FREE ENERGY PREDICTED BY IDOCK:   -5.78 KCAL/MOL
REMARK 922        TOTAL FREE ENERGY PREDICTED BY IDOCK:  -12.68 KCAL/MOL
REMARK 923 INTER-LIGAND FREE ENERGY PREDICTED BY IDOCK:  -10.64 KCAL/MOL
REMARK 924 INTRA-LIGAND FREE ENERGY PREDICTED BY IDOCK:   -2.04 KCAL/MOL
REMARK 927      BINDING AFFINITY PREDICTED BY RF-SCORE:    0.00 PKD
ROOT
HETATM    1  C   UNL     1     -12.996  15.906  73.529  1.00  0.00    -0.707 C  
HETATM    2  C   UNL     1     -13.887  15.372  72.423  1.00  0.00    -0.562 C  
ENDROOT
BRANCH   2   3
HETATM    3  N   UNL     1     -13.205  14.381  71.622  1.00  0.00    -0.331 N  
HETATM    4  C   UNL     1     -12.522  14.737  70.481  1.00  0.00    -0.352 C  
HETATM    5  H   UNL     1     -13.230  13.401  71.906  1.00  0.00     0.000 HD 
HETATM    6  O   UNL     1     -12.455  15.889  70.070  1.00  0.00    -0.296 OA 
BRANCH   4   7
HETATM    7  C   UNL     1     -11.850  13.566  69.793  1.00  0.00    -0.395 C  
BRANCH   7   8
HETATM    8  C   UNL     1     -12.080  12.266  70.568  1.00  0.00    -0.371 C  
BRANCH   8   9
HETATM    9  C   UNL     1     -11.625  11.016  69.815  1.00  0.00    -0.401 C  
BRANCH   9  10
HETATM   10  C   UNL     1     -10.179  11.089  69.417  1.00  0.00    -0.097 C  
HETATM   11  C   UNL     1      -9.668  10.946  68.183  1.00  0.00    -0.174 C  
BRANCH  11  12
HETATM   12  C   UNL     1     -10.430  10.647  66.921  1.00  0.00    -0.304 C  
BRANCH  12  13
HETATM   13  C   UNL     1     -10.186  11.672  65.804  1.00  0.00    -0.281 C  
HETATM   14  C   UNL     1      -9.677  11.083  64.480  1.00  0.00    -0.273 C  
HETATM   15  C   UNL     1     -10.063  12.137  63.452  1.00  0.00    -0.383 C  
HETATM   16  O   UNL     1     -10.345   9.870  64.151  1.00  0.00    -0.308 OA 
HETATM   17  H   UNL     1     -10.030   9.506  63.333  1.00  0.00     0.000 HD 
HETATM   18  C   UNL     1     -11.468  12.553  63.883  1.00  0.00    -0.437 C  
HETATM   19  O   UNL     1     -12.433  11.682  63.287  1.00  0.00    -0.854 OA 
HETATM   20  C   UNL     1     -11.509  12.388  65.419  1.00  0.00    -0.402 C  
HETATM   21  H   UNL     1     -13.307  11.941  63.555  1.00  0.00     0.000 HD 
BRANCH  20  22
HETATM   22  C   UNL     1     -11.654  13.721  66.120  1.00  0.00    -0.369 C  
HETATM   23  C   UNL     1     -10.615  14.529  66.392  1.00  0.00    -0.302 C  
BRANCH  23  24
HETATM   24  C   UNL     1     -10.641  15.824  67.162  1.00  0.00    -0.313 C  
HETATM   25  H   UNL     1      -9.840  16.542  68.811  1.00  0.00     0.000 HD 
HETATM   26  O   UNL     1      -9.824  15.726  68.326  1.00  0.00    -0.210 OA 
BRANCH  24  27
HETATM   27  C   UNL     1     -10.142  17.021  66.343  1.00  0.00    -0.325 C  
BRANCH  27  28
HETATM   28  C   UNL     1     -10.224  18.353  67.092  1.00  0.00    -0.396 C  
BRANCH  28  29
HETATM   29  C   UNL     1      -8.852  18.878  67.434  1.00  0.00    -0.293 A  
HETATM   30  C   UNL     1      -7.854  18.939  66.452  1.00  0.00    -0.296 A  
HETATM   31  C   UNL     1      -6.571  19.381  66.774  1.00  0.00    -0.199 A  
HETATM   32  C   UNL     1      -6.274  19.766  68.080  1.00  0.00    -0.255 A  
HETATM   33  C   UNL     1      -7.261  19.713  69.063  1.00  0.00    -0.379 A  
HETATM   34  C   UNL     1      -8.544  19.271  68.743  1.00  0.00    -0.375 A  
ENDBRANCH  28  29
ENDBRANCH  27  28
ENDBRANCH  24  27
ENDBRANCH  23  24
ENDBRANCH  20  22
ENDBRANCH  12  13
ENDBRANCH  11  12
ENDBRANCH   9  10
ENDBRANCH   8   9
ENDBRANCH   7   8
ENDBRANCH   4   7
ENDBRANCH   2   3
TORSDOF 12
ENDMDL
MODEL       56
REMARK 921   NORMALIZED FREE ENERGY PREDICTED BY IDOCK:   -5.77 KCAL/MOL
REMARK 922        TOTAL FREE ENERGY PREDICTED BY IDOCK:  -12.64 KCAL/MOL
REMARK 923 INTER-LIGAND FREE ENERGY PREDICTED BY IDOCK:   -9.44 KCAL/MOL
REMARK 924 INTRA-LIGAND FREE ENERGY PREDICTED BY IDOCK:   -3.21 KCAL/MOL
REMARK 927      BINDING AFFINITY PREDICTED BY RF-SCORE:    0.00 PKD
ROOT
HETATM    1  C   UNL     1      -6.311   9.607  64.112  1.00  0.00    -0.109 C  
HETATM    2  C   UNL     1      -5.893  10.105  65.483  1.00  0.00    -0.094 C  
ENDROOT
BRANCH   2   3
HETATM    3  N   UNL     1      -6.592  11.317  65.844  1.00  0.00    -0.366 N  
HETATM    4  C   UNL     1      -6.789  11.657  67.164  1.00  0.00    -0.143 C  
HETATM    5  H   UNL     1      -6.946  11.931  65.110  1.00  0.00     0.000 HD 
HETATM    6  O   UNL     1      -6.405  10.967  68.100  1.00  0.00    -0.056 OA 
BRANCH   4   7
HETATM    7  C   UNL     1      -7.517  12.974  67.343  1.00  0.00    -0.136 C  
BRANCH   7   8
HETATM    8  C   UNL     1      -8.637  12.849  68.379  1.00  0.00    -0.120 C  
BRANCH   8   9
HETATM    9  C   UNL     1      -9.472  14.119  68.533  1.00  0.00    -0.202 C  
BRANCH   9  10
HETATM   10  C   UNL     1     -10.913  13.817  68.835  1.00  0.00    -0.281 C  
HETATM   11  C   UNL     1     -11.931  13.763  67.961  1.00  0.00    -0.390 C  
BRANCH  11  12
HETATM   12  C   UNL     1     -11.865  14.026  66.482  1.00  0.00    -0.439 C  
BRANCH  12  13
HETATM   13  C   UNL     1     -12.148  12.783  65.627  1.00  0.00    -0.514 C  
HETATM   14  C   UNL     1     -12.778  13.066  64.255  1.00  0.00    -0.162 C  
HETATM   15  C   UNL     1     -12.426  11.828  63.442  1.00  0.00    -0.490 C  
HETATM   16  O   UNL     1     -12.187  14.198  63.627  1.00  0.00    -0.936 OA 
HETATM   17  H   UNL     1     -12.577  14.373  62.779  1.00  0.00     0.000 HD 
HETATM   18  C   UNL     1     -10.977  11.548  63.834  1.00  0.00    -0.401 C  
HETATM   19  O   UNL     1     -10.097  12.296  62.993  1.00  0.00    -0.439 OA 
HETATM   20  C   UNL     1     -10.829  12.035  65.293  1.00  0.00    -0.340 C  
HETATM   21  H   UNL     1      -9.195  12.122  63.237  1.00  0.00     0.000 HD 
BRANCH  20  22
HETATM   22  C   UNL     1     -10.577  10.884  66.243  1.00  0.00    -0.276 C  
HETATM   23  C   UNL     1      -9.942   9.755  65.883  1.00  0.00    -0.345 C  
BRANCH  23  24
HETATM   24  C   UNL     1      -9.724   8.522  66.721  1.00  0.00    -0.236 C  
HETATM   25  H   UNL     1      -8.252   7.715  67.751  1.00  0.00     0.000 HD 
HETATM   26  O   UNL     1      -8.390   8.493  67.222  1.00  0.00    -0.114 OA 
BRANCH  24  27
HETATM   27  C   UNL     1     -10.674   8.436  67.922  1.00  0.00    -0.141 C  
BRANCH  27  28
HETATM   28  C   UNL     1     -10.058   8.947  69.228  1.00  0.00    -0.205 C  
BRANCH  28  29
HETATM   29  C   UNL     1     -11.121   9.389  70.202  1.00  0.00    -0.277 A  
HETATM   30  C   UNL     1     -11.570   8.516  71.202  1.00  0.00    -0.325 A  
HETATM   31  C   UNL     1     -12.584   8.905  72.077  1.00  0.00    -0.460 A  
HETATM   32  C   UNL     1     -13.159  10.169  71.960  1.00  0.00    -0.538 A  
HETATM   33  C   UNL     1     -12.716  11.046  70.972  1.00  0.00    -0.485 A  
HETATM   34  C   UNL     1     -11.702  10.659  70.095  1.00  0.00    -0.417 A  
ENDBRANCH  28  29
ENDBRANCH  27  28
ENDBRANCH  24  27
ENDBRANCH  23  24
ENDBRANCH  20  22
ENDBRANCH  12  13
ENDBRANCH  11  12
ENDBRANCH   9  10
ENDBRANCH   8   9
ENDBRANCH   7   8
ENDBRANCH   4   7
ENDBRANCH   2   3
TORSDOF 12
ENDMDL
MODEL       57
REMARK 921   NORMALIZED FREE ENERGY PREDICTED BY IDOCK:   -5.77 KCAL/MOL
REMARK 922        TOTAL FREE ENERGY PREDICTED BY IDOCK:  -12.64 KCAL/MOL
REMARK 923 INTER-LIGAND FREE ENERGY PREDICTED BY IDOCK:   -9.78 KCAL/MOL
REMARK 924 INTRA-LIGAND FREE ENERGY PREDICTED BY IDOCK:   -2.86 KCAL/MOL
REMARK 927      BINDING AFFINITY PREDICTED BY RF-SCORE:    0.00 PKD
ROOT
HETATM    1  C   UNL     1      -8.742  10.791  62.736  1.00  0.00    -0.268 C  
HETATM    2  C   UNL     1     -10.248  10.970  62.776  1.00  0.00     0.037 C  
ENDROOT
BRANCH   2   3
HETATM    3  N   UNL     1     -10.616  12.262  63.312  1.00  0.00    -0.557 N  
HETATM    4  C   UNL     1     -11.937  12.606  63.491  1.00  0.00    -0.548 C  
HETATM    5  H   UNL     1      -9.886  12.929  63.560  1.00  0.00     0.000 HD 
HETATM    6  O   UNL     1     -12.870  11.865  63.206  1.00  0.00    -0.702 OA 
BRANCH   4   7
HETATM    7  C   UNL     1     -12.122  13.987  64.087  1.00  0.00    -0.456 C  
BRANCH   7   8
HETATM    8  C   UNL     1     -12.573  13.901  65.547  1.00  0.00    -0.560 C  
BRANCH   8   9
HETATM    9  C   UNL     1     -11.700  14.710  66.505  1.00  0.00    -0.335 C  
BRANCH   9  10
HETATM   10  C   UNL     1     -12.068  14.477  67.943  1.00  0.00    -0.261 C  
HETATM   11  C   UNL     1     -11.424  13.700  68.830  1.00  0.00    -0.346 C  
BRANCH  11  12
HETATM   12  C   UNL     1     -10.204  12.859  68.574  1.00  0.00    -0.210 C  
BRANCH  12  13
HETATM   13  C   UNL     1     -10.530  11.408  68.194  1.00  0.00    -0.212 C  
HETATM   14  C   UNL     1     -10.377  11.075  66.703  1.00  0.00    -0.240 C  
HETATM   15  C   UNL     1     -10.190   9.564  66.695  1.00  0.00    -0.310 C  
HETATM   16  O   UNL     1      -9.211  11.673  66.147  1.00  0.00    -0.215 OA 
HETATM   17  H   UNL     1      -9.115  11.467  65.224  1.00  0.00     0.000 HD 
HETATM   18  C   UNL     1      -9.251   9.318  67.873  1.00  0.00    -0.129 C  
HETATM   19  O   UNL     1      -7.893   9.443  67.442  1.00  0.00    -0.101 OA 
HETATM   20  C   UNL     1      -9.564  10.424  68.906  1.00  0.00    -0.197 C  
HETATM   21  H   UNL     1      -7.309   9.290  68.176  1.00  0.00     0.000 HD 
BRANCH  20  22
HETATM   22  C   UNL     1     -10.170   9.853  70.170  1.00  0.00    -0.326 C  
HETATM   23  C   UNL     1     -11.459  10.023  70.513  1.00  0.00    -0.407 C  
BRANCH  23  24
HETATM   24  C   UNL     1     -12.133   9.577  71.785  1.00  0.00    -0.384 C  
HETATM   25  H   UNL     1     -13.958   9.136  72.376  1.00  0.00     0.000 HD 
HETATM   26  O   UNL     1     -13.533   9.418  71.574  1.00  0.00    -0.372 OA 
BRANCH  24  27
HETATM   27  C   UNL     1     -11.588   8.245  72.318  1.00  0.00    -0.449 C  
BRANCH  27  28
HETATM   28  C   UNL     1     -12.264   7.017  71.702  1.00  0.00    -0.395 C  
BRANCH  28  29
HETATM   29  C   UNL     1     -11.347   6.312  70.733  1.00  0.00    -0.397 A  
HETATM   30  C   UNL     1     -11.532   6.458  69.352  1.00  0.00    -0.374 A  
HETATM   31  C   UNL     1     -10.714   5.774  68.453  1.00  0.00    -0.283 A  
HETATM   32  C   UNL     1      -9.706   4.937  68.926  1.00  0.00    -0.242 A  
HETATM   33  C   UNL     1      -9.511   4.788  70.299  1.00  0.00    -0.243 A  
HETATM   34  C   UNL     1     -10.328   5.472  71.199  1.00  0.00    -0.300 A  
ENDBRANCH  28  29
ENDBRANCH  27  28
ENDBRANCH  24  27
ENDBRANCH  23  24
ENDBRANCH  20  22
ENDBRANCH  12  13
ENDBRANCH  11  12
ENDBRANCH   9  10
ENDBRANCH   8   9
ENDBRANCH   7   8
ENDBRANCH   4   7
ENDBRANCH   2   3
TORSDOF 12
ENDMDL
MODEL       58
REMARK 921   NORMALIZED FREE ENERGY PREDICTED BY IDOCK:   -5.77 KCAL/MOL
REMARK 922        TOTAL FREE ENERGY PREDICTED BY IDOCK:  -12.64 KCAL/MOL
REMARK 923 INTER-LIGAND FREE ENERGY PREDICTED BY IDOCK:   -9.89 KCAL/MOL
REMARK 924 INTRA-LIGAND FREE ENERGY PREDICTED BY IDOCK:   -2.75 KCAL/MOL
REMARK 927      BINDING AFFINITY PREDICTED BY RF-SCORE:    0.00 PKD
ROOT
HETATM    1  C   UNL     1     -11.465  16.046  64.340  1.00  0.00    -0.246 C  
HETATM    2  C   UNL     1     -12.181  14.709  64.397  1.00  0.00    -0.452 C  
ENDROOT
BRANCH   2   3
HETATM    3  N   UNL     1     -11.260  13.606  64.237  1.00  0.00    -0.523 N  
HETATM    4  C   UNL     1     -11.688  12.387  63.762  1.00  0.00    -0.483 C  
HETATM    5  H   UNL     1     -10.278  13.733  64.481  1.00  0.00     0.000 HD 
HETATM    6  O   UNL     1     -12.852  12.155  63.459  1.00  0.00    -0.768 OA 
BRANCH   4   7
HETATM    7  C   UNL     1     -10.575  11.366  63.639  1.00  0.00    -0.476 C  
BRANCH   7   8
HETATM    8  C   UNL     1      -9.677  11.379  64.879  1.00  0.00    -0.283 C  
BRANCH   8   9
HETATM    9  C   UNL     1     -10.269  10.627  66.070  1.00  0.00    -0.309 C  
BRANCH   9  10
HETATM   10  C   UNL     1      -9.846   9.186  66.100  1.00  0.00    -0.363 C  
HETATM   11  C   UNL     1      -9.566   8.445  67.184  1.00  0.00    -0.233 C  
BRANCH  11  12
HETATM   12  C   UNL     1      -9.581   8.900  68.617  1.00  0.00    -0.158 C  
BRANCH  12  13
HETATM   13  C   UNL     1     -10.896   8.585  69.344  1.00  0.00    -0.103 C  
HETATM   14  C   UNL     1     -11.029   7.142  69.851  1.00  0.00    -0.253 C  
HETATM   15  C   UNL     1     -12.064   7.251  70.962  1.00  0.00    -0.361 C  
HETATM   16  O   UNL     1      -9.812   6.668  70.418  1.00  0.00    -0.175 OA 
HETATM   17  H   UNL     1      -9.894   5.775  70.731  1.00  0.00     0.000 HD 
HETATM   18  C   UNL     1     -11.665   8.531  71.692  1.00  0.00    -0.306 C  
HETATM   19  O   UNL     1     -10.689   8.231  72.693  1.00  0.00    -0.343 OA 
HETATM   20  C   UNL     1     -11.036   9.453  70.623  1.00  0.00    -0.351 C  
HETATM   21  H   UNL     1     -10.441   9.028  73.147  1.00  0.00     0.000 HD 
BRANCH  20  22
HETATM   22  C   UNL     1     -11.883  10.684  70.380  1.00  0.00    -0.441 C  
HETATM   23  C   UNL     1     -11.482  11.717  69.618  1.00  0.00    -0.359 C  
BRANCH  23  24
HETATM   24  C   UNL     1     -12.205  13.019  69.389  1.00  0.00    -0.113 C  
HETATM   25  H   UNL     1     -12.400  14.746  70.313  1.00  0.00     0.000 HD 
HETATM   26  O   UNL     1     -11.944  13.926  70.458  1.00  0.00    -0.323 OA 
BRANCH  24  27
HETATM   27  C   UNL     1     -11.799  13.711  68.082  1.00  0.00    -0.407 C  
BRANCH  27  28
HETATM   28  C   UNL     1     -10.284  13.759  67.860  1.00  0.00    -0.245 C  
BRANCH  28  29
HETATM   29  C   UNL     1      -9.834  15.132  67.429  1.00  0.00    -0.224 A  
HETATM   30  C   UNL     1      -8.728  15.278  66.582  1.00  0.00    -0.327 A  
HETATM   31  C   UNL     1      -8.281  16.548  66.215  1.00  0.00    -0.360 A  
HETATM   32  C   UNL     1      -8.935  17.682  66.693  1.00  0.00    -0.283 A  
HETATM   33  C   UNL     1     -10.040  17.546  67.532  1.00  0.00    -0.326 A  
HETATM   34  C   UNL     1     -10.488  16.278  67.900  1.00  0.00    -0.295 A  
ENDBRANCH  28  29
ENDBRANCH  27  28
ENDBRANCH  24  27
ENDBRANCH  23  24
ENDBRANCH  20  22
ENDBRANCH  12  13
ENDBRANCH  11  12
ENDBRANCH   9  10
ENDBRANCH   8   9
ENDBRANCH   7   8
ENDBRANCH   4   7
ENDBRANCH   2   3
TORSDOF 12
ENDMDL
MODEL       59
REMARK 921   NORMALIZED FREE ENERGY PREDICTED BY IDOCK:   -5.72 KCAL/MOL
REMARK 922        TOTAL FREE ENERGY PREDICTED BY IDOCK:  -12.56 KCAL/MOL
REMARK 923 INTER-LIGAND FREE ENERGY PREDICTED BY IDOCK:   -9.80 KCAL/MOL
REMARK 924 INTRA-LIGAND FREE ENERGY PREDICTED BY IDOCK:   -2.76 KCAL/MOL
REMARK 927      BINDING AFFINITY PREDICTED BY RF-SCORE:    0.00 PKD
ROOT
HETATM    1  C   UNL     1     -12.619  12.019  63.456  1.00  0.00    -0.625 C  
HETATM    2  C   UNL     1     -12.140  13.345  64.016  1.00  0.00    -0.449 C  
ENDROOT
BRANCH   2   3
HETATM    3  N   UNL     1     -12.300  13.405  65.451  1.00  0.00    -0.449 N  
HETATM    4  C   UNL     1     -11.630  14.345  66.202  1.00  0.00    -0.369 C  
HETATM    5  H   UNL     1     -12.919  12.740  65.916  1.00  0.00     0.000 HD 
HETATM    6  O   UNL     1     -10.862  15.168  65.719  1.00  0.00    -0.329 OA 
BRANCH   4   7
HETATM    7  C   UNL     1     -11.946  14.268  67.682  1.00  0.00    -0.400 C  
BRANCH   7   8
HETATM    8  C   UNL     1     -11.082  13.211  68.376  1.00  0.00    -0.298 C  
BRANCH   8   9
HETATM    9  C   UNL     1     -11.892  12.090  69.025  1.00  0.00    -0.372 C  
BRANCH   9  10
HETATM   10  C   UNL     1     -12.225  12.388  70.460  1.00  0.00    -0.382 C  
HETATM   11  C   UNL     1     -12.839  11.577  71.336  1.00  0.00    -0.489 C  
BRANCH  11  12
HETATM   12  C   UNL     1     -13.363  10.193  71.070  1.00  0.00    -0.333 C  
BRANCH  12  13
HETATM   13  C   UNL     1     -12.443   9.080  71.592  1.00  0.00    -0.418 C  
HETATM   14  C   UNL     1     -13.149   7.760  71.935  1.00  0.00    -0.271 C  
HETATM   15  C   UNL     1     -12.030   6.731  71.859  1.00  0.00    -0.374 C  
HETATM   16  O   UNL     1     -14.136   7.423  70.966  1.00  0.00    -0.640 OA 
HETATM   17  H   UNL     1     -14.572   6.606  71.179  1.00  0.00     0.000 HD 
HETATM   18  C   UNL     1     -11.249   7.149  70.616  1.00  0.00    -0.280 C  
HETATM   19  O   UNL     1     -11.826   6.542  69.457  1.00  0.00    -0.649 OA 
HETATM   20  C   UNL     1     -11.396   8.684  70.517  1.00  0.00    -0.241 C  
HETATM   21  H   UNL     1     -11.340   6.803  68.683  1.00  0.00     0.000 HD 
BRANCH  20  22
HETATM   22  C   UNL     1     -10.073   9.387  70.732  1.00  0.00    -0.366 C  
HETATM   23  C   UNL     1      -9.042   9.299  69.873  1.00  0.00    -0.203 C  
BRANCH  23  24
HETATM   24  C   UNL     1      -7.662   9.880  70.039  1.00  0.00    -0.178 C  
HETATM   25  H   UNL     1      -6.276   9.939  71.436  1.00  0.00     0.000 HD 
HETATM   26  O   UNL     1      -7.147   9.572  71.332  1.00  0.00    -0.323 OA 
BRANCH  24  27
HETATM   27  C   UNL     1      -6.660   9.356  69.002  1.00  0.00    -0.046 C  
BRANCH  27  28
HETATM   28  C   UNL     1      -6.441  10.311  67.825  1.00  0.00    -0.062 C  
BRANCH  28  29
HETATM   29  C   UNL     1      -7.595  10.261  66.855  1.00  0.00    -0.105 A  
HETATM   30  C   UNL     1      -8.290  11.432  66.525  1.00  0.00    -0.164 A  
HETATM   31  C   UNL     1      -9.386  11.384  65.662  1.00  0.00    -0.242 A  
HETATM   32  C   UNL     1      -9.796  10.167  65.123  1.00  0.00    -0.394 A  
HETATM   33  C   UNL     1      -9.108   8.997  65.443  1.00  0.00    -0.250 A  
HETATM   34  C   UNL     1      -8.012   9.042  66.305  1.00  0.00    -0.103 A  
ENDBRANCH  28  29
ENDBRANCH  27  28
ENDBRANCH  24  27
ENDBRANCH  23  24
ENDBRANCH  20  22
ENDBRANCH  12  13
ENDBRANCH  11  12
ENDBRANCH   9  10
ENDBRANCH   8   9
ENDBRANCH   7   8
ENDBRANCH   4   7
ENDBRANCH   2   3
TORSDOF 12
ENDMDL
MODEL       60
REMARK 921   NORMALIZED FREE ENERGY PREDICTED BY IDOCK:   -5.71 KCAL/MOL
REMARK 922        TOTAL FREE ENERGY PREDICTED BY IDOCK:  -12.55 KCAL/MOL
REMARK 923 INTER-LIGAND FREE ENERGY PREDICTED BY IDOCK:  -10.28 KCAL/MOL
REMARK 924 INTRA-LIGAND FREE ENERGY PREDICTED BY IDOCK:   -2.27 KCAL/MOL
REMARK 927      BINDING AFFINITY PREDICTED BY RF-SCORE:    0.00 PKD
ROOT
HETATM    1  C   UNL     1      -7.047   9.613  64.382  1.00  0.00    -0.118 C  
HETATM    2  C   UNL     1      -8.561   9.534  64.320  1.00  0.00    -0.198 C  
ENDROOT
BRANCH   2   3
HETATM    3  N   UNL     1      -9.179  10.379  65.317  1.00  0.00    -0.184 N  
HETATM    4  C   UNL     1      -9.910  11.488  64.954  1.00  0.00    -0.252 C  
HETATM    5  H   UNL     1      -9.073  10.149  66.305  1.00  0.00     0.000 HD 
HETATM    6  O   UNL     1     -10.073  11.834  63.791  1.00  0.00    -0.325 OA 
BRANCH   4   7
HETATM    7  C   UNL     1     -10.501  12.231  66.136  1.00  0.00    -0.270 C  
BRANCH   7   8
HETATM    8  C   UNL     1     -12.001  12.467  65.943  1.00  0.00    -0.434 C  
BRANCH   8   9
HETATM    9  C   UNL     1     -12.381  13.944  65.853  1.00  0.00    -0.517 C  
BRANCH   9  10
HETATM   10  C   UNL     1     -11.645  14.653  64.751  1.00  0.00    -0.418 C  
HETATM   11  C   UNL     1     -10.899  15.764  64.858  1.00  0.00    -0.433 C  
BRANCH  11  12
HETATM   12  C   UNL     1     -10.658  16.573  66.102  1.00  0.00    -0.239 C  
BRANCH  12  13
HETATM   13  C   UNL     1      -9.388  16.163  66.861  1.00  0.00    -0.245 C  
HETATM   14  C   UNL     1      -8.071  16.629  66.225  1.00  0.00    -0.326 C  
HETATM   15  C   UNL     1      -7.091  16.615  67.390  1.00  0.00    -0.189 C  
HETATM   16  O   UNL     1      -8.165  17.962  65.735  1.00  0.00    -0.530 OA 
HETATM   17  H   UNL     1      -7.350  18.251  65.341  1.00  0.00     0.000 HD 
HETATM   18  C   UNL     1      -7.902  17.201  68.542  1.00  0.00    -0.257 C  
HETATM   19  O   UNL     1      -7.798  18.626  68.530  1.00  0.00    -0.310 OA 
HETATM   20  C   UNL     1      -9.370  16.793  68.280  1.00  0.00    -0.230 C  
HETATM   21  H   UNL     1      -8.304  18.991  69.248  1.00  0.00     0.000 HD 
BRANCH  20  22
HETATM   22  C   UNL     1      -9.878  15.829  69.331  1.00  0.00    -0.286 C  
HETATM   23  C   UNL     1     -10.958  16.072  70.095  1.00  0.00    -0.369 C  
BRANCH  23  24
HETATM   24  C   UNL     1     -11.488  15.226  71.224  1.00  0.00    -0.380 C  
HETATM   25  H   UNL     1     -12.382  15.519  72.953  1.00  0.00     0.000 HD 
HETATM   26  O   UNL     1     -12.048  16.053  72.241  1.00  0.00    -0.443 OA 
BRANCH  24  27
HETATM   27  C   UNL     1     -12.573  14.239  70.777  1.00  0.00    -0.427 C  
BRANCH  27  28
HETATM   28  C   UNL     1     -12.089  13.229  69.732  1.00  0.00    -0.355 C  
BRANCH  28  29
HETATM   29  C   UNL     1     -11.997  11.839  70.310  1.00  0.00    -0.429 A  
HETATM   30  C   UNL     1     -11.060  10.927  69.809  1.00  0.00    -0.328 A  
HETATM   31  C   UNL     1     -11.001   9.626  70.310  1.00  0.00    -0.337 A  
HETATM   32  C   UNL     1     -11.879   9.227  71.316  1.00  0.00    -0.415 A  
HETATM   33  C   UNL     1     -12.812  10.129  71.824  1.00  0.00    -0.554 A  
HETATM   34  C   UNL     1     -12.873  11.430  71.324  1.00  0.00    -0.481 A  
ENDBRANCH  28  29
ENDBRANCH  27  28
ENDBRANCH  24  27
ENDBRANCH  23  24
ENDBRANCH  20  22
ENDBRANCH  12  13
ENDBRANCH  11  12
ENDBRANCH   9  10
ENDBRANCH   8   9
ENDBRANCH   7   8
ENDBRANCH   4   7
ENDBRANCH   2   3
TORSDOF 12
ENDMDL
MODEL       61
REMARK 921   NORMALIZED FREE ENERGY PREDICTED BY IDOCK:   -5.70 KCAL/MOL
REMARK 922        TOTAL FREE ENERGY PREDICTED BY IDOCK:  -12.53 KCAL/MOL
REMARK 923 INTER-LIGAND FREE ENERGY PREDICTED BY IDOCK:   -9.97 KCAL/MOL
REMARK 924 INTRA-LIGAND FREE ENERGY PREDICTED BY IDOCK:   -2.56 KCAL/MOL
REMARK 927      BINDING AFFINITY PREDICTED BY RF-SCORE:    0.00 PKD
ROOT
HETATM    1  C   UNL     1     -12.473  14.303  66.016  1.00  0.00    -0.392 C  
HETATM    2  C   UNL     1     -12.048  14.543  64.580  1.00  0.00    -0.484 C  
ENDROOT
BRANCH   2   3
HETATM    3  N   UNL     1     -11.101  13.547  64.131  1.00  0.00    -0.549 N  
HETATM    4  C   UNL     1     -11.527  12.357  63.585  1.00  0.00    -0.489 C  
HETATM    5  H   UNL     1     -10.101  13.729  64.221  1.00  0.00     0.000 HD 
HETATM    6  O   UNL     1     -12.708  12.062  63.454  1.00  0.00    -0.706 OA 
BRANCH   4   7
HETATM    7  C   UNL     1     -10.388  11.455  63.150  1.00  0.00    -0.357 C  
BRANCH   7   8
HETATM    8  C   UNL     1      -9.558  10.999  64.353  1.00  0.00    -0.301 C  
BRANCH   8   9
HETATM    9  C   UNL     1     -10.388  10.344  65.456  1.00  0.00    -0.265 C  
BRANCH   9  10
HETATM   10  C   UNL     1      -9.534   9.842  66.586  1.00  0.00    -0.220 C  
HETATM   11  C   UNL     1      -9.690   8.700  67.275  1.00  0.00    -0.241 C  
BRANCH  11  12
HETATM   12  C   UNL     1     -10.777   7.678  67.092  1.00  0.00    -0.361 C  
BRANCH  12  13
HETATM   13  C   UNL     1     -10.661   6.484  68.051  1.00  0.00    -0.310 C  
HETATM   14  C   UNL     1     -10.058   5.212  67.436  1.00  0.00    -0.179 C  
HETATM   15  C   UNL     1      -9.542   4.446  68.646  1.00  0.00    -0.216 C  
HETATM   16  O   UNL     1      -8.953   5.509  66.589  1.00  0.00    -0.115 OA 
HETATM   17  H   UNL     1      -8.580   4.723  66.209  1.00  0.00     0.000 HD 
HETATM   18  C   UNL     1      -8.906   5.533  69.509  1.00  0.00    -0.107 C  
HETATM   19  O   UNL     1      -7.548   5.733  69.112  1.00  0.00    -0.085 OA 
HETATM   20  C   UNL     1      -9.715   6.822  69.235  1.00  0.00    -0.153 C  
HETATM   21  H   UNL     1      -7.153   6.410  69.649  1.00  0.00     0.000 HD 
BRANCH  20  22
HETATM   22  C   UNL     1     -10.481   7.272  70.459  1.00  0.00    -0.229 C  
HETATM   23  C   UNL     1     -11.783   6.999  70.657  1.00  0.00    -0.384 C  
BRANCH  23  24
HETATM   24  C   UNL     1     -12.655   7.476  71.790  1.00  0.00    -0.334 C  
HETATM   25  H   UNL     1     -12.402   8.202  73.602  1.00  0.00     0.000 HD 
HETATM   26  O   UNL     1     -11.852   7.902  72.888  1.00  0.00    -0.307 OA 
BRANCH  24  27
HETATM   27  C   UNL     1     -13.564   8.648  71.396  1.00  0.00    -0.278 C  
BRANCH  27  28
HETATM   28  C   UNL     1     -13.228   9.954  72.122  1.00  0.00    -0.511 C  
BRANCH  28  29
HETATM   29  C   UNL     1     -12.693  10.992  71.168  1.00  0.00    -0.521 A  
HETATM   30  C   UNL     1     -12.746  12.351  71.502  1.00  0.00    -0.333 A  
HETATM   31  C   UNL     1     -12.294  13.319  70.604  1.00  0.00    -0.416 A  
HETATM   32  C   UNL     1     -11.786  12.935  69.365  1.00  0.00    -0.382 A  
HETATM   33  C   UNL     1     -11.726  11.585  69.025  1.00  0.00    -0.400 A  
HETATM   34  C   UNL     1     -12.178  10.616  69.921  1.00  0.00    -0.346 A  
ENDBRANCH  28  29
ENDBRANCH  27  28
ENDBRANCH  24  27
ENDBRANCH  23  24
ENDBRANCH  20  22
ENDBRANCH  12  13
ENDBRANCH  11  12
ENDBRANCH   9  10
ENDBRANCH   8   9
ENDBRANCH   7   8
ENDBRANCH   4   7
ENDBRANCH   2   3
TORSDOF 12
ENDMDL
MODEL       62
REMARK 921   NORMALIZED FREE ENERGY PREDICTED BY IDOCK:   -5.69 KCAL/MOL
REMARK 922        TOTAL FREE ENERGY PREDICTED BY IDOCK:  -12.52 KCAL/MOL
REMARK 923 INTER-LIGAND FREE ENERGY PREDICTED BY IDOCK:   -9.59 KCAL/MOL
REMARK 924 INTRA-LIGAND FREE ENERGY PREDICTED BY IDOCK:   -2.93 KCAL/MOL
REMARK 927      BINDING AFFINITY PREDICTED BY RF-SCORE:    0.00 PKD
ROOT
HETATM    1  C   UNL     1     -13.208  15.758  73.125  1.00  0.00    -0.694 C  
HETATM    2  C   UNL     1     -13.979  15.125  71.983  1.00  0.00    -0.526 C  
ENDROOT
BRANCH   2   3
HETATM    3  N   UNL     1     -13.164  14.184  71.248  1.00  0.00    -0.341 N  
HETATM    4  C   UNL     1     -12.381  14.595  70.193  1.00  0.00    -0.336 C  
HETATM    5  H   UNL     1     -13.170  13.199  71.515  1.00  0.00     0.000 HD 
HETATM    6  O   UNL     1     -12.330  15.756  69.806  1.00  0.00    -0.319 OA 
BRANCH   4   7
HETATM    7  C   UNL     1     -11.580  13.471  69.566  1.00  0.00    -0.355 C  
BRANCH   7   8
HETATM    8  C   UNL     1     -11.967  12.118  70.167  1.00  0.00    -0.394 C  
BRANCH   8   9
HETATM    9  C   UNL     1     -11.943  10.971  69.157  1.00  0.00    -0.394 C  
BRANCH   9  10
HETATM   10  C   UNL     1     -10.868   9.967  69.464  1.00  0.00    -0.283 C  
HETATM   11  C   UNL     1     -10.224   9.175  68.592  1.00  0.00    -0.225 C  
BRANCH  11  12
HETATM   12  C   UNL     1     -10.458   9.090  67.108  1.00  0.00    -0.333 C  
BRANCH  12  13
HETATM   13  C   UNL     1      -9.668  10.133  66.305  1.00  0.00    -0.274 C  
HETATM   14  C   UNL     1      -8.393   9.605  65.631  1.00  0.00    -0.129 C  
HETATM   15  C   UNL     1      -8.150  10.601  64.505  1.00  0.00     0.031 C  
HETATM   16  O   UNL     1      -8.594   8.319  65.055  1.00  0.00    -0.287 OA 
HETATM   17  H   UNL     1      -7.806   7.992  64.639  1.00  0.00     0.000 HD 
HETATM   18  C   UNL     1      -9.547  10.845  63.941  1.00  0.00    -0.284 C  
HETATM   19  O   UNL     1      -9.844   9.862  62.947  1.00  0.00    -0.524 OA 
HETATM   20  C   UNL     1     -10.521  10.681  65.130  1.00  0.00    -0.271 C  
HETATM   21  H   UNL     1     -10.714  10.013  62.596  1.00  0.00     0.000 HD 
BRANCH  20  22
HETATM   22  C   UNL     1     -11.194  11.990  65.484  1.00  0.00    -0.372 C  
HETATM   23  C   UNL     1     -11.568  12.900  64.567  1.00  0.00    -0.400 C  
BRANCH  23  24
HETATM   24  C   UNL     1     -12.157  14.264  64.820  1.00  0.00    -0.446 C  
HETATM   25  H   UNL     1     -13.877  15.006  65.424  1.00  0.00     0.000 HD 
HETATM   26  O   UNL     1     -13.506  14.146  65.264  1.00  0.00    -0.606 OA 
BRANCH  24  27
HETATM   27  C   UNL     1     -11.387  15.064  65.879  1.00  0.00    -0.273 C  
BRANCH  27  28
HETATM   28  C   UNL     1      -9.895  15.213  65.567  1.00  0.00    -0.356 C  
BRANCH  28  29
HETATM   29  C   UNL     1      -9.057  15.089  66.816  1.00  0.00    -0.287 A  
HETATM   30  C   UNL     1      -8.555  13.841  67.208  1.00  0.00    -0.221 A  
HETATM   31  C   UNL     1      -7.817  13.714  68.385  1.00  0.00    -0.140 A  
HETATM   32  C   UNL     1      -7.576  14.833  69.180  1.00  0.00    -0.151 A  
HETATM   33  C   UNL     1      -8.068  16.079  68.796  1.00  0.00    -0.212 A  
HETATM   34  C   UNL     1      -8.806  16.208  67.620  1.00  0.00    -0.191 A  
ENDBRANCH  28  29
ENDBRANCH  27  28
ENDBRANCH  24  27
ENDBRANCH  23  24
ENDBRANCH  20  22
ENDBRANCH  12  13
ENDBRANCH  11  12
ENDBRANCH   9  10
ENDBRANCH   8   9
ENDBRANCH   7   8
ENDBRANCH   4   7
ENDBRANCH   2   3
TORSDOF 12
ENDMDL
MODEL       63
REMARK 921   NORMALIZED FREE ENERGY PREDICTED BY IDOCK:   -5.68 KCAL/MOL
REMARK 922        TOTAL FREE ENERGY PREDICTED BY IDOCK:  -12.50 KCAL/MOL
REMARK 923 INTER-LIGAND FREE ENERGY PREDICTED BY IDOCK:  -10.72 KCAL/MOL
REMARK 924 INTRA-LIGAND FREE ENERGY PREDICTED BY IDOCK:   -1.78 KCAL/MOL
REMARK 927      BINDING AFFINITY PREDICTED BY RF-SCORE:    0.00 PKD
ROOT
HETATM    1  C   UNL     1     -12.487  15.754  73.749  1.00  0.00    -0.727 C  
HETATM    2  C   UNL     1     -13.528  15.301  72.742  1.00  0.00    -0.518 C  
ENDROOT
BRANCH   2   3
HETATM    3  N   UNL     1     -13.193  14.015  72.174  1.00  0.00    -0.398 N  
HETATM    4  C   UNL     1     -12.561  13.920  70.954  1.00  0.00    -0.361 C  
HETATM    5  H   UNL     1     -13.428  13.164  72.685  1.00  0.00     0.000 HD 
HETATM    6  O   UNL     1     -12.256  14.894  70.278  1.00  0.00    -0.296 OA 
BRANCH   4   7
HETATM    7  C   UNL     1     -12.269  12.491  70.539  1.00  0.00    -0.382 C  
BRANCH   7   8
HETATM    8  C   UNL     1     -12.759  11.499  71.597  1.00  0.00    -0.396 C  
BRANCH   8   9
HETATM    9  C   UNL     1     -13.077  10.114  71.035  1.00  0.00    -0.458 C  
BRANCH   9  10
HETATM   10  C   UNL     1     -13.980   9.327  71.942  1.00  0.00    -0.359 C  
HETATM   11  C   UNL     1     -14.072   7.991  72.036  1.00  0.00    -0.426 C  
BRANCH  11  12
HETATM   12  C   UNL     1     -13.311   6.976  71.229  1.00  0.00    -0.282 C  
BRANCH  12  13
HETATM   13  C   UNL     1     -11.788   7.101  71.368  1.00  0.00    -0.344 C  
HETATM   14  C   UNL     1     -11.231   6.757  72.758  1.00  0.00    -0.231 C  
HETATM   15  C   UNL     1      -9.776   6.408  72.479  1.00  0.00    -0.168 C  
HETATM   16  O   UNL     1     -11.869   5.612  73.313  1.00  0.00    -0.467 OA 
HETATM   17  H   UNL     1     -11.525   5.400  74.172  1.00  0.00     0.000 HD 
HETATM   18  C   UNL     1      -9.851   5.574  71.202  1.00  0.00    -0.181 C  
HETATM   19  O   UNL     1     -10.071   4.201  71.534  1.00  0.00    -0.179 OA 
HETATM   20  C   UNL     1     -11.066   6.112  70.414  1.00  0.00    -0.420 C  
HETATM   21  H   UNL     1     -10.118   3.683  70.739  1.00  0.00     0.000 HD 
BRANCH  20  22
HETATM   22  C   UNL     1     -10.644   6.780  69.123  1.00  0.00    -0.261 C  
HETATM   23  C   UNL     1     -10.403   8.098  69.019  1.00  0.00    -0.229 C  
BRANCH  23  24
HETATM   24  C   UNL     1     -10.069   8.871  67.768  1.00  0.00    -0.210 C  
HETATM   25  H   UNL     1     -10.205   8.601  65.823  1.00  0.00     0.000 HD 
HETATM   26  O   UNL     1     -10.416   8.114  66.611  1.00  0.00    -0.303 OA 
BRANCH  24  27
HETATM   27  C   UNL     1     -10.800  10.217  67.680  1.00  0.00    -0.346 C  
BRANCH  27  28
HETATM   28  C   UNL     1      -9.968  11.323  67.025  1.00  0.00    -0.226 C  
BRANCH  28  29
HETATM   29  C   UNL     1     -10.784  12.109  66.029  1.00  0.00    -0.308 A  
HETATM   30  C   UNL     1     -11.639  13.129  66.466  1.00  0.00    -0.402 A  
HETATM   31  C   UNL     1     -12.429  13.829  65.553  1.00  0.00    -0.548 A  
HETATM   32  C   UNL     1     -12.372  13.513  64.197  1.00  0.00    -0.387 A  
HETATM   33  C   UNL     1     -11.521  12.502  63.753  1.00  0.00    -0.542 A  
HETATM   34  C   UNL     1     -10.731  11.802  64.664  1.00  0.00    -0.363 A  
ENDBRANCH  28  29
ENDBRANCH  27  28
ENDBRANCH  24  27
ENDBRANCH  23  24
ENDBRANCH  20  22
ENDBRANCH  12  13
ENDBRANCH  11  12
ENDBRANCH   9  10
ENDBRANCH   8   9
ENDBRANCH   7   8
ENDBRANCH   4   7
ENDBRANCH   2   3
TORSDOF 12
ENDMDL
MODEL       64
REMARK 921   NORMALIZED FREE ENERGY PREDICTED BY IDOCK:   -5.66 KCAL/MOL
REMARK 922        TOTAL FREE ENERGY PREDICTED BY IDOCK:  -12.46 KCAL/MOL
REMARK 923 INTER-LIGAND FREE ENERGY PREDICTED BY IDOCK:  -10.55 KCAL/MOL
REMARK 924 INTRA-LIGAND FREE ENERGY PREDICTED BY IDOCK:   -1.91 KCAL/MOL
REMARK 927      BINDING AFFINITY PREDICTED BY RF-SCORE:    0.00 PKD
ROOT
HETATM    1  C   UNL     1     -10.972   4.011  73.674  1.00  0.00    -0.345 C  
HETATM    2  C   UNL     1     -10.092   4.983  72.909  1.00  0.00    -0.168 C  
ENDROOT
BRANCH   2   3
HETATM    3  N   UNL     1     -10.868   5.807  72.010  1.00  0.00    -0.243 N  
HETATM    4  C   UNL     1     -11.135   7.125  72.305  1.00  0.00    -0.254 C  
HETATM    5  H   UNL     1     -11.223   5.405  71.142  1.00  0.00     0.000 HD 
HETATM    6  O   UNL     1     -10.752   7.674  73.331  1.00  0.00    -0.379 OA 
BRANCH   4   7
HETATM    7  C   UNL     1     -11.937   7.831  71.230  1.00  0.00    -0.324 C  
BRANCH   7   8
HETATM    8  C   UNL     1     -12.717   9.013  71.812  1.00  0.00    -0.431 C  
BRANCH   8   9
HETATM    9  C   UNL     1     -13.149  10.036  70.762  1.00  0.00    -0.316 C  
BRANCH   9  10
HETATM   10  C   UNL     1     -12.174  11.173  70.644  1.00  0.00    -0.492 C  
HETATM   11  C   UNL     1     -11.485  11.541  69.553  1.00  0.00    -0.378 C  
BRANCH  11  12
HETATM   12  C   UNL     1     -11.507  10.875  68.204  1.00  0.00    -0.368 C  
BRANCH  12  13
HETATM   13  C   UNL     1     -10.417  11.386  67.252  1.00  0.00    -0.241 C  
HETATM   14  C   UNL     1      -9.546  10.293  66.615  1.00  0.00    -0.175 C  
HETATM   15  C   UNL     1      -8.994  10.966  65.365  1.00  0.00    -0.209 C  
HETATM   16  O   UNL     1     -10.321   9.169  66.213  1.00  0.00    -0.244 OA 
HETATM   17  H   UNL     1      -9.783   8.493  65.819  1.00  0.00     0.000 HD 
HETATM   18  C   UNL     1     -10.196  11.729  64.815  1.00  0.00    -0.282 C  
HETATM   19  O   UNL     1     -10.962  10.875  63.963  1.00  0.00    -0.441 OA 
HETATM   20  C   UNL     1     -11.048  12.126  66.042  1.00  0.00    -0.354 C  
HETATM   21  H   UNL     1     -11.710  11.351  63.620  1.00  0.00     0.000 HD 
BRANCH  20  22
HETATM   22  C   UNL     1     -11.069  13.625  66.246  1.00  0.00    -0.304 C  
HETATM   23  C   UNL     1     -10.284  14.261  67.133  1.00  0.00    -0.254 C  
BRANCH  23  24
HETATM   24  C   UNL     1     -10.294  15.729  67.476  1.00  0.00    -0.280 C  
HETATM   25  H   UNL     1     -10.610  17.430  66.537  1.00  0.00     0.000 HD 
HETATM   26  O   UNL     1     -10.603  16.505  66.321  1.00  0.00    -0.294 OA 
BRANCH  24  27
HETATM   27  C   UNL     1     -11.316  16.085  68.563  1.00  0.00    -0.382 C  
BRANCH  27  28
HETATM   28  C   UNL     1     -10.736  16.059  69.980  1.00  0.00    -0.328 C  
BRANCH  28  29
HETATM   29  C   UNL     1     -11.811  15.817  71.010  1.00  0.00    -0.460 A  
HETATM   30  C   UNL     1     -11.580  16.126  72.357  1.00  0.00    -0.400 A  
HETATM   31  C   UNL     1     -12.555  15.863  73.320  1.00  0.00    -0.640 A  
HETATM   32  C   UNL     1     -13.767  15.288  72.945  1.00  0.00    -0.531 A  
HETATM   33  C   UNL     1     -14.007  14.980  71.607  1.00  0.00    -0.594 A  
HETATM   34  C   UNL     1     -13.034  15.242  70.643  1.00  0.00    -0.442 A  
ENDBRANCH  28  29
ENDBRANCH  27  28
ENDBRANCH  24  27
ENDBRANCH  23  24
ENDBRANCH  20  22
ENDBRANCH  12  13
ENDBRANCH  11  12
ENDBRANCH   9  10
ENDBRANCH   8   9
ENDBRANCH   7   8
ENDBRANCH   4   7
ENDBRANCH   2   3
TORSDOF 12
ENDMDL
MODEL       65
REMARK 921   NORMALIZED FREE ENERGY PREDICTED BY IDOCK:   -5.66 KCAL/MOL
REMARK 922        TOTAL FREE ENERGY PREDICTED BY IDOCK:  -12.46 KCAL/MOL
REMARK 923 INTER-LIGAND FREE ENERGY PREDICTED BY IDOCK:   -9.92 KCAL/MOL
REMARK 924 INTRA-LIGAND FREE ENERGY PREDICTED BY IDOCK:   -2.54 KCAL/MOL
REMARK 927      BINDING AFFINITY PREDICTED BY RF-SCORE:    0.00 PKD
ROOT
HETATM    1  C   UNL     1      -7.840   8.369  64.163  1.00  0.00    -0.145 C  
HETATM    2  C   UNL     1      -8.960   8.993  64.974  1.00  0.00    -0.147 C  
ENDROOT
BRANCH   2   3
HETATM    3  N   UNL     1      -8.748   8.823  66.394  1.00  0.00    -0.132 N  
HETATM    4  C   UNL     1      -9.690   8.204  67.184  1.00  0.00    -0.199 C  
HETATM    5  H   UNL     1      -7.886   9.168  66.817  1.00  0.00     0.000 HD 
HETATM    6  O   UNL     1     -10.752   7.775  66.752  1.00  0.00    -0.311 OA 
BRANCH   4   7
HETATM    7  C   UNL     1      -9.277   8.096  68.638  1.00  0.00    -0.143 C  
BRANCH   7   8
HETATM    8  C   UNL     1     -10.111   9.030  69.519  1.00  0.00    -0.199 C  
BRANCH   8   9
HETATM    9  C   UNL     1     -10.003  10.502  69.124  1.00  0.00    -0.236 C  
BRANCH   9  10
HETATM   10  C   UNL     1     -11.291  11.035  68.564  1.00  0.00    -0.355 C  
HETATM   11  C   UNL     1     -12.158  11.863  69.168  1.00  0.00    -0.261 C  
BRANCH  11  12
HETATM   12  C   UNL     1     -12.052  12.420  70.561  1.00  0.00    -0.363 C  
BRANCH  12  13
HETATM   13  C   UNL     1     -12.717  13.794  70.722  1.00  0.00    -0.361 C  
HETATM   14  C   UNL     1     -13.904  13.832  71.697  1.00  0.00    -0.238 C  
HETATM   15  C   UNL     1     -13.986  15.299  72.096  1.00  0.00    -0.650 C  
HETATM   16  O   UNL     1     -13.649  13.063  72.867  1.00  0.00    -0.679 OA 
HETATM   17  H   UNL     1     -14.383  13.087  73.470  1.00  0.00     0.000 HD 
HETATM   18  C   UNL     1     -12.525  15.696  72.289  1.00  0.00    -0.426 C  
HETATM   19  O   UNL     1     -12.117  15.401  73.627  1.00  0.00    -0.476 OA 
HETATM   20  C   UNL     1     -11.713  14.825  71.303  1.00  0.00    -0.358 C  
HETATM   21  H   UNL     1     -11.207  15.647  73.747  1.00  0.00     0.000 HD 
BRANCH  20  22
HETATM   22  C   UNL     1     -11.071  15.662  70.217  1.00  0.00    -0.361 C  
HETATM   23  C   UNL     1     -11.604  15.817  68.993  1.00  0.00    -0.406 C  
BRANCH  23  24
HETATM   24  C   UNL     1     -11.003  16.548  67.820  1.00  0.00    -0.252 C  
HETATM   25  H   UNL     1      -9.963  18.192  67.520  1.00  0.00     0.000 HD 
HETATM   26  O   UNL     1     -10.342  17.731  68.260  1.00  0.00    -0.355 OA 
BRANCH  24  27
HETATM   27  C   UNL     1      -9.982  15.705  67.046  1.00  0.00    -0.242 C  
BRANCH  27  28
HETATM   28  C   UNL     1     -10.210  14.196  67.176  1.00  0.00    -0.258 C  
BRANCH  28  29
HETATM   29  C   UNL     1     -10.949  13.646  65.982  1.00  0.00    -0.288 A  
HETATM   30  C   UNL     1     -12.347  13.553  65.999  1.00  0.00    -0.486 A  
HETATM   31  C   UNL     1     -13.033  13.004  64.915  1.00  0.00    -0.218 A  
HETATM   32  C   UNL     1     -12.327  12.543  63.806  1.00  0.00    -0.595 A  
HETATM   33  C   UNL     1     -10.936  12.635  63.778  1.00  0.00    -0.481 A  
HETATM   34  C   UNL     1     -10.249  13.183  64.861  1.00  0.00    -0.306 A  
ENDBRANCH  28  29
ENDBRANCH  27  28
ENDBRANCH  24  27
ENDBRANCH  23  24
ENDBRANCH  20  22
ENDBRANCH  12  13
ENDBRANCH  11  12
ENDBRANCH   9  10
ENDBRANCH   8   9
ENDBRANCH   7   8
ENDBRANCH   4   7
ENDBRANCH   2   3
TORSDOF 12
ENDMDL
MODEL       66
REMARK 921   NORMALIZED FREE ENERGY PREDICTED BY IDOCK:   -5.65 KCAL/MOL
REMARK 922        TOTAL FREE ENERGY PREDICTED BY IDOCK:  -12.45 KCAL/MOL
REMARK 923 INTER-LIGAND FREE ENERGY PREDICTED BY IDOCK:   -9.56 KCAL/MOL
REMARK 924 INTRA-LIGAND FREE ENERGY PREDICTED BY IDOCK:   -2.89 KCAL/MOL
REMARK 927      BINDING AFFINITY PREDICTED BY RF-SCORE:    0.00 PKD
ROOT
HETATM    1  C   UNL     1     -12.244  12.035  63.589  1.00  0.00    -0.642 C  
HETATM    2  C   UNL     1     -12.254  13.534  63.359  1.00  0.00    -0.272 C  
ENDROOT
BRANCH   2   3
HETATM    3  N   UNL     1     -11.469  14.230  64.354  1.00  0.00    -0.572 N  
HETATM    4  C   UNL     1     -11.514  15.602  64.462  1.00  0.00    -0.300 C  
HETATM    5  H   UNL     1     -10.871  13.696  64.985  1.00  0.00     0.000 HD 
HETATM    6  O   UNL     1     -12.197  16.312  63.735  1.00  0.00    -0.923 OA 
BRANCH   4   7
HETATM    7  C   UNL     1     -10.644  16.145  65.578  1.00  0.00    -0.394 C  
BRANCH   7   8
HETATM    8  C   UNL     1     -10.246  15.036  66.555  1.00  0.00    -0.281 C  
BRANCH   8   9
HETATM    9  C   UNL     1      -8.741  14.774  66.603  1.00  0.00    -0.229 C  
BRANCH   9  10
HETATM   10  C   UNL     1      -8.256  14.508  68.000  1.00  0.00    -0.145 C  
HETATM   11  C   UNL     1      -7.854  13.333  68.510  1.00  0.00    -0.110 C  
BRANCH  11  12
HETATM   12  C   UNL     1      -7.829  12.005  67.804  1.00  0.00    -0.145 C  
BRANCH  12  13
HETATM   13  C   UNL     1      -9.192  11.298  67.785  1.00  0.00    -0.156 C  
HETATM   14  C   UNL     1      -9.970  11.420  66.467  1.00  0.00    -0.211 C  
HETATM   15  C   UNL     1     -10.921  10.231  66.507  1.00  0.00     0.026 C  
HETATM   16  O   UNL     1      -9.117  11.274  65.337  1.00  0.00    -0.254 OA 
HETATM   17  H   UNL     1      -9.598  11.349  64.521  1.00  0.00     0.000 HD 
HETATM   18  C   UNL     1     -10.051   9.100  67.050  1.00  0.00    -0.249 C  
HETATM   19  O   UNL     1      -9.365   8.459  65.972  1.00  0.00    -0.261 OA 
HETATM   20  C   UNL     1      -9.019   9.769  67.987  1.00  0.00    -0.118 C  
HETATM   21  H   UNL     1      -8.823   7.755  66.310  1.00  0.00     0.000 HD 
BRANCH  20  22
HETATM   22  C   UNL     1      -9.230   9.362  69.430  1.00  0.00    -0.167 C  
HETATM   23  C   UNL     1     -10.223   8.550  69.830  1.00  0.00    -0.206 C  
BRANCH  23  24
HETATM   24  C   UNL     1     -10.573   8.161  71.243  1.00  0.00    -0.214 C  
HETATM   25  H   UNL     1      -9.609   7.756  72.911  1.00  0.00     0.000 HD 
HETATM   26  O   UNL     1      -9.389   8.001  72.020  1.00  0.00    -0.149 OA 
BRANCH  24  27
HETATM   27  C   UNL     1     -11.457   9.196  71.950  1.00  0.00    -0.423 C  
BRANCH  27  28
HETATM   28  C   UNL     1     -12.592   9.732  71.074  1.00  0.00    -0.406 C  
BRANCH  28  29
HETATM   29  C   UNL     1     -12.581  11.240  71.020  1.00  0.00    -0.495 A  
HETATM   30  C   UNL     1     -13.265  11.985  71.989  1.00  0.00    -0.481 A  
HETATM   31  C   UNL     1     -13.294  13.378  71.918  1.00  0.00    -0.539 A  
HETATM   32  C   UNL     1     -12.642  14.037  70.878  1.00  0.00    -0.431 A  
HETATM   33  C   UNL     1     -11.955  13.303  69.911  1.00  0.00    -0.400 A  
HETATM   34  C   UNL     1     -11.925  11.911  69.980  1.00  0.00    -0.409 A  
ENDBRANCH  28  29
ENDBRANCH  27  28
ENDBRANCH  24  27
ENDBRANCH  23  24
ENDBRANCH  20  22
ENDBRANCH  12  13
ENDBRANCH  11  12
ENDBRANCH   9  10
ENDBRANCH   8   9
ENDBRANCH   7   8
ENDBRANCH   4   7
ENDBRANCH   2   3
TORSDOF 12
ENDMDL
MODEL       67
REMARK 921   NORMALIZED FREE ENERGY PREDICTED BY IDOCK:   -5.65 KCAL/MOL
REMARK 922        TOTAL FREE ENERGY PREDICTED BY IDOCK:  -12.44 KCAL/MOL
REMARK 923 INTER-LIGAND FREE ENERGY PREDICTED BY IDOCK:   -9.84 KCAL/MOL
REMARK 924 INTRA-LIGAND FREE ENERGY PREDICTED BY IDOCK:   -2.60 KCAL/MOL
REMARK 927      BINDING AFFINITY PREDICTED BY RF-SCORE:    0.00 PKD
ROOT
HETATM    1  C   UNL     1     -11.050   3.814  73.577  1.00  0.00    -0.328 C  
HETATM    2  C   UNL     1     -10.753   4.940  72.605  1.00  0.00    -0.213 C  
ENDROOT
BRANCH   2   3
HETATM    3  N   UNL     1     -11.840   5.891  72.542  1.00  0.00    -0.481 N  
HETATM    4  C   UNL     1     -12.035   6.674  71.427  1.00  0.00    -0.353 C  
HETATM    5  H   UNL     1     -12.473   5.982  73.337  1.00  0.00     0.000 HD 
HETATM    6  O   UNL     1     -11.313   6.630  70.440  1.00  0.00    -0.311 OA 
BRANCH   4   7
HETATM    7  C   UNL     1     -13.240   7.588  71.539  1.00  0.00    -0.404 C  
BRANCH   7   8
HETATM    8  C   UNL     1     -12.909   8.838  72.359  1.00  0.00    -0.434 C  
BRANCH   8   9
HETATM    9  C   UNL     1     -13.758  10.053  71.990  1.00  0.00    -0.252 C  
BRANCH   9  10
HETATM   10  C   UNL     1     -12.925  11.286  71.782  1.00  0.00    -0.519 C  
HETATM   11  C   UNL     1     -12.229  11.619  70.683  1.00  0.00    -0.461 C  
BRANCH  11  12
HETATM   12  C   UNL     1     -12.100  10.815  69.419  1.00  0.00    -0.315 C  
BRANCH  12  13
HETATM   13  C   UNL     1     -10.852  11.166  68.597  1.00  0.00    -0.251 C  
HETATM   14  C   UNL     1      -9.566  10.444  69.026  1.00  0.00    -0.204 C  
HETATM   15  C   UNL     1      -8.693  10.504  67.780  1.00  0.00    -0.122 C  
HETATM   16  O   UNL     1      -9.808   9.076  69.337  1.00  0.00    -0.175 OA 
HETATM   17  H   UNL     1      -9.013   8.629  69.603  1.00  0.00     0.000 HD 
HETATM   18  C   UNL     1      -9.673  10.206  66.648  1.00  0.00    -0.192 C  
HETATM   19  O   UNL     1      -9.772   8.793  66.455  1.00  0.00    -0.214 OA 
HETATM   20  C   UNL     1     -11.041  10.757  67.111  1.00  0.00    -0.297 C  
HETATM   21  H   UNL     1     -10.382   8.608  65.750  1.00  0.00     0.000 HD 
BRANCH  20  22
HETATM   22  C   UNL     1     -11.491  11.923  66.258  1.00  0.00    -0.367 C  
HETATM   23  C   UNL     1     -11.034  12.147  65.013  1.00  0.00    -0.355 C  
BRANCH  23  24
HETATM   24  C   UNL     1     -11.348  13.321  64.122  1.00  0.00    -0.386 C  
HETATM   25  H   UNL     1     -12.651  13.760  62.714  1.00  0.00     0.000 HD 
HETATM   26  O   UNL     1     -12.454  13.020  63.275  1.00  0.00    -0.699 OA 
BRANCH  24  27
HETATM   27  C   UNL     1     -11.694  14.594  64.905  1.00  0.00    -0.403 C  
BRANCH  27  28
HETATM   28  C   UNL     1     -10.480  15.264  65.554  1.00  0.00    -0.396 C  
BRANCH  28  29
HETATM   29  C   UNL     1     -10.578  15.243  67.059  1.00  0.00    -0.306 A  
HETATM   30  C   UNL     1      -9.449  15.514  67.843  1.00  0.00    -0.201 A  
HETATM   31  C   UNL     1      -9.524  15.452  69.235  1.00  0.00    -0.261 A  
HETATM   32  C   UNL     1     -10.727  15.118  69.854  1.00  0.00    -0.274 A  
HETATM   33  C   UNL     1     -11.856  14.850  69.081  1.00  0.00    -0.340 A  
HETATM   34  C   UNL     1     -11.783  14.911  67.690  1.00  0.00    -0.329 A  
ENDBRANCH  28  29
ENDBRANCH  27  28
ENDBRANCH  24  27
ENDBRANCH  23  24
ENDBRANCH  20  22
ENDBRANCH  12  13
ENDBRANCH  11  12
ENDBRANCH   9  10
ENDBRANCH   8   9
ENDBRANCH   7   8
ENDBRANCH   4   7
ENDBRANCH   2   3
TORSDOF 12
ENDMDL
MODEL       68
REMARK 921   NORMALIZED FREE ENERGY PREDICTED BY IDOCK:   -5.62 KCAL/MOL
REMARK 922        TOTAL FREE ENERGY PREDICTED BY IDOCK:  -12.40 KCAL/MOL
REMARK 923 INTER-LIGAND FREE ENERGY PREDICTED BY IDOCK:  -10.82 KCAL/MOL
REMARK 924 INTRA-LIGAND FREE ENERGY PREDICTED BY IDOCK:   -1.58 KCAL/MOL
REMARK 927      BINDING AFFINITY PREDICTED BY RF-SCORE:    0.00 PKD
ROOT
HETATM    1  C   UNL     1     -14.333   7.156  71.774  1.00  0.00    -0.515 C  
HETATM    2  C   UNL     1     -14.362   8.667  71.637  1.00  0.00    -0.368 C  
ENDROOT
BRANCH   2   3
HETATM    3  N   UNL     1     -13.213   9.158  70.910  1.00  0.00    -0.539 N  
HETATM    4  C   UNL     1     -12.696  10.409  71.159  1.00  0.00    -0.415 C  
HETATM    5  H   UNL     1     -12.778   8.567  70.201  1.00  0.00     0.000 HD 
HETATM    6  O   UNL     1     -13.168  11.179  71.986  1.00  0.00    -0.493 OA 
BRANCH   4   7
HETATM    7  C   UNL     1     -11.477  10.734  70.318  1.00  0.00    -0.406 C  
BRANCH   7   8
HETATM    8  C   UNL     1     -10.413   9.641  70.446  1.00  0.00    -0.352 C  
BRANCH   8   9
HETATM    9  C   UNL     1      -9.762   9.263  69.116  1.00  0.00    -0.164 C  
BRANCH   9  10
HETATM   10  C   UNL     1     -10.730   9.337  67.969  1.00  0.00    -0.231 C  
HETATM   11  C   UNL     1     -10.434   9.453  66.665  1.00  0.00    -0.238 C  
BRANCH  11  12
HETATM   12  C   UNL     1      -9.064   9.567  66.057  1.00  0.00    -0.220 C  
BRANCH  12  13
HETATM   13  C   UNL     1      -8.940  10.711  65.040  1.00  0.00    -0.218 C  
HETATM   14  C   UNL     1      -8.618  10.272  63.603  1.00  0.00    -0.195 C  
HETATM   15  C   UNL     1      -9.107  11.441  62.759  1.00  0.00    -0.266 C  
HETATM   16  O   UNL     1      -9.353   9.111  63.230  1.00  0.00    -0.434 OA 
HETATM   17  H   UNL     1      -9.154   8.840  62.342  1.00  0.00     0.000 HD 
HETATM   18  C   UNL     1     -10.435  11.818  63.411  1.00  0.00    -0.434 C  
HETATM   19  O   UNL     1     -11.488  11.031  62.852  1.00  0.00    -0.642 OA 
HETATM   20  C   UNL     1     -10.283  11.479  64.912  1.00  0.00    -0.324 C  
HETATM   21  H   UNL     1     -12.315  11.265  63.259  1.00  0.00     0.000 HD 
BRANCH  20  22
HETATM   22  C   UNL     1     -10.305  12.724  65.771  1.00  0.00    -0.297 C  
HETATM   23  C   UNL     1     -11.438  13.283  66.232  1.00  0.00    -0.358 C  
BRANCH  23  24
HETATM   24  C   UNL     1     -11.573  14.566  67.012  1.00  0.00    -0.386 C  
HETATM   25  H   UNL     1     -12.072  15.101  68.839  1.00  0.00     0.000 HD 
HETATM   26  O   UNL     1     -11.987  14.293  68.347  1.00  0.00    -0.337 OA 
BRANCH  24  27
HETATM   27  C   UNL     1     -10.265  15.365  67.085  1.00  0.00    -0.251 C  
BRANCH  27  28
HETATM   28  C   UNL     1     -10.138  16.216  68.351  1.00  0.00    -0.236 C  
BRANCH  28  29
HETATM   29  C   UNL     1      -9.890  17.666  68.017  1.00  0.00    -0.310 A  
HETATM   30  C   UNL     1     -10.772  18.357  67.176  1.00  0.00    -0.366 A  
HETATM   31  C   UNL     1     -10.524  19.685  66.828  1.00  0.00    -0.605 A  
HETATM   32  C   UNL     1      -9.391  20.333  67.317  1.00  0.00    -0.538 A  
HETATM   33  C   UNL     1      -8.510  19.655  68.158  1.00  0.00    -0.357 A  
HETATM   34  C   UNL     1      -8.757  18.328  68.507  1.00  0.00    -0.325 A  
ENDBRANCH  28  29
ENDBRANCH  27  28
ENDBRANCH  24  27
ENDBRANCH  23  24
ENDBRANCH  20  22
ENDBRANCH  12  13
ENDBRANCH  11  12
ENDBRANCH   9  10
ENDBRANCH   8   9
ENDBRANCH   7   8
ENDBRANCH   4   7
ENDBRANCH   2   3
TORSDOF 12
ENDMDL
MODEL       69
REMARK 921   NORMALIZED FREE ENERGY PREDICTED BY IDOCK:   -5.62 KCAL/MOL
REMARK 922        TOTAL FREE ENERGY PREDICTED BY IDOCK:  -12.39 KCAL/MOL
REMARK 923 INTER-LIGAND FREE ENERGY PREDICTED BY IDOCK:  -10.68 KCAL/MOL
REMARK 924 INTRA-LIGAND FREE ENERGY PREDICTED BY IDOCK:   -1.72 KCAL/MOL
REMARK 927      BINDING AFFINITY PREDICTED BY RF-SCORE:    0.00 PKD
ROOT
HETATM    1  C   UNL     1      -9.963  19.431  68.471  1.00  0.00    -0.520 C  
HETATM    2  C   UNL     1     -10.343  17.973  68.293  1.00  0.00    -0.380 C  
ENDROOT
BRANCH   2   3
HETATM    3  N   UNL     1     -10.568  17.323  69.564  1.00  0.00    -0.335 N  
HETATM    4  C   UNL     1     -11.380  16.215  69.661  1.00  0.00    -0.316 C  
HETATM    5  H   UNL     1     -10.119  17.690  70.403  1.00  0.00     0.000 HD 
HETATM    6  O   UNL     1     -11.962  15.722  68.703  1.00  0.00    -0.344 OA 
BRANCH   4   7
HETATM    7  C   UNL     1     -11.472  15.659  71.068  1.00  0.00    -0.439 C  
BRANCH   7   8
HETATM    8  C   UNL     1     -12.879  15.132  71.361  1.00  0.00    -0.457 C  
BRANCH   8   9
HETATM    9  C   UNL     1     -12.917  13.639  71.687  1.00  0.00    -0.448 C  
BRANCH   9  10
HETATM   10  C   UNL     1     -12.364  12.800  70.569  1.00  0.00    -0.355 C  
HETATM   11  C   UNL     1     -12.192  11.469  70.563  1.00  0.00    -0.469 C  
BRANCH  11  12
HETATM   12  C   UNL     1     -12.484  10.516  71.690  1.00  0.00    -0.443 C  
BRANCH  12  13
HETATM   13  C   UNL     1     -11.488   9.351  71.778  1.00  0.00    -0.413 C  
HETATM   14  C   UNL     1     -12.009   8.103  72.505  1.00  0.00    -0.350 C  
HETATM   15  C   UNL     1     -11.125   6.986  71.968  1.00  0.00    -0.276 C  
HETATM   16  O   UNL     1     -13.358   7.814  72.155  1.00  0.00    -0.483 OA 
HETATM   17  H   UNL     1     -13.681   7.042  72.605  1.00  0.00     0.000 HD 
HETATM   18  C   UNL     1     -11.023   7.300  70.478  1.00  0.00    -0.260 C  
HETATM   19  O   UNL     1     -12.121   6.705  69.782  1.00  0.00    -0.638 OA 
HETATM   20  C   UNL     1     -11.116   8.839  70.360  1.00  0.00    -0.261 C  
HETATM   21  H   UNL     1     -12.058   6.902  68.855  1.00  0.00     0.000 HD 
BRANCH  20  22
HETATM   22  C   UNL     1      -9.819   9.440  69.865  1.00  0.00    -0.235 C  
HETATM   23  C   UNL     1      -9.587   9.736  68.574  1.00  0.00    -0.155 C  
BRANCH  23  24
HETATM   24  C   UNL     1      -8.305  10.248  67.969  1.00  0.00    -0.114 C  
HETATM   25  H   UNL     1      -6.909   9.574  66.756  1.00  0.00     0.000 HD 
HETATM   26  O   UNL     1      -7.717   9.251  67.138  1.00  0.00    -0.094 OA 
BRANCH  24  27
HETATM   27  C   UNL     1      -8.505  11.507  67.115  1.00  0.00    -0.158 C  
BRANCH  27  28
HETATM   28  C   UNL     1      -9.005  11.213  65.698  1.00  0.00    -0.195 C  
BRANCH  28  29
HETATM   29  C   UNL     1     -10.338  11.869  65.438  1.00  0.00    -0.306 A  
HETATM   30  C   UNL     1     -10.991  11.677  64.213  1.00  0.00    -0.418 A  
HETATM   31  C   UNL     1     -12.203  12.317  63.951  1.00  0.00    -0.608 A  
HETATM   32  C   UNL     1     -12.771  13.154  64.909  1.00  0.00    -0.421 A  
HETATM   33  C   UNL     1     -12.130  13.347  66.132  1.00  0.00    -0.481 A  
HETATM   34  C   UNL     1     -10.918  12.709  66.396  1.00  0.00    -0.304 A  
ENDBRANCH  28  29
ENDBRANCH  27  28
ENDBRANCH  24  27
ENDBRANCH  23  24
ENDBRANCH  20  22
ENDBRANCH  12  13
ENDBRANCH  11  12
ENDBRANCH   9  10
ENDBRANCH   8   9
ENDBRANCH   7   8
ENDBRANCH   4   7
ENDBRANCH   2   3
TORSDOF 12
ENDMDL
MODEL       70
REMARK 921   NORMALIZED FREE ENERGY PREDICTED BY IDOCK:   -5.59 KCAL/MOL
REMARK 922        TOTAL FREE ENERGY PREDICTED BY IDOCK:  -12.35 KCAL/MOL
REMARK 923 INTER-LIGAND FREE ENERGY PREDICTED BY IDOCK:  -10.38 KCAL/MOL
REMARK 924 INTRA-LIGAND FREE ENERGY PREDICTED BY IDOCK:   -1.97 KCAL/MOL
REMARK 927      BINDING AFFINITY PREDICTED BY RF-SCORE:    0.00 PKD
ROOT
HETATM    1  C   UNL     1     -13.429   8.699  72.154  1.00  0.00    -0.434 C  
HETATM    2  C   UNL     1     -12.770   9.986  71.696  1.00  0.00    -0.435 C  
ENDROOT
BRANCH   2   3
HETATM    3  N   UNL     1     -13.469  11.149  72.195  1.00  0.00    -0.526 N  
HETATM    4  C   UNL     1     -13.178  12.409  71.723  1.00  0.00    -0.334 C  
HETATM    5  H   UNL     1     -14.188  11.034  72.909  1.00  0.00     0.000 HD 
HETATM    6  O   UNL     1     -12.321  12.628  70.876  1.00  0.00    -0.374 OA 
BRANCH   4   7
HETATM    7  C   UNL     1     -14.033  13.495  72.345  1.00  0.00    -0.638 C  
BRANCH   7   8
HETATM    8  C   UNL     1     -13.164  14.618  72.919  1.00  0.00    -0.609 C  
BRANCH   8   9
HETATM    9  C   UNL     1     -12.902  15.754  71.931  1.00  0.00    -0.514 C  
BRANCH   9  10
HETATM   10  C   UNL     1     -11.460  15.824  71.516  1.00  0.00    -0.504 C  
HETATM   11  C   UNL     1     -10.976  15.820  70.264  1.00  0.00    -0.368 C  
BRANCH  11  12
HETATM   12  C   UNL     1     -11.768  15.711  68.990  1.00  0.00    -0.408 C  
BRANCH  12  13
HETATM   13  C   UNL     1     -10.912  15.353  67.767  1.00  0.00    -0.311 C  
HETATM   14  C   UNL     1     -10.692  16.499  66.768  1.00  0.00    -0.155 C  
HETATM   15  C   UNL     1      -9.427  16.085  66.029  1.00  0.00    -0.384 C  
HETATM   16  O   UNL     1     -10.442  17.734  67.430  1.00  0.00    -0.355 OA 
HETATM   17  H   UNL     1     -10.306  18.442  66.812  1.00  0.00     0.000 HD 
HETATM   18  C   UNL     1      -8.529  15.546  67.140  1.00  0.00    -0.212 C  
HETATM   19  O   UNL     1      -7.785  16.618  67.723  1.00  0.00    -0.158 OA 
HETATM   20  C   UNL     1      -9.479  14.945  68.201  1.00  0.00    -0.202 C  
HETATM   21  H   UNL     1      -7.226  16.282  68.414  1.00  0.00     0.000 HD 
BRANCH  20  22
HETATM   22  C   UNL     1      -9.325  13.443  68.301  1.00  0.00    -0.205 C  
HETATM   23  C   UNL     1     -10.352  12.585  68.169  1.00  0.00    -0.236 C  
BRANCH  23  24
HETATM   24  C   UNL     1     -10.321  11.088  68.341  1.00  0.00    -0.183 C  
HETATM   25  H   UNL     1     -11.545   9.574  68.050  1.00  0.00     0.000 HD 
HETATM   26  O   UNL     1     -11.564  10.518  67.941  1.00  0.00    -0.461 OA 
BRANCH  24  27
HETATM   27  C   UNL     1      -9.214  10.412  67.524  1.00  0.00    -0.156 C  
BRANCH  27  28
HETATM   28  C   UNL     1      -9.740   9.425  66.478  1.00  0.00    -0.299 C  
BRANCH  28  29
HETATM   29  C   UNL     1      -9.575   9.964  65.079  1.00  0.00    -0.364 A  
HETATM   30  C   UNL     1      -8.750   9.302  64.160  1.00  0.00    -0.201 A  
HETATM   31  C   UNL     1      -8.559   9.821  62.880  1.00  0.00    -0.195 A  
HETATM   32  C   UNL     1      -9.190  11.006  62.507  1.00  0.00    -0.337 A  
HETATM   33  C   UNL     1     -10.016  11.670  63.413  1.00  0.00    -0.447 A  
HETATM   34  C   UNL     1     -10.208  11.153  64.694  1.00  0.00    -0.376 A  
ENDBRANCH  28  29
ENDBRANCH  27  28
ENDBRANCH  24  27
ENDBRANCH  23  24
ENDBRANCH  20  22
ENDBRANCH  12  13
ENDBRANCH  11  12
ENDBRANCH   9  10
ENDBRANCH   8   9
ENDBRANCH   7   8
ENDBRANCH   4   7
ENDBRANCH   2   3
TORSDOF 12
ENDMDL
MODEL       71
REMARK 921   NORMALIZED FREE ENERGY PREDICTED BY IDOCK:   -5.59 KCAL/MOL
REMARK 922        TOTAL FREE ENERGY PREDICTED BY IDOCK:  -12.35 KCAL/MOL
REMARK 923 INTER-LIGAND FREE ENERGY PREDICTED BY IDOCK:  -10.01 KCAL/MOL
REMARK 924 INTRA-LIGAND FREE ENERGY PREDICTED BY IDOCK:   -2.34 KCAL/MOL
REMARK 927      BINDING AFFINITY PREDICTED BY RF-SCORE:    0.00 PKD
ROOT
HETATM    1  C   UNL     1      -8.454  16.269  66.382  1.00  0.00    -0.365 C  
HETATM    2  C   UNL     1      -9.924  16.579  66.168  1.00  0.00    -0.343 C  
ENDROOT
BRANCH   2   3
HETATM    3  N   UNL     1     -10.649  15.420  65.700  1.00  0.00    -0.339 N  
HETATM    4  C   UNL     1     -11.413  15.474  64.556  1.00  0.00    -0.308 C  
HETATM    5  H   UNL     1     -10.595  14.548  66.227  1.00  0.00     0.000 HD 
HETATM    6  O   UNL     1     -11.536  16.486  63.877  1.00  0.00    -1.175 OA 
BRANCH   4   7
HETATM    7  C   UNL     1     -12.075  14.154  64.213  1.00  0.00    -0.471 C  
BRANCH   7   8
HETATM    8  C   UNL     1     -12.591  13.453  65.473  1.00  0.00    -0.520 C  
BRANCH   8   9
HETATM    9  C   UNL     1     -11.750  12.247  65.890  1.00  0.00    -0.451 C  
BRANCH   9  10
HETATM   10  C   UNL     1     -11.427  12.261  67.357  1.00  0.00    -0.422 C  
HETATM   11  C   UNL     1     -10.877  11.270  68.076  1.00  0.00    -0.266 C  
BRANCH  11  12
HETATM   12  C   UNL     1     -10.488   9.904  67.580  1.00  0.00    -0.310 C  
BRANCH  12  13
HETATM   13  C   UNL     1      -9.252   9.327  68.284  1.00  0.00    -0.134 C  
HETATM   14  C   UNL     1      -7.923   9.544  67.546  1.00  0.00    -0.106 C  
HETATM   15  C   UNL     1      -6.882   9.422  68.651  1.00  0.00    -0.061 C  
HETATM   16  O   UNL     1      -7.835  10.851  66.991  1.00  0.00    -0.121 OA 
HETATM   17  H   UNL     1      -7.013  10.985  66.534  1.00  0.00     0.000 HD 
HETATM   18  C   UNL     1      -7.510  10.183  69.815  1.00  0.00    -0.163 C  
HETATM   19  O   UNL     1      -7.181  11.571  69.719  1.00  0.00    -0.353 OA 
HETATM   20  C   UNL     1      -9.038  10.008  69.663  1.00  0.00    -0.230 C  
HETATM   21  H   UNL     1      -7.572  12.045  70.443  1.00  0.00     0.000 HD 
BRANCH  20  22
HETATM   22  C   UNL     1      -9.622   9.189  70.794  1.00  0.00    -0.338 C  
HETATM   23  C   UNL     1     -10.865   9.370  71.271  1.00  0.00    -0.431 C  
BRANCH  23  24
HETATM   24  C   UNL     1     -11.504   8.675  72.446  1.00  0.00    -0.299 C  
HETATM   25  H   UNL     1     -13.279   7.968  72.918  1.00  0.00     0.000 HD 
HETATM   26  O   UNL     1     -12.877   8.407  72.177  1.00  0.00    -0.338 OA 
BRANCH  24  27
HETATM   27  C   UNL     1     -10.829   7.342  72.795  1.00  0.00    -0.374 C  
BRANCH  27  28
HETATM   28  C   UNL     1     -11.479   6.132  72.119  1.00  0.00    -0.361 C  
BRANCH  28  29
HETATM   29  C   UNL     1     -10.841   5.838  70.784  1.00  0.00    -0.330 A  
HETATM   30  C   UNL     1      -9.656   5.093  70.717  1.00  0.00    -0.241 A  
HETATM   31  C   UNL     1      -9.038   4.857  69.489  1.00  0.00    -0.149 A  
HETATM   32  C   UNL     1      -9.598   5.364  68.318  1.00  0.00    -0.158 A  
HETATM   33  C   UNL     1     -10.779   6.103  68.375  1.00  0.00    -0.361 A  
HETATM   34  C   UNL     1     -11.398   6.341  69.601  1.00  0.00    -0.492 A  
ENDBRANCH  28  29
ENDBRANCH  27  28
ENDBRANCH  24  27
ENDBRANCH  23  24
ENDBRANCH  20  22
ENDBRANCH  12  13
ENDBRANCH  11  12
ENDBRANCH   9  10
ENDBRANCH   8   9
ENDBRANCH   7   8
ENDBRANCH   4   7
ENDBRANCH   2   3
TORSDOF 12
ENDMDL
MODEL       72
REMARK 921   NORMALIZED FREE ENERGY PREDICTED BY IDOCK:   -5.59 KCAL/MOL
REMARK 922        TOTAL FREE ENERGY PREDICTED BY IDOCK:  -12.35 KCAL/MOL
REMARK 923 INTER-LIGAND FREE ENERGY PREDICTED BY IDOCK:   -9.69 KCAL/MOL
REMARK 924 INTRA-LIGAND FREE ENERGY PREDICTED BY IDOCK:   -2.65 KCAL/MOL
REMARK 927      BINDING AFFINITY PREDICTED BY RF-SCORE:    0.00 PKD
ROOT
HETATM    1  C   UNL     1     -12.596  12.114  63.464  1.00  0.00    -0.621 C  
HETATM    2  C   UNL     1     -11.079  12.098  63.419  1.00  0.00    -0.420 C  
ENDROOT
BRANCH   2   3
HETATM    3  N   UNL     1     -10.528  11.185  64.396  1.00  0.00    -0.338 N  
HETATM    4  C   UNL     1      -9.581  10.252  64.040  1.00  0.00    -0.304 C  
HETATM    5  H   UNL     1     -10.847  11.234  65.364  1.00  0.00     0.000 HD 
HETATM    6  O   UNL     1      -9.157  10.125  62.898  1.00  0.00    -0.235 OA 
BRANCH   4   7
HETATM    7  C   UNL     1      -9.105   9.406  65.205  1.00  0.00    -0.280 C  
BRANCH   7   8
HETATM    8  C   UNL     1     -10.173   9.324  66.298  1.00  0.00    -0.273 C  
BRANCH   8   9
HETATM    9  C   UNL     1      -9.819   8.358  67.428  1.00  0.00    -0.249 C  
BRANCH   9  10
HETATM   10  C   UNL     1     -10.719   7.155  67.449  1.00  0.00    -0.368 C  
HETATM   11  C   UNL     1     -10.820   6.234  68.420  1.00  0.00    -0.394 C  
BRANCH  11  12
HETATM   12  C   UNL     1     -10.028   6.178  69.697  1.00  0.00    -0.210 C  
BRANCH  12  13
HETATM   13  C   UNL     1     -10.897   6.263  70.959  1.00  0.00    -0.326 C  
HETATM   14  C   UNL     1     -10.570   5.228  72.045  1.00  0.00    -0.216 C  
HETATM   15  C   UNL     1     -11.118   5.863  73.316  1.00  0.00    -0.216 C  
HETATM   16  O   UNL     1      -9.166   5.054  72.202  1.00  0.00    -0.134 OA 
HETATM   17  H   UNL     1      -8.963   4.413  72.873  1.00  0.00     0.000 HD 
HETATM   18  C   UNL     1     -10.713   7.328  73.182  1.00  0.00    -0.365 C  
HETATM   19  O   UNL     1      -9.398   7.515  73.710  1.00  0.00    -0.247 OA 
HETATM   20  C   UNL     1     -10.704   7.632  71.667  1.00  0.00    -0.243 C  
HETATM   21  H   UNL     1      -9.145   8.428  73.627  1.00  0.00     0.000 HD 
BRANCH  20  22
HETATM   22  C   UNL     1     -11.787   8.620  71.289  1.00  0.00    -0.344 C  
HETATM   23  C   UNL     1     -11.565   9.937  71.142  1.00  0.00    -0.468 C  
BRANCH  23  24
HETATM   24  C   UNL     1     -12.585  11.010  70.861  1.00  0.00    -0.391 C  
HETATM   25  H   UNL     1     -13.633  12.316  71.896  1.00  0.00     0.000 HD 
HETATM   26  O   UNL     1     -12.990  11.640  72.073  1.00  0.00    -0.416 OA 
BRANCH  24  27
HETATM   27  C   UNL     1     -12.063  12.104  69.920  1.00  0.00    -0.324 C  
BRANCH  27  28
HETATM   28  C   UNL     1     -11.670  11.584  68.535  1.00  0.00    -0.379 C  
BRANCH  28  29
HETATM   29  C   UNL     1     -11.146  12.695  67.659  1.00  0.00    -0.303 A  
HETATM   30  C   UNL     1     -12.035  13.513  66.950  1.00  0.00    -0.447 A  
HETATM   31  C   UNL     1     -11.554  14.513  66.103  1.00  0.00    -0.366 A  
HETATM   32  C   UNL     1     -10.181  14.702  65.958  1.00  0.00    -0.326 A  
HETATM   33  C   UNL     1      -9.289  13.895  66.663  1.00  0.00    -0.282 A  
HETATM   34  C   UNL     1      -9.768  12.895  67.509  1.00  0.00    -0.205 A  
ENDBRANCH  28  29
ENDBRANCH  27  28
ENDBRANCH  24  27
ENDBRANCH  23  24
ENDBRANCH  20  22
ENDBRANCH  12  13
ENDBRANCH  11  12
ENDBRANCH   9  10
ENDBRANCH   8   9
ENDBRANCH   7   8
ENDBRANCH   4   7
ENDBRANCH   2   3
TORSDOF 12
ENDMDL
MODEL       73
REMARK 921   NORMALIZED FREE ENERGY PREDICTED BY IDOCK:   -5.58 KCAL/MOL
REMARK 922        TOTAL FREE ENERGY PREDICTED BY IDOCK:  -12.33 KCAL/MOL
REMARK 923 INTER-LIGAND FREE ENERGY PREDICTED BY IDOCK:  -10.47 KCAL/MOL
REMARK 924 INTRA-LIGAND FREE ENERGY PREDICTED BY IDOCK:   -1.86 KCAL/MOL
REMARK 927      BINDING AFFINITY PREDICTED BY RF-SCORE:    0.00 PKD
ROOT
HETATM    1  C   UNL     1     -12.079  12.681  63.548  1.00  0.00    -0.648 C  
HETATM    2  C   UNL     1     -10.666  12.600  64.092  1.00  0.00    -0.406 C  
ENDROOT
BRANCH   2   3
HETATM    3  N   UNL     1     -10.499  11.467  64.974  1.00  0.00    -0.290 N  
HETATM    4  C   UNL     1      -9.835  10.335  64.558  1.00  0.00    -0.315 C  
HETATM    5  H   UNL     1     -10.881  11.506  65.919  1.00  0.00     0.000 HD 
HETATM    6  O   UNL     1      -9.359  10.208  63.436  1.00  0.00    -0.273 OA 
BRANCH   4   7
HETATM    7  C   UNL     1      -9.739   9.267  65.629  1.00  0.00    -0.302 C  
BRANCH   7   8
HETATM    8  C   UNL     1     -10.078   9.839  67.008  1.00  0.00    -0.277 C  
BRANCH   8   9
HETATM    9  C   UNL     1     -10.380   8.769  68.057  1.00  0.00    -0.273 C  
BRANCH   9  10
HETATM   10  C   UNL     1     -10.975   7.531  67.449  1.00  0.00    -0.165 C  
HETATM   11  C   UNL     1     -10.721   6.257  67.788  1.00  0.00    -0.383 C  
BRANCH  11  12
HETATM   12  C   UNL     1      -9.753   5.778  68.834  1.00  0.00    -0.174 C  
BRANCH  12  13
HETATM   13  C   UNL     1     -10.437   5.222  70.091  1.00  0.00    -0.338 C  
HETATM   14  C   UNL     1      -9.683   4.083  70.792  1.00  0.00    -0.193 C  
HETATM   15  C   UNL     1     -10.224   4.124  72.215  1.00  0.00    -0.234 C  
HETATM   16  O   UNL     1      -8.282   4.328  70.839  1.00  0.00    -0.076 OA 
HETATM   17  H   UNL     1      -7.816   3.624  71.272  1.00  0.00     0.000 HD 
HETATM   18  C   UNL     1     -10.287   5.617  72.526  1.00  0.00    -0.201 C  
HETATM   19  O   UNL     1      -9.027   6.056  73.040  1.00  0.00    -0.129 OA 
HETATM   20  C   UNL     1     -10.564   6.322  71.179  1.00  0.00    -0.289 C  
HETATM   21  H   UNL     1      -9.067   6.986  73.233  1.00  0.00     0.000 HD 
BRANCH  20  22
HETATM   22  C   UNL     1     -11.928   6.978  71.162  1.00  0.00    -0.398 C  
HETATM   23  C   UNL     1     -12.113   8.301  71.317  1.00  0.00    -0.307 C  
BRANCH  23  24
HETATM   24  C   UNL     1     -13.426   9.036  71.407  1.00  0.00    -0.277 C  
HETATM   25  H   UNL     1     -15.137   8.827  72.357  1.00  0.00     0.000 HD 
HETATM   26  O   UNL     1     -14.310   8.363  72.300  1.00  0.00    -0.415 OA 
BRANCH  24  27
HETATM   27  C   UNL     1     -13.273  10.479  71.903  1.00  0.00    -0.526 C  
BRANCH  27  28
HETATM   28  C   UNL     1     -12.440  11.362  70.969  1.00  0.00    -0.486 C  
BRANCH  28  29
HETATM   29  C   UNL     1     -12.747  12.825  71.176  1.00  0.00    -0.355 A  
HETATM   30  C   UNL     1     -13.579  13.229  72.228  1.00  0.00    -0.703 A  
HETATM   31  C   UNL     1     -13.902  14.576  72.396  1.00  0.00    -0.587 A  
HETATM   32  C   UNL     1     -13.396  15.529  71.514  1.00  0.00    -0.593 A  
HETATM   33  C   UNL     1     -12.564  15.136  70.466  1.00  0.00    -0.429 A  
HETATM   34  C   UNL     1     -12.241  13.790  70.296  1.00  0.00    -0.429 A  
ENDBRANCH  28  29
ENDBRANCH  27  28
ENDBRANCH  24  27
ENDBRANCH  23  24
ENDBRANCH  20  22
ENDBRANCH  12  13
ENDBRANCH  11  12
ENDBRANCH   9  10
ENDBRANCH   8   9
ENDBRANCH   7   8
ENDBRANCH   4   7
ENDBRANCH   2   3
TORSDOF 12
ENDMDL
MODEL       74
REMARK 921   NORMALIZED FREE ENERGY PREDICTED BY IDOCK:   -5.58 KCAL/MOL
REMARK 922        TOTAL FREE ENERGY PREDICTED BY IDOCK:  -12.33 KCAL/MOL
REMARK 923 INTER-LIGAND FREE ENERGY PREDICTED BY IDOCK:   -9.15 KCAL/MOL
REMARK 924 INTRA-LIGAND FREE ENERGY PREDICTED BY IDOCK:   -3.17 KCAL/MOL
REMARK 927      BINDING AFFINITY PREDICTED BY RF-SCORE:    0.00 PKD
ROOT
HETATM    1  C   UNL     1     -10.195  16.027  65.620  1.00  0.00    -0.412 C  
HETATM    2  C   UNL     1      -8.878  15.813  66.341  1.00  0.00    -0.336 C  
ENDROOT
BRANCH   2   3
HETATM    3  N   UNL     1      -8.568  14.408  66.479  1.00  0.00    -0.435 N  
HETATM    4  C   UNL     1      -7.605  13.976  67.363  1.00  0.00    -0.148 C  
HETATM    5  H   UNL     1      -9.072  13.725  65.913  1.00  0.00     0.000 HD 
HETATM    6  O   UNL     1      -6.951  14.735  68.068  1.00  0.00    -0.110 OA 
BRANCH   4   7
HETATM    7  C   UNL     1      -7.442  12.469  67.385  1.00  0.00    -0.153 C  
BRANCH   7   8
HETATM    8  C   UNL     1      -7.959  11.880  68.700  1.00  0.00    -0.101 C  
BRANCH   8   9
HETATM    9  C   UNL     1      -7.711  10.378  68.836  1.00  0.00    -0.111 C  
BRANCH   9  10
HETATM   10  C   UNL     1      -8.088   9.861  70.195  1.00  0.00    -0.169 C  
HETATM   11  C   UNL     1      -8.967   8.886  70.477  1.00  0.00    -0.224 C  
BRANCH  11  12
HETATM   12  C   UNL     1      -9.799   8.110  69.494  1.00  0.00    -0.181 C  
BRANCH  12  13
HETATM   13  C   UNL     1     -11.278   8.005  69.895  1.00  0.00    -0.040 C  
HETATM   14  C   UNL     1     -11.692   6.658  70.506  1.00  0.00    -0.394 C  
HETATM   15  C   UNL     1     -12.946   7.002  71.299  1.00  0.00    -0.357 C  
HETATM   16  O   UNL     1     -10.710   6.167  71.412  1.00  0.00    -0.237 OA 
HETATM   17  H   UNL     1     -10.966   5.334  71.790  1.00  0.00     0.000 HD 
HETATM   18  C   UNL     1     -12.592   8.330  71.962  1.00  0.00    -0.349 C  
HETATM   19  O   UNL     1     -11.927   8.089  73.204  1.00  0.00    -0.646 OA 
HETATM   20  C   UNL     1     -11.624   9.046  70.993  1.00  0.00    -0.360 C  
HETATM   21  H   UNL     1     -11.707   8.916  73.616  1.00  0.00     0.000 HD 
BRANCH  20  22
HETATM   22  C   UNL     1     -12.241  10.298  70.409  1.00  0.00    -0.346 C  
HETATM   23  C   UNL     1     -11.572  11.456  70.273  1.00  0.00    -0.334 C  
BRANCH  23  24
HETATM   24  C   UNL     1     -12.118  12.776  69.792  1.00  0.00    -0.237 C  
HETATM   25  H   UNL     1     -12.413  14.575  70.536  1.00  0.00     0.000 HD 
HETATM   26  O   UNL     1     -12.068  13.743  70.839  1.00  0.00    -0.341 OA 
BRANCH  24  27
HETATM   27  C   UNL     1     -11.346  13.346  68.595  1.00  0.00    -0.322 C  
BRANCH  27  28
HETATM   28  C   UNL     1     -12.207  13.529  67.343  1.00  0.00    -0.278 C  
BRANCH  28  29
HETATM   29  C   UNL     1     -11.714  12.670  66.205  1.00  0.00    -0.460 A  
HETATM   30  C   UNL     1     -10.833  11.609  66.453  1.00  0.00    -0.333 A  
HETATM   31  C   UNL     1     -10.339  10.839  65.400  1.00  0.00    -0.315 A  
HETATM   32  C   UNL     1     -10.721  11.124  64.090  1.00  0.00    -0.415 A  
HETATM   33  C   UNL     1     -11.601  12.175  63.834  1.00  0.00    -0.532 A  
HETATM   34  C   UNL     1     -12.095  12.946  64.886  1.00  0.00    -0.479 A  
ENDBRANCH  28  29
ENDBRANCH  27  28
ENDBRANCH  24  27
ENDBRANCH  23  24
ENDBRANCH  20  22
ENDBRANCH  12  13
ENDBRANCH  11  12
ENDBRANCH   9  10
ENDBRANCH   8   9
ENDBRANCH   7   8
ENDBRANCH   4   7
ENDBRANCH   2   3
TORSDOF 12
ENDMDL
MODEL       75
REMARK 921   NORMALIZED FREE ENERGY PREDICTED BY IDOCK:   -5.56 KCAL/MOL
REMARK 922        TOTAL FREE ENERGY PREDICTED BY IDOCK:  -12.29 KCAL/MOL
REMARK 923 INTER-LIGAND FREE ENERGY PREDICTED BY IDOCK:  -10.50 KCAL/MOL
REMARK 924 INTRA-LIGAND FREE ENERGY PREDICTED BY IDOCK:   -1.79 KCAL/MOL
REMARK 927      BINDING AFFINITY PREDICTED BY RF-SCORE:    0.00 PKD
ROOT
HETATM    1  C   UNL     1     -10.379  19.476  67.751  1.00  0.00    -0.575 C  
HETATM    2  C   UNL     1      -9.825  18.329  68.576  1.00  0.00    -0.381 C  
ENDROOT
BRANCH   2   3
HETATM    3  N   UNL     1      -9.748  17.109  67.806  1.00  0.00    -0.265 N  
HETATM    4  C   UNL     1     -10.713  16.134  67.921  1.00  0.00    -0.321 C  
HETATM    5  H   UNL     1      -8.966  16.967  67.167  1.00  0.00     0.000 HD 
HETATM    6  O   UNL     1     -11.675  16.225  68.673  1.00  0.00    -0.314 OA 
BRANCH   4   7
HETATM    7  C   UNL     1     -10.474  14.942  67.015  1.00  0.00    -0.272 C  
BRANCH   7   8
HETATM    8  C   UNL     1     -10.014  15.390  65.625  1.00  0.00    -0.396 C  
BRANCH   8   9
HETATM    9  C   UNL     1     -11.164  15.618  64.644  1.00  0.00    -0.380 C  
BRANCH   9  10
HETATM   10  C   UNL     1     -12.206  14.540  64.732  1.00  0.00    -0.441 C  
HETATM   11  C   UNL     1     -12.103  13.274  64.299  1.00  0.00    -0.475 C  
BRANCH  11  12
HETATM   12  C   UNL     1     -10.927  12.654  63.595  1.00  0.00    -0.464 C  
BRANCH  12  13
HETATM   13  C   UNL     1     -10.497  11.307  64.192  1.00  0.00    -0.431 C  
HETATM   14  C   UNL     1      -9.530  10.489  63.324  1.00  0.00    -0.325 C  
HETATM   15  C   UNL     1      -8.850   9.566  64.326  1.00  0.00    -0.247 C  
HETATM   16  O   UNL     1      -8.534  11.312  62.727  1.00  0.00    -0.454 OA 
HETATM   17  H   UNL     1      -7.935  10.806  62.189  1.00  0.00     0.000 HD 
HETATM   18  C   UNL     1      -8.588  10.475  65.524  1.00  0.00    -0.180 C  
HETATM   19  O   UNL     1      -7.335  11.143  65.358  1.00  0.00    -0.350 OA 
HETATM   20  C   UNL     1      -9.728  11.518  65.525  1.00  0.00    -0.259 C  
HETATM   21  H   UNL     1      -7.172  11.709  66.103  1.00  0.00     0.000 HD 
BRANCH  20  22
HETATM   22  C   UNL     1     -10.631  11.358  66.729  1.00  0.00    -0.298 C  
HETATM   23  C   UNL     1     -10.213  11.537  67.994  1.00  0.00    -0.205 C  
BRANCH  23  24
HETATM   24  C   UNL     1     -11.003  11.314  69.258  1.00  0.00    -0.243 C  
HETATM   25  H   UNL     1     -12.854  10.853  69.743  1.00  0.00     0.000 HD 
HETATM   26  O   UNL     1     -12.357  10.994  68.946  1.00  0.00    -0.516 OA 
BRANCH  24  27
HETATM   27  C   UNL     1     -10.443  10.177  70.123  1.00  0.00    -0.311 C  
BRANCH  27  28
HETATM   28  C   UNL     1     -11.341   9.812  71.309  1.00  0.00    -0.445 C  
BRANCH  28  29
HETATM   29  C   UNL     1     -11.194   8.358  71.683  1.00  0.00    -0.343 A  
HETATM   30  C   UNL     1     -10.655   8.000  72.925  1.00  0.00    -0.399 A  
HETATM   31  C   UNL     1     -10.475   6.657  73.258  1.00  0.00    -0.299 A  
HETATM   32  C   UNL     1     -10.833   5.661  72.351  1.00  0.00    -0.298 A  
HETATM   33  C   UNL     1     -11.374   6.007  71.114  1.00  0.00    -0.300 A  
HETATM   34  C   UNL     1     -11.553   7.349  70.780  1.00  0.00    -0.317 A  
ENDBRANCH  28  29
ENDBRANCH  27  28
ENDBRANCH  24  27
ENDBRANCH  23  24
ENDBRANCH  20  22
ENDBRANCH  12  13
ENDBRANCH  11  12
ENDBRANCH   9  10
ENDBRANCH   8   9
ENDBRANCH   7   8
ENDBRANCH   4   7
ENDBRANCH   2   3
TORSDOF 12
ENDMDL
MODEL       76
REMARK 921   NORMALIZED FREE ENERGY PREDICTED BY IDOCK:   -5.55 KCAL/MOL
REMARK 922        TOTAL FREE ENERGY PREDICTED BY IDOCK:  -12.28 KCAL/MOL
REMARK 923 INTER-LIGAND FREE ENERGY PREDICTED BY IDOCK:  -10.48 KCAL/MOL
REMARK 924 INTRA-LIGAND FREE ENERGY PREDICTED BY IDOCK:   -1.80 KCAL/MOL
REMARK 927      BINDING AFFINITY PREDICTED BY RF-SCORE:    0.00 PKD
ROOT
HETATM    1  C   UNL     1     -12.532  12.077  63.533  1.00  0.00    -0.654 C  
HETATM    2  C   UNL     1     -11.021  11.953  63.457  1.00  0.00    -0.432 C  
ENDROOT
BRANCH   2   3
HETATM    3  N   UNL     1     -10.431  11.830  64.771  1.00  0.00    -0.278 N  
HETATM    4  C   UNL     1      -9.391  10.959  65.004  1.00  0.00    -0.226 C  
HETATM    5  H   UNL     1     -10.792  12.398  65.538  1.00  0.00     0.000 HD 
HETATM    6  O   UNL     1      -8.912  10.237  64.138  1.00  0.00    -0.197 OA 
BRANCH   4   7
HETATM    7  C   UNL     1      -8.890  10.990  66.434  1.00  0.00    -0.182 C  
BRANCH   7   8
HETATM    8  C   UNL     1      -8.924  12.413  66.998  1.00  0.00    -0.209 C  
BRANCH   8   9
HETATM    9  C   UNL     1      -9.720  12.537  68.297  1.00  0.00    -0.220 C  
BRANCH   9  10
HETATM   10  C   UNL     1     -11.162  12.158  68.117  1.00  0.00    -0.320 C  
HETATM   11  C   UNL     1     -12.143  12.241  69.030  1.00  0.00    -0.197 C  
BRANCH  11  12
HETATM   12  C   UNL     1     -12.012  12.704  70.455  1.00  0.00    -0.331 C  
BRANCH  12  13
HETATM   13  C   UNL     1     -12.769  14.008  70.746  1.00  0.00    -0.396 C  
HETATM   14  C   UNL     1     -13.938  13.875  71.734  1.00  0.00    -0.339 C  
HETATM   15  C   UNL     1     -14.115  15.292  72.263  1.00  0.00    -0.651 C  
HETATM   16  O   UNL     1     -13.609  13.026  72.828  1.00  0.00    -0.648 OA 
HETATM   17  H   UNL     1     -14.331  12.944  73.439  1.00  0.00     0.000 HD 
HETATM   18  C   UNL     1     -12.682  15.773  72.474  1.00  0.00    -0.451 C  
HETATM   19  O   UNL     1     -12.231  15.391  73.776  1.00  0.00    -0.496 OA 
HETATM   20  C   UNL     1     -11.829  15.053  71.405  1.00  0.00    -0.413 C  
HETATM   21  H   UNL     1     -11.339  15.690  73.906  1.00  0.00     0.000 HD 
BRANCH  20  22
HETATM   22  C   UNL     1     -11.267  16.026  70.391  1.00  0.00    -0.401 C  
HETATM   23  C   UNL     1     -10.139  15.797  69.695  1.00  0.00    -0.289 C  
BRANCH  23  24
HETATM   24  C   UNL     1      -9.451  16.735  68.737  1.00  0.00    -0.259 C  
HETATM   25  H   UNL     1      -8.627  16.630  66.952  1.00  0.00     0.000 HD 
HETATM   26  O   UNL     1      -9.061  16.039  67.556  1.00  0.00    -0.196 OA 
BRANCH  24  27
HETATM   27  C   UNL     1     -10.334  17.915  68.312  1.00  0.00    -0.389 C  
BRANCH  27  28
HETATM   28  C   UNL     1      -9.771  19.280  68.718  1.00  0.00    -0.510 C  
BRANCH  28  29
HETATM   29  C   UNL     1      -8.604  19.675  67.849  1.00  0.00    -0.360 A  
HETATM   30  C   UNL     1      -7.443  20.207  68.425  1.00  0.00    -0.200 A  
HETATM   31  C   UNL     1      -6.378  20.615  67.621  1.00  0.00    -0.331 A  
HETATM   32  C   UNL     1      -6.465  20.496  66.236  1.00  0.00    -0.272 A  
HETATM   33  C   UNL     1      -7.615  19.964  65.654  1.00  0.00    -0.242 A  
HETATM   34  C   UNL     1      -8.680  19.555  66.455  1.00  0.00    -0.388 A  
ENDBRANCH  28  29
ENDBRANCH  27  28
ENDBRANCH  24  27
ENDBRANCH  23  24
ENDBRANCH  20  22
ENDBRANCH  12  13
ENDBRANCH  11  12
ENDBRANCH   9  10
ENDBRANCH   8   9
ENDBRANCH   7   8
ENDBRANCH   4   7
ENDBRANCH   2   3
TORSDOF 12
ENDMDL
MODEL       77
REMARK 921   NORMALIZED FREE ENERGY PREDICTED BY IDOCK:   -5.52 KCAL/MOL
REMARK 922        TOTAL FREE ENERGY PREDICTED BY IDOCK:  -12.22 KCAL/MOL
REMARK 923 INTER-LIGAND FREE ENERGY PREDICTED BY IDOCK:  -10.06 KCAL/MOL
REMARK 924 INTRA-LIGAND FREE ENERGY PREDICTED BY IDOCK:   -2.17 KCAL/MOL
REMARK 927      BINDING AFFINITY PREDICTED BY RF-SCORE:    0.00 PKD
ROOT
HETATM    1  C   UNL     1      -8.864   4.677  71.318  1.00  0.00    -0.152 C  
HETATM    2  C   UNL     1      -8.252   5.867  72.033  1.00  0.00    -0.112 C  
ENDROOT
BRANCH   2   3
HETATM    3  N   UNL     1      -8.934   7.097  71.697  1.00  0.00    -0.133 N  
HETATM    4  C   UNL     1      -9.979   7.562  72.463  1.00  0.00    -0.198 C  
HETATM    5  H   UNL     1      -8.635   7.629  70.880  1.00  0.00     0.000 HD 
HETATM    6  O   UNL     1     -10.401   6.975  73.452  1.00  0.00    -0.262 OA 
BRANCH   4   7
HETATM    7  C   UNL     1     -10.547   8.878  71.969  1.00  0.00    -0.388 C  
BRANCH   7   8
HETATM    8  C   UNL     1     -10.163   9.129  70.509  1.00  0.00    -0.288 C  
BRANCH   8   9
HETATM    9  C   UNL     1     -10.498  10.539  70.023  1.00  0.00    -0.163 C  
BRANCH   9  10
HETATM   10  C   UNL     1     -11.562  10.535  68.962  1.00  0.00    -0.278 C  
HETATM   11  C   UNL     1     -11.406  10.801  67.655  1.00  0.00    -0.328 C  
BRANCH  11  12
HETATM   12  C   UNL     1     -10.131  11.197  66.961  1.00  0.00    -0.235 C  
BRANCH  12  13
HETATM   13  C   UNL     1     -10.322  12.314  65.925  1.00  0.00    -0.280 C  
HETATM   14  C   UNL     1     -10.321  11.849  64.461  1.00  0.00    -0.292 C  
HETATM   15  C   UNL     1     -11.066  12.963  63.737  1.00  0.00    -0.424 C  
HETATM   16  O   UNL     1     -11.050  10.639  64.291  1.00  0.00    -0.102 OA 
HETATM   17  H   UNL     1     -11.049  10.351  63.386  1.00  0.00     0.000 HD 
HETATM   18  C   UNL     1     -12.223  13.285  64.679  1.00  0.00    -0.407 C  
HETATM   19  O   UNL     1     -13.328  12.423  64.398  1.00  0.00    -0.789 OA 
HETATM   20  C   UNL     1     -11.702  13.001  66.106  1.00  0.00    -0.445 C  
HETATM   21  H   UNL     1     -14.048  12.624  64.985  1.00  0.00     0.000 HD 
BRANCH  20  22
HETATM   22  C   UNL     1     -11.597  14.269  66.925  1.00  0.00    -0.405 C  
HETATM   23  C   UNL     1     -10.507  15.055  66.933  1.00  0.00    -0.279 C  
BRANCH  23  24
HETATM   24  C   UNL     1     -10.269  16.280  67.778  1.00  0.00    -0.270 C  
HETATM   25  H   UNL     1     -10.414  18.232  67.567  1.00  0.00     0.000 HD 
HETATM   26  O   UNL     1     -10.564  17.460  67.034  1.00  0.00    -0.316 OA 
BRANCH  24  27
HETATM   27  C   UNL     1     -11.123  16.307  69.052  1.00  0.00    -0.331 C  
BRANCH  27  28
HETATM   28  C   UNL     1     -10.614  15.369  70.150  1.00  0.00    -0.314 C  
BRANCH  28  29
HETATM   29  C   UNL     1     -11.752  14.813  70.969  1.00  0.00    -0.358 A  
HETATM   30  C   UNL     1     -12.167  13.486  70.793  1.00  0.00    -0.417 A  
HETATM   31  C   UNL     1     -13.247  12.981  71.517  1.00  0.00    -0.360 A  
HETATM   32  C   UNL     1     -13.922  13.797  72.422  1.00  0.00    -0.651 A  
HETATM   33  C   UNL     1     -13.513  15.117  72.608  1.00  0.00    -0.578 A  
HETATM   34  C   UNL     1     -12.434  15.624  71.885  1.00  0.00    -0.505 A  
ENDBRANCH  28  29
ENDBRANCH  27  28
ENDBRANCH  24  27
ENDBRANCH  23  24
ENDBRANCH  20  22
ENDBRANCH  12  13
ENDBRANCH  11  12
ENDBRANCH   9  10
ENDBRANCH   8   9
ENDBRANCH   7   8
ENDBRANCH   4   7
ENDBRANCH   2   3
TORSDOF 12
ENDMDL
MODEL       78
REMARK 921   NORMALIZED FREE ENERGY PREDICTED BY IDOCK:   -5.51 KCAL/MOL
REMARK 922        TOTAL FREE ENERGY PREDICTED BY IDOCK:  -12.20 KCAL/MOL
REMARK 923 INTER-LIGAND FREE ENERGY PREDICTED BY IDOCK:   -9.79 KCAL/MOL
REMARK 924 INTRA-LIGAND FREE ENERGY PREDICTED BY IDOCK:   -2.41 KCAL/MOL
REMARK 927      BINDING AFFINITY PREDICTED BY RF-SCORE:    0.00 PKD
ROOT
HETATM    1  C   UNL     1     -11.329   4.305  73.310  1.00  0.00    -0.301 C  
HETATM    2  C   UNL     1     -10.815   5.732  73.338  1.00  0.00    -0.260 C  
ENDROOT
BRANCH   2   3
HETATM    3  N   UNL     1     -10.553   6.229  72.007  1.00  0.00    -0.211 N  
HETATM    4  C   UNL     1     -11.519   6.912  71.301  1.00  0.00    -0.296 C  
HETATM    5  H   UNL     1      -9.639   6.072  71.583  1.00  0.00     0.000 HD 
HETATM    6  O   UNL     1     -12.642   7.130  71.737  1.00  0.00    -0.335 OA 
BRANCH   4   7
HETATM    7  C   UNL     1     -11.050   7.377  69.937  1.00  0.00    -0.208 C  
BRANCH   7   8
HETATM    8  C   UNL     1      -9.652   7.997  70.017  1.00  0.00    -0.171 C  
BRANCH   8   9
HETATM    9  C   UNL     1      -9.231   8.722  68.740  1.00  0.00    -0.141 C  
BRANCH   9  10
HETATM   10  C   UNL     1     -10.288   8.657  67.675  1.00  0.00    -0.317 C  
HETATM   11  C   UNL     1     -10.106   8.709  66.346  1.00  0.00    -0.294 C  
BRANCH  11  12
HETATM   12  C   UNL     1      -8.800   8.878  65.621  1.00  0.00    -0.230 C  
BRANCH  12  13
HETATM   13  C   UNL     1      -8.679  10.219  64.883  1.00  0.00    -0.198 C  
HETATM   14  C   UNL     1      -8.464  10.111  63.366  1.00  0.00    -0.185 C  
HETATM   15  C   UNL     1      -8.943  11.458  62.844  1.00  0.00    -0.194 C  
HETATM   16  O   UNL     1      -9.276   9.093  62.790  1.00  0.00    -0.509 OA 
HETATM   17  H   UNL     1      -9.143   9.026  61.852  1.00  0.00     0.000 HD 
HETATM   18  C   UNL     1     -10.209  11.722  63.654  1.00  0.00    -0.428 C  
HETATM   19  O   UNL     1     -11.332  11.121  63.004  1.00  0.00    -0.812 OA 
HETATM   20  C   UNL     1      -9.988  11.043  65.025  1.00  0.00    -0.340 C  
HETATM   21  H   UNL     1     -12.120  11.285  63.509  1.00  0.00     0.000 HD 
BRANCH  20  22
HETATM   22  C   UNL     1      -9.897  12.058  66.143  1.00  0.00    -0.255 C  
HETATM   23  C   UNL     1     -10.496  13.261  66.098  1.00  0.00    -0.296 C  
BRANCH  23  24
HETATM   24  C   UNL     1     -10.393  14.372  67.112  1.00  0.00    -0.262 C  
HETATM   25  H   UNL     1     -11.461  15.931  67.661  1.00  0.00     0.000 HD 
HETATM   26  O   UNL     1     -11.526  15.231  67.022  1.00  0.00    -0.286 OA 
BRANCH  24  27
HETATM   27  C   UNL     1     -10.308  13.862  68.556  1.00  0.00    -0.244 C  
BRANCH  27  28
HETATM   28  C   UNL     1     -11.553  14.177  69.390  1.00  0.00    -0.353 C  
BRANCH  28  29
HETATM   29  C   UNL     1     -11.997  12.979  70.192  1.00  0.00    -0.374 A  
HETATM   30  C   UNL     1     -11.695  11.684  69.751  1.00  0.00    -0.425 A  
HETATM   31  C   UNL     1     -12.141  10.572  70.465  1.00  0.00    -0.437 A  
HETATM   32  C   UNL     1     -12.893  10.745  71.626  1.00  0.00    -0.562 A  
HETATM   33  C   UNL     1     -13.195  12.030  72.074  1.00  0.00    -0.481 A  
HETATM   34  C   UNL     1     -12.750  13.143  71.362  1.00  0.00    -0.390 A  
ENDBRANCH  28  29
ENDBRANCH  27  28
ENDBRANCH  24  27
ENDBRANCH  23  24
ENDBRANCH  20  22
ENDBRANCH  12  13
ENDBRANCH  11  12
ENDBRANCH   9  10
ENDBRANCH   8   9
ENDBRANCH   7   8
ENDBRANCH   4   7
ENDBRANCH   2   3
TORSDOF 12
ENDMDL
MODEL       79
REMARK 921   NORMALIZED FREE ENERGY PREDICTED BY IDOCK:   -5.50 KCAL/MOL
REMARK 922        TOTAL FREE ENERGY PREDICTED BY IDOCK:  -12.20 KCAL/MOL
REMARK 923 INTER-LIGAND FREE ENERGY PREDICTED BY IDOCK:   -9.15 KCAL/MOL
REMARK 924 INTRA-LIGAND FREE ENERGY PREDICTED BY IDOCK:   -3.05 KCAL/MOL
REMARK 927      BINDING AFFINITY PREDICTED BY RF-SCORE:    0.00 PKD
ROOT
HETATM    1  C   UNL     1      -9.803  15.615  66.145  1.00  0.00    -0.340 C  
HETATM    2  C   UNL     1     -10.830  15.311  65.070  1.00  0.00    -0.439 C  
ENDROOT
BRANCH   2   3
HETATM    3  N   UNL     1     -10.870  13.901  64.755  1.00  0.00    -0.399 N  
HETATM    4  C   UNL     1     -11.841  13.385  63.927  1.00  0.00    -0.439 C  
HETATM    5  H   UNL     1     -10.167  13.278  65.153  1.00  0.00     0.000 HD 
HETATM    6  O   UNL     1     -12.724  14.066  63.421  1.00  0.00    -0.796 OA 
BRANCH   4   7
HETATM    7  C   UNL     1     -11.702  11.894  63.694  1.00  0.00    -0.572 C  
BRANCH   7   8
HETATM    8  C   UNL     1     -10.380  11.567  62.994  1.00  0.00    -0.293 C  
BRANCH   8   9
HETATM    9  C   UNL     1      -9.379  10.836  63.888  1.00  0.00    -0.284 C  
BRANCH   9  10
HETATM   10  C   UNL     1     -10.053  10.093  65.006  1.00  0.00    -0.305 C  
HETATM   11  C   UNL     1     -10.065  10.423  66.308  1.00  0.00    -0.292 C  
BRANCH  11  12
HETATM   12  C   UNL     1      -9.376  11.596  66.947  1.00  0.00    -0.195 C  
BRANCH  12  13
HETATM   13  C   UNL     1      -9.886  11.907  68.362  1.00  0.00    -0.201 C  
HETATM   14  C   UNL     1     -11.070  12.883  68.427  1.00  0.00    -0.262 C  
HETATM   15  C   UNL     1     -11.708  12.574  69.774  1.00  0.00    -0.355 C  
HETATM   16  O   UNL     1     -12.027  12.619  67.407  1.00  0.00    -0.398 OA 
HETATM   17  H   UNL     1     -12.759  13.222  67.447  1.00  0.00     0.000 HD 
HETATM   18  C   UNL     1     -11.669  11.050  69.843  1.00  0.00    -0.346 C  
HETATM   19  O   UNL     1     -12.833  10.507  69.217  1.00  0.00    -0.617 OA 
HETATM   20  C   UNL     1     -10.414  10.620  69.050  1.00  0.00    -0.237 C  
HETATM   21  H   UNL     1     -12.808   9.558  69.260  1.00  0.00     0.000 HD 
BRANCH  20  22
HETATM   22  C   UNL     1      -9.371   9.993  69.950  1.00  0.00    -0.207 C  
HETATM   23  C   UNL     1      -8.092   9.808  69.581  1.00  0.00    -0.158 C  
BRANCH  23  24
HETATM   24  C   UNL     1      -7.006   9.115  70.363  1.00  0.00    -0.071 C  
HETATM   25  H   UNL     1      -6.113   9.334  72.104  1.00  0.00     0.000 HD 
HETATM   26  O   UNL     1      -6.798   9.771  71.611  1.00  0.00    -0.284 OA 
BRANCH  24  27
HETATM   27  C   UNL     1      -7.323   7.643  70.658  1.00  0.00    -0.067 C  
BRANCH  27  28
HETATM   28  C   UNL     1      -7.215   6.735  69.430  1.00  0.00    -0.089 C  
BRANCH  28  29
HETATM   29  C   UNL     1      -8.543   6.596  68.729  1.00  0.00    -0.122 A  
HETATM   30  C   UNL     1      -8.635   6.794  67.345  1.00  0.00    -0.120 A  
HETATM   31  C   UNL     1      -9.869   6.710  66.699  1.00  0.00    -0.208 A  
HETATM   32  C   UNL     1     -11.020   6.429  67.431  1.00  0.00    -0.463 A  
HETATM   33  C   UNL     1     -10.938   6.226  68.808  1.00  0.00    -0.424 A  
HETATM   34  C   UNL     1      -9.706   6.310  69.455  1.00  0.00    -0.169 A  
ENDBRANCH  28  29
ENDBRANCH  27  28
ENDBRANCH  24  27
ENDBRANCH  23  24
ENDBRANCH  20  22
ENDBRANCH  12  13
ENDBRANCH  11  12
ENDBRANCH   9  10
ENDBRANCH   8   9
ENDBRANCH   7   8
ENDBRANCH   4   7
ENDBRANCH   2   3
TORSDOF 12
ENDMDL
MODEL       80
REMARK 921   NORMALIZED FREE ENERGY PREDICTED BY IDOCK:   -5.50 KCAL/MOL
REMARK 922        TOTAL FREE ENERGY PREDICTED BY IDOCK:  -12.19 KCAL/MOL
REMARK 923 INTER-LIGAND FREE ENERGY PREDICTED BY IDOCK:   -8.76 KCAL/MOL
REMARK 924 INTRA-LIGAND FREE ENERGY PREDICTED BY IDOCK:   -3.43 KCAL/MOL
REMARK 927      BINDING AFFINITY PREDICTED BY RF-SCORE:    0.00 PKD
ROOT
HETATM    1  C   UNL     1     -12.893   9.330  72.002  1.00  0.00    -0.495 C  
HETATM    2  C   UNL     1     -13.019  10.805  71.669  1.00  0.00    -0.476 C  
ENDROOT
BRANCH   2   3
HETATM    3  N   UNL     1     -12.601  11.082  70.313  1.00  0.00    -0.276 N  
HETATM    4  C   UNL     1     -12.155  12.332  69.949  1.00  0.00    -0.249 C  
HETATM    5  H   UNL     1     -12.636  10.338  69.615  1.00  0.00     0.000 HD 
HETATM    6  O   UNL     1     -12.094  13.277  70.725  1.00  0.00    -0.341 OA 
BRANCH   4   7
HETATM    7  C   UNL     1     -11.735  12.420  68.495  1.00  0.00    -0.373 C  
BRANCH   7   8
HETATM    8  C   UNL     1     -11.680  13.875  68.024  1.00  0.00    -0.387 C  
BRANCH   8   9
HETATM    9  C   UNL     1     -12.078  14.060  66.560  1.00  0.00    -0.488 C  
BRANCH   9  10
HETATM   10  C   UNL     1     -10.883  14.207  65.661  1.00  0.00    -0.306 C  
HETATM   11  C   UNL     1     -10.237  15.341  65.349  1.00  0.00    -0.414 C  
BRANCH  11  12
HETATM   12  C   UNL     1     -10.584  16.732  65.804  1.00  0.00    -0.259 C  
BRANCH  12  13
HETATM   13  C   UNL     1      -9.451  17.423  66.576  1.00  0.00    -0.288 C  
HETATM   14  C   UNL     1      -9.305  18.928  66.307  1.00  0.00    -0.282 C  
HETATM   15  C   UNL     1      -8.571  19.438  67.540  1.00  0.00    -0.338 C  
HETATM   16  O   UNL     1     -10.571  19.577  66.239  1.00  0.00    -0.456 OA 
HETATM   17  H   UNL     1     -10.480  20.508  66.073  1.00  0.00     0.000 HD 
HETATM   18  C   UNL     1      -9.247  18.692  68.688  1.00  0.00    -0.329 C  
HETATM   19  O   UNL     1     -10.397  19.419  69.126  1.00  0.00    -0.573 OA 
HETATM   20  C   UNL     1      -9.694  17.331  68.106  1.00  0.00    -0.284 C  
HETATM   21  H   UNL     1     -10.817  18.954  69.840  1.00  0.00     0.000 HD 
BRANCH  20  22
HETATM   22  C   UNL     1      -8.933  16.180  68.730  1.00  0.00    -0.236 C  
HETATM   23  C   UNL     1      -7.672  15.860  68.391  1.00  0.00    -0.140 C  
BRANCH  23  24
HETATM   24  C   UNL     1      -6.864  14.686  68.882  1.00  0.00    -0.104 C  
HETATM   25  H   UNL     1      -6.075  14.084  70.581  1.00  0.00     0.000 HD 
HETATM   26  O   UNL     1      -6.584  14.824  70.272  1.00  0.00    -0.182 OA 
BRANCH  24  27
HETATM   27  C   UNL     1      -7.576  13.341  68.682  1.00  0.00    -0.094 C  
BRANCH  27  28
HETATM   28  C   UNL     1      -7.760  12.959  67.211  1.00  0.00    -0.122 C  
BRANCH  28  29
HETATM   29  C   UNL     1      -8.461  11.630  67.071  1.00  0.00    -0.168 A  
HETATM   30  C   UNL     1      -9.037  11.262  65.848  1.00  0.00    -0.217 A  
HETATM   31  C   UNL     1      -9.724  10.054  65.726  1.00  0.00    -0.321 A  
HETATM   32  C   UNL     1      -9.843   9.205  66.825  1.00  0.00    -0.291 A  
HETATM   33  C   UNL     1      -9.269   9.562  68.045  1.00  0.00    -0.136 A  
HETATM   34  C   UNL     1      -8.582  10.769  68.169  1.00  0.00    -0.129 A  
ENDBRANCH  28  29
ENDBRANCH  27  28
ENDBRANCH  24  27
ENDBRANCH  23  24
ENDBRANCH  20  22
ENDBRANCH  12  13
ENDBRANCH  11  12
ENDBRANCH   9  10
ENDBRANCH   8   9
ENDBRANCH   7   8
ENDBRANCH   4   7
ENDBRANCH   2   3
TORSDOF 12
ENDMDL
MODEL       81
REMARK 921   NORMALIZED FREE ENERGY PREDICTED BY IDOCK:   -5.49 KCAL/MOL
REMARK 922        TOTAL FREE ENERGY PREDICTED BY IDOCK:  -12.17 KCAL/MOL
REMARK 923 INTER-LIGAND FREE ENERGY PREDICTED BY IDOCK:  -10.82 KCAL/MOL
REMARK 924 INTRA-LIGAND FREE ENERGY PREDICTED BY IDOCK:   -1.35 KCAL/MOL
REMARK 927      BINDING AFFINITY PREDICTED BY RF-SCORE:    0.00 PKD
ROOT
HETATM    1  C   UNL     1     -11.404   7.967  72.639  1.00  0.00    -0.469 C  
HETATM    2  C   UNL     1     -10.693   6.651  72.386  1.00  0.00    -0.223 C  
ENDROOT
BRANCH   2   3
HETATM    3  N   UNL     1     -10.791   6.252  71.000  1.00  0.00    -0.258 N  
HETATM    4  C   UNL     1      -9.664   5.971  70.261  1.00  0.00    -0.165 C  
HETATM    5  H   UNL     1     -11.709   6.177  70.563  1.00  0.00     0.000 HD 
HETATM    6  O   UNL     1      -8.528   6.048  70.711  1.00  0.00    -0.127 OA 
BRANCH   4   7
HETATM    7  C   UNL     1      -9.970   5.544  68.839  1.00  0.00    -0.236 C  
BRANCH   7   8
HETATM    8  C   UNL     1     -11.003   6.473  68.196  1.00  0.00    -0.365 C  
BRANCH   8   9
HETATM    9  C   UNL     1     -10.429   7.350  67.084  1.00  0.00    -0.403 C  
BRANCH   9  10
HETATM   10  C   UNL     1      -9.685   8.537  67.626  1.00  0.00    -0.201 C  
HETATM   11  C   UNL     1      -9.405   9.682  66.982  1.00  0.00    -0.180 C  
BRANCH  11  12
HETATM   12  C   UNL     1      -9.746  10.023  65.558  1.00  0.00    -0.355 C  
BRANCH  12  13
HETATM   13  C   UNL     1     -10.118  11.499  65.355  1.00  0.00    -0.304 C  
HETATM   14  C   UNL     1     -10.203  11.953  63.890  1.00  0.00    -0.389 C  
HETATM   15  C   UNL     1     -11.098  13.183  63.953  1.00  0.00    -0.345 C  
HETATM   16  O   UNL     1     -10.839  10.977  63.073  1.00  0.00    -0.797 OA 
HETATM   17  H   UNL     1     -10.892  11.257  62.167  1.00  0.00     0.000 HD 
HETATM   18  C   UNL     1     -12.193  12.773  64.935  1.00  0.00    -0.463 C  
HETATM   19  O   UNL     1     -13.242  12.100  64.235  1.00  0.00    -0.768 OA 
HETATM   20  C   UNL     1     -11.530  11.792  65.929  1.00  0.00    -0.273 C  
HETATM   21  H   UNL     1     -13.924  11.845  64.846  1.00  0.00     0.000 HD 
BRANCH  20  22
HETATM   22  C   UNL     1     -11.463  12.373  67.325  1.00  0.00    -0.421 C  
HETATM   23  C   UNL     1     -11.835  13.630  67.620  1.00  0.00    -0.404 C  
BRANCH  23  24
HETATM   24  C   UNL     1     -11.722  14.328  68.951  1.00  0.00    -0.328 C  
HETATM   25  H   UNL     1     -10.404  14.459  70.407  1.00  0.00     0.000 HD 
HETATM   26  O   UNL     1     -10.475  14.019  69.568  1.00  0.00    -0.018 OA 
BRANCH  24  27
HETATM   27  C   UNL     1     -11.820  15.855  68.839  1.00  0.00    -0.314 C  
BRANCH  27  28
HETATM   28  C   UNL     1     -10.484  16.572  69.059  1.00  0.00    -0.303 C  
BRANCH  28  29
HETATM   29  C   UNL     1     -10.358  17.785  68.172  1.00  0.00    -0.393 A  
HETATM   30  C   UNL     1     -10.602  17.681  66.796  1.00  0.00    -0.224 A  
HETATM   31  C   UNL     1     -10.443  18.790  65.965  1.00  0.00    -0.483 A  
HETATM   32  C   UNL     1     -10.039  20.011  66.501  1.00  0.00    -0.606 A  
HETATM   33  C   UNL     1      -9.799  20.125  67.870  1.00  0.00    -0.525 A  
HETATM   34  C   UNL     1      -9.957  19.018  68.703  1.00  0.00    -0.482 A  
ENDBRANCH  28  29
ENDBRANCH  27  28
ENDBRANCH  24  27
ENDBRANCH  23  24
ENDBRANCH  20  22
ENDBRANCH  12  13
ENDBRANCH  11  12
ENDBRANCH   9  10
ENDBRANCH   8   9
ENDBRANCH   7   8
ENDBRANCH   4   7
ENDBRANCH   2   3
TORSDOF 12
ENDMDL
MODEL       82
REMARK 921   NORMALIZED FREE ENERGY PREDICTED BY IDOCK:   -5.48 KCAL/MOL
REMARK 922        TOTAL FREE ENERGY PREDICTED BY IDOCK:  -12.16 KCAL/MOL
REMARK 923 INTER-LIGAND FREE ENERGY PREDICTED BY IDOCK:  -10.70 KCAL/MOL
REMARK 924 INTRA-LIGAND FREE ENERGY PREDICTED BY IDOCK:   -1.46 KCAL/MOL
REMARK 927      BINDING AFFINITY PREDICTED BY RF-SCORE:    0.00 PKD
ROOT
HETATM    1  C   UNL     1     -14.230  15.381  72.413  1.00  0.00    -0.584 C  
HETATM    2  C   UNL     1     -13.299  14.208  72.656  1.00  0.00    -0.541 C  
ENDROOT
BRANCH   2   3
HETATM    3  N   UNL     1     -12.588  13.836  71.454  1.00  0.00    -0.358 N  
HETATM    4  C   UNL     1     -12.551  12.528  71.026  1.00  0.00    -0.256 C  
HETATM    5  H   UNL     1     -12.105  14.554  70.914  1.00  0.00     0.000 HD 
HETATM    6  O   UNL     1     -13.097  11.609  71.624  1.00  0.00    -0.445 OA 
BRANCH   4   7
HETATM    7  C   UNL     1     -11.781  12.340  69.734  1.00  0.00    -0.368 C  
BRANCH   7   8
HETATM    8  C   UNL     1     -11.697  13.651  68.947  1.00  0.00    -0.377 C  
BRANCH   8   9
HETATM    9  C   UNL     1     -10.267  14.074  68.615  1.00  0.00    -0.233 C  
BRANCH   9  10
HETATM   10  C   UNL     1     -10.173  14.761  67.282  1.00  0.00    -0.241 C  
HETATM   11  C   UNL     1     -11.082  14.742  66.294  1.00  0.00    -0.341 C  
BRANCH  11  12
HETATM   12  C   UNL     1     -12.390  13.999  66.286  1.00  0.00    -0.482 C  
BRANCH  12  13
HETATM   13  C   UNL     1     -12.366  12.730  65.422  1.00  0.00    -0.528 C  
HETATM   14  C   UNL     1     -12.748  12.938  63.949  1.00  0.00    -0.132 C  
HETATM   15  C   UNL     1     -12.113  11.744  63.248  1.00  0.00    -0.375 C  
HETATM   16  O   UNL     1     -12.173  14.127  63.419  1.00  0.00    -1.049 OA 
HETATM   17  H   UNL     1     -12.409  14.255  62.508  1.00  0.00     0.000 HD 
HETATM   18  C   UNL     1     -10.746  11.628  63.916  1.00  0.00    -0.398 C  
HETATM   19  O   UNL     1      -9.806  12.467  63.241  1.00  0.00    -0.581 OA 
HETATM   20  C   UNL     1     -10.935  12.132  65.365  1.00  0.00    -0.346 C  
HETATM   21  H   UNL     1      -8.955  12.395  63.658  1.00  0.00     0.000 HD 
BRANCH  20  22
HETATM   22  C   UNL     1     -10.747  11.019  66.373  1.00  0.00    -0.286 C  
HETATM   23  C   UNL     1      -9.580  10.377  66.555  1.00  0.00    -0.224 C  
BRANCH  23  24
HETATM   24  C   UNL     1      -9.315   9.202  67.460  1.00  0.00    -0.135 C  
HETATM   25  H   UNL     1      -8.066   8.749  68.913  1.00  0.00     0.000 HD 
HETATM   26  O   UNL     1      -8.233   9.490  68.342  1.00  0.00    -0.111 OA 
BRANCH  24  27
HETATM   27  C   UNL     1     -10.526   8.819  68.319  1.00  0.00    -0.236 C  
BRANCH  27  28
HETATM   28  C   UNL     1     -10.456   7.396  68.879  1.00  0.00    -0.213 C  
BRANCH  28  29
HETATM   29  C   UNL     1     -10.602   7.386  70.380  1.00  0.00    -0.238 A  
HETATM   30  C   UNL     1     -10.854   6.185  71.056  1.00  0.00    -0.338 A  
HETATM   31  C   UNL     1     -11.034   6.177  72.440  1.00  0.00    -0.299 A  
HETATM   32  C   UNL     1     -10.964   7.370  73.158  1.00  0.00    -0.408 A  
HETATM   33  C   UNL     1     -10.710   8.569  72.494  1.00  0.00    -0.303 A  
HETATM   34  C   UNL     1     -10.530   8.578  71.111  1.00  0.00    -0.278 A  
ENDBRANCH  28  29
ENDBRANCH  27  28
ENDBRANCH  24  27
ENDBRANCH  23  24
ENDBRANCH  20  22
ENDBRANCH  12  13
ENDBRANCH  11  12
ENDBRANCH   9  10
ENDBRANCH   8   9
ENDBRANCH   7   8
ENDBRANCH   4   7
ENDBRANCH   2   3
TORSDOF 12
ENDMDL
MODEL       83
REMARK 921   NORMALIZED FREE ENERGY PREDICTED BY IDOCK:   -5.45 KCAL/MOL
REMARK 922        TOTAL FREE ENERGY PREDICTED BY IDOCK:  -12.11 KCAL/MOL
REMARK 923 INTER-LIGAND FREE ENERGY PREDICTED BY IDOCK:   -9.46 KCAL/MOL
REMARK 924 INTRA-LIGAND FREE ENERGY PREDICTED BY IDOCK:   -2.65 KCAL/MOL
REMARK 927      BINDING AFFINITY PREDICTED BY RF-SCORE:    0.00 PKD
ROOT
HETATM    1  C   UNL     1     -13.521  13.392  72.439  1.00  0.00    -0.685 C  
HETATM    2  C   UNL     1     -12.999  12.014  72.077  1.00  0.00    -0.269 C  
ENDROOT
BRANCH   2   3
HETATM    3  N   UNL     1     -12.315  12.023  70.804  1.00  0.00    -0.362 N  
HETATM    4  C   UNL     1     -11.524  10.965  70.416  1.00  0.00    -0.275 C  
HETATM    5  H   UNL     1     -12.419  12.826  70.183  1.00  0.00     0.000 HD 
HETATM    6  O   UNL     1     -11.341   9.972  71.109  1.00  0.00    -0.360 OA 
BRANCH   4   7
HETATM    7  C   UNL     1     -10.912  11.145  69.041  1.00  0.00    -0.286 C  
BRANCH   7   8
HETATM    8  C   UNL     1      -9.630  10.321  68.895  1.00  0.00    -0.193 C  
BRANCH   8   9
HETATM    9  C   UNL     1      -8.353  11.142  69.062  1.00  0.00    -0.054 C  
BRANCH   9  10
HETATM   10  C   UNL     1      -8.095  12.036  67.882  1.00  0.00    -0.150 C  
HETATM   11  C   UNL     1      -8.460  13.320  67.742  1.00  0.00    -0.181 C  
BRANCH  11  12
HETATM   12  C   UNL     1      -9.241  14.148  68.724  1.00  0.00    -0.080 C  
BRANCH  12  13
HETATM   13  C   UNL     1      -9.711  15.493  68.152  1.00  0.00    -0.208 C  
HETATM   14  C   UNL     1      -9.103  16.734  68.823  1.00  0.00    -0.259 C  
HETATM   15  C   UNL     1      -9.255  17.818  67.765  1.00  0.00    -0.256 C  
HETATM   16  O   UNL     1      -7.716  16.561  69.092  1.00  0.00    -0.240 OA 
HETATM   17  H   UNL     1      -7.340  17.328  69.507  1.00  0.00     0.000 HD 
HETATM   18  C   UNL     1      -8.881  17.103  66.469  1.00  0.00    -0.262 C  
HETATM   19  O   UNL     1      -7.467  17.170  66.271  1.00  0.00    -0.280 OA 
HETATM   20  C   UNL     1      -9.302  15.627  66.660  1.00  0.00    -0.291 C  
HETATM   21  H   UNL     1      -7.235  16.724  65.465  1.00  0.00     0.000 HD 
BRANCH  20  22
HETATM   22  C   UNL     1     -10.432  15.244  65.729  1.00  0.00    -0.365 C  
HETATM   23  C   UNL     1     -11.530  14.582  66.134  1.00  0.00    -0.357 C  
BRANCH  23  24
HETATM   24  C   UNL     1     -12.660  14.076  65.275  1.00  0.00    -0.470 C  
HETATM   25  H   UNL     1     -13.347  14.388  63.457  1.00  0.00     0.000 HD 
HETATM   26  O   UNL     1     -12.634  14.707  63.998  1.00  0.00    -0.819 OA 
BRANCH  24  27
HETATM   27  C   UNL     1     -12.608  12.560  65.046  1.00  0.00    -0.424 C  
BRANCH  27  28
HETATM   28  C   UNL     1     -11.500  11.859  65.837  1.00  0.00    -0.340 C  
BRANCH  28  29
HETATM   29  C   UNL     1     -10.569  11.100  64.925  1.00  0.00    -0.356 A  
HETATM   30  C   UNL     1      -9.682  10.151  65.453  1.00  0.00    -0.355 A  
HETATM   31  C   UNL     1      -8.788   9.479  64.620  1.00  0.00    -0.250 A  
HETATM   32  C   UNL     1      -8.771   9.749  63.253  1.00  0.00    -0.232 A  
HETATM   33  C   UNL     1      -9.653  10.688  62.718  1.00  0.00    -0.333 A  
HETATM   34  C   UNL     1     -10.547  11.361  63.549  1.00  0.00    -0.468 A  
ENDBRANCH  28  29
ENDBRANCH  27  28
ENDBRANCH  24  27
ENDBRANCH  23  24
ENDBRANCH  20  22
ENDBRANCH  12  13
ENDBRANCH  11  12
ENDBRANCH   9  10
ENDBRANCH   8   9
ENDBRANCH   7   8
ENDBRANCH   4   7
ENDBRANCH   2   3
TORSDOF 12
ENDMDL
MODEL       84
REMARK 921   NORMALIZED FREE ENERGY PREDICTED BY IDOCK:   -5.45 KCAL/MOL
REMARK 922        TOTAL FREE ENERGY PREDICTED BY IDOCK:  -12.10 KCAL/MOL
REMARK 923 INTER-LIGAND FREE ENERGY PREDICTED BY IDOCK:   -9.31 KCAL/MOL
REMARK 924 INTRA-LIGAND FREE ENERGY PREDICTED BY IDOCK:   -2.79 KCAL/MOL
REMARK 927      BINDING AFFINITY PREDICTED BY RF-SCORE:    0.00 PKD
ROOT
HETATM    1  C   UNL     1     -14.182   7.149  71.643  1.00  0.00    -0.502 C  
HETATM    2  C   UNL     1     -13.758   8.586  71.882  1.00  0.00    -0.415 C  
ENDROOT
BRANCH   2   3
HETATM    3  N   UNL     1     -12.745   9.005  70.940  1.00  0.00    -0.503 N  
HETATM    4  C   UNL     1     -12.353  10.323  70.857  1.00  0.00    -0.373 C  
HETATM    5  H   UNL     1     -12.313   8.314  70.327  1.00  0.00     0.000 HD 
HETATM    6  O   UNL     1     -12.832  11.211  71.551  1.00  0.00    -0.423 OA 
BRANCH   4   7
HETATM    7  C   UNL     1     -11.263  10.561  69.832  1.00  0.00    -0.374 C  
BRANCH   7   8
HETATM    8  C   UNL     1      -9.996   9.778  70.183  1.00  0.00    -0.315 C  
BRANCH   8   9
HETATM    9  C   UNL     1      -9.522   8.848  69.067  1.00  0.00    -0.156 C  
BRANCH   9  10
HETATM   10  C   UNL     1     -10.496   8.793  67.924  1.00  0.00    -0.275 C  
HETATM   11  C   UNL     1     -10.221   8.528  66.636  1.00  0.00    -0.345 C  
BRANCH  11  12
HETATM   12  C   UNL     1      -8.867   8.259  66.039  1.00  0.00    -0.203 C  
BRANCH  12  13
HETATM   13  C   UNL     1      -8.305   9.444  65.241  1.00  0.00    -0.147 C  
HETATM   14  C   UNL     1      -7.832   9.105  63.820  1.00  0.00    -0.133 C  
HETATM   15  C   UNL     1      -7.881  10.447  63.102  1.00  0.00    -0.114 C  
HETATM   16  O   UNL     1      -8.727   8.213  63.165  1.00  0.00    -0.413 OA 
HETATM   17  H   UNL     1      -8.435   8.004  62.286  1.00  0.00     0.000 HD 
HETATM   18  C   UNL     1      -9.186  11.065  63.597  1.00  0.00    -0.197 C  
HETATM   19  O   UNL     1     -10.269  10.633  62.770  1.00  0.00    -0.730 OA 
HETATM   20  C   UNL     1      -9.393  10.531  65.032  1.00  0.00    -0.268 C  
HETATM   21  H   UNL     1     -11.081  11.018  63.078  1.00  0.00     0.000 HD 
BRANCH  20  22
HETATM   22  C   UNL     1      -9.292  11.637  66.060  1.00  0.00    -0.241 C  
HETATM   23  C   UNL     1      -8.228  11.800  66.866  1.00  0.00    -0.166 C  
BRANCH  23  24
HETATM   24  C   UNL     1      -8.069  12.805  67.978  1.00  0.00    -0.162 C  
HETATM   25  H   UNL     1      -7.146  14.522  68.253  1.00  0.00     0.000 HD 
HETATM   26  O   UNL     1      -7.246  13.888  67.552  1.00  0.00    -0.170 OA 
BRANCH  24  27
HETATM   27  C   UNL     1      -9.404  13.394  68.451  1.00  0.00    -0.165 C  
BRANCH  27  28
HETATM   28  C   UNL     1      -9.685  14.795  67.899  1.00  0.00    -0.211 C  
BRANCH  28  29
HETATM   29  C   UNL     1     -10.664  14.748  66.752  1.00  0.00    -0.309 A  
HETATM   30  C   UNL     1     -11.864  14.036  66.877  1.00  0.00    -0.458 A  
HETATM   31  C   UNL     1     -12.752  13.953  65.805  1.00  0.00    -0.503 A  
HETATM   32  C   UNL     1     -12.448  14.580  64.598  1.00  0.00    -0.339 A  
HETATM   33  C   UNL     1     -11.258  15.295  64.466  1.00  0.00    -0.291 A  
HETATM   34  C   UNL     1     -10.369  15.379  65.537  1.00  0.00    -0.412 A  
ENDBRANCH  28  29
ENDBRANCH  27  28
ENDBRANCH  24  27
ENDBRANCH  23  24
ENDBRANCH  20  22
ENDBRANCH  12  13
ENDBRANCH  11  12
ENDBRANCH   9  10
ENDBRANCH   8   9
ENDBRANCH   7   8
ENDBRANCH   4   7
ENDBRANCH   2   3
TORSDOF 12
ENDMDL
MODEL       85
REMARK 921   NORMALIZED FREE ENERGY PREDICTED BY IDOCK:   -5.43 KCAL/MOL
REMARK 922        TOTAL FREE ENERGY PREDICTED BY IDOCK:  -12.07 KCAL/MOL
REMARK 923 INTER-LIGAND FREE ENERGY PREDICTED BY IDOCK:  -10.93 KCAL/MOL
REMARK 924 INTRA-LIGAND FREE ENERGY PREDICTED BY IDOCK:   -1.14 KCAL/MOL
REMARK 927      BINDING AFFINITY PREDICTED BY RF-SCORE:    0.00 PKD
ROOT
HETATM    1  C   UNL     1     -10.655   5.443  74.068  1.00  0.00    -0.305 C  
HETATM    2  C   UNL     1     -11.259   5.575  72.683  1.00  0.00    -0.295 C  
ENDROOT
BRANCH   2   3
HETATM    3  N   UNL     1     -11.886   6.864  72.496  1.00  0.00    -0.482 N  
HETATM    4  C   UNL     1     -11.170   7.939  72.018  1.00  0.00    -0.287 C  
HETATM    5  H   UNL     1     -12.874   6.979  72.722  1.00  0.00     0.000 HD 
HETATM    6  O   UNL     1      -9.980   7.882  71.735  1.00  0.00    -0.167 OA 
BRANCH   4   7
HETATM    7  C   UNL     1     -12.004   9.195  71.865  1.00  0.00    -0.443 C  
BRANCH   7   8
HETATM    8  C   UNL     1     -11.296  10.222  70.978  1.00  0.00    -0.306 C  
BRANCH   8   9
HETATM    9  C   UNL     1     -11.479   9.968  69.482  1.00  0.00    -0.176 C  
BRANCH   9  10
HETATM   10  C   UNL     1     -11.906  11.205  68.745  1.00  0.00    -0.388 C  
HETATM   11  C   UNL     1     -11.350  11.723  67.638  1.00  0.00    -0.370 C  
BRANCH  11  12
HETATM   12  C   UNL     1     -10.147  11.198  66.903  1.00  0.00    -0.250 C  
BRANCH  12  13
HETATM   13  C   UNL     1      -9.891  11.908  65.566  1.00  0.00    -0.257 C  
HETATM   14  C   UNL     1      -9.430  10.993  64.422  1.00  0.00    -0.238 C  
HETATM   15  C   UNL     1      -9.800  11.779  63.171  1.00  0.00    -0.363 C  
HETATM   16  O   UNL     1     -10.149   9.765  64.408  1.00  0.00    -0.408 OA 
HETATM   17  H   UNL     1      -9.864   9.199  63.700  1.00  0.00     0.000 HD 
HETATM   18  C   UNL     1     -11.179  12.343  63.502  1.00  0.00    -0.469 C  
HETATM   19  O   UNL     1     -12.187  11.392  63.149  1.00  0.00    -0.904 OA 
HETATM   20  C   UNL     1     -11.194  12.560  65.033  1.00  0.00    -0.344 C  
HETATM   21  H   UNL     1     -13.046  11.744  63.356  1.00  0.00     0.000 HD 
BRANCH  20  22
HETATM   22  C   UNL     1     -11.277  14.029  65.387  1.00  0.00    -0.319 C  
HETATM   23  C   UNL     1     -10.195  14.805  65.574  1.00  0.00    -0.400 C  
BRANCH  23  24
HETATM   24  C   UNL     1     -10.168  16.246  66.017  1.00  0.00    -0.358 C  
HETATM   25  H   UNL     1     -10.623  18.001  65.252  1.00  0.00     0.000 HD 
HETATM   26  O   UNL     1     -10.640  17.093  64.973  1.00  0.00    -0.704 OA 
BRANCH  24  27
HETATM   27  C   UNL     1     -11.033  16.509  67.257  1.00  0.00    -0.084 C  
BRANCH  27  28
HETATM   28  C   UNL     1     -10.245  17.067  68.445  1.00  0.00    -0.331 C  
BRANCH  28  29
HETATM   29  C   UNL     1      -9.513  18.333  68.075  1.00  0.00    -0.298 A  
HETATM   30  C   UNL     1     -10.229  19.502  67.784  1.00  0.00    -0.550 A  
HETATM   31  C   UNL     1      -9.559  20.663  67.398  1.00  0.00    -0.544 A  
HETATM   32  C   UNL     1      -8.169  20.666  67.299  1.00  0.00    -0.309 A  
HETATM   33  C   UNL     1      -7.449  19.509  67.591  1.00  0.00    -0.291 A  
HETATM   34  C   UNL     1      -8.116  18.347  67.977  1.00  0.00    -0.288 A  
ENDBRANCH  28  29
ENDBRANCH  27  28
ENDBRANCH  24  27
ENDBRANCH  23  24
ENDBRANCH  20  22
ENDBRANCH  12  13
ENDBRANCH  11  12
ENDBRANCH   9  10
ENDBRANCH   8   9
ENDBRANCH   7   8
ENDBRANCH   4   7
ENDBRANCH   2   3
TORSDOF 12
ENDMDL
MODEL       86
REMARK 921   NORMALIZED FREE ENERGY PREDICTED BY IDOCK:   -5.40 KCAL/MOL
REMARK 922        TOTAL FREE ENERGY PREDICTED BY IDOCK:  -12.03 KCAL/MOL
REMARK 923 INTER-LIGAND FREE ENERGY PREDICTED BY IDOCK:  -10.36 KCAL/MOL
REMARK 924 INTRA-LIGAND FREE ENERGY PREDICTED BY IDOCK:   -1.67 KCAL/MOL
REMARK 927      BINDING AFFINITY PREDICTED BY RF-SCORE:    0.00 PKD
ROOT
HETATM    1  C   UNL     1      -9.395   3.579  64.933  1.00  0.00    -0.153 C  
HETATM    2  C   UNL     1     -10.400   4.445  65.669  1.00  0.00    -0.225 C  
ENDROOT
BRANCH   2   3
HETATM    3  N   UNL     1      -9.933   4.796  66.991  1.00  0.00    -0.202 N  
HETATM    4  C   UNL     1     -10.369   5.942  67.618  1.00  0.00    -0.212 C  
HETATM    5  H   UNL     1      -9.269   4.185  67.467  1.00  0.00     0.000 HD 
HETATM    6  O   UNL     1     -11.155   6.730  67.107  1.00  0.00    -0.384 OA 
BRANCH   4   7
HETATM    7  C   UNL     1      -9.789   6.124  69.007  1.00  0.00    -0.170 C  
BRANCH   7   8
HETATM    8  C   UNL     1     -10.757   5.616  70.078  1.00  0.00    -0.390 C  
BRANCH   8   9
HETATM    9  C   UNL     1     -11.780   6.660  70.524  1.00  0.00    -0.453 C  
BRANCH   9  10
HETATM   10  C   UNL     1     -11.274   7.500  71.662  1.00  0.00    -0.275 C  
HETATM   11  C   UNL     1     -11.442   8.821  71.833  1.00  0.00    -0.428 C  
BRANCH  11  12
HETATM   12  C   UNL     1     -12.150   9.768  70.904  1.00  0.00    -0.407 C  
BRANCH  12  13
HETATM   13  C   UNL     1     -11.200  10.719  70.162  1.00  0.00    -0.345 C  
HETATM   14  C   UNL     1     -10.403  10.079  69.016  1.00  0.00    -0.206 C  
HETATM   15  C   UNL     1     -10.029  11.267  68.140  1.00  0.00    -0.191 C  
HETATM   16  O   UNL     1     -11.205   9.191  68.247  1.00  0.00    -0.471 OA 
HETATM   17  H   UNL     1     -10.712   8.795  67.539  1.00  0.00     0.000 HD 
HETATM   18  C   UNL     1     -11.304  12.106  68.119  1.00  0.00    -0.293 C  
HETATM   19  O   UNL     1     -12.161  11.657  67.067  1.00  0.00    -0.547 OA 
HETATM   20  C   UNL     1     -11.995  11.866  69.480  1.00  0.00    -0.355 C  
HETATM   21  H   UNL     1     -12.954  12.179  67.054  1.00  0.00     0.000 HD 
BRANCH  20  22
HETATM   22  C   UNL     1     -12.014  13.120  70.327  1.00  0.00    -0.366 C  
HETATM   23  C   UNL     1     -12.001  14.360  69.808  1.00  0.00    -0.385 C  
BRANCH  23  24
HETATM   24  C   UNL     1     -11.925  15.665  70.560  1.00  0.00    -0.385 C  
HETATM   25  H   UNL     1     -11.662  16.247  72.422  1.00  0.00     0.000 HD 
HETATM   26  O   UNL     1     -11.710  15.425  71.948  1.00  0.00    -0.361 OA 
BRANCH  24  27
HETATM   27  C   UNL     1     -10.797  16.579  70.065  1.00  0.00    -0.258 C  
BRANCH  27  28
HETATM   28  C   UNL     1     -10.701  16.662  68.539  1.00  0.00    -0.351 C  
BRANCH  28  29
HETATM   29  C   UNL     1     -10.098  17.972  68.096  1.00  0.00    -0.378 A  
HETATM   30  C   UNL     1      -8.873  18.399  68.625  1.00  0.00    -0.306 A  
HETATM   31  C   UNL     1      -8.333  19.630  68.252  1.00  0.00    -0.354 A  
HETATM   32  C   UNL     1      -9.013  20.444  67.349  1.00  0.00    -0.449 A  
HETATM   33  C   UNL     1     -10.231  20.026  66.815  1.00  0.00    -0.592 A  
HETATM   34  C   UNL     1     -10.773  18.796  67.186  1.00  0.00    -0.469 A  
ENDBRANCH  28  29
ENDBRANCH  27  28
ENDBRANCH  24  27
ENDBRANCH  23  24
ENDBRANCH  20  22
ENDBRANCH  12  13
ENDBRANCH  11  12
ENDBRANCH   9  10
ENDBRANCH   8   9
ENDBRANCH   7   8
ENDBRANCH   4   7
ENDBRANCH   2   3
TORSDOF 12
ENDMDL
MODEL       87
REMARK 921   NORMALIZED FREE ENERGY PREDICTED BY IDOCK:   -5.40 KCAL/MOL
REMARK 922        TOTAL FREE ENERGY PREDICTED BY IDOCK:  -12.02 KCAL/MOL
REMARK 923 INTER-LIGAND FREE ENERGY PREDICTED BY IDOCK:  -10.51 KCAL/MOL
REMARK 924 INTRA-LIGAND FREE ENERGY PREDICTED BY IDOCK:   -1.51 KCAL/MOL
REMARK 927      BINDING AFFINITY PREDICTED BY RF-SCORE:    0.00 PKD
ROOT
HETATM    1  C   UNL     1     -14.133   8.975  72.223  1.00  0.00    -0.485 C  
HETATM    2  C   UNL     1     -14.026   7.600  71.589  1.00  0.00    -0.408 C  
ENDROOT
BRANCH   2   3
HETATM    3  N   UNL     1     -12.803   7.457  70.833  1.00  0.00    -0.592 N  
HETATM    4  C   UNL     1     -11.766   6.680  71.300  1.00  0.00    -0.334 C  
HETATM    5  H   UNL     1     -12.706   7.939  69.939  1.00  0.00     0.000 HD 
HETATM    6  O   UNL     1     -11.803   6.081  72.367  1.00  0.00    -0.310 OA 
BRANCH   4   7
HETATM    7  C   UNL     1     -10.581   6.632  70.357  1.00  0.00    -0.266 C  
BRANCH   7   8
HETATM    8  C   UNL     1     -10.812   5.617  69.234  1.00  0.00    -0.309 C  
BRANCH   8   9
HETATM    9  C   UNL     1     -10.215   6.042  67.893  1.00  0.00    -0.217 C  
BRANCH   9  10
HETATM   10  C   UNL     1     -10.960   7.193  67.279  1.00  0.00    -0.333 C  
HETATM   11  C   UNL     1     -10.509   8.443  67.089  1.00  0.00    -0.380 C  
BRANCH  11  12
HETATM   12  C   UNL     1      -9.161   8.984  67.480  1.00  0.00    -0.152 C  
BRANCH  12  13
HETATM   13  C   UNL     1      -8.534   9.890  66.410  1.00  0.00    -0.128 C  
HETATM   14  C   UNL     1      -7.658   9.166  65.377  1.00  0.00    -0.097 C  
HETATM   15  C   UNL     1      -7.654  10.117  64.189  1.00  0.00    -0.125 C  
HETATM   16  O   UNL     1      -8.240   7.934  64.964  1.00  0.00    -0.140 OA 
HETATM   17  H   UNL     1      -7.698   7.486  64.325  1.00  0.00     0.000 HD 
HETATM   18  C   UNL     1      -9.103  10.590  64.109  1.00  0.00    -0.231 C  
HETATM   19  O   UNL     1      -9.866   9.677  63.319  1.00  0.00    -0.412 OA 
HETATM   20  C   UNL     1      -9.635  10.580  65.561  1.00  0.00    -0.282 C  
HETATM   21  H   UNL     1     -10.769   9.971  63.270  1.00  0.00     0.000 HD 
BRANCH  20  22
HETATM   22  C   UNL     1      -9.936  11.978  66.055  1.00  0.00    -0.258 C  
HETATM   23  C   UNL     1     -11.125  12.339  66.568  1.00  0.00    -0.343 C  
BRANCH  23  24
HETATM   24  C   UNL     1     -11.554  13.718  67.000  1.00  0.00    -0.365 C  
HETATM   25  H   UNL     1     -12.868  15.068  66.430  1.00  0.00     0.000 HD 
HETATM   26  O   UNL     1     -12.598  14.199  66.158  1.00  0.00    -0.465 OA 
BRANCH  24  27
HETATM   27  C   UNL     1     -12.065  13.763  68.446  1.00  0.00    -0.324 C  
BRANCH  27  28
HETATM   28  C   UNL     1     -11.766  15.084  69.160  1.00  0.00    -0.345 C  
BRANCH  28  29
HETATM   29  C   UNL     1     -12.113  15.008  70.626  1.00  0.00    -0.375 A  
HETATM   30  C   UNL     1     -12.896  13.953  71.112  1.00  0.00    -0.423 A  
HETATM   31  C   UNL     1     -13.258  13.902  72.458  1.00  0.00    -0.601 A  
HETATM   32  C   UNL     1     -12.840  14.906  73.330  1.00  0.00    -0.646 A  
HETATM   33  C   UNL     1     -12.057  15.957  72.856  1.00  0.00    -0.612 A  
HETATM   34  C   UNL     1     -11.695  16.010  71.511  1.00  0.00    -0.554 A  
ENDBRANCH  28  29
ENDBRANCH  27  28
ENDBRANCH  24  27
ENDBRANCH  23  24
ENDBRANCH  20  22
ENDBRANCH  12  13
ENDBRANCH  11  12
ENDBRANCH   9  10
ENDBRANCH   8   9
ENDBRANCH   7   8
ENDBRANCH   4   7
ENDBRANCH   2   3
TORSDOF 12
ENDMDL
MODEL       88
REMARK 921   NORMALIZED FREE ENERGY PREDICTED BY IDOCK:   -5.39 KCAL/MOL
REMARK 922        TOTAL FREE ENERGY PREDICTED BY IDOCK:  -12.00 KCAL/MOL
REMARK 923 INTER-LIGAND FREE ENERGY PREDICTED BY IDOCK:   -9.68 KCAL/MOL
REMARK 924 INTRA-LIGAND FREE ENERGY PREDICTED BY IDOCK:   -2.33 KCAL/MOL
REMARK 927      BINDING AFFINITY PREDICTED BY RF-SCORE:    0.00 PKD
ROOT
HETATM    1  C   UNL     1     -12.641  15.516  74.045  1.00  0.00    -0.766 C  
HETATM    2  C   UNL     1     -12.140  16.313  72.855  1.00  0.00    -0.527 C  
ENDROOT
BRANCH   2   3
HETATM    3  N   UNL     1     -11.647  15.450  71.806  1.00  0.00    -0.396 N  
HETATM    4  C   UNL     1     -12.397  15.205  70.678  1.00  0.00    -0.368 C  
HETATM    5  H   UNL     1     -10.730  15.016  71.903  1.00  0.00     0.000 HD 
HETATM    6  O   UNL     1     -13.511  15.680  70.494  1.00  0.00    -0.398 OA 
BRANCH   4   7
HETATM    7  C   UNL     1     -11.702  14.298  69.681  1.00  0.00    -0.362 C  
BRANCH   7   8
HETATM    8  C   UNL     1     -11.638  14.949  68.296  1.00  0.00    -0.356 C  
BRANCH   8   9
HETATM    9  C   UNL     1     -12.061  14.016  67.162  1.00  0.00    -0.436 C  
BRANCH   9  10
HETATM   10  C   UNL     1     -11.167  14.141  65.962  1.00  0.00    -0.319 C  
HETATM   11  C   UNL     1      -9.998  13.514  65.752  1.00  0.00    -0.266 C  
BRANCH  11  12
HETATM   12  C   UNL     1      -9.302  12.567  66.689  1.00  0.00    -0.236 C  
BRANCH  12  13
HETATM   13  C   UNL     1      -9.929  11.166  66.720  1.00  0.00    -0.242 C  
HETATM   14  C   UNL     1      -9.341  10.167  65.712  1.00  0.00    -0.188 C  
HETATM   15  C   UNL     1      -9.690   8.812  66.314  1.00  0.00    -0.342 C  
HETATM   16  O   UNL     1      -7.924  10.271  65.633  1.00  0.00    -0.138 OA 
HETATM   17  H   UNL     1      -7.560   9.654  65.010  1.00  0.00     0.000 HD 
HETATM   18  C   UNL     1      -9.413   9.005  67.802  1.00  0.00    -0.141 C  
HETATM   19  O   UNL     1      -8.039   8.724  68.079  1.00  0.00    -0.106 OA 
HETATM   20  C   UNL     1      -9.702  10.494  68.101  1.00  0.00    -0.166 C  
HETATM   21  H   UNL     1      -7.868   8.844  69.006  1.00  0.00     0.000 HD 
BRANCH  20  22
HETATM   22  C   UNL     1     -10.898  10.659  69.013  1.00  0.00    -0.277 C  
HETATM   23  C   UNL     1     -10.865  10.391  70.330  1.00  0.00    -0.308 C  
BRANCH  23  24
HETATM   24  C   UNL     1     -12.017  10.435  71.301  1.00  0.00    -0.330 C  
HETATM   25  H   UNL     1     -13.636  11.519  71.575  1.00  0.00     0.000 HD 
HETATM   26  O   UNL     1     -12.910  11.492  70.963  1.00  0.00    -0.336 OA 
BRANCH  24  27
HETATM   27  C   UNL     1     -12.827   9.132  71.330  1.00  0.00    -0.376 C  
BRANCH  27  28
HETATM   28  C   UNL     1     -12.221   8.055  72.234  1.00  0.00    -0.366 C  
BRANCH  28  29
HETATM   29  C   UNL     1     -11.483   7.014  71.430  1.00  0.00    -0.312 A  
HETATM   30  C   UNL     1     -11.629   6.963  70.038  1.00  0.00    -0.299 A  
HETATM   31  C   UNL     1     -10.984   5.974  69.295  1.00  0.00    -0.436 A  
HETATM   32  C   UNL     1     -10.187   5.028  69.937  1.00  0.00    -0.340 A  
HETATM   33  C   UNL     1     -10.032   5.073  71.321  1.00  0.00    -0.264 A  
HETATM   34  C   UNL     1     -10.677   6.061  72.066  1.00  0.00    -0.281 A  
ENDBRANCH  28  29
ENDBRANCH  27  28
ENDBRANCH  24  27
ENDBRANCH  23  24
ENDBRANCH  20  22
ENDBRANCH  12  13
ENDBRANCH  11  12
ENDBRANCH   9  10
ENDBRANCH   8   9
ENDBRANCH   7   8
ENDBRANCH   4   7
ENDBRANCH   2   3
TORSDOF 12
ENDMDL
MODEL       89
REMARK 921   NORMALIZED FREE ENERGY PREDICTED BY IDOCK:   -5.39 KCAL/MOL
REMARK 922        TOTAL FREE ENERGY PREDICTED BY IDOCK:  -12.00 KCAL/MOL
REMARK 923 INTER-LIGAND FREE ENERGY PREDICTED BY IDOCK:   -9.68 KCAL/MOL
REMARK 924 INTRA-LIGAND FREE ENERGY PREDICTED BY IDOCK:   -2.32 KCAL/MOL
REMARK 927      BINDING AFFINITY PREDICTED BY RF-SCORE:    0.00 PKD
ROOT
HETATM    1  C   UNL     1     -13.847   9.187  71.628  1.00  0.00    -0.396 C  
HETATM    2  C   UNL     1     -12.701   8.688  72.488  1.00  0.00    -0.294 C  
ENDROOT
BRANCH   2   3
HETATM    3  N   UNL     1     -12.018   7.574  71.868  1.00  0.00    -0.291 N  
HETATM    4  C   UNL     1     -10.734   7.237  72.234  1.00  0.00    -0.231 C  
HETATM    5  H   UNL     1     -12.494   7.031  71.149  1.00  0.00     0.000 HD 
HETATM    6  O   UNL     1     -10.094   7.847  73.081  1.00  0.00    -0.297 OA 
BRANCH   4   7
HETATM    7  C   UNL     1     -10.198   6.027  71.494  1.00  0.00    -0.249 C  
BRANCH   7   8
HETATM    8  C   UNL     1     -10.956   5.802  70.184  1.00  0.00    -0.368 C  
BRANCH   8   9
HETATM    9  C   UNL     1     -10.071   5.899  68.941  1.00  0.00    -0.231 C  
BRANCH   9  10
HETATM   10  C   UNL     1     -10.875   6.080  67.685  1.00  0.00    -0.386 C  
HETATM   11  C   UNL     1     -10.892   7.156  66.881  1.00  0.00    -0.307 C  
BRANCH  11  12
HETATM   12  C   UNL     1     -10.133   8.439  67.074  1.00  0.00    -0.354 C  
BRANCH  12  13
HETATM   13  C   UNL     1     -10.917   9.500  67.859  1.00  0.00    -0.172 C  
HETATM   14  C   UNL     1     -10.685   9.490  69.378  1.00  0.00    -0.225 C  
HETATM   15  C   UNL     1     -11.074  10.899  69.804  1.00  0.00    -0.328 C  
HETATM   16  O   UNL     1      -9.313   9.288  69.699  1.00  0.00    -0.161 OA 
HETATM   17  H   UNL     1      -9.169   9.281  70.638  1.00  0.00     0.000 HD 
HETATM   18  C   UNL     1     -10.473  11.778  68.710  1.00  0.00    -0.198 C  
HETATM   19  O   UNL     1      -9.120  12.101  69.038  1.00  0.00    -0.375 OA 
HETATM   20  C   UNL     1     -10.498  10.929  67.419  1.00  0.00    -0.263 C  
HETATM   21  H   UNL     1      -8.746  12.648  68.357  1.00  0.00     0.000 HD 
BRANCH  20  22
HETATM   22  C   UNL     1     -11.449  11.504  66.390  1.00  0.00    -0.150 C  
HETATM   23  C   UNL     1     -11.038  12.122  65.270  1.00  0.00    -0.367 C  
BRANCH  23  24
HETATM   24  C   UNL     1     -11.895  12.805  64.235  1.00  0.00    -0.396 C  
HETATM   25  H   UNL     1     -13.716  12.614  63.513  1.00  0.00     0.000 HD 
HETATM   26  O   UNL     1     -13.176  12.183  64.165  1.00  0.00    -0.740 OA 
BRANCH  24  27
HETATM   27  C   UNL     1     -12.116  14.294  64.527  1.00  0.00    -0.499 C  
BRANCH  27  28
HETATM   28  C   UNL     1     -10.816  15.082  64.711  1.00  0.00    -0.375 C  
BRANCH  28  29
HETATM   29  C   UNL     1     -10.754  15.732  66.071  1.00  0.00    -0.311 A  
HETATM   30  C   UNL     1     -11.261  15.066  67.194  1.00  0.00    -0.336 A  
HETATM   31  C   UNL     1     -11.246  15.681  68.447  1.00  0.00    -0.352 A  
HETATM   32  C   UNL     1     -10.725  16.966  68.586  1.00  0.00    -0.345 A  
HETATM   33  C   UNL     1     -10.213  17.634  67.474  1.00  0.00    -0.348 A  
HETATM   34  C   UNL     1     -10.228  17.021  66.221  1.00  0.00    -0.336 A  
ENDBRANCH  28  29
ENDBRANCH  27  28
ENDBRANCH  24  27
ENDBRANCH  23  24
ENDBRANCH  20  22
ENDBRANCH  12  13
ENDBRANCH  11  12
ENDBRANCH   9  10
ENDBRANCH   8   9
ENDBRANCH   7   8
ENDBRANCH   4   7
ENDBRANCH   2   3
TORSDOF 12
ENDMDL
MODEL       90
REMARK 921   NORMALIZED FREE ENERGY PREDICTED BY IDOCK:   -5.38 KCAL/MOL
REMARK 922        TOTAL FREE ENERGY PREDICTED BY IDOCK:  -11.98 KCAL/MOL
REMARK 923 INTER-LIGAND FREE ENERGY PREDICTED BY IDOCK:  -10.08 KCAL/MOL
REMARK 924 INTRA-LIGAND FREE ENERGY PREDICTED BY IDOCK:   -1.90 KCAL/MOL
REMARK 927      BINDING AFFINITY PREDICTED BY RF-SCORE:    0.00 PKD
ROOT
HETATM    1  C   UNL     1      -8.253  10.998  67.245  1.00  0.00    -0.125 C  
HETATM    2  C   UNL     1      -8.976  11.284  68.548  1.00  0.00    -0.166 C  
ENDROOT
BRANCH   2   3
HETATM    3  N   UNL     1      -9.514  10.078  69.134  1.00  0.00    -0.195 N  
HETATM    4  C   UNL     1      -8.878   9.453  70.184  1.00  0.00    -0.223 C  
HETATM    5  H   UNL     1     -10.378   9.682  68.764  1.00  0.00     0.000 HD 
HETATM    6  O   UNL     1      -7.833   9.861  70.675  1.00  0.00    -0.278 OA 
BRANCH   4   7
HETATM    7  C   UNL     1      -9.607   8.220  70.679  1.00  0.00    -0.190 C  
BRANCH   7   8
HETATM    8  C   UNL     1     -11.121   8.448  70.704  1.00  0.00    -0.278 C  
BRANCH   8   9
HETATM    9  C   UNL     1     -11.658   8.838  72.081  1.00  0.00    -0.434 C  
BRANCH   9  10
HETATM   10  C   UNL     1     -13.033   9.439  72.005  1.00  0.00    -0.508 C  
HETATM   11  C   UNL     1     -13.347  10.708  71.701  1.00  0.00    -0.407 C  
BRANCH  11  12
HETATM   12  C   UNL     1     -12.389  11.828  71.401  1.00  0.00    -0.153 C  
BRANCH  12  13
HETATM   13  C   UNL     1     -13.085  13.155  71.068  1.00  0.00    -0.121 C  
HETATM   14  C   UNL     1     -13.810  13.823  72.247  1.00  0.00    -0.580 C  
HETATM   15  C   UNL     1     -13.889  15.285  71.829  1.00  0.00    -0.622 C  
HETATM   16  O   UNL     1     -13.050  13.741  73.447  1.00  0.00    -0.347 OA 
HETATM   17  H   UNL     1     -13.497  14.154  74.176  1.00  0.00     0.000 HD 
HETATM   18  C   UNL     1     -12.515  15.555  71.222  1.00  0.00    -0.425 C  
HETATM   19  O   UNL     1     -11.601  15.945  72.250  1.00  0.00    -0.427 OA 
HETATM   20  C   UNL     1     -12.051  14.216  70.605  1.00  0.00    -0.421 C  
HETATM   21  H   UNL     1     -10.746  16.113  71.872  1.00  0.00     0.000 HD 
BRANCH  20  22
HETATM   22  C   UNL     1     -11.962  14.297  69.097  1.00  0.00    -0.372 C  
HETATM   23  C   UNL     1     -10.798  14.283  68.424  1.00  0.00    -0.263 C  
BRANCH  23  24
HETATM   24  C   UNL     1     -10.599  14.450  66.939  1.00  0.00    -0.278 C  
HETATM   25  H   UNL     1     -11.659  15.061  65.398  1.00  0.00     0.000 HD 
HETATM   26  O   UNL     1     -11.786  14.956  66.333  1.00  0.00    -0.307 OA 
BRANCH  24  27
HETATM   27  C   UNL     1      -9.453  15.410  66.591  1.00  0.00    -0.281 C  
BRANCH  27  28
HETATM   28  C   UNL     1      -8.953  16.225  67.788  1.00  0.00    -0.193 C  
BRANCH  28  29
HETATM   29  C   UNL     1      -9.308  17.684  67.647  1.00  0.00    -0.246 A  
HETATM   30  C   UNL     1      -9.081  18.352  66.437  1.00  0.00    -0.271 A  
HETATM   31  C   UNL     1      -9.366  19.712  66.316  1.00  0.00    -0.453 A  
HETATM   32  C   UNL     1      -9.880  20.416  67.403  1.00  0.00    -0.587 A  
HETATM   33  C   UNL     1     -10.112  19.758  68.610  1.00  0.00    -0.546 A  
HETATM   34  C   UNL     1      -9.828  18.399  68.734  1.00  0.00    -0.388 A  
ENDBRANCH  28  29
ENDBRANCH  27  28
ENDBRANCH  24  27
ENDBRANCH  23  24
ENDBRANCH  20  22
ENDBRANCH  12  13
ENDBRANCH  11  12
ENDBRANCH   9  10
ENDBRANCH   8   9
ENDBRANCH   7   8
ENDBRANCH   4   7
ENDBRANCH   2   3
TORSDOF 12
ENDMDL
MODEL       91
REMARK 921   NORMALIZED FREE ENERGY PREDICTED BY IDOCK:   -5.35 KCAL/MOL
REMARK 922        TOTAL FREE ENERGY PREDICTED BY IDOCK:  -11.94 KCAL/MOL
REMARK 923 INTER-LIGAND FREE ENERGY PREDICTED BY IDOCK:   -9.73 KCAL/MOL
REMARK 924 INTRA-LIGAND FREE ENERGY PREDICTED BY IDOCK:   -2.21 KCAL/MOL
REMARK 927      BINDING AFFINITY PREDICTED BY RF-SCORE:    0.00 PKD
ROOT
HETATM    1  C   UNL     1     -10.061   7.399  72.114  1.00  0.00    -0.223 C  
HETATM    2  C   UNL     1      -9.909   8.893  71.898  1.00  0.00    -0.294 C  
ENDROOT
BRANCH   2   3
HETATM    3  N   UNL     1     -10.082   9.249  70.507  1.00  0.00    -0.235 N  
HETATM    4  C   UNL     1     -11.064  10.132  70.117  1.00  0.00    -0.315 C  
HETATM    5  H   UNL     1      -9.466   8.840  69.804  1.00  0.00     0.000 HD 
HETATM    6  O   UNL     1     -11.847  10.656  70.900  1.00  0.00    -0.332 OA 
BRANCH   4   7
HETATM    7  C   UNL     1     -11.071  10.401  68.625  1.00  0.00    -0.313 C  
BRANCH   7   8
HETATM    8  C   UNL     1     -10.194   9.391  67.880  1.00  0.00    -0.259 C  
BRANCH   8   9
HETATM    9  C   UNL     1      -8.917   9.999  67.302  1.00  0.00    -0.144 C  
BRANCH   9  10
HETATM   10  C   UNL     1      -8.769   9.720  65.834  1.00  0.00    -0.156 C  
HETATM   11  C   UNL     1      -9.600  10.097  64.849  1.00  0.00    -0.369 C  
BRANCH  11  12
HETATM   12  C   UNL     1     -10.889  10.858  64.998  1.00  0.00    -0.142 C  
BRANCH  12  13
HETATM   13  C   UNL     1     -10.737  12.368  64.766  1.00  0.00    -0.332 C  
HETATM   14  C   UNL     1     -11.917  13.038  64.046  1.00  0.00    -0.456 C  
HETATM   15  C   UNL     1     -11.792  14.501  64.449  1.00  0.00    -0.419 C  
HETATM   16  O   UNL     1     -13.168  12.549  64.518  1.00  0.00    -0.832 OA 
HETATM   17  H   UNL     1     -13.898  12.963  64.072  1.00  0.00     0.000 HD 
HETATM   18  C   UNL     1     -11.440  14.431  65.933  1.00  0.00    -0.341 C  
HETATM   19  O   UNL     1     -12.638  14.366  66.710  1.00  0.00    -0.540 OA 
HETATM   20  C   UNL     1     -10.637  13.123  66.119  1.00  0.00    -0.288 C  
HETATM   21  H   UNL     1     -12.419  14.321  67.634  1.00  0.00     0.000 HD 
BRANCH  20  22
HETATM   22  C   UNL     1      -9.200  13.401  66.505  1.00  0.00    -0.182 C  
HETATM   23  C   UNL     1      -8.853  14.180  67.545  1.00  0.00    -0.202 C  
BRANCH  23  24
HETATM   24  C   UNL     1      -7.462  14.590  67.954  1.00  0.00    -0.150 C  
HETATM   25  H   UNL     1      -5.617  13.998  67.605  1.00  0.00     0.000 HD 
HETATM   26  O   UNL     1      -6.494  13.738  67.346  1.00  0.00    -0.292 OA 
BRANCH  24  27
HETATM   27  C   UNL     1      -7.122  16.034  67.563  1.00  0.00    -0.199 C  
BRANCH  27  28
HETATM   28  C   UNL     1      -7.895  16.535  66.339  1.00  0.00    -0.324 C  
BRANCH  28  29
HETATM   29  C   UNL     1      -8.656  17.800  66.649  1.00  0.00    -0.280 A  
HETATM   30  C   UNL     1      -8.006  19.040  66.619  1.00  0.00    -0.282 A  
HETATM   31  C   UNL     1      -8.695  20.208  66.948  1.00  0.00    -0.412 A  
HETATM   32  C   UNL     1     -10.039  20.145  67.311  1.00  0.00    -0.572 A  
HETATM   33  C   UNL     1     -10.695  18.916  67.339  1.00  0.00    -0.519 A  
HETATM   34  C   UNL     1     -10.008  17.747  67.011  1.00  0.00    -0.322 A  
ENDBRANCH  28  29
ENDBRANCH  27  28
ENDBRANCH  24  27
ENDBRANCH  23  24
ENDBRANCH  20  22
ENDBRANCH  12  13
ENDBRANCH  11  12
ENDBRANCH   9  10
ENDBRANCH   8   9
ENDBRANCH   7   8
ENDBRANCH   4   7
ENDBRANCH   2   3
TORSDOF 12
ENDMDL
MODEL       92
REMARK 921   NORMALIZED FREE ENERGY PREDICTED BY IDOCK:   -5.35 KCAL/MOL
REMARK 922        TOTAL FREE ENERGY PREDICTED BY IDOCK:  -11.94 KCAL/MOL
REMARK 923 INTER-LIGAND FREE ENERGY PREDICTED BY IDOCK:   -9.69 KCAL/MOL
REMARK 924 INTRA-LIGAND FREE ENERGY PREDICTED BY IDOCK:   -2.25 KCAL/MOL
REMARK 927      BINDING AFFINITY PREDICTED BY RF-SCORE:    0.00 PKD
ROOT
HETATM    1  C   UNL     1     -11.588  14.835  68.715  1.00  0.00    -0.347 C  
HETATM    2  C   UNL     1     -11.656  15.033  67.212  1.00  0.00    -0.273 C  
ENDROOT
BRANCH   2   3
HETATM    3  N   UNL     1     -11.877  13.783  66.520  1.00  0.00    -0.383 N  
HETATM    4  C   UNL     1     -12.369  13.760  65.234  1.00  0.00    -0.464 C  
HETATM    5  H   UNL     1     -11.667  12.904  66.993  1.00  0.00     0.000 HD 
HETATM    6  O   UNL     1     -12.655  14.772  64.606  1.00  0.00    -0.519 OA 
BRANCH   4   7
HETATM    7  C   UNL     1     -12.507  12.361  64.669  1.00  0.00    -0.500 C  
BRANCH   7   8
HETATM    8  C   UNL     1     -11.719  12.213  63.365  1.00  0.00    -0.533 C  
BRANCH   8   9
HETATM    9  C   UNL     1     -10.227  11.959  63.577  1.00  0.00    -0.485 C  
BRANCH   9  10
HETATM   10  C   UNL     1      -9.849  10.533  63.294  1.00  0.00    -0.309 C  
HETATM   11  C   UNL     1      -9.213   9.684  64.117  1.00  0.00    -0.218 C  
BRANCH  11  12
HETATM   12  C   UNL     1      -8.706   9.979  65.502  1.00  0.00    -0.171 C  
BRANCH  12  13
HETATM   13  C   UNL     1      -9.669  10.836  66.335  1.00  0.00    -0.241 C  
HETATM   14  C   UNL     1     -10.778  10.055  67.055  1.00  0.00    -0.178 C  
HETATM   15  C   UNL     1     -11.185  10.985  68.191  1.00  0.00    -0.364 C  
HETATM   16  O   UNL     1     -10.288   8.845  67.621  1.00  0.00    -0.222 OA 
HETATM   17  H   UNL     1     -10.974   8.362  68.066  1.00  0.00     0.000 HD 
HETATM   18  C   UNL     1      -9.851  11.522  68.703  1.00  0.00    -0.177 C  
HETATM   19  O   UNL     1      -9.317  10.630  69.684  1.00  0.00    -0.413 OA 
HETATM   20  C   UNL     1      -8.908  11.560  67.479  1.00  0.00    -0.155 C  
HETATM   21  H   UNL     1      -8.486  10.965  70.003  1.00  0.00     0.000 HD 
BRANCH  20  22
HETATM   22  C   UNL     1      -8.540  12.979  67.102  1.00  0.00    -0.195 C  
HETATM   23  C   UNL     1      -7.895  13.819  67.929  1.00  0.00    -0.159 C  
BRANCH  23  24
HETATM   24  C   UNL     1      -7.566  15.270  67.686  1.00  0.00    -0.172 C  
HETATM   25  H   UNL     1      -7.957  16.631  66.319  1.00  0.00     0.000 HD 
HETATM   26  O   UNL     1      -8.165  15.716  66.472  1.00  0.00    -0.264 OA 
BRANCH  24  27
HETATM   27  C   UNL     1      -8.050  16.193  68.811  1.00  0.00    -0.218 C  
BRANCH  27  28
HETATM   28  C   UNL     1      -7.581  17.642  68.659  1.00  0.00    -0.276 C  
BRANCH  28  29
HETATM   29  C   UNL     1      -8.580  18.465  67.884  1.00  0.00    -0.285 A  
HETATM   30  C   UNL     1      -9.946  18.384  68.186  1.00  0.00    -0.388 A  
HETATM   31  C   UNL     1     -10.879  19.109  67.443  1.00  0.00    -0.533 A  
HETATM   32  C   UNL     1     -10.454  19.920  66.393  1.00  0.00    -0.589 A  
HETATM   33  C   UNL     1      -9.096  20.010  66.088  1.00  0.00    -0.357 A  
HETATM   34  C   UNL     1      -8.163  19.286  66.829  1.00  0.00    -0.301 A  
ENDBRANCH  28  29
ENDBRANCH  27  28
ENDBRANCH  24  27
ENDBRANCH  23  24
ENDBRANCH  20  22
ENDBRANCH  12  13
ENDBRANCH  11  12
ENDBRANCH   9  10
ENDBRANCH   8   9
ENDBRANCH   7   8
ENDBRANCH   4   7
ENDBRANCH   2   3
TORSDOF 12
ENDMDL
MODEL       93
REMARK 921   NORMALIZED FREE ENERGY PREDICTED BY IDOCK:   -5.35 KCAL/MOL
REMARK 922        TOTAL FREE ENERGY PREDICTED BY IDOCK:  -11.93 KCAL/MOL
REMARK 923 INTER-LIGAND FREE ENERGY PREDICTED BY IDOCK:  -10.17 KCAL/MOL
REMARK 924 INTRA-LIGAND FREE ENERGY PREDICTED BY IDOCK:   -1.76 KCAL/MOL
REMARK 927      BINDING AFFINITY PREDICTED BY RF-SCORE:    0.00 PKD
ROOT
HETATM    1  C   UNL     1      -9.589  10.845  62.963  1.00  0.00    -0.382 C  
HETATM    2  C   UNL     1      -8.696   9.649  63.231  1.00  0.00    -0.230 C  
ENDROOT
BRANCH   2   3
HETATM    3  N   UNL     1      -9.053   8.984  64.464  1.00  0.00    -0.428 N  
HETATM    4  C   UNL     1      -8.442   9.316  65.653  1.00  0.00    -0.139 C  
HETATM    5  H   UNL     1      -9.769   8.258  64.453  1.00  0.00     0.000 HD 
HETATM    6  O   UNL     1      -7.567  10.168  65.744  1.00  0.00    -0.121 OA 
BRANCH   4   7
HETATM    7  C   UNL     1      -8.968   8.530  66.838  1.00  0.00    -0.166 C  
BRANCH   7   8
HETATM    8  C   UNL     1     -10.441   8.163  66.645  1.00  0.00    -0.204 C  
BRANCH   8   9
HETATM    9  C   UNL     1     -10.765   6.716  67.013  1.00  0.00    -0.437 C  
BRANCH   9  10
HETATM   10  C   UNL     1      -9.876   6.197  68.107  1.00  0.00    -0.142 C  
HETATM   11  C   UNL     1     -10.205   5.997  69.393  1.00  0.00    -0.269 C  
BRANCH  11  12
HETATM   12  C   UNL     1     -11.534   6.279  70.039  1.00  0.00    -0.460 C  
BRANCH  12  13
HETATM   13  C   UNL     1     -11.422   7.089  71.338  1.00  0.00    -0.312 C  
HETATM   14  C   UNL     1     -11.172   6.256  72.604  1.00  0.00    -0.267 C  
HETATM   15  C   UNL     1     -10.553   7.258  73.570  1.00  0.00    -0.408 C  
HETATM   16  O   UNL     1     -10.229   5.215  72.373  1.00  0.00    -0.185 OA 
HETATM   17  H   UNL     1     -10.075   4.700  73.156  1.00  0.00     0.000 HD 
HETATM   18  C   UNL     1      -9.587   8.047  72.690  1.00  0.00    -0.259 C  
HETATM   19  O   UNL     1      -8.323   7.380  72.642  1.00  0.00    -0.104 OA 
HETATM   20  C   UNL     1     -10.213   8.061  71.277  1.00  0.00    -0.230 C  
HETATM   21  H   UNL     1      -7.722   7.871  72.094  1.00  0.00     0.000 HD 
BRANCH  20  22
HETATM   22  C   UNL     1     -10.630   9.456  70.865  1.00  0.00    -0.390 C  
HETATM   23  C   UNL     1     -10.894   9.802  69.593  1.00  0.00    -0.274 C  
BRANCH  23  24
HETATM   24  C   UNL     1     -11.225  11.176  69.069  1.00  0.00    -0.256 C  
HETATM   25  H   UNL     1     -12.272  11.947  67.591  1.00  0.00     0.000 HD 
HETATM   26  O   UNL     1     -12.063  11.080  67.920  1.00  0.00    -0.600 OA 
BRANCH  24  27
HETATM   27  C   UNL     1     -11.948  12.054  70.100  1.00  0.00    -0.401 C  
BRANCH  27  28
HETATM   28  C   UNL     1     -11.873  13.551  69.789  1.00  0.00    -0.395 C  
BRANCH  28  29
HETATM   29  C   UNL     1     -12.333  14.381  70.962  1.00  0.00    -0.427 A  
HETATM   30  C   UNL     1     -13.665  14.320  71.390  1.00  0.00    -0.382 A  
HETATM   31  C   UNL     1     -14.106  15.118  72.446  1.00  0.00    -0.593 A  
HETATM   32  C   UNL     1     -13.218  15.984  73.082  1.00  0.00    -0.633 A  
HETATM   33  C   UNL     1     -11.890  16.048  72.665  1.00  0.00    -0.611 A  
HETATM   34  C   UNL     1     -11.447  15.251  71.610  1.00  0.00    -0.471 A  
ENDBRANCH  28  29
ENDBRANCH  27  28
ENDBRANCH  24  27
ENDBRANCH  23  24
ENDBRANCH  20  22
ENDBRANCH  12  13
ENDBRANCH  11  12
ENDBRANCH   9  10
ENDBRANCH   8   9
ENDBRANCH   7   8
ENDBRANCH   4   7
ENDBRANCH   2   3
TORSDOF 12
ENDMDL
MODEL       94
REMARK 921   NORMALIZED FREE ENERGY PREDICTED BY IDOCK:   -5.34 KCAL/MOL
REMARK 922        TOTAL FREE ENERGY PREDICTED BY IDOCK:  -11.92 KCAL/MOL
REMARK 923 INTER-LIGAND FREE ENERGY PREDICTED BY IDOCK:   -9.62 KCAL/MOL
REMARK 924 INTRA-LIGAND FREE ENERGY PREDICTED BY IDOCK:   -2.30 KCAL/MOL
REMARK 927      BINDING AFFINITY PREDICTED BY RF-SCORE:    0.00 PKD
ROOT
HETATM    1  C   UNL     1     -12.779  14.119  65.821  1.00  0.00    -0.443 C  
HETATM    2  C   UNL     1     -12.212  14.445  64.452  1.00  0.00    -0.458 C  
ENDROOT
BRANCH   2   3
HETATM    3  N   UNL     1     -11.076  13.610  64.134  1.00  0.00    -0.574 N  
HETATM    4  C   UNL     1     -11.246  12.348  63.610  1.00  0.00    -0.474 C  
HETATM    5  H   UNL     1     -10.133  13.961  64.302  1.00  0.00     0.000 HD 
HETATM    6  O   UNL     1     -12.345  11.854  63.392  1.00  0.00    -0.557 OA 
BRANCH   4   7
HETATM    7  C   UNL     1      -9.940  11.638  63.318  1.00  0.00    -0.442 C  
BRANCH   7   8
HETATM    8  C   UNL     1      -9.898  10.263  63.991  1.00  0.00    -0.286 C  
BRANCH   8   9
HETATM    9  C   UNL     1      -8.594   9.504  63.750  1.00  0.00    -0.222 C  
BRANCH   9  10
HETATM   10  C   UNL     1      -7.413  10.193  64.373  1.00  0.00    -0.123 C  
HETATM   11  C   UNL     1      -6.950  10.039  65.624  1.00  0.00    -0.115 C  
BRANCH  11  12
HETATM   12  C   UNL     1      -7.532   9.164  66.699  1.00  0.00    -0.086 C  
BRANCH  12  13
HETATM   13  C   UNL     1      -8.921   9.615  67.170  1.00  0.00    -0.148 C  
HETATM   14  C   UNL     1      -9.788   8.511  67.793  1.00  0.00    -0.175 C  
HETATM   15  C   UNL     1     -10.784   9.283  68.648  1.00  0.00    -0.180 C  
HETATM   16  O   UNL     1      -9.028   7.663  68.647  1.00  0.00    -0.134 OA 
HETATM   17  H   UNL     1      -9.564   6.980  69.032  1.00  0.00     0.000 HD 
HETATM   18  C   UNL     1      -9.926  10.364  69.301  1.00  0.00    -0.228 C  
HETATM   19  O   UNL     1      -9.350   9.859  70.508  1.00  0.00    -0.352 OA 
HETATM   20  C   UNL     1      -8.801  10.683  68.291  1.00  0.00    -0.139 C  
HETATM   21  H   UNL     1      -8.816  10.531  70.914  1.00  0.00     0.000 HD 
BRANCH  20  22
HETATM   22  C   UNL     1      -8.922  12.090  67.746  1.00  0.00    -0.176 C  
HETATM   23  C   UNL     1      -9.139  13.166  68.521  1.00  0.00    -0.053 C  
BRANCH  23  24
HETATM   24  C   UNL     1      -9.366  14.586  68.072  1.00  0.00    -0.201 C  
HETATM   25  H   UNL     1      -9.616  15.541  66.368  1.00  0.00     0.000 HD 
HETATM   26  O   UNL     1      -9.473  14.646  66.652  1.00  0.00    -0.251 OA 
BRANCH  24  27
HETATM   27  C   UNL     1     -10.639  15.207  68.660  1.00  0.00    -0.234 C  
BRANCH  27  28
HETATM   28  C   UNL     1     -11.600  14.178  69.263  1.00  0.00    -0.350 C  
BRANCH  28  29
HETATM   29  C   UNL     1     -12.030  14.574  70.653  1.00  0.00    -0.387 A  
HETATM   30  C   UNL     1     -12.947  13.785  71.360  1.00  0.00    -0.433 A  
HETATM   31  C   UNL     1     -13.381  14.171  72.628  1.00  0.00    -0.638 A  
HETATM   32  C   UNL     1     -12.903  15.348  73.200  1.00  0.00    -0.606 A  
HETATM   33  C   UNL     1     -11.987  16.137  72.507  1.00  0.00    -0.660 A  
HETATM   34  C   UNL     1     -11.552  15.753  71.239  1.00  0.00    -0.499 A  
ENDBRANCH  28  29
ENDBRANCH  27  28
ENDBRANCH  24  27
ENDBRANCH  23  24
ENDBRANCH  20  22
ENDBRANCH  12  13
ENDBRANCH  11  12
ENDBRANCH   9  10
ENDBRANCH   8   9
ENDBRANCH   7   8
ENDBRANCH   4   7
ENDBRANCH   2   3
TORSDOF 12
ENDMDL
MODEL       95
REMARK 921   NORMALIZED FREE ENERGY PREDICTED BY IDOCK:   -5.33 KCAL/MOL
REMARK 922        TOTAL FREE ENERGY PREDICTED BY IDOCK:  -11.91 KCAL/MOL
REMARK 923 INTER-LIGAND FREE ENERGY PREDICTED BY IDOCK:   -9.05 KCAL/MOL
REMARK 924 INTRA-LIGAND FREE ENERGY PREDICTED BY IDOCK:   -2.86 KCAL/MOL
REMARK 927      BINDING AFFINITY PREDICTED BY RF-SCORE:    0.00 PKD
ROOT
HETATM    1  C   UNL     1     -11.735  11.733  63.349  1.00  0.00    -0.423 C  
HETATM    2  C   UNL     1     -12.246  13.161  63.397  1.00  0.00    -0.444 C  
ENDROOT
BRANCH   2   3
HETATM    3  N   UNL     1     -12.545  13.574  64.750  1.00  0.00    -0.639 N  
HETATM    4  C   UNL     1     -11.652  14.331  65.475  1.00  0.00    -0.338 C  
HETATM    5  H   UNL     1     -13.431  13.300  65.174  1.00  0.00     0.000 HD 
HETATM    6  O   UNL     1     -10.566  14.689  65.039  1.00  0.00    -0.390 OA 
BRANCH   4   7
HETATM    7  C   UNL     1     -12.154  14.687  66.860  1.00  0.00    -0.224 C  
BRANCH   7   8
HETATM    8  C   UNL     1     -10.997  15.087  67.779  1.00  0.00    -0.298 C  
BRANCH   8   9
HETATM    9  C   UNL     1     -10.539  13.965  68.710  1.00  0.00    -0.258 C  
BRANCH   9  10
HETATM   10  C   UNL     1      -9.331  13.246  68.182  1.00  0.00    -0.220 C  
HETATM   11  C   UNL     1      -9.312  12.132  67.433  1.00  0.00    -0.181 C  
BRANCH  11  12
HETATM   12  C   UNL     1     -10.501  11.330  66.980  1.00  0.00    -0.272 C  
BRANCH  12  13
HETATM   13  C   UNL     1     -10.412   9.843  67.351  1.00  0.00    -0.325 C  
HETATM   14  C   UNL     1      -9.925   8.919  66.225  1.00  0.00    -0.266 C  
HETATM   15  C   UNL     1      -9.397   7.701  66.971  1.00  0.00    -0.195 C  
HETATM   16  O   UNL     1      -8.849   9.499  65.496  1.00  0.00    -0.146 OA 
HETATM   17  H   UNL     1      -8.548   8.928  64.800  1.00  0.00     0.000 HD 
HETATM   18  C   UNL     1      -8.649   8.308  68.155  1.00  0.00    -0.132 C  
HETATM   19  O   UNL     1      -7.303   8.604  67.776  1.00  0.00    -0.089 OA 
HETATM   20  C   UNL     1      -9.386   9.624  68.496  1.00  0.00    -0.138 C  
HETATM   21  H   UNL     1      -6.838   8.982  68.513  1.00  0.00     0.000 HD 
BRANCH  20  22
HETATM   22  C   UNL     1     -10.057   9.553  69.850  1.00  0.00    -0.262 C  
HETATM   23  C   UNL     1     -11.357   9.836  70.045  1.00  0.00    -0.269 C  
BRANCH  23  24
HETATM   24  C   UNL     1     -12.094   9.885  71.359  1.00  0.00    -0.413 C  
HETATM   25  H   UNL     1     -13.961  10.041  71.964  1.00  0.00     0.000 HD 
HETATM   26  O   UNL     1     -13.497  10.010  71.136  1.00  0.00    -0.357 OA 
BRANCH  24  27
HETATM   27  C   UNL     1     -11.870   8.637  72.221  1.00  0.00    -0.436 C  
BRANCH  27  28
HETATM   28  C   UNL     1     -12.602   7.395  71.704  1.00  0.00    -0.391 C  
BRANCH  28  29
HETATM   29  C   UNL     1     -11.633   6.346  71.221  1.00  0.00    -0.370 A  
HETATM   30  C   UNL     1     -10.929   5.559  72.142  1.00  0.00    -0.291 A  
HETATM   31  C   UNL     1      -9.998   4.617  71.702  1.00  0.00    -0.262 A  
HETATM   32  C   UNL     1      -9.764   4.455  70.338  1.00  0.00    -0.284 A  
HETATM   33  C   UNL     1     -10.462   5.231  69.414  1.00  0.00    -0.284 A  
HETATM   34  C   UNL     1     -11.393   6.173  69.852  1.00  0.00    -0.454 A  
ENDBRANCH  28  29
ENDBRANCH  27  28
ENDBRANCH  24  27
ENDBRANCH  23  24
ENDBRANCH  20  22
ENDBRANCH  12  13
ENDBRANCH  11  12
ENDBRANCH   9  10
ENDBRANCH   8   9
ENDBRANCH   7   8
ENDBRANCH   4   7
ENDBRANCH   2   3
TORSDOF 12
ENDMDL
MODEL       96
REMARK 921   NORMALIZED FREE ENERGY PREDICTED BY IDOCK:   -5.33 KCAL/MOL
REMARK 922        TOTAL FREE ENERGY PREDICTED BY IDOCK:  -11.91 KCAL/MOL
REMARK 923 INTER-LIGAND FREE ENERGY PREDICTED BY IDOCK:   -9.31 KCAL/MOL
REMARK 924 INTRA-LIGAND FREE ENERGY PREDICTED BY IDOCK:   -2.59 KCAL/MOL
REMARK 927      BINDING AFFINITY PREDICTED BY RF-SCORE:    0.00 PKD
ROOT
HETATM    1  C   UNL     1      -8.342  10.302  64.655  1.00  0.00    -0.169 C  
HETATM    2  C   UNL     1      -7.959  10.146  66.115  1.00  0.00    -0.125 C  
ENDROOT
BRANCH   2   3
HETATM    3  N   UNL     1      -7.251  11.307  66.606  1.00  0.00    -0.195 N  
HETATM    4  C   UNL     1      -7.817  12.140  67.545  1.00  0.00    -0.162 C  
HETATM    5  H   UNL     1      -6.317  11.512  66.251  1.00  0.00     0.000 HD 
HETATM    6  O   UNL     1      -8.936  11.966  68.011  1.00  0.00    -0.171 OA 
BRANCH   4   7
HETATM    7  C   UNL     1      -6.912  13.285  67.955  1.00  0.00    -0.137 C  
BRANCH   7   8
HETATM    8  C   UNL     1      -7.687  14.346  68.740  1.00  0.00    -0.139 C  
BRANCH   8   9
HETATM    9  C   UNL     1      -7.066  15.740  68.662  1.00  0.00    -0.129 C  
BRANCH   9  10
HETATM   10  C   UNL     1      -8.106  16.824  68.634  1.00  0.00    -0.251 C  
HETATM   11  C   UNL     1      -9.051  17.018  67.701  1.00  0.00    -0.229 C  
BRANCH  11  12
HETATM   12  C   UNL     1      -9.262  16.211  66.450  1.00  0.00    -0.334 C  
BRANCH  12  13
HETATM   13  C   UNL     1     -10.717  15.761  66.251  1.00  0.00    -0.282 C  
HETATM   14  C   UNL     1     -11.027  15.148  64.878  1.00  0.00    -0.419 C  
HETATM   15  C   UNL     1     -12.271  14.309  65.138  1.00  0.00    -0.422 C  
HETATM   16  O   UNL     1      -9.986  14.281  64.441  1.00  0.00    -0.634 OA 
HETATM   17  H   UNL     1     -10.177  13.902  63.591  1.00  0.00     0.000 HD 
HETATM   18  C   UNL     1     -11.976  13.647  66.481  1.00  0.00    -0.424 C  
HETATM   19  O   UNL     1     -11.255  12.431  66.272  1.00  0.00    -0.286 OA 
HETATM   20  C   UNL     1     -11.087  14.642  67.261  1.00  0.00    -0.331 C  
HETATM   21  H   UNL     1     -11.072  12.018  67.108  1.00  0.00     0.000 HD 
BRANCH  20  22
HETATM   22  C   UNL     1     -11.800  15.192  68.478  1.00  0.00    -0.307 C  
HETATM   23  C   UNL     1     -11.328  15.064  69.730  1.00  0.00    -0.310 C  
BRANCH  23  24
HETATM   24  C   UNL     1     -12.002  15.492  71.009  1.00  0.00    -0.381 C  
HETATM   25  H   UNL     1     -13.755  16.206  71.550  1.00  0.00     0.000 HD 
HETATM   26  O   UNL     1     -13.330  15.936  70.744  1.00  0.00    -0.460 OA 
BRANCH  24  27
HETATM   27  C   UNL     1     -12.086  14.368  72.049  1.00  0.00    -0.207 C  
BRANCH  27  28
HETATM   28  C   UNL     1     -13.289  13.441  71.853  1.00  0.00    -0.539 C  
BRANCH  28  29
HETATM   29  C   UNL     1     -12.853  12.047  71.475  1.00  0.00    -0.403 A  
HETATM   30  C   UNL     1     -11.954  11.851  70.419  1.00  0.00    -0.400 A  
HETATM   31  C   UNL     1     -11.582  10.562  70.036  1.00  0.00    -0.392 A  
HETATM   32  C   UNL     1     -12.107   9.459  70.705  1.00  0.00    -0.270 A  
HETATM   33  C   UNL     1     -13.000   9.644  71.760  1.00  0.00    -0.514 A  
HETATM   34  C   UNL     1     -13.372  10.932  72.144  1.00  0.00    -0.294 A  
ENDBRANCH  28  29
ENDBRANCH  27  28
ENDBRANCH  24  27
ENDBRANCH  23  24
ENDBRANCH  20  22
ENDBRANCH  12  13
ENDBRANCH  11  12
ENDBRANCH   9  10
ENDBRANCH   8   9
ENDBRANCH   7   8
ENDBRANCH   4   7
ENDBRANCH   2   3
TORSDOF 12
ENDMDL
MODEL       97
REMARK 921   NORMALIZED FREE ENERGY PREDICTED BY IDOCK:   -5.33 KCAL/MOL
REMARK 922        TOTAL FREE ENERGY PREDICTED BY IDOCK:  -11.90 KCAL/MOL
REMARK 923 INTER-LIGAND FREE ENERGY PREDICTED BY IDOCK:   -9.62 KCAL/MOL
REMARK 924 INTRA-LIGAND FREE ENERGY PREDICTED BY IDOCK:   -2.28 KCAL/MOL
REMARK 927      BINDING AFFINITY PREDICTED BY RF-SCORE:    0.00 PKD
ROOT
HETATM    1  C   UNL     1      -8.465   4.387  65.216  1.00  0.00    -0.121 C  
HETATM    2  C   UNL     1      -9.962   4.411  65.466  1.00  0.00    -0.230 C  
ENDROOT
BRANCH   2   3
HETATM    3  N   UNL     1     -10.267   4.745  66.838  1.00  0.00    -0.209 N  
HETATM    4  C   UNL     1     -10.529   6.044  67.212  1.00  0.00    -0.257 C  
HETATM    5  H   UNL     1     -10.289   4.007  67.542  1.00  0.00     0.000 HD 
HETATM    6  O   UNL     1     -10.511   6.985  66.428  1.00  0.00    -0.071 OA 
BRANCH   4   7
HETATM    7  C   UNL     1     -10.854   6.192  68.685  1.00  0.00    -0.403 C  
BRANCH   7   8
HETATM    8  C   UNL     1     -10.115   5.142  69.519  1.00  0.00    -0.316 C  
BRANCH   8   9
HETATM    9  C   UNL     1      -9.695   5.644  70.900  1.00  0.00    -0.223 C  
BRANCH   9  10
HETATM   10  C   UNL     1     -10.651   5.212  71.976  1.00  0.00    -0.266 C  
HETATM   11  C   UNL     1     -11.400   6.002  72.761  1.00  0.00    -0.282 C  
BRANCH  11  12
HETATM   12  C   UNL     1     -11.427   7.506  72.764  1.00  0.00    -0.352 C  
BRANCH  12  13
HETATM   13  C   UNL     1     -12.315   8.103  71.664  1.00  0.00    -0.347 C  
HETATM   14  C   UNL     1     -13.771   8.365  72.074  1.00  0.00    -0.374 C  
HETATM   15  C   UNL     1     -14.233   9.423  71.081  1.00  0.00     0.129 C  
HETATM   16  O   UNL     1     -13.860   8.912  73.385  1.00  0.00    -1.192 OA 
HETATM   17  H   UNL     1     -14.760   9.074  73.639  1.00  0.00     0.000 HD 
HETATM   18  C   UNL     1     -13.038  10.369  70.990  1.00  0.00    -0.362 C  
HETATM   19  O   UNL     1     -13.127  11.358  72.018  1.00  0.00    -0.487 OA 
HETATM   20  C   UNL     1     -11.785   9.496  71.227  1.00  0.00    -0.444 C  
HETATM   21  H   UNL     1     -12.383  11.947  71.962  1.00  0.00     0.000 HD 
BRANCH  20  22
HETATM   22  C   UNL     1     -10.923   9.408  69.986  1.00  0.00    -0.267 C  
HETATM   23  C   UNL     1      -9.633   9.786  69.955  1.00  0.00    -0.282 C  
BRANCH  23  24
HETATM   24  C   UNL     1      -8.721   9.825  68.757  1.00  0.00    -0.128 C  
HETATM   25  H   UNL     1      -7.521   8.582  67.812  1.00  0.00     0.000 HD 
HETATM   26  O   UNL     1      -8.096   8.558  68.568  1.00  0.00    -0.118 OA 
BRANCH  24  27
HETATM   27  C   UNL     1      -9.452  10.182  67.456  1.00  0.00    -0.172 C  
BRANCH  27  28
HETATM   28  C   UNL     1     -10.209  11.511  67.525  1.00  0.00    -0.207 C  
BRANCH  28  29
HETATM   29  C   UNL     1     -10.911  11.813  66.224  1.00  0.00    -0.346 A  
HETATM   30  C   UNL     1     -12.005  12.688  66.199  1.00  0.00    -0.458 A  
HETATM   31  C   UNL     1     -12.685  12.935  65.007  1.00  0.00    -0.474 A  
HETATM   32  C   UNL     1     -12.278  12.310  63.830  1.00  0.00    -0.642 A  
HETATM   33  C   UNL     1     -11.189  11.440  63.844  1.00  0.00    -0.364 A  
HETATM   34  C   UNL     1     -10.508  11.191  65.036  1.00  0.00    -0.357 A  
ENDBRANCH  28  29
ENDBRANCH  27  28
ENDBRANCH  24  27
ENDBRANCH  23  24
ENDBRANCH  20  22
ENDBRANCH  12  13
ENDBRANCH  11  12
ENDBRANCH   9  10
ENDBRANCH   8   9
ENDBRANCH   7   8
ENDBRANCH   4   7
ENDBRANCH   2   3
TORSDOF 12
ENDMDL
MODEL       98
REMARK 921   NORMALIZED FREE ENERGY PREDICTED BY IDOCK:   -5.32 KCAL/MOL
REMARK 922        TOTAL FREE ENERGY PREDICTED BY IDOCK:  -11.88 KCAL/MOL
REMARK 923 INTER-LIGAND FREE ENERGY PREDICTED BY IDOCK:   -9.27 KCAL/MOL
REMARK 924 INTRA-LIGAND FREE ENERGY PREDICTED BY IDOCK:   -2.61 KCAL/MOL
REMARK 927      BINDING AFFINITY PREDICTED BY RF-SCORE:    0.00 PKD
ROOT
HETATM    1  C   UNL     1     -10.561  15.610  66.326  1.00  0.00    -0.310 C  
HETATM    2  C   UNL     1     -10.908  15.208  64.905  1.00  0.00    -0.418 C  
ENDROOT
BRANCH   2   3
HETATM    3  N   UNL     1     -10.789  13.780  64.712  1.00  0.00    -0.380 N  
HETATM    4  C   UNL     1     -11.616  13.110  63.838  1.00  0.00    -0.433 C  
HETATM    5  H   UNL     1     -10.083  13.260  65.232  1.00  0.00     0.000 HD 
HETATM    6  O   UNL     1     -12.494  13.662  63.187  1.00  0.00    -0.786 OA 
BRANCH   4   7
HETATM    7  C   UNL     1     -11.322  11.626  63.752  1.00  0.00    -0.482 C  
BRANCH   7   8
HETATM    8  C   UNL     1      -9.908  11.374  63.224  1.00  0.00    -0.428 C  
BRANCH   8   9
HETATM    9  C   UNL     1      -9.018  10.606  64.201  1.00  0.00    -0.214 C  
BRANCH   9  10
HETATM   10  C   UNL     1      -9.812   9.942  65.290  1.00  0.00    -0.373 C  
HETATM   11  C   UNL     1      -9.916  10.330  66.571  1.00  0.00    -0.280 C  
BRANCH  11  12
HETATM   12  C   UNL     1      -9.233  11.505  67.216  1.00  0.00    -0.168 C  
BRANCH  12  13
HETATM   13  C   UNL     1      -9.863  11.919  68.553  1.00  0.00    -0.187 C  
HETATM   14  C   UNL     1     -11.059  12.877  68.439  1.00  0.00    -0.262 C  
HETATM   15  C   UNL     1     -11.805  12.666  69.749  1.00  0.00    -0.379 C  
HETATM   16  O   UNL     1     -11.923  12.516  67.368  1.00  0.00    -0.456 OA 
HETATM   17  H   UNL     1     -12.662  13.108  67.297  1.00  0.00     0.000 HD 
HETATM   18  C   UNL     1     -11.756  11.153  69.945  1.00  0.00    -0.355 C  
HETATM   19  O   UNL     1     -12.858  10.543  69.270  1.00  0.00    -0.617 OA 
HETATM   20  C   UNL     1     -10.434  10.682  69.297  1.00  0.00    -0.252 C  
HETATM   21  H   UNL     1     -12.827   9.601  69.392  1.00  0.00     0.000 HD 
BRANCH  20  22
HETATM   22  C   UNL     1      -9.465  10.148  70.329  1.00  0.00     0.105 C  
HETATM   23  C   UNL     1      -8.774   9.006  70.170  1.00  0.00    -0.184 C  
BRANCH  23  24
HETATM   24  C   UNL     1      -7.861   8.344  71.170  1.00  0.00    -0.106 C  
HETATM   25  H   UNL     1      -6.202   8.791  72.131  1.00  0.00     0.000 HD 
HETATM   26  O   UNL     1      -6.777   9.209  71.501  1.00  0.00    -0.182 OA 
BRANCH  24  27
HETATM   27  C   UNL     1      -8.571   7.968  72.476  1.00  0.00    -0.227 C  
BRANCH  27  28
HETATM   28  C   UNL     1      -9.461   6.727  72.354  1.00  0.00    -0.153 C  
BRANCH  28  29
HETATM   29  C   UNL     1     -10.905   7.105  72.133  1.00  0.00    -0.255 A  
HETATM   30  C   UNL     1     -11.727   6.310  71.324  1.00  0.00    -0.300 A  
HETATM   31  C   UNL     1     -13.050   6.679  71.081  1.00  0.00     0.057 A  
HETATM   32  C   UNL     1     -13.562   7.846  71.644  1.00  0.00    -0.397 A  
HETATM   33  C   UNL     1     -12.753   8.642  72.454  1.00  0.00    -0.423 A  
HETATM   34  C   UNL     1     -11.430   8.275  72.698  1.00  0.00    -0.423 A  
ENDBRANCH  28  29
ENDBRANCH  27  28
ENDBRANCH  24  27
ENDBRANCH  23  24
ENDBRANCH  20  22
ENDBRANCH  12  13
ENDBRANCH  11  12
ENDBRANCH   9  10
ENDBRANCH   8   9
ENDBRANCH   7   8
ENDBRANCH   4   7
ENDBRANCH   2   3
TORSDOF 12
ENDMDL
MODEL       99
REMARK 921   NORMALIZED FREE ENERGY PREDICTED BY IDOCK:   -5.31 KCAL/MOL
REMARK 922        TOTAL FREE ENERGY PREDICTED BY IDOCK:  -11.87 KCAL/MOL
REMARK 923 INTER-LIGAND FREE ENERGY PREDICTED BY IDOCK:  -10.19 KCAL/MOL
REMARK 924 INTRA-LIGAND FREE ENERGY PREDICTED BY IDOCK:   -1.69 KCAL/MOL
REMARK 927      BINDING AFFINITY PREDICTED BY RF-SCORE:    0.00 PKD
ROOT
HETATM    1  C   UNL     1      -6.505  20.113  66.702  1.00  0.00    -0.233 C  
HETATM    2  C   UNL     1      -7.914  20.478  67.130  1.00  0.00    -0.311 C  
ENDROOT
BRANCH   2   3
HETATM    3  N   UNL     1      -8.640  19.323  67.610  1.00  0.00    -0.290 N  
HETATM    4  C   UNL     1      -9.953  19.111  67.252  1.00  0.00    -0.356 C  
HETATM    5  H   UNL     1      -8.173  18.656  68.223  1.00  0.00     0.000 HD 
HETATM    6  O   UNL     1     -10.584  19.872  66.530  1.00  0.00    -0.460 OA 
BRANCH   4   7
HETATM    7  C   UNL     1     -10.534  17.836  67.831  1.00  0.00    -0.401 C  
BRANCH   7   8
HETATM    8  C   UNL     1      -9.428  16.910  68.343  1.00  0.00    -0.258 C  
BRANCH   8   9
HETATM    9  C   UNL     1      -9.496  15.497  67.764  1.00  0.00    -0.204 C  
BRANCH   9  10
HETATM   10  C   UNL     1      -9.391  15.493  66.265  1.00  0.00    -0.355 C  
HETATM   11  C   UNL     1     -10.368  15.225  65.384  1.00  0.00    -0.421 C  
BRANCH  11  12
HETATM   12  C   UNL     1     -11.785  14.835  65.700  1.00  0.00    -0.257 C  
BRANCH  12  13
HETATM   13  C   UNL     1     -12.109  13.375  65.353  1.00  0.00    -0.457 C  
HETATM   14  C   UNL     1     -12.843  13.171  64.020  1.00  0.00     0.108 C  
HETATM   15  C   UNL     1     -12.531  11.724  63.663  1.00  0.00    -0.482 C  
HETATM   16  O   UNL     1     -12.319  14.008  62.996  1.00  0.00    -1.101 OA 
HETATM   17  H   UNL     1     -12.773  13.882  62.171  1.00  0.00     0.000 HD 
HETATM   18  C   UNL     1     -11.053  11.583  64.018  1.00  0.00    -0.365 C  
HETATM   19  O   UNL     1     -10.249  11.985  62.906  1.00  0.00    -0.534 OA 
HETATM   20  C   UNL     1     -10.806  12.545  65.202  1.00  0.00    -0.323 C  
HETATM   21  H   UNL     1      -9.329  11.897  63.128  1.00  0.00     0.000 HD 
BRANCH  20  22
HETATM   22  C   UNL     1     -10.465  11.794  66.471  1.00  0.00    -0.265 C  
HETATM   23  C   UNL     1     -11.234  11.820  67.574  1.00  0.00    -0.354 C  
BRANCH  23  24
HETATM   24  C   UNL     1     -10.939  11.186  68.909  1.00  0.00    -0.225 C  
HETATM   25  H   UNL     1     -11.843  10.990  70.647  1.00  0.00     0.000 HD 
HETATM   26  O   UNL     1     -12.028  11.390  69.805  1.00  0.00    -0.306 OA 
BRANCH  24  27
HETATM   27  C   UNL     1     -10.691   9.675  68.815  1.00  0.00    -0.234 C  
BRANCH  27  28
HETATM   28  C   UNL     1      -9.620   9.169  69.785  1.00  0.00    -0.191 C  
BRANCH  28  29
HETATM   29  C   UNL     1     -10.182   8.145  70.739  1.00  0.00    -0.215 A  
HETATM   30  C   UNL     1     -10.403   6.829  70.313  1.00  0.00    -0.224 A  
HETATM   31  C   UNL     1     -10.964   5.889  71.179  1.00  0.00    -0.327 A  
HETATM   32  C   UNL     1     -11.309   6.258  72.477  1.00  0.00    -0.313 A  
HETATM   33  C   UNL     1     -11.090   7.564  72.912  1.00  0.00    -0.426 A  
HETATM   34  C   UNL     1     -10.530   8.505  72.048  1.00  0.00    -0.407 A  
ENDBRANCH  28  29
ENDBRANCH  27  28
ENDBRANCH  24  27
ENDBRANCH  23  24
ENDBRANCH  20  22
ENDBRANCH  12  13
ENDBRANCH  11  12
ENDBRANCH   9  10
ENDBRANCH   8   9
ENDBRANCH   7   8
ENDBRANCH   4   7
ENDBRANCH   2   3
TORSDOF 12
ENDMDL
MODEL      100
REMARK 921   NORMALIZED FREE ENERGY PREDICTED BY IDOCK:   -5.30 KCAL/MOL
REMARK 922        TOTAL FREE ENERGY PREDICTED BY IDOCK:  -11.85 KCAL/MOL
REMARK 923 INTER-LIGAND FREE ENERGY PREDICTED BY IDOCK:   -9.18 KCAL/MOL
REMARK 924 INTRA-LIGAND FREE ENERGY PREDICTED BY IDOCK:   -2.67 KCAL/MOL
REMARK 927      BINDING AFFINITY PREDICTED BY RF-SCORE:    0.00 PKD
ROOT
HETATM    1  C   UNL     1     -10.106  16.218  66.121  1.00  0.00    -0.362 C  
HETATM    2  C   UNL     1     -11.053  15.274  65.404  1.00  0.00    -0.347 C  
ENDROOT
BRANCH   2   3
HETATM    3  N   UNL     1     -10.790  13.895  65.748  1.00  0.00    -0.285 N  
HETATM    4  C   UNL     1     -11.734  12.916  65.531  1.00  0.00    -0.383 C  
HETATM    5  H   UNL     1      -9.892  13.643  66.160  1.00  0.00     0.000 HD 
HETATM    6  O   UNL     1     -12.838  13.143  65.052  1.00  0.00    -0.692 OA 
BRANCH   4   7
HETATM    7  C   UNL     1     -11.266  11.531  65.930  1.00  0.00    -0.239 C  
BRANCH   7   8
HETATM    8  C   UNL     1     -10.226  11.604  67.051  1.00  0.00    -0.240 C  
BRANCH   8   9
HETATM    9  C   UNL     1      -9.918  10.249  67.688  1.00  0.00    -0.212 C  
BRANCH   9  10
HETATM   10  C   UNL     1     -10.755   9.145  67.106  1.00  0.00    -0.213 C  
HETATM   11  C   UNL     1     -10.660   7.831  67.367  1.00  0.00    -0.345 C  
BRANCH  11  12
HETATM   12  C   UNL     1      -9.669   7.162  68.278  1.00  0.00    -0.148 C  
BRANCH  12  13
HETATM   13  C   UNL     1     -10.271   6.727  69.622  1.00  0.00    -0.207 C  
HETATM   14  C   UNL     1      -9.897   5.307  70.073  1.00  0.00    -0.218 C  
HETATM   15  C   UNL     1     -10.110   5.348  71.580  1.00  0.00    -0.259 C  
HETATM   16  O   UNL     1      -8.526   5.018  69.822  1.00  0.00    -0.086 OA 
HETATM   17  H   UNL     1      -8.295   4.141  70.101  1.00  0.00     0.000 HD 
HETATM   18  C   UNL     1      -9.537   6.705  71.982  1.00  0.00    -0.148 C  
HETATM   19  O   UNL     1      -8.134   6.582  72.228  1.00  0.00    -0.106 OA 
HETATM   20  C   UNL     1      -9.764   7.639  70.771  1.00  0.00    -0.173 C  
HETATM   21  H   UNL     1      -7.777   7.427  72.478  1.00  0.00     0.000 HD 
BRANCH  20  22
HETATM   22  C   UNL     1     -10.750   8.741  71.094  1.00  0.00    -0.316 C  
HETATM   23  C   UNL     1     -12.081   8.555  71.125  1.00  0.00    -0.283 C  
BRANCH  23  24
HETATM   24  C   UNL     1     -13.145   9.600  71.343  1.00  0.00    -0.385 C  
HETATM   25  H   UNL     1     -14.571   9.959  72.652  1.00  0.00     0.000 HD 
HETATM   26  O   UNL     1     -13.901   9.301  72.515  1.00  0.00    -0.468 OA 
BRANCH  24  27
HETATM   27  C   UNL     1     -12.574  11.014  71.506  1.00  0.00    -0.461 C  
BRANCH  27  28
HETATM   28  C   UNL     1     -12.383  11.754  70.179  1.00  0.00    -0.272 C  
BRANCH  28  29
HETATM   29  C   UNL     1     -12.192  13.234  70.397  1.00  0.00    -0.404 A  
HETATM   30  C   UNL     1     -11.379  13.976  69.530  1.00  0.00    -0.298 A  
HETATM   31  C   UNL     1     -11.164  15.336  69.753  1.00  0.00    -0.300 A  
HETATM   32  C   UNL     1     -11.759  15.966  70.844  1.00  0.00    -0.456 A  
HETATM   33  C   UNL     1     -12.573  15.237  71.709  1.00  0.00    -0.434 A  
HETATM   34  C   UNL     1     -12.789  13.877  71.489  1.00  0.00    -0.441 A  
ENDBRANCH  28  29
ENDBRANCH  27  28
ENDBRANCH  24  27
ENDBRANCH  23  24
ENDBRANCH  20  22
ENDBRANCH  12  13
ENDBRANCH  11  12
ENDBRANCH   9  10
ENDBRANCH   8   9
ENDBRANCH   7   8
ENDBRANCH   4   7
ENDBRANCH   2   3
TORSDOF 12
ENDMDL
MODEL      101
REMARK 921   NORMALIZED FREE ENERGY PREDICTED BY IDOCK:   -5.29 KCAL/MOL
REMARK 922        TOTAL FREE ENERGY PREDICTED BY IDOCK:  -11.84 KCAL/MOL
REMARK 923 INTER-LIGAND FREE ENERGY PREDICTED BY IDOCK:   -9.17 KCAL/MOL
REMARK 924 INTRA-LIGAND FREE ENERGY PREDICTED BY IDOCK:   -2.66 KCAL/MOL
REMARK 927      BINDING AFFINITY PREDICTED BY RF-SCORE:    0.00 PKD
ROOT
HETATM    1  C   UNL     1     -14.411   7.932  71.692  1.00  0.00    -0.595 C  
HETATM    2  C   UNL     1     -13.389   9.035  71.889  1.00  0.00    -0.417 C  
ENDROOT
BRANCH   2   3
HETATM    3  N   UNL     1     -12.985   9.618  70.629  1.00  0.00    -0.556 N  
HETATM    4  C   UNL     1     -12.670  10.955  70.533  1.00  0.00    -0.280 C  
HETATM    5  H   UNL     1     -12.934   9.029  69.798  1.00  0.00     0.000 HD 
HETATM    6  O   UNL     1     -12.718  11.726  71.482  1.00  0.00    -0.358 OA 
BRANCH   4   7
HETATM    7  C   UNL     1     -12.244  11.372  69.139  1.00  0.00    -0.242 C  
BRANCH   7   8
HETATM    8  C   UNL     1     -10.722  11.312  68.987  1.00  0.00    -0.257 C  
BRANCH   8   9
HETATM    9  C   UNL     1     -10.083  12.669  68.694  1.00  0.00    -0.131 C  
BRANCH   9  10
HETATM   10  C   UNL     1     -11.098  13.775  68.641  1.00  0.00    -0.293 C  
HETATM   11  C   UNL     1     -11.521  14.437  67.553  1.00  0.00    -0.370 C  
BRANCH  11  12
HETATM   12  C   UNL     1     -11.049  14.242  66.138  1.00  0.00    -0.324 C  
BRANCH  12  13
HETATM   13  C   UNL     1     -11.549  12.938  65.501  1.00  0.00    -0.395 C  
HETATM   14  C   UNL     1     -12.636  13.112  64.430  1.00  0.00    -0.245 C  
HETATM   15  C   UNL     1     -12.528  11.836  63.606  1.00  0.00    -0.482 C  
HETATM   16  O   UNL     1     -12.364  14.220  63.578  1.00  0.00    -1.080 OA 
HETATM   17  H   UNL     1     -13.037  14.328  62.916  1.00  0.00     0.000 HD 
HETATM   18  C   UNL     1     -11.022  11.628  63.472  1.00  0.00    -0.407 C  
HETATM   19  O   UNL     1     -10.534  12.349  62.338  1.00  0.00     0.390 OA 
HETATM   20  C   UNL     1     -10.395  12.213  64.758  1.00  0.00    -0.320 C  
HETATM   21  H   UNL     1      -9.597  12.220  62.255  1.00  0.00     0.000 HD 
BRANCH  20  22
HETATM   22  C   UNL     1      -9.765  11.134  65.612  1.00  0.00    -0.267 C  
HETATM   23  C   UNL     1      -9.331   9.961  65.118  1.00  0.00    -0.317 C  
BRANCH  23  24
HETATM   24  C   UNL     1      -8.777   8.792  65.892  1.00  0.00    -0.170 C  
HETATM   25  H   UNL     1      -7.015   8.174  66.513  1.00  0.00     0.000 HD 
HETATM   26  O   UNL     1      -7.364   8.911  66.025  1.00  0.00    -0.087 OA 
BRANCH  24  27
HETATM   27  C   UNL     1      -9.369   8.670  67.302  1.00  0.00    -0.186 C  
BRANCH  27  28
HETATM   28  C   UNL     1      -9.867   7.262  67.638  1.00  0.00    -0.189 C  
BRANCH  28  29
HETATM   29  C   UNL     1     -10.140   7.111  69.114  1.00  0.00    -0.183 A  
HETATM   30  C   UNL     1      -9.464   7.915  70.041  1.00  0.00    -0.157 A  
HETATM   31  C   UNL     1      -9.680   7.749  71.410  1.00  0.00    -0.194 A  
HETATM   32  C   UNL     1     -10.571   6.779  71.862  1.00  0.00    -0.234 A  
HETATM   33  C   UNL     1     -11.251   5.977  70.946  1.00  0.00    -0.335 A  
HETATM   34  C   UNL     1     -11.037   6.141  69.578  1.00  0.00    -0.490 A  
ENDBRANCH  28  29
ENDBRANCH  27  28
ENDBRANCH  24  27
ENDBRANCH  23  24
ENDBRANCH  20  22
ENDBRANCH  12  13
ENDBRANCH  11  12
ENDBRANCH   9  10
ENDBRANCH   8   9
ENDBRANCH   7   8
ENDBRANCH   4   7
ENDBRANCH   2   3
TORSDOF 12
ENDMDL
MODEL      102
REMARK 921   NORMALIZED FREE ENERGY PREDICTED BY IDOCK:   -5.29 KCAL/MOL
REMARK 922        TOTAL FREE ENERGY PREDICTED BY IDOCK:  -11.83 KCAL/MOL
REMARK 923 INTER-LIGAND FREE ENERGY PREDICTED BY IDOCK:   -9.70 KCAL/MOL
REMARK 924 INTRA-LIGAND FREE ENERGY PREDICTED BY IDOCK:   -2.13 KCAL/MOL
REMARK 927      BINDING AFFINITY PREDICTED BY RF-SCORE:    0.00 PKD
ROOT
HETATM    1  C   UNL     1     -13.248   8.789  72.254  1.00  0.00    -0.456 C  
HETATM    2  C   UNL     1     -12.674  10.071  71.679  1.00  0.00    -0.435 C  
ENDROOT
BRANCH   2   3
HETATM    3  N   UNL     1     -13.401  11.233  72.139  1.00  0.00    -0.569 N  
HETATM    4  C   UNL     1     -13.113  12.488  71.653  1.00  0.00    -0.315 C  
HETATM    5  H   UNL     1     -14.137  11.120  72.836  1.00  0.00     0.000 HD 
HETATM    6  O   UNL     1     -12.237  12.704  70.825  1.00  0.00    -0.366 OA 
BRANCH   4   7
HETATM    7  C   UNL     1     -13.997  13.574  72.235  1.00  0.00    -0.638 C  
BRANCH   7   8
HETATM    8  C   UNL     1     -13.158  14.690  72.862  1.00  0.00    -0.609 C  
BRANCH   8   9
HETATM    9  C   UNL     1     -12.881  15.854  71.912  1.00  0.00    -0.455 C  
BRANCH   9  10
HETATM   10  C   UNL     1     -11.440  15.912  71.490  1.00  0.00    -0.484 C  
HETATM   11  C   UNL     1     -10.964  15.988  70.237  1.00  0.00    -0.360 C  
BRANCH  11  12
HETATM   12  C   UNL     1     -11.768  15.999  68.966  1.00  0.00    -0.322 C  
BRANCH  12  13
HETATM   13  C   UNL     1     -10.988  15.490  67.745  1.00  0.00    -0.317 C  
HETATM   14  C   UNL     1     -10.323  16.583  66.895  1.00  0.00    -0.300 C  
HETATM   15  C   UNL     1      -9.214  15.838  66.166  1.00  0.00    -0.385 C  
HETATM   16  O   UNL     1      -9.728  17.591  67.705  1.00  0.00    -0.265 OA 
HETATM   17  H   UNL     1      -9.317  18.267  67.179  1.00  0.00     0.000 HD 
HETATM   18  C   UNL     1      -8.635  14.923  67.242  1.00  0.00    -0.213 C  
HETATM   19  O   UNL     1      -7.625  15.619  67.975  1.00  0.00    -0.117 OA 
HETATM   20  C   UNL     1      -9.810  14.581  68.188  1.00  0.00    -0.223 C  
HETATM   21  H   UNL     1      -7.265  15.049  68.645  1.00  0.00     0.000 HD 
BRANCH  20  22
HETATM   22  C   UNL     1     -10.172  13.113  68.120  1.00  0.00    -0.239 C  
HETATM   23  C   UNL     1     -10.056  12.375  67.002  1.00  0.00    -0.223 C  
BRANCH  23  24
HETATM   24  C   UNL     1     -10.473  10.940  66.807  1.00  0.00    -0.251 C  
HETATM   25  H   UNL     1      -9.651   9.269  66.170  1.00  0.00     0.000 HD 
HETATM   26  O   UNL     1      -9.387  10.174  66.293  1.00  0.00    -0.161 OA 
BRANCH  24  27
HETATM   27  C   UNL     1     -10.945  10.270  68.103  1.00  0.00    -0.328 C  
BRANCH  27  28
HETATM   28  C   UNL     1      -9.808   9.643  68.916  1.00  0.00    -0.179 C  
BRANCH  28  29
HETATM   29  C   UNL     1     -10.226   8.326  69.522  1.00  0.00    -0.210 A  
HETATM   30  C   UNL     1      -9.906   8.028  70.853  1.00  0.00    -0.195 A  
HETATM   31  C   UNL     1     -10.251   6.794  71.404  1.00  0.00    -0.216 A  
HETATM   32  C   UNL     1     -10.919   5.847  70.629  1.00  0.00    -0.357 A  
HETATM   33  C   UNL     1     -11.246   6.137  69.305  1.00  0.00    -0.438 A  
HETATM   34  C   UNL     1     -10.901   7.370  68.752  1.00  0.00    -0.077 A  
ENDBRANCH  28  29
ENDBRANCH  27  28
ENDBRANCH  24  27
ENDBRANCH  23  24
ENDBRANCH  20  22
ENDBRANCH  12  13
ENDBRANCH  11  12
ENDBRANCH   9  10
ENDBRANCH   8   9
ENDBRANCH   7   8
ENDBRANCH   4   7
ENDBRANCH   2   3
TORSDOF 12
ENDMDL
MODEL      103
REMARK 921   NORMALIZED FREE ENERGY PREDICTED BY IDOCK:   -5.27 KCAL/MOL
REMARK 922        TOTAL FREE ENERGY PREDICTED BY IDOCK:  -11.81 KCAL/MOL
REMARK 923 INTER-LIGAND FREE ENERGY PREDICTED BY IDOCK:   -8.92 KCAL/MOL
REMARK 924 INTRA-LIGAND FREE ENERGY PREDICTED BY IDOCK:   -2.89 KCAL/MOL
REMARK 927      BINDING AFFINITY PREDICTED BY RF-SCORE:    0.00 PKD
ROOT
HETATM    1  C   UNL     1     -11.833  12.629  63.435  1.00  0.00    -0.594 C  
HETATM    2  C   UNL     1     -12.650  12.859  64.692  1.00  0.00    -0.391 C  
ENDROOT
BRANCH   2   3
HETATM    3  N   UNL     1     -11.975  12.350  65.865  1.00  0.00    -0.416 N  
HETATM    4  C   UNL     1     -11.779  13.144  66.973  1.00  0.00    -0.377 C  
HETATM    5  H   UNL     1     -11.638  11.387  65.872  1.00  0.00     0.000 HD 
HETATM    6  O   UNL     1     -12.144  14.311  67.036  1.00  0.00    -0.425 OA 
BRANCH   4   7
HETATM    7  C   UNL     1     -11.079  12.427  68.109  1.00  0.00    -0.288 C  
BRANCH   7   8
HETATM    8  C   UNL     1     -12.028  11.456  68.816  1.00  0.00    -0.353 C  
BRANCH   8   9
HETATM    9  C   UNL     1     -11.336  10.566  69.848  1.00  0.00    -0.380 C  
BRANCH   9  10
HETATM   10  C   UNL     1     -12.118  10.467  71.127  1.00  0.00    -0.473 C  
HETATM   11  C   UNL     1     -12.570   9.349  71.717  1.00  0.00    -0.470 C  
BRANCH  11  12
HETATM   12  C   UNL     1     -12.424   7.940  71.212  1.00  0.00    -0.283 C  
BRANCH  12  13
HETATM   13  C   UNL     1     -10.992   7.397  71.323  1.00  0.00    -0.263 C  
HETATM   14  C   UNL     1     -10.307   7.640  72.676  1.00  0.00    -0.275 C  
HETATM   15  C   UNL     1      -9.226   6.570  72.722  1.00  0.00    -0.143 C  
HETATM   16  O   UNL     1     -11.199   7.423  73.765  1.00  0.00    -0.530 OA 
HETATM   17  H   UNL     1     -10.775   7.574  74.602  1.00  0.00     0.000 HD 
HETATM   18  C   UNL     1      -9.929   5.333  72.169  1.00  0.00    -0.184 C  
HETATM   19  O   UNL     1     -10.595   4.642  73.229  1.00  0.00    -0.180 OA 
HETATM   20  C   UNL     1     -10.977   5.854  71.160  1.00  0.00    -0.327 C  
HETATM   21  H   UNL     1     -11.033   3.872  72.884  1.00  0.00     0.000 HD 
BRANCH  20  22
HETATM   22  C   UNL     1     -10.641   5.440  69.743  1.00  0.00    -0.347 C  
HETATM   23  C   UNL     1      -9.685   6.033  69.007  1.00  0.00    -0.161 C  
BRANCH  23  24
HETATM   24  C   UNL     1      -9.339   5.759  67.566  1.00  0.00    -0.111 C  
HETATM   25  H   UNL     1      -9.326   4.210  66.352  1.00  0.00     0.000 HD 
HETATM   26  O   UNL     1      -9.545   4.382  67.260  1.00  0.00    -0.165 OA 
BRANCH  24  27
HETATM   27  C   UNL     1     -10.174   6.585  66.580  1.00  0.00    -0.209 C  
BRANCH  27  28
HETATM   28  C   UNL     1     -10.652   7.922  67.153  1.00  0.00    -0.383 C  
BRANCH  28  29
HETATM   29  C   UNL     1      -9.674   9.031  66.852  1.00  0.00    -0.260 A  
HETATM   30  C   UNL     1      -8.734   9.422  67.814  1.00  0.00    -0.116 A  
HETATM   31  C   UNL     1      -7.856  10.476  67.558  1.00  0.00    -0.106 A  
HETATM   32  C   UNL     1      -7.913  11.148  66.338  1.00  0.00    -0.147 A  
HETATM   33  C   UNL     1      -8.842  10.763  65.374  1.00  0.00    -0.202 A  
HETATM   34  C   UNL     1      -9.720   9.710  65.628  1.00  0.00    -0.363 A  
ENDBRANCH  28  29
ENDBRANCH  27  28
ENDBRANCH  24  27
ENDBRANCH  23  24
ENDBRANCH  20  22
ENDBRANCH  12  13
ENDBRANCH  11  12
ENDBRANCH   9  10
ENDBRANCH   8   9
ENDBRANCH   7   8
ENDBRANCH   4   7
ENDBRANCH   2   3
TORSDOF 12
ENDMDL
MODEL      104
REMARK 921   NORMALIZED FREE ENERGY PREDICTED BY IDOCK:   -5.26 KCAL/MOL
REMARK 922        TOTAL FREE ENERGY PREDICTED BY IDOCK:  -11.78 KCAL/MOL
REMARK 923 INTER-LIGAND FREE ENERGY PREDICTED BY IDOCK:   -9.49 KCAL/MOL
REMARK 924 INTRA-LIGAND FREE ENERGY PREDICTED BY IDOCK:   -2.29 KCAL/MOL
REMARK 927      BINDING AFFINITY PREDICTED BY RF-SCORE:    0.00 PKD
ROOT
HETATM    1  C   UNL     1     -12.664  10.236  70.872  1.00  0.00    -0.462 C  
HETATM    2  C   UNL     1     -13.158  11.349  71.779  1.00  0.00    -0.418 C  
ENDROOT
BRANCH   2   3
HETATM    3  N   UNL     1     -12.827  12.652  71.249  1.00  0.00    -0.319 N  
HETATM    4  C   UNL     1     -13.458  13.787  71.708  1.00  0.00    -0.376 C  
HETATM    5  H   UNL     1     -12.114  12.733  70.524  1.00  0.00     0.000 HD 
HETATM    6  O   UNL     1     -14.330  13.769  72.568  1.00  0.00    -0.696 OA 
BRANCH   4   7
HETATM    7  C   UNL     1     -12.958  15.059  71.053  1.00  0.00    -0.466 C  
BRANCH   7   8
HETATM    8  C   UNL     1     -11.813  14.764  70.081  1.00  0.00    -0.360 C  
BRANCH   8   9
HETATM    9  C   UNL     1     -10.932  15.978  69.788  1.00  0.00    -0.334 C  
BRANCH   9  10
HETATM   10  C   UNL     1     -11.112  16.484  68.385  1.00  0.00    -0.333 C  
HETATM   11  C   UNL     1     -10.436  17.479  67.788  1.00  0.00    -0.381 C  
BRANCH  11  12
HETATM   12  C   UNL     1      -9.363  18.336  68.402  1.00  0.00    -0.328 C  
BRANCH  12  13
HETATM   13  C   UNL     1      -7.987  18.155  67.746  1.00  0.00    -0.238 C  
HETATM   14  C   UNL     1      -7.051  19.368  67.853  1.00  0.00    -0.256 C  
HETATM   15  C   UNL     1      -5.666  18.763  67.671  1.00  0.00    -0.180 C  
HETATM   16  O   UNL     1      -7.112  19.969  69.142  1.00  0.00    -0.287 OA 
HETATM   17  H   UNL     1      -6.533  20.719  69.208  1.00  0.00     0.000 HD 
HETATM   18  C   UNL     1      -5.730  17.479  68.494  1.00  0.00    -0.157 C  
HETATM   19  O   UNL     1      -5.381  17.758  69.851  1.00  0.00    -0.193 OA 
HETATM   20  C   UNL     1      -7.200  17.005  68.430  1.00  0.00    -0.202 C  
HETATM   21  H   UNL     1      -5.421  16.958  70.363  1.00  0.00     0.000 HD 
BRANCH  20  22
HETATM   22  C   UNL     1      -7.334  15.701  67.673  1.00  0.00    -0.190 C  
HETATM   23  C   UNL     1      -7.630  14.531  68.264  1.00  0.00    -0.121 C  
BRANCH  23  24
HETATM   24  C   UNL     1      -7.695  13.171  67.619  1.00  0.00    -0.168 C  
HETATM   25  H   UNL     1      -6.826  11.419  67.847  1.00  0.00     0.000 HD 
HETATM   26  O   UNL     1      -6.785  12.277  68.254  1.00  0.00    -0.056 OA 
BRANCH  24  27
HETATM   27  C   UNL     1      -9.091  12.540  67.686  1.00  0.00    -0.187 C  
BRANCH  27  28
HETATM   28  C   UNL     1     -10.205  13.463  67.185  1.00  0.00    -0.247 C  
BRANCH  28  29
HETATM   29  C   UNL     1     -10.852  12.918  65.936  1.00  0.00    -0.294 A  
HETATM   30  C   UNL     1     -10.130  12.079  65.077  1.00  0.00    -0.293 A  
HETATM   31  C   UNL     1     -10.709  11.608  63.898  1.00  0.00    -0.459 A  
HETATM   32  C   UNL     1     -12.013  11.972  63.568  1.00  0.00    -0.605 A  
HETATM   33  C   UNL     1     -12.740  12.803  64.419  1.00  0.00    -0.370 A  
HETATM   34  C   UNL     1     -12.163  13.275  65.598  1.00  0.00    -0.514 A  
ENDBRANCH  28  29
ENDBRANCH  27  28
ENDBRANCH  24  27
ENDBRANCH  23  24
ENDBRANCH  20  22
ENDBRANCH  12  13
ENDBRANCH  11  12
ENDBRANCH   9  10
ENDBRANCH   8   9
ENDBRANCH   7   8
ENDBRANCH   4   7
ENDBRANCH   2   3
TORSDOF 12
ENDMDL
MODEL      105
REMARK 921   NORMALIZED FREE ENERGY PREDICTED BY IDOCK:   -5.25 KCAL/MOL
REMARK 922        TOTAL FREE ENERGY PREDICTED BY IDOCK:  -11.77 KCAL/MOL
REMARK 923 INTER-LIGAND FREE ENERGY PREDICTED BY IDOCK:   -9.59 KCAL/MOL
REMARK 924 INTRA-LIGAND FREE ENERGY PREDICTED BY IDOCK:   -2.19 KCAL/MOL
REMARK 927      BINDING AFFINITY PREDICTED BY RF-SCORE:    0.00 PKD
ROOT
HETATM    1  C   UNL     1     -11.747  15.075  69.519  1.00  0.00    -0.350 C  
HETATM    2  C   UNL     1     -12.213  14.285  70.728  1.00  0.00    -0.353 C  
ENDROOT
BRANCH   2   3
HETATM    3  N   UNL     1     -12.090  12.861  70.512  1.00  0.00    -0.497 N  
HETATM    4  C   UNL     1     -12.787  11.962  71.288  1.00  0.00    -0.290 C  
HETATM    5  H   UNL     1     -11.477  12.516  69.774  1.00  0.00     0.000 HD 
HETATM    6  O   UNL     1     -13.533  12.298  72.199  1.00  0.00    -0.509 OA 
BRANCH   4   7
HETATM    7  C   UNL     1     -12.549  10.518  70.894  1.00  0.00    -0.493 C  
BRANCH   7   8
HETATM    8  C   UNL     1     -13.073   9.561  71.969  1.00  0.00    -0.528 C  
BRANCH   8   9
HETATM    9  C   UNL     1     -12.166   8.354  72.207  1.00  0.00    -0.449 C  
BRANCH   9  10
HETATM   10  C   UNL     1     -12.502   7.204  71.301  1.00  0.00    -0.425 C  
HETATM   11  C   UNL     1     -11.642   6.370  70.696  1.00  0.00    -0.412 C  
BRANCH  11  12
HETATM   12  C   UNL     1     -10.140   6.419  70.762  1.00  0.00    -0.220 C  
BRANCH  12  13
HETATM   13  C   UNL     1      -9.481   6.768  69.420  1.00  0.00    -0.147 C  
HETATM   14  C   UNL     1      -9.003   5.563  68.596  1.00  0.00    -0.114 C  
HETATM   15  C   UNL     1      -8.945   6.107  67.175  1.00  0.00    -0.111 C  
HETATM   16  O   UNL     1      -9.944   4.496  68.629  1.00  0.00    -0.132 OA 
HETATM   17  H   UNL     1      -9.649   3.751  68.120  1.00  0.00     0.000 HD 
HETATM   18  C   UNL     1     -10.214   6.948  67.066  1.00  0.00    -0.248 C  
HETATM   19  O   UNL     1     -11.307   6.122  66.658  1.00  0.00    -0.727 OA 
HETATM   20  C   UNL     1     -10.488   7.493  68.487  1.00  0.00    -0.211 C  
HETATM   21  H   UNL     1     -12.097   6.646  66.590  1.00  0.00     0.000 HD 
BRANCH  20  22
HETATM   22  C   UNL     1     -10.331   8.997  68.547  1.00  0.00    -0.233 C  
HETATM   23  C   UNL     1     -10.775   9.825  67.585  1.00  0.00    -0.334 C  
BRANCH  23  24
HETATM   24  C   UNL     1     -10.589  11.319  67.507  1.00  0.00    -0.218 C  
HETATM   25  H   UNL     1     -10.003  12.767  68.703  1.00  0.00     0.000 HD 
HETATM   26  O   UNL     1     -10.120  11.826  68.753  1.00  0.00    -0.206 OA 
BRANCH  24  27
HETATM   27  C   UNL     1      -9.587  11.743  66.426  1.00  0.00    -0.234 C  
BRANCH  27  28
HETATM   28  C   UNL     1      -9.244  13.235  66.460  1.00  0.00    -0.182 C  
BRANCH  28  29
HETATM   29  C   UNL     1     -10.205  14.039  65.620  1.00  0.00    -0.351 A  
HETATM   30  C   UNL     1     -10.118  15.437  65.592  1.00  0.00    -0.406 A  
HETATM   31  C   UNL     1     -11.032  16.188  64.852  1.00  0.00    -0.364 A  
HETATM   32  C   UNL     1     -12.040  15.548  64.134  1.00  0.00    -0.058 A  
HETATM   33  C   UNL     1     -12.131  14.157  64.152  1.00  0.00    -0.437 A  
HETATM   34  C   UNL     1     -11.219  13.405  64.891  1.00  0.00    -0.347 A  
ENDBRANCH  28  29
ENDBRANCH  27  28
ENDBRANCH  24  27
ENDBRANCH  23  24
ENDBRANCH  20  22
ENDBRANCH  12  13
ENDBRANCH  11  12
ENDBRANCH   9  10
ENDBRANCH   8   9
ENDBRANCH   7   8
ENDBRANCH   4   7
ENDBRANCH   2   3
TORSDOF 12
ENDMDL
MODEL      106
REMARK 921   NORMALIZED FREE ENERGY PREDICTED BY IDOCK:   -5.24 KCAL/MOL
REMARK 922        TOTAL FREE ENERGY PREDICTED BY IDOCK:  -11.76 KCAL/MOL
REMARK 923 INTER-LIGAND FREE ENERGY PREDICTED BY IDOCK:   -8.90 KCAL/MOL
REMARK 924 INTRA-LIGAND FREE ENERGY PREDICTED BY IDOCK:   -2.86 KCAL/MOL
REMARK 927      BINDING AFFINITY PREDICTED BY RF-SCORE:    0.00 PKD
ROOT
HETATM    1  C   UNL     1     -12.294  15.329  73.872  1.00  0.00    -0.756 C  
HETATM    2  C   UNL     1     -12.290  16.162  72.603  1.00  0.00    -0.487 C  
ENDROOT
BRANCH   2   3
HETATM    3  N   UNL     1     -11.520  15.531  71.555  1.00  0.00    -0.394 N  
HETATM    4  C   UNL     1     -12.099  14.625  70.695  1.00  0.00    -0.317 C  
HETATM    5  H   UNL     1     -10.531  15.761  71.452  1.00  0.00     0.000 HD 
HETATM    6  O   UNL     1     -13.275  14.291  70.763  1.00  0.00    -0.328 OA 
BRANCH   4   7
HETATM    7  C   UNL     1     -11.139  14.094  69.649  1.00  0.00    -0.188 C  
BRANCH   7   8
HETATM    8  C   UNL     1     -11.891  13.624  68.400  1.00  0.00    -0.407 C  
BRANCH   8   9
HETATM    9  C   UNL     1     -11.329  12.338  67.796  1.00  0.00    -0.362 C  
BRANCH   9  10
HETATM   10  C   UNL     1      -9.998  11.969  68.385  1.00  0.00    -0.209 C  
HETATM   11  C   UNL     1      -9.675  10.824  69.007  1.00  0.00    -0.201 C  
BRANCH  11  12
HETATM   12  C   UNL     1     -10.587   9.661  69.286  1.00  0.00    -0.236 C  
BRANCH  12  13
HETATM   13  C   UNL     1     -11.214   9.698  70.687  1.00  0.00    -0.385 C  
HETATM   14  C   UNL     1     -12.416  10.642  70.838  1.00  0.00    -0.397 C  
HETATM   15  C   UNL     1     -13.155  10.083  72.046  1.00  0.00    -0.541 C  
HETATM   16  O   UNL     1     -13.283  10.574  69.712  1.00  0.00    -0.497 OA 
HETATM   17  H   UNL     1     -14.026  11.158  69.805  1.00  0.00     0.000 HD 
HETATM   18  C   UNL     1     -13.095   8.573  71.830  1.00  0.00    -0.355 C  
HETATM   19  O   UNL     1     -14.196   8.157  71.019  1.00  0.00    -0.646 OA 
HETATM   20  C   UNL     1     -11.773   8.303  71.075  1.00  0.00    -0.293 C  
HETATM   21  H   UNL     1     -14.158   7.217  70.885  1.00  0.00     0.000 HD 
BRANCH  20  22
HETATM   22  C   UNL     1     -10.796   7.518  71.923  1.00  0.00    -0.264 C  
HETATM   23  C   UNL     1     -10.995   7.255  73.227  1.00  0.00    -0.355 C  
BRANCH  23  24
HETATM   24  C   UNL     1     -10.048   6.567  74.176  1.00  0.00    -0.351 C  
HETATM   25  H   UNL     1      -9.250   4.779  74.379  1.00  0.00     0.000 HD 
HETATM   26  O   UNL     1      -9.847   5.213  73.781  1.00  0.00    -0.147 OA 
BRANCH  24  27
HETATM   27  C   UNL     1      -8.671   7.241  74.244  1.00  0.00    -0.250 C  
BRANCH  27  28
HETATM   28  C   UNL     1      -7.586   6.495  73.461  1.00  0.00    -0.088 C  
BRANCH  28  29
HETATM   29  C   UNL     1      -7.329   7.142  72.123  1.00  0.00    -0.080 A  
HETATM   30  C   UNL     1      -7.125   6.351  70.985  1.00  0.00    -0.070 A  
HETATM   31  C   UNL     1      -6.844   6.943  69.753  1.00  0.00    -0.051 A  
HETATM   32  C   UNL     1      -6.763   8.331  69.650  1.00  0.00    -0.037 A  
HETATM   33  C   UNL     1      -6.970   9.126  70.776  1.00  0.00    -0.097 A  
HETATM   34  C   UNL     1      -7.251   8.536  72.008  1.00  0.00    -0.108 A  
ENDBRANCH  28  29
ENDBRANCH  27  28
ENDBRANCH  24  27
ENDBRANCH  23  24
ENDBRANCH  20  22
ENDBRANCH  12  13
ENDBRANCH  11  12
ENDBRANCH   9  10
ENDBRANCH   8   9
ENDBRANCH   7   8
ENDBRANCH   4   7
ENDBRANCH   2   3
TORSDOF 12
ENDMDL
MODEL      107
REMARK 921   NORMALIZED FREE ENERGY PREDICTED BY IDOCK:   -5.23 KCAL/MOL
REMARK 922        TOTAL FREE ENERGY PREDICTED BY IDOCK:  -11.74 KCAL/MOL
REMARK 923 INTER-LIGAND FREE ENERGY PREDICTED BY IDOCK:   -9.64 KCAL/MOL
REMARK 924 INTRA-LIGAND FREE ENERGY PREDICTED BY IDOCK:   -2.10 KCAL/MOL
REMARK 927      BINDING AFFINITY PREDICTED BY RF-SCORE:    0.00 PKD
ROOT
HETATM    1  C   UNL     1     -10.214  19.827  68.691  1.00  0.00    -0.515 C  
HETATM    2  C   UNL     1     -10.435  18.708  67.690  1.00  0.00    -0.423 C  
ENDROOT
BRANCH   2   3
HETATM    3  N   UNL     1     -10.035  17.427  68.228  1.00  0.00    -0.301 N  
HETATM    4  C   UNL     1      -9.962  16.311  67.424  1.00  0.00    -0.249 C  
HETATM    5  H   UNL     1      -9.804  17.348  69.218  1.00  0.00     0.000 HD 
HETATM    6  O   UNL     1     -10.234  16.324  66.230  1.00  0.00    -0.296 OA 
BRANCH   4   7
HETATM    7  C   UNL     1      -9.499  15.070  68.161  1.00  0.00    -0.196 C  
BRANCH   7   8
HETATM    8  C   UNL     1     -10.606  14.523  69.067  1.00  0.00    -0.250 C  
BRANCH   8   9
HETATM    9  C   UNL     1     -11.777  13.910  68.301  1.00  0.00    -0.396 C  
BRANCH   9  10
HETATM   10  C   UNL     1     -11.757  12.409  68.341  1.00  0.00    -0.386 C  
HETATM   11  C   UNL     1     -11.274  11.578  67.403  1.00  0.00    -0.367 C  
BRANCH  11  12
HETATM   12  C   UNL     1     -10.672  11.964  66.080  1.00  0.00    -0.318 C  
BRANCH  12  13
HETATM   13  C   UNL     1     -10.285  10.760  65.210  1.00  0.00    -0.351 C  
HETATM   14  C   UNL     1     -10.143  11.060  63.710  1.00  0.00    -0.363 C  
HETATM   15  C   UNL     1      -9.245   9.937  63.209  1.00  0.00    -0.274 C  
HETATM   16  O   UNL     1      -9.482  12.299  63.481  1.00  0.00    -0.663 OA 
HETATM   17  H   UNL     1      -9.394  12.484  62.554  1.00  0.00     0.000 HD 
HETATM   18  C   UNL     1      -8.189   9.813  64.305  1.00  0.00    -0.160 C  
HETATM   19  O   UNL     1      -7.118  10.724  64.049  1.00  0.00    -0.335 OA 
HETATM   20  C   UNL     1      -8.894  10.209  65.623  1.00  0.00    -0.185 C  
HETATM   21  H   UNL     1      -6.461  10.647  64.731  1.00  0.00     0.000 HD 
BRANCH  20  22
HETATM   22  C   UNL     1      -9.010   9.033  66.569  1.00  0.00    -0.177 C  
HETATM   23  C   UNL     1     -10.081   8.221  66.609  1.00  0.00    -0.351 C  
BRANCH  23  24
HETATM   24  C   UNL     1     -10.333   7.087  67.569  1.00  0.00    -0.225 C  
HETATM   25  H   UNL     1     -10.119   5.131  67.584  1.00  0.00     0.000 HD 
HETATM   26  O   UNL     1      -9.960   5.845  66.978  1.00  0.00    -0.138 OA 
BRANCH  24  27
HETATM   27  C   UNL     1      -9.556   7.230  68.884  1.00  0.00    -0.143 C  
BRANCH  27  28
HETATM   28  C   UNL     1     -10.327   6.728  70.108  1.00  0.00    -0.228 C  
BRANCH  28  29
HETATM   29  C   UNL     1     -11.180   7.819  70.706  1.00  0.00    -0.281 A  
HETATM   30  C   UNL     1     -12.332   7.494  71.435  1.00  0.00    -0.374 A  
HETATM   31  C   UNL     1     -13.149   8.500  71.952  1.00  0.00    -0.391 A  
HETATM   32  C   UNL     1     -12.822   9.838  71.744  1.00  0.00    -0.530 A  
HETATM   33  C   UNL     1     -11.676  10.171  71.023  1.00  0.00    -0.470 A  
HETATM   34  C   UNL     1     -10.858   9.167  70.506  1.00  0.00    -0.306 A  
ENDBRANCH  28  29
ENDBRANCH  27  28
ENDBRANCH  24  27
ENDBRANCH  23  24
ENDBRANCH  20  22
ENDBRANCH  12  13
ENDBRANCH  11  12
ENDBRANCH   9  10
ENDBRANCH   8   9
ENDBRANCH   7   8
ENDBRANCH   4   7
ENDBRANCH   2   3
TORSDOF 12
ENDMDL
MODEL      108
REMARK 921   NORMALIZED FREE ENERGY PREDICTED BY IDOCK:   -5.23 KCAL/MOL
REMARK 922        TOTAL FREE ENERGY PREDICTED BY IDOCK:  -11.74 KCAL/MOL
REMARK 923 INTER-LIGAND FREE ENERGY PREDICTED BY IDOCK:   -8.51 KCAL/MOL
REMARK 924 INTRA-LIGAND FREE ENERGY PREDICTED BY IDOCK:   -3.23 KCAL/MOL
REMARK 927      BINDING AFFINITY PREDICTED BY RF-SCORE:    0.00 PKD
ROOT
HETATM    1  C   UNL     1     -10.278  16.236  67.725  1.00  0.00    -0.270 C  
HETATM    2  C   UNL     1     -11.631  16.146  68.407  1.00  0.00    -0.228 C  
ENDROOT
BRANCH   2   3
HETATM    3  N   UNL     1     -11.900  14.807  68.881  1.00  0.00    -0.395 N  
HETATM    4  C   UNL     1     -11.685  14.463  70.196  1.00  0.00    -0.297 C  
HETATM    5  H   UNL     1     -12.254  14.106  68.230  1.00  0.00     0.000 HD 
HETATM    6  O   UNL     1     -11.252  15.245  71.033  1.00  0.00    -0.330 OA 
BRANCH   4   7
HETATM    7  C   UNL     1     -12.050  13.025  70.508  1.00  0.00    -0.373 C  
BRANCH   7   8
HETATM    8  C   UNL     1     -12.132  12.188  69.229  1.00  0.00    -0.234 C  
BRANCH   8   9
HETATM    9  C   UNL     1     -11.751  10.722  69.432  1.00  0.00    -0.378 C  
BRANCH   9  10
HETATM   10  C   UNL     1     -12.468  10.106  70.598  1.00  0.00    -0.372 C  
HETATM   11  C   UNL     1     -11.921   9.438  71.627  1.00  0.00    -0.465 C  
BRANCH  11  12
HETATM   12  C   UNL     1     -10.464   9.126  71.826  1.00  0.00    -0.361 C  
BRANCH  12  13
HETATM   13  C   UNL     1     -10.148   7.625  71.779  1.00  0.00    -0.210 C  
HETATM   14  C   UNL     1      -9.874   6.974  73.143  1.00  0.00    -0.197 C  
HETATM   15  C   UNL     1     -10.162   5.499  72.894  1.00  0.00    -0.214 C  
HETATM   16  O   UNL     1     -10.773   7.444  74.141  1.00  0.00    -0.540 OA 
HETATM   17  H   UNL     1     -10.604   7.041  74.984  1.00  0.00     0.000 HD 
HETATM   18  C   UNL     1     -11.425   5.524  72.039  1.00  0.00    -0.058 C  
HETATM   19  O   UNL     1     -12.579   5.562  72.882  1.00  0.00    -0.470 OA 
HETATM   20  C   UNL     1     -11.353   6.828  71.211  1.00  0.00    -0.333 C  
HETATM   21  H   UNL     1     -13.365   5.578  72.349  1.00  0.00     0.000 HD 
BRANCH  20  22
HETATM   22  C   UNL     1     -11.196   6.543  69.733  1.00  0.00    -0.456 C  
HETATM   23  C   UNL     1     -10.050   6.747  69.060  1.00  0.00    -0.172 C  
BRANCH  23  24
HETATM   24  C   UNL     1      -9.818   6.584  67.580  1.00  0.00    -0.124 C  
HETATM   25  H   UNL     1     -10.912   6.505  65.945  1.00  0.00     0.000 HD 
HETATM   26  O   UNL     1     -11.059   6.608  66.878  1.00  0.00    -0.400 OA 
BRANCH  24  27
HETATM   27  C   UNL     1      -8.927   7.682  66.986  1.00  0.00    -0.148 C  
BRANCH  27  28
HETATM   28  C   UNL     1      -8.725   8.878  67.921  1.00  0.00    -0.129 C  
BRANCH  28  29
HETATM   29  C   UNL     1      -9.176  10.164  67.275  1.00  0.00    -0.154 A  
HETATM   30  C   UNL     1      -8.583  11.381  67.635  1.00  0.00    -0.130 A  
HETATM   31  C   UNL     1      -9.026  12.578  67.073  1.00  0.00    -0.211 A  
HETATM   32  C   UNL     1     -10.067  12.569  66.146  1.00  0.00    -0.265 A  
HETATM   33  C   UNL     1     -10.661  11.363  65.779  1.00  0.00    -0.309 A  
HETATM   34  C   UNL     1     -10.219  10.165  66.340  1.00  0.00    -0.288 A  
ENDBRANCH  28  29
ENDBRANCH  27  28
ENDBRANCH  24  27
ENDBRANCH  23  24
ENDBRANCH  20  22
ENDBRANCH  12  13
ENDBRANCH  11  12
ENDBRANCH   9  10
ENDBRANCH   8   9
ENDBRANCH   7   8
ENDBRANCH   4   7
ENDBRANCH   2   3
TORSDOF 12
ENDMDL
MODEL      109
REMARK 921   NORMALIZED FREE ENERGY PREDICTED BY IDOCK:   -5.23 KCAL/MOL
REMARK 922        TOTAL FREE ENERGY PREDICTED BY IDOCK:  -11.73 KCAL/MOL
REMARK 923 INTER-LIGAND FREE ENERGY PREDICTED BY IDOCK:   -9.46 KCAL/MOL
REMARK 924 INTRA-LIGAND FREE ENERGY PREDICTED BY IDOCK:   -2.28 KCAL/MOL
REMARK 927      BINDING AFFINITY PREDICTED BY RF-SCORE:    0.00 PKD
ROOT
HETATM    1  C   UNL     1     -12.780  15.359  73.749  1.00  0.00    -0.723 C  
HETATM    2  C   UNL     1     -13.721  15.613  72.586  1.00  0.00    -0.579 C  
ENDROOT
BRANCH   2   3
HETATM    3  N   UNL     1     -13.390  14.791  71.444  1.00  0.00    -0.369 N  
HETATM    4  C   UNL     1     -12.368  15.141  70.590  1.00  0.00    -0.368 C  
HETATM    5  H   UNL     1     -13.922  13.939  71.267  1.00  0.00     0.000 HD 
HETATM    6  O   UNL     1     -11.692  16.153  70.730  1.00  0.00    -0.382 OA 
BRANCH   4   7
HETATM    7  C   UNL     1     -12.154  14.144  69.469  1.00  0.00    -0.388 C  
BRANCH   7   8
HETATM    8  C   UNL     1     -11.883  14.857  68.142  1.00  0.00    -0.307 C  
BRANCH   8   9
HETATM    9  C   UNL     1     -11.722  13.904  66.958  1.00  0.00    -0.426 C  
BRANCH   9  10
HETATM   10  C   UNL     1     -11.622  12.470  67.393  1.00  0.00    -0.434 C  
HETATM   11  C   UNL     1     -10.666  11.587  67.065  1.00  0.00    -0.300 C  
BRANCH  11  12
HETATM   12  C   UNL     1      -9.491  11.826  66.157  1.00  0.00    -0.240 C  
BRANCH  12  13
HETATM   13  C   UNL     1      -8.618  10.581  65.947  1.00  0.00    -0.170 C  
HETATM   14  C   UNL     1      -8.553  10.068  64.500  1.00  0.00    -0.187 C  
HETATM   15  C   UNL     1      -7.260   9.266  64.467  1.00  0.00    -0.101 C  
HETATM   16  O   UNL     1      -8.442  11.137  63.567  1.00  0.00    -0.385 OA 
HETATM   17  H   UNL     1      -8.402  10.821  62.672  1.00  0.00     0.000 HD 
HETATM   18  C   UNL     1      -6.286  10.133  65.261  1.00  0.00    -0.118 C  
HETATM   19  O   UNL     1      -5.666  11.084  64.392  1.00  0.00    -0.408 OA 
HETATM   20  C   UNL     1      -7.139  10.879  66.312  1.00  0.00    -0.119 C  
HETATM   21  H   UNL     1      -5.060  11.623  64.887  1.00  0.00     0.000 HD 
BRANCH  20  22
HETATM   22  C   UNL     1      -6.805  10.435  67.720  1.00  0.00    -0.074 C  
HETATM   23  C   UNL     1      -7.413   9.405  68.333  1.00  0.00    -0.078 C  
BRANCH  23  24
HETATM   24  C   UNL     1      -7.220   8.944  69.755  1.00  0.00    -0.055 C  
HETATM   25  H   UNL     1      -5.992   9.329  71.245  1.00  0.00     0.000 HD 
HETATM   26  O   UNL     1      -6.114   9.620  70.349  1.00  0.00    -0.050 OA 
BRANCH  24  27
HETATM   27  C   UNL     1      -8.447   9.195  70.640  1.00  0.00    -0.246 C  
BRANCH  27  28
HETATM   28  C   UNL     1      -9.650   9.754  69.874  1.00  0.00    -0.269 C  
BRANCH  28  29
HETATM   29  C   UNL     1     -10.914   9.665  70.693  1.00  0.00    -0.386 A  
HETATM   30  C   UNL     1     -11.150   8.548  71.506  1.00  0.00    -0.343 A  
HETATM   31  C   UNL     1     -12.337   8.440  72.231  1.00  0.00    -0.436 A  
HETATM   32  C   UNL     1     -13.298   9.447  72.149  1.00  0.00    -0.545 A  
HETATM   33  C   UNL     1     -13.069  10.563  71.346  1.00  0.00    -0.509 A  
HETATM   34  C   UNL     1     -11.883  10.673  70.620  1.00  0.00    -0.463 A  
ENDBRANCH  28  29
ENDBRANCH  27  28
ENDBRANCH  24  27
ENDBRANCH  23  24
ENDBRANCH  20  22
ENDBRANCH  12  13
ENDBRANCH  11  12
ENDBRANCH   9  10
ENDBRANCH   8   9
ENDBRANCH   7   8
ENDBRANCH   4   7
ENDBRANCH   2   3
TORSDOF 12
ENDMDL
MODEL      110
REMARK 921   NORMALIZED FREE ENERGY PREDICTED BY IDOCK:   -5.20 KCAL/MOL
REMARK 922        TOTAL FREE ENERGY PREDICTED BY IDOCK:  -11.68 KCAL/MOL
REMARK 923 INTER-LIGAND FREE ENERGY PREDICTED BY IDOCK:   -9.57 KCAL/MOL
REMARK 924 INTRA-LIGAND FREE ENERGY PREDICTED BY IDOCK:   -2.11 KCAL/MOL
REMARK 927      BINDING AFFINITY PREDICTED BY RF-SCORE:    0.00 PKD
ROOT
HETATM    1  C   UNL     1     -12.245   9.814  71.467  1.00  0.00    -0.493 C  
HETATM    2  C   UNL     1     -13.246  10.938  71.658  1.00  0.00    -0.367 C  
ENDROOT
BRANCH   2   3
HETATM    3  N   UNL     1     -12.715  12.205  71.207  1.00  0.00    -0.330 N  
HETATM    4  C   UNL     1     -13.137  13.391  71.765  1.00  0.00    -0.388 C  
HETATM    5  H   UNL     1     -12.016  12.221  70.464  1.00  0.00     0.000 HD 
HETATM    6  O   UNL     1     -13.979  13.454  72.652  1.00  0.00    -0.755 OA 
BRANCH   4   7
HETATM    7  C   UNL     1     -12.447  14.608  71.181  1.00  0.00    -0.402 C  
BRANCH   7   8
HETATM    8  C   UNL     1     -12.149  14.411  69.693  1.00  0.00    -0.381 C  
BRANCH   8   9
HETATM    9  C   UNL     1     -10.766  13.819  69.420  1.00  0.00    -0.014 C  
BRANCH   9  10
HETATM   10  C   UNL     1      -9.819  14.832  68.845  1.00  0.00    -0.222 C  
HETATM   11  C   UNL     1      -9.177  14.767  67.667  1.00  0.00    -0.191 C  
BRANCH  11  12
HETATM   12  C   UNL     1      -9.237  13.644  66.668  1.00  0.00    -0.225 C  
BRANCH  12  13
HETATM   13  C   UNL     1      -9.972  14.017  65.373  1.00  0.00    -0.292 C  
HETATM   14  C   UNL     1     -10.704  12.856  64.683  1.00  0.00    -0.353 C  
HETATM   15  C   UNL     1     -11.755  13.557  63.833  1.00  0.00    -0.415 C  
HETATM   16  O   UNL     1     -11.371  12.021  65.622  1.00  0.00    -0.333 OA 
HETATM   17  H   UNL     1     -11.824  11.303  65.196  1.00  0.00     0.000 HD 
HETATM   18  C   UNL     1     -12.278  14.658  64.752  1.00  0.00    -0.394 C  
HETATM   19  O   UNL     1     -13.338  14.146  65.563  1.00  0.00    -0.669 OA 
HETATM   20  C   UNL     1     -11.089  15.057  65.657  1.00  0.00    -0.349 C  
HETATM   21  H   UNL     1     -13.663  14.832  66.136  1.00  0.00     0.000 HD 
BRANCH  20  22
HETATM   22  C   UNL     1     -10.627  16.471  65.379  1.00  0.00    -0.293 C  
HETATM   23  C   UNL     1     -10.770  17.480  66.256  1.00  0.00    -0.087 C  
BRANCH  23  24
HETATM   24  C   UNL     1     -10.429  18.933  66.041  1.00  0.00    -0.446 C  
HETATM   25  H   UNL     1     -10.931  20.666  66.827  1.00  0.00     0.000 HD 
HETATM   26  O   UNL     1     -11.146  19.751  66.963  1.00  0.00    -0.371 OA 
BRANCH  24  27
HETATM   27  C   UNL     1      -8.935  19.232  66.217  1.00  0.00    -0.347 C  
BRANCH  27  28
HETATM   28  C   UNL     1      -8.476  19.219  67.678  1.00  0.00    -0.327 C  
BRANCH  28  29
HETATM   29  C   UNL     1      -7.402  18.185  67.908  1.00  0.00    -0.225 A  
HETATM   30  C   UNL     1      -6.879  17.985  69.193  1.00  0.00    -0.226 A  
HETATM   31  C   UNL     1      -5.855  17.061  69.403  1.00  0.00    -0.202 A  
HETATM   32  C   UNL     1      -5.345  16.331  68.331  1.00  0.00    -0.105 A  
HETATM   33  C   UNL     1      -5.862  16.521  67.051  1.00  0.00    -0.140 A  
HETATM   34  C   UNL     1      -6.885  17.444  66.838  1.00  0.00    -0.228 A  
ENDBRANCH  28  29
ENDBRANCH  27  28
ENDBRANCH  24  27
ENDBRANCH  23  24
ENDBRANCH  20  22
ENDBRANCH  12  13
ENDBRANCH  11  12
ENDBRANCH   9  10
ENDBRANCH   8   9
ENDBRANCH   7   8
ENDBRANCH   4   7
ENDBRANCH   2   3
TORSDOF 12
ENDMDL
MODEL      111
REMARK 921   NORMALIZED FREE ENERGY PREDICTED BY IDOCK:   -5.18 KCAL/MOL
REMARK 922        TOTAL FREE ENERGY PREDICTED BY IDOCK:  -11.65 KCAL/MOL
REMARK 923 INTER-LIGAND FREE ENERGY PREDICTED BY IDOCK:   -9.48 KCAL/MOL
REMARK 924 INTRA-LIGAND FREE ENERGY PREDICTED BY IDOCK:   -2.17 KCAL/MOL
REMARK 927      BINDING AFFINITY PREDICTED BY RF-SCORE:    0.00 PKD
ROOT
HETATM    1  C   UNL     1      -6.292  20.367  67.146  1.00  0.00    -0.254 C  
HETATM    2  C   UNL     1      -7.712  20.897  67.085  1.00  0.00    -0.196 C  
ENDROOT
BRANCH   2   3
HETATM    3  N   UNL     1      -8.667  19.911  67.539  1.00  0.00    -0.328 N  
HETATM    4  C   UNL     1      -9.787  19.611  66.795  1.00  0.00    -0.392 C  
HETATM    5  H   UNL     1      -8.510  19.430  68.425  1.00  0.00     0.000 HD 
HETATM    6  O   UNL     1     -10.050  20.153  65.729  1.00  0.00    -0.444 OA 
BRANCH   4   7
HETATM    7  C   UNL     1     -10.653  18.536  67.420  1.00  0.00    -0.463 C  
BRANCH   7   8
HETATM    8  C   UNL     1     -10.111  18.121  68.791  1.00  0.00    -0.392 C  
BRANCH   8   9
HETATM    9  C   UNL     1      -9.961  16.609  68.957  1.00  0.00    -0.280 C  
BRANCH   9  10
HETATM   10  C   UNL     1      -9.015  16.019  67.950  1.00  0.00    -0.186 C  
HETATM   11  C   UNL     1      -9.335  15.389  66.808  1.00  0.00    -0.267 C  
BRANCH  11  12
HETATM   12  C   UNL     1     -10.718  15.101  66.293  1.00  0.00    -0.320 C  
BRANCH  12  13
HETATM   13  C   UNL     1     -11.043  13.602  66.217  1.00  0.00    -0.304 C  
HETATM   14  C   UNL     1     -11.204  13.043  64.796  1.00  0.00    -0.317 C  
HETATM   15  C   UNL     1     -10.943  11.553  64.972  1.00  0.00    -0.305 C  
HETATM   16  O   UNL     1     -10.223  13.567  63.909  1.00  0.00    -0.676 OA 
HETATM   17  H   UNL     1     -10.322  13.221  63.030  1.00  0.00     0.000 HD 
HETATM   18  C   UNL     1      -9.756  11.512  65.930  1.00  0.00    -0.232 C  
HETATM   19  O   UNL     1      -8.535  11.593  65.190  1.00  0.00    -0.245 OA 
HETATM   20  C   UNL     1      -9.892  12.760  66.831  1.00  0.00    -0.236 C  
HETATM   21  H   UNL     1      -7.796  11.568  65.787  1.00  0.00     0.000 HD 
BRANCH  20  22
HETATM   22  C   UNL     1     -10.173  12.383  68.270  1.00  0.00    -0.230 C  
HETATM   23  C   UNL     1     -11.374  12.543  68.853  1.00  0.00    -0.346 C  
BRANCH  23  24
HETATM   24  C   UNL     1     -11.730  12.287  70.295  1.00  0.00    -0.137 C  
HETATM   25  H   UNL     1     -13.010  12.991  71.615  1.00  0.00     0.000 HD 
HETATM   26  O   UNL     1     -12.785  13.153  70.706  1.00  0.00    -0.273 OA 
BRANCH  24  27
HETATM   27  C   UNL     1     -12.185  10.845  70.554  1.00  0.00    -0.459 C  
BRANCH  27  28
HETATM   28  C   UNL     1     -11.043   9.904  70.949  1.00  0.00    -0.418 C  
BRANCH  28  29
HETATM   29  C   UNL     1     -10.959   8.719  70.020  1.00  0.00    -0.216 A  
HETATM   30  C   UNL     1     -11.244   7.431  70.492  1.00  0.00    -0.296 A  
HETATM   31  C   UNL     1     -11.125   6.326  69.649  1.00  0.00    -0.479 A  
HETATM   32  C   UNL     1     -10.720   6.500  68.327  1.00  0.00    -0.341 A  
HETATM   33  C   UNL     1     -10.439   7.778  67.847  1.00  0.00    -0.263 A  
HETATM   34  C   UNL     1     -10.557   8.884  68.689  1.00  0.00    -0.182 A  
ENDBRANCH  28  29
ENDBRANCH  27  28
ENDBRANCH  24  27
ENDBRANCH  23  24
ENDBRANCH  20  22
ENDBRANCH  12  13
ENDBRANCH  11  12
ENDBRANCH   9  10
ENDBRANCH   8   9
ENDBRANCH   7   8
ENDBRANCH   4   7
ENDBRANCH   2   3
TORSDOF 12
ENDMDL
MODEL      112
REMARK 921   NORMALIZED FREE ENERGY PREDICTED BY IDOCK:   -5.16 KCAL/MOL
REMARK 922        TOTAL FREE ENERGY PREDICTED BY IDOCK:  -11.62 KCAL/MOL
REMARK 923 INTER-LIGAND FREE ENERGY PREDICTED BY IDOCK:   -9.99 KCAL/MOL
REMARK 924 INTRA-LIGAND FREE ENERGY PREDICTED BY IDOCK:   -1.63 KCAL/MOL
REMARK 927      BINDING AFFINITY PREDICTED BY RF-SCORE:    0.00 PKD
ROOT
HETATM    1  C   UNL     1      -5.885   6.900  67.130  1.00  0.00    -0.017 C  
HETATM    2  C   UNL     1      -6.312   8.354  67.048  1.00  0.00    -0.057 C  
ENDROOT
BRANCH   2   3
HETATM    3  N   UNL     1      -7.750   8.483  66.983  1.00  0.00    -0.092 N  
HETATM    4  C   UNL     1      -8.349   9.303  66.052  1.00  0.00    -0.113 C  
HETATM    5  H   UNL     1      -8.331   7.960  67.638  1.00  0.00     0.000 HD 
HETATM    6  O   UNL     1      -7.719   9.971  65.241  1.00  0.00    -0.127 OA 
BRANCH   4   7
HETATM    7  C   UNL     1      -9.863   9.286  66.123  1.00  0.00    -0.363 C  
BRANCH   7   8
HETATM    8  C   UNL     1     -10.381  10.360  67.083  1.00  0.00    -0.290 C  
BRANCH   8   9
HETATM    9  C   UNL     1     -10.418  11.760  66.472  1.00  0.00    -0.265 C  
BRANCH   9  10
HETATM   10  C   UNL     1     -11.472  11.888  65.409  1.00  0.00    -0.310 C  
HETATM   11  C   UNL     1     -12.292  12.930  65.200  1.00  0.00    -0.547 C  
BRANCH  11  12
HETATM   12  C   UNL     1     -12.363  14.197  66.007  1.00  0.00    -0.470 C  
BRANCH  12  13
HETATM   13  C   UNL     1     -10.987  14.733  66.427  1.00  0.00    -0.331 C  
HETATM   14  C   UNL     1     -10.160  15.360  65.296  1.00  0.00    -0.319 C  
HETATM   15  C   UNL     1      -9.188  16.272  66.032  1.00  0.00    -0.351 C  
HETATM   16  O   UNL     1     -10.964  16.162  64.438  1.00  0.00    -0.924 OA 
HETATM   17  H   UNL     1     -10.452  16.551  63.738  1.00  0.00     0.000 HD 
HETATM   18  C   UNL     1     -10.056  16.919  67.108  1.00  0.00    -0.287 C  
HETATM   19  O   UNL     1     -10.686  18.089  66.582  1.00  0.00    -0.282 OA 
HETATM   20  C   UNL     1     -11.137  15.874  67.468  1.00  0.00    -0.235 C  
HETATM   21  H   UNL     1     -11.227  18.491  67.252  1.00  0.00     0.000 HD 
BRANCH  20  22
HETATM   22  C   UNL     1     -10.976  15.370  68.886  1.00  0.00    -0.261 C  
HETATM   23  C   UNL     1     -11.939  14.703  69.546  1.00  0.00    -0.361 C  
BRANCH  23  24
HETATM   24  C   UNL     1     -11.913  14.243  70.981  1.00  0.00    -0.303 C  
HETATM   25  H   UNL     1     -12.479  14.938  72.734  1.00  0.00     0.000 HD 
HETATM   26  O   UNL     1     -12.496  15.229  71.829  1.00  0.00    -0.310 OA 
BRANCH  24  27
HETATM   27  C   UNL     1     -12.673  12.929  71.205  1.00  0.00    -0.366 C  
BRANCH  27  28
HETATM   28  C   UNL     1     -12.271  11.816  70.233  1.00  0.00    -0.381 C  
BRANCH  28  29
HETATM   29  C   UNL     1     -12.112  10.495  70.944  1.00  0.00    -0.487 A  
HETATM   30  C   UNL     1     -10.944   9.741  70.779  1.00  0.00    -0.406 A  
HETATM   31  C   UNL     1     -10.811   8.498  71.399  1.00  0.00    -0.327 A  
HETATM   32  C   UNL     1     -11.845   7.999  72.188  1.00  0.00    -0.401 A  
HETATM   33  C   UNL     1     -13.010   8.745  72.361  1.00  0.00    -0.442 A  
HETATM   34  C   UNL     1     -13.145   9.987  71.742  1.00  0.00    -0.562 A  
ENDBRANCH  28  29
ENDBRANCH  27  28
ENDBRANCH  24  27
ENDBRANCH  23  24
ENDBRANCH  20  22
ENDBRANCH  12  13
ENDBRANCH  11  12
ENDBRANCH   9  10
ENDBRANCH   8   9
ENDBRANCH   7   8
ENDBRANCH   4   7
ENDBRANCH   2   3
TORSDOF 12
ENDMDL
MODEL      113
REMARK 921   NORMALIZED FREE ENERGY PREDICTED BY IDOCK:   -5.16 KCAL/MOL
REMARK 922        TOTAL FREE ENERGY PREDICTED BY IDOCK:  -11.62 KCAL/MOL
REMARK 923 INTER-LIGAND FREE ENERGY PREDICTED BY IDOCK:   -9.53 KCAL/MOL
REMARK 924 INTRA-LIGAND FREE ENERGY PREDICTED BY IDOCK:   -2.08 KCAL/MOL
REMARK 927      BINDING AFFINITY PREDICTED BY RF-SCORE:    0.00 PKD
ROOT
HETATM    1  C   UNL     1     -10.013  19.992  66.482  1.00  0.00    -0.603 C  
HETATM    2  C   UNL     1      -9.464  19.420  67.775  1.00  0.00    -0.326 C  
ENDROOT
BRANCH   2   3
HETATM    3  N   UNL     1      -8.984  18.068  67.598  1.00  0.00    -0.250 N  
HETATM    4  C   UNL     1      -9.776  16.986  67.910  1.00  0.00    -0.263 C  
HETATM    5  H   UNL     1      -8.043  17.913  67.235  1.00  0.00     0.000 HD 
HETATM    6  O   UNL     1     -10.910  17.090  68.359  1.00  0.00    -0.367 OA 
BRANCH   4   7
HETATM    7  C   UNL     1      -9.109  15.653  67.631  1.00  0.00    -0.193 C  
BRANCH   7   8
HETATM    8  C   UNL     1     -10.114  14.503  67.732  1.00  0.00    -0.225 C  
BRANCH   8   9
HETATM    9  C   UNL     1     -10.171  13.630  66.479  1.00  0.00    -0.284 C  
BRANCH   9  10
HETATM   10  C   UNL     1     -11.353  12.702  66.488  1.00  0.00    -0.377 C  
HETATM   11  C   UNL     1     -11.391  11.440  66.945  1.00  0.00    -0.284 C  
BRANCH  11  12
HETATM   12  C   UNL     1     -10.246  10.656  67.525  1.00  0.00    -0.236 C  
BRANCH  12  13
HETATM   13  C   UNL     1     -10.592   9.187  67.806  1.00  0.00    -0.289 C  
HETATM   14  C   UNL     1     -10.333   8.222  66.640  1.00  0.00    -0.223 C  
HETATM   15  C   UNL     1     -10.199   6.869  67.324  1.00  0.00    -0.284 C  
HETATM   16  O   UNL     1      -9.106   8.513  65.979  1.00  0.00    -0.175 OA 
HETATM   17  H   UNL     1      -8.945   7.916  65.257  1.00  0.00     0.000 HD 
HETATM   18  C   UNL     1      -9.365   7.180  68.564  1.00  0.00    -0.136 C  
HETATM   19  O   UNL     1      -7.974   7.104  68.242  1.00  0.00    -0.119 OA 
HETATM   20  C   UNL     1      -9.720   8.630  68.964  1.00  0.00    -0.173 C  
HETATM   21  H   UNL     1      -7.455   7.298  69.014  1.00  0.00     0.000 HD 
BRANCH  20  22
HETATM   22  C   UNL     1     -10.444   8.683  70.292  1.00  0.00    -0.229 C  
HETATM   23  C   UNL     1     -11.774   8.844  70.401  1.00  0.00    -0.055 C  
BRANCH  23  24
HETATM   24  C   UNL     1     -12.574   9.001  71.669  1.00  0.00    -0.348 C  
HETATM   25  H   UNL     1     -12.331   8.631  73.587  1.00  0.00     0.000 HD 
HETATM   26  O   UNL     1     -11.826   8.532  72.788  1.00  0.00    -0.326 OA 
BRANCH  24  27
HETATM   27  C   UNL     1     -12.973  10.455  71.952  1.00  0.00    -0.555 C  
BRANCH  27  28
HETATM   28  C   UNL     1     -12.318  11.464  71.005  1.00  0.00    -0.448 C  
BRANCH  28  29
HETATM   29  C   UNL     1     -12.839  12.860  71.243  1.00  0.00    -0.361 A  
HETATM   30  C   UNL     1     -13.716  13.114  72.306  1.00  0.00    -0.647 A  
HETATM   31  C   UNL     1     -14.236  14.394  72.503  1.00  0.00    -0.323 A  
HETATM   32  C   UNL     1     -13.883  15.429  71.640  1.00  0.00    -0.606 A  
HETATM   33  C   UNL     1     -13.008  15.187  70.583  1.00  0.00    -0.420 A  
HETATM   34  C   UNL     1     -12.488  13.908  70.384  1.00  0.00    -0.404 A  
ENDBRANCH  28  29
ENDBRANCH  27  28
ENDBRANCH  24  27
ENDBRANCH  23  24
ENDBRANCH  20  22
ENDBRANCH  12  13
ENDBRANCH  11  12
ENDBRANCH   9  10
ENDBRANCH   8   9
ENDBRANCH   7   8
ENDBRANCH   4   7
ENDBRANCH   2   3
TORSDOF 12
ENDMDL
MODEL      114
REMARK 921   NORMALIZED FREE ENERGY PREDICTED BY IDOCK:   -5.13 KCAL/MOL
REMARK 922        TOTAL FREE ENERGY PREDICTED BY IDOCK:  -11.57 KCAL/MOL
REMARK 923 INTER-LIGAND FREE ENERGY PREDICTED BY IDOCK:   -9.25 KCAL/MOL
REMARK 924 INTRA-LIGAND FREE ENERGY PREDICTED BY IDOCK:   -2.32 KCAL/MOL
REMARK 927      BINDING AFFINITY PREDICTED BY RF-SCORE:    0.00 PKD
ROOT
HETATM    1  C   UNL     1     -12.068  10.424  71.145  1.00  0.00    -0.487 C  
HETATM    2  C   UNL     1     -10.780   9.666  70.885  1.00  0.00    -0.332 C  
ENDROOT
BRANCH   2   3
HETATM    3  N   UNL     1     -10.001  10.284  69.836  1.00  0.00    -0.399 N  
HETATM    4  C   UNL     1      -8.630  10.168  69.807  1.00  0.00    -0.128 C  
HETATM    5  H   UNL     1     -10.476  10.815  69.105  1.00  0.00     0.000 HD 
HETATM    6  O   UNL     1      -7.989   9.558  70.654  1.00  0.00    -0.176 OA 
BRANCH   4   7
HETATM    7  C   UNL     1      -7.993  10.860  68.618  1.00  0.00    -0.140 C  
BRANCH   7   8
HETATM    8  C   UNL     1      -6.713  11.593  69.027  1.00  0.00    -0.100 C  
BRANCH   8   9
HETATM    9  C   UNL     1      -6.846  13.115  69.000  1.00  0.00    -0.090 C  
BRANCH   9  10
HETATM   10  C   UNL     1      -7.244  13.626  67.645  1.00  0.00    -0.179 C  
HETATM   11  C   UNL     1      -8.308  14.389  67.346  1.00  0.00    -0.216 C  
BRANCH  11  12
HETATM   12  C   UNL     1      -9.363  14.878  68.298  1.00  0.00    -0.195 C  
BRANCH  12  13
HETATM   13  C   UNL     1     -10.218  16.020  67.730  1.00  0.00    -0.260 C  
HETATM   14  C   UNL     1     -10.021  17.382  68.411  1.00  0.00    -0.329 C  
HETATM   15  C   UNL     1     -10.491  18.375  67.357  1.00  0.00    -0.443 C  
HETATM   16  O   UNL     1      -8.649  17.639  68.688  1.00  0.00    -0.290 OA 
HETATM   17  H   UNL     1      -8.527  18.481  69.110  1.00  0.00     0.000 HD 
HETATM   18  C   UNL     1      -9.910  17.817  66.061  1.00  0.00    -0.168 C  
HETATM   19  O   UNL     1      -8.583  18.313  65.873  1.00  0.00    -0.502 OA 
HETATM   20  C   UNL     1      -9.862  16.282  66.242  1.00  0.00    -0.334 C  
HETATM   21  H   UNL     1      -8.221  17.965  65.066  1.00  0.00     0.000 HD 
BRANCH  20  22
HETATM   22  C   UNL     1     -10.816  15.579  65.300  1.00  0.00    -0.425 C  
HETATM   23  C   UNL     1     -11.725  14.677  65.709  1.00  0.00    -0.302 C  
BRANCH  23  24
HETATM   24  C   UNL     1     -12.651  13.858  64.847  1.00  0.00    -0.347 C  
HETATM   25  H   UNL     1     -13.193  13.800  62.956  1.00  0.00     0.000 HD 
HETATM   26  O   UNL     1     -12.609  14.317  63.499  1.00  0.00    -0.814 OA 
BRANCH  24  27
HETATM   27  C   UNL     1     -12.303  12.364  64.842  1.00  0.00    -0.475 C  
BRANCH  27  28
HETATM   28  C   UNL     1     -11.000  12.036  65.576  1.00  0.00    -0.345 C  
BRANCH  28  29
HETATM   29  C   UNL     1     -10.163  11.050  64.800  1.00  0.00    -0.381 A  
HETATM   30  C   UNL     1      -9.931  11.246  63.432  1.00  0.00    -0.433 A  
HETATM   31  C   UNL     1      -9.195  10.314  62.699  1.00  0.00    -0.318 A  
HETATM   32  C   UNL     1      -8.686   9.179  63.328  1.00  0.00    -0.148 A  
HETATM   33  C   UNL     1      -8.909   8.978  64.689  1.00  0.00    -0.139 A  
HETATM   34  C   UNL     1      -9.644   9.908  65.423  1.00  0.00    -0.350 A  
ENDBRANCH  28  29
ENDBRANCH  27  28
ENDBRANCH  24  27
ENDBRANCH  23  24
ENDBRANCH  20  22
ENDBRANCH  12  13
ENDBRANCH  11  12
ENDBRANCH   9  10
ENDBRANCH   8   9
ENDBRANCH   7   8
ENDBRANCH   4   7
ENDBRANCH   2   3
TORSDOF 12
ENDMDL
MODEL      115
REMARK 921   NORMALIZED FREE ENERGY PREDICTED BY IDOCK:   -5.13 KCAL/MOL
REMARK 922        TOTAL FREE ENERGY PREDICTED BY IDOCK:  -11.56 KCAL/MOL
REMARK 923 INTER-LIGAND FREE ENERGY PREDICTED BY IDOCK:   -9.64 KCAL/MOL
REMARK 924 INTRA-LIGAND FREE ENERGY PREDICTED BY IDOCK:   -1.92 KCAL/MOL
REMARK 927      BINDING AFFINITY PREDICTED BY RF-SCORE:    0.00 PKD
ROOT
HETATM    1  C   UNL     1     -11.056   6.838  67.290  1.00  0.00    -0.394 C  
HETATM    2  C   UNL     1     -10.062   5.968  66.544  1.00  0.00    -0.137 C  
ENDROOT
BRANCH   2   3
HETATM    3  N   UNL     1      -9.388   6.707  65.500  1.00  0.00    -0.311 N  
HETATM    4  C   UNL     1      -8.061   7.057  65.621  1.00  0.00    -0.129 C  
HETATM    5  H   UNL     1      -9.902   6.974  64.661  1.00  0.00     0.000 HD 
HETATM    6  O   UNL     1      -7.380   6.782  66.601  1.00  0.00    -0.071 OA 
BRANCH   4   7
HETATM    7  C   UNL     1      -7.525   7.803  64.416  1.00  0.00    -0.099 C  
BRANCH   7   8
HETATM    8  C   UNL     1      -7.075   9.215  64.798  1.00  0.00    -0.096 C  
BRANCH   8   9
HETATM    9  C   UNL     1      -7.833  10.319  64.062  1.00  0.00    -0.114 C  
BRANCH   9  10
HETATM   10  C   UNL     1      -9.304  10.029  63.965  1.00  0.00    -0.324 C  
HETATM   11  C   UNL     1     -10.303  10.922  63.880  1.00  0.00    -0.397 C  
BRANCH  11  12
HETATM   12  C   UNL     1     -10.177  12.421  63.897  1.00  0.00    -0.409 C  
BRANCH  12  13
HETATM   13  C   UNL     1     -10.420  13.039  65.281  1.00  0.00    -0.318 C  
HETATM   14  C   UNL     1     -10.420  14.574  65.317  1.00  0.00    -0.390 C  
HETATM   15  C   UNL     1     -11.213  14.898  66.576  1.00  0.00    -0.335 C  
HETATM   16  O   UNL     1     -11.106  15.128  64.200  1.00  0.00    -0.614 OA 
HETATM   17  H   UNL     1     -11.105  16.078  64.222  1.00  0.00     0.000 HD 
HETATM   18  C   UNL     1     -12.370  13.904  66.530  1.00  0.00    -0.404 C  
HETATM   19  O   UNL     1     -13.447  14.450  65.764  1.00  0.00    -0.545 OA 
HETATM   20  C   UNL     1     -11.823  12.645  65.819  1.00  0.00    -0.497 C  
HETATM   21  H   UNL     1     -14.167  13.830  65.736  1.00  0.00     0.000 HD 
BRANCH  20  22
HETATM   22  C   UNL     1     -11.755  11.459  66.756  1.00  0.00     0.120 C  
HETATM   23  C   UNL     1     -10.981  11.430  67.855  1.00  0.00    -0.295 C  
BRANCH  23  24
HETATM   24  C   UNL     1     -10.774  10.271  68.797  1.00  0.00    -0.219 C  
HETATM   25  H   UNL     1      -9.328   9.012  69.243  1.00  0.00     0.000 HD 
HETATM   26  O   UNL     1      -9.458   9.743  68.650  1.00  0.00    -0.146 OA 
BRANCH  24  27
HETATM   27  C   UNL     1     -10.960  10.653  70.271  1.00  0.00    -0.237 C  
BRANCH  27  28
HETATM   28  C   UNL     1     -12.424  10.865  70.668  1.00  0.00    -0.460 C  
BRANCH  28  29
HETATM   29  C   UNL     1     -12.691  12.304  71.036  1.00  0.00    -0.319 A  
HETATM   30  C   UNL     1     -13.475  12.611  72.155  1.00  0.00    -0.561 A  
HETATM   31  C   UNL     1     -13.763  13.939  72.474  1.00  0.00    -0.665 A  
HETATM   32  C   UNL     1     -13.270  14.969  71.676  1.00  0.00    -0.464 A  
HETATM   33  C   UNL     1     -12.485  14.673  70.562  1.00  0.00    -0.408 A  
HETATM   34  C   UNL     1     -12.197  13.346  70.242  1.00  0.00    -0.405 A  
ENDBRANCH  28  29
ENDBRANCH  27  28
ENDBRANCH  24  27
ENDBRANCH  23  24
ENDBRANCH  20  22
ENDBRANCH  12  13
ENDBRANCH  11  12
ENDBRANCH   9  10
ENDBRANCH   8   9
ENDBRANCH   7   8
ENDBRANCH   4   7
ENDBRANCH   2   3
TORSDOF 12
ENDMDL
MODEL      116
REMARK 921   NORMALIZED FREE ENERGY PREDICTED BY IDOCK:   -5.12 KCAL/MOL
REMARK 922        TOTAL FREE ENERGY PREDICTED BY IDOCK:  -11.55 KCAL/MOL
REMARK 923 INTER-LIGAND FREE ENERGY PREDICTED BY IDOCK:   -9.96 KCAL/MOL
REMARK 924 INTRA-LIGAND FREE ENERGY PREDICTED BY IDOCK:   -1.58 KCAL/MOL
REMARK 927      BINDING AFFINITY PREDICTED BY RF-SCORE:    0.00 PKD
ROOT
HETATM    1  C   UNL     1      -8.091   3.028  70.152  1.00  0.00    -0.056 C  
HETATM    2  C   UNL     1      -9.499   3.574  70.298  1.00  0.00    -0.183 C  
ENDROOT
BRANCH   2   3
HETATM    3  N   UNL     1      -9.810   4.530  69.259  1.00  0.00    -0.192 N  
HETATM    4  C   UNL     1     -10.639   5.602  69.505  1.00  0.00    -0.314 C  
HETATM    5  H   UNL     1      -9.409   4.408  68.329  1.00  0.00     0.000 HD 
HETATM    6  O   UNL     1     -11.166   5.809  70.590  1.00  0.00    -0.258 OA 
BRANCH   4   7
HETATM    7  C   UNL     1     -10.823   6.506  68.302  1.00  0.00    -0.359 C  
BRANCH   7   8
HETATM    8  C   UNL     1      -9.474   6.890  67.690  1.00  0.00    -0.133 C  
BRANCH   8   9
HETATM    9  C   UNL     1      -9.546   8.100  66.759  1.00  0.00    -0.281 C  
BRANCH   9  10
HETATM   10  C   UNL     1     -10.254   9.263  67.395  1.00  0.00    -0.304 C  
HETATM   11  C   UNL     1     -10.265  10.536  66.971  1.00  0.00    -0.275 C  
BRANCH  11  12
HETATM   12  C   UNL     1      -9.541  11.096  65.777  1.00  0.00    -0.255 C  
BRANCH  12  13
HETATM   13  C   UNL     1     -10.156  12.398  65.245  1.00  0.00    -0.285 C  
HETATM   14  C   UNL     1     -10.538  12.376  63.757  1.00  0.00    -0.452 C  
HETATM   15  C   UNL     1     -11.586  13.475  63.645  1.00  0.00    -0.194 C  
HETATM   16  O   UNL     1     -11.141  11.142  63.386  1.00  0.00    -0.704 OA 
HETATM   17  H   UNL     1     -11.377  11.128  62.466  1.00  0.00     0.000 HD 
HETATM   18  C   UNL     1     -12.439  13.278  64.895  1.00  0.00    -0.409 C  
HETATM   19  O   UNL     1     -13.473  12.327  64.630  1.00  0.00    -0.620 OA 
HETATM   20  C   UNL     1     -11.489  12.713  65.976  1.00  0.00    -0.414 C  
HETATM   21  H   UNL     1     -14.004  12.205  65.408  1.00  0.00     0.000 HD 
BRANCH  20  22
HETATM   22  C   UNL     1     -11.291  13.693  67.112  1.00  0.00    -0.340 C  
HETATM   23  C   UNL     1     -10.718  14.899  66.956  1.00  0.00    -0.307 C  
BRANCH  23  24
HETATM   24  C   UNL     1     -10.393  15.903  68.032  1.00  0.00    -0.262 C  
HETATM   25  H   UNL     1     -11.177  17.561  68.746  1.00  0.00     0.000 HD 
HETATM   26  O   UNL     1     -11.382  16.929  68.068  1.00  0.00    -0.190 OA 
BRANCH  24  27
HETATM   27  C   UNL     1     -10.318  15.280  69.432  1.00  0.00    -0.255 C  
BRANCH  27  28
HETATM   28  C   UNL     1     -11.217  15.973  70.459  1.00  0.00    -0.397 C  
BRANCH  28  29
HETATM   29  C   UNL     1     -12.146  14.992  71.129  1.00  0.00    -0.375 A  
HETATM   30  C   UNL     1     -12.914  15.387  72.232  1.00  0.00    -0.481 A  
HETATM   31  C   UNL     1     -13.741  14.471  72.882  1.00  0.00    -0.332 A  
HETATM   32  C   UNL     1     -13.807  13.152  72.436  1.00  0.00    -0.583 A  
HETATM   33  C   UNL     1     -13.050  12.751  71.336  1.00  0.00    -0.318 A  
HETATM   34  C   UNL     1     -12.222  13.665  70.685  1.00  0.00    -0.434 A  
ENDBRANCH  28  29
ENDBRANCH  27  28
ENDBRANCH  24  27
ENDBRANCH  23  24
ENDBRANCH  20  22
ENDBRANCH  12  13
ENDBRANCH  11  12
ENDBRANCH   9  10
ENDBRANCH   8   9
ENDBRANCH   7   8
ENDBRANCH   4   7
ENDBRANCH   2   3
TORSDOF 12
ENDMDL
MODEL      117
REMARK 921   NORMALIZED FREE ENERGY PREDICTED BY IDOCK:   -5.11 KCAL/MOL
REMARK 922        TOTAL FREE ENERGY PREDICTED BY IDOCK:  -11.54 KCAL/MOL
REMARK 923 INTER-LIGAND FREE ENERGY PREDICTED BY IDOCK:   -9.86 KCAL/MOL
REMARK 924 INTRA-LIGAND FREE ENERGY PREDICTED BY IDOCK:   -1.67 KCAL/MOL
REMARK 927      BINDING AFFINITY PREDICTED BY RF-SCORE:    0.00 PKD
ROOT
HETATM    1  C   UNL     1     -10.593   4.966  66.059  1.00  0.00    -0.312 C  
HETATM    2  C   UNL     1      -9.193   4.708  66.584  1.00  0.00    -0.129 C  
ENDROOT
BRANCH   2   3
HETATM    3  N   UNL     1      -8.672   5.853  67.297  1.00  0.00    -0.109 N  
HETATM    4  C   UNL     1      -8.922   6.028  68.639  1.00  0.00    -0.118 C  
HETATM    5  H   UNL     1      -8.112   6.543  66.796  1.00  0.00     0.000 HD 
HETATM    6  O   UNL     1      -9.594   5.250  69.305  1.00  0.00    -0.134 OA 
BRANCH   4   7
HETATM    7  C   UNL     1      -8.271   7.270  69.214  1.00  0.00    -0.131 C  
BRANCH   7   8
HETATM    8  C   UNL     1      -9.216   8.473  69.136  1.00  0.00    -0.150 C  
BRANCH   8   9
HETATM    9  C   UNL     1      -8.920   9.407  67.963  1.00  0.00    -0.128 C  
BRANCH   9  10
HETATM   10  C   UNL     1      -9.872   9.200  66.819  1.00  0.00    -0.291 C  
HETATM   11  C   UNL     1     -10.014   9.974  65.732  1.00  0.00    -0.346 C  
BRANCH  11  12
HETATM   12  C   UNL     1      -9.273  11.246  65.427  1.00  0.00    -0.202 C  
BRANCH  12  13
HETATM   13  C   UNL     1     -10.184  12.479  65.338  1.00  0.00    -0.303 C  
HETATM   14  C   UNL     1     -10.539  12.925  63.912  1.00  0.00    -0.336 C  
HETATM   15  C   UNL     1     -11.823  13.721  64.100  1.00  0.00    -0.439 C  
HETATM   16  O   UNL     1     -10.820  11.814  63.068  1.00  0.00    -0.660 OA 
HETATM   17  H   UNL     1     -11.039  12.090  62.186  1.00  0.00     0.000 HD 
HETATM   18  C   UNL     1     -12.610  12.889  65.109  1.00  0.00    -0.471 C  
HETATM   19  O   UNL     1     -13.378  11.898  64.423  1.00  0.00    -0.524 OA 
HETATM   20  C   UNL     1     -11.558  12.194  66.002  1.00  0.00    -0.420 C  
HETATM   21  H   UNL     1     -13.868  11.380  65.051  1.00  0.00     0.000 HD 
BRANCH  20  22
HETATM   22  C   UNL     1     -11.612  12.700  67.427  1.00  0.00    -0.421 C  
HETATM   23  C   UNL     1     -12.030  13.935  67.756  1.00  0.00    -0.390 C  
BRANCH  23  24
HETATM   24  C   UNL     1     -12.035  14.563  69.126  1.00  0.00    -0.309 C  
HETATM   25  H   UNL     1     -11.387  14.107  70.928  1.00  0.00     0.000 HD 
HETATM   26  O   UNL     1     -11.383  13.711  70.065  1.00  0.00    -0.137 OA 
BRANCH  24  27
HETATM   27  C   UNL     1     -11.328  15.924  69.166  1.00  0.00    -0.366 C  
BRANCH  27  28
HETATM   28  C   UNL     1     -10.400  16.167  67.972  1.00  0.00    -0.271 C  
BRANCH  28  29
HETATM   29  C   UNL     1     -10.184  17.641  67.734  1.00  0.00    -0.354 A  
HETATM   30  C   UNL     1     -10.085  18.524  68.817  1.00  0.00    -0.394 A  
HETATM   31  C   UNL     1      -9.930  19.893  68.602  1.00  0.00    -0.492 A  
HETATM   32  C   UNL     1      -9.872  20.391  67.302  1.00  0.00    -0.597 A  
HETATM   33  C   UNL     1      -9.964  19.520  66.218  1.00  0.00    -0.538 A  
HETATM   34  C   UNL     1     -10.120  18.151  66.431  1.00  0.00    -0.392 A  
ENDBRANCH  28  29
ENDBRANCH  27  28
ENDBRANCH  24  27
ENDBRANCH  23  24
ENDBRANCH  20  22
ENDBRANCH  12  13
ENDBRANCH  11  12
ENDBRANCH   9  10
ENDBRANCH   8   9
ENDBRANCH   7   8
ENDBRANCH   4   7
ENDBRANCH   2   3
TORSDOF 12
ENDMDL
MODEL      118
REMARK 921   NORMALIZED FREE ENERGY PREDICTED BY IDOCK:   -5.11 KCAL/MOL
REMARK 922        TOTAL FREE ENERGY PREDICTED BY IDOCK:  -11.53 KCAL/MOL
REMARK 923 INTER-LIGAND FREE ENERGY PREDICTED BY IDOCK:   -8.80 KCAL/MOL
REMARK 924 INTRA-LIGAND FREE ENERGY PREDICTED BY IDOCK:   -2.72 KCAL/MOL
REMARK 927      BINDING AFFINITY PREDICTED BY RF-SCORE:    0.00 PKD
ROOT
HETATM    1  C   UNL     1     -10.714  19.653  67.006  1.00  0.00    -0.575 C  
HETATM    2  C   UNL     1      -9.925  18.445  66.537  1.00  0.00    -0.379 C  
ENDROOT
BRANCH   2   3
HETATM    3  N   UNL     1      -9.307  17.751  67.644  1.00  0.00    -0.249 N  
HETATM    4  C   UNL     1      -9.708  16.483  68.001  1.00  0.00    -0.236 C  
HETATM    5  H   UNL     1      -8.562  18.208  68.170  1.00  0.00     0.000 HD 
HETATM    6  O   UNL     1     -10.601  15.874  67.425  1.00  0.00    -0.305 OA 
BRANCH   4   7
HETATM    7  C   UNL     1      -8.926  15.911  69.166  1.00  0.00    -0.256 C  
BRANCH   7   8
HETATM    8  C   UNL     1      -7.487  15.585  68.757  1.00  0.00    -0.141 C  
BRANCH   8   9
HETATM    9  C   UNL     1      -7.086  14.137  69.037  1.00  0.00    -0.111 C  
BRANCH   9  10
HETATM   10  C   UNL     1      -6.912  13.343  67.774  1.00  0.00    -0.159 C  
HETATM   11  C   UNL     1      -7.871  12.732  67.060  1.00  0.00    -0.022 C  
BRANCH  11  12
HETATM   12  C   UNL     1      -9.339  12.678  67.383  1.00  0.00    -0.189 C  
BRANCH  12  13
HETATM   13  C   UNL     1     -10.171  11.938  66.326  1.00  0.00    -0.247 C  
HETATM   14  C   UNL     1     -10.972  12.843  65.378  1.00  0.00    -0.278 C  
HETATM   15  C   UNL     1     -11.204  11.961  64.159  1.00  0.00    -0.446 C  
HETATM   16  O   UNL     1     -10.218  13.979  64.972  1.00  0.00    -0.431 OA 
HETATM   17  H   UNL     1     -10.713  14.539  64.386  1.00  0.00     0.000 HD 
HETATM   18  C   UNL     1      -9.862  11.260  63.969  1.00  0.00    -0.291 C  
HETATM   19  O   UNL     1      -9.004  12.070  63.163  1.00  0.00    -0.579 OA 
HETATM   20  C   UNL     1      -9.252  11.116  65.382  1.00  0.00    -0.225 C  
HETATM   21  H   UNL     1      -8.168  11.634  63.045  1.00  0.00     0.000 HD 
BRANCH  20  22
HETATM   22  C   UNL     1      -9.160   9.666  65.806  1.00  0.00    -0.230 C  
HETATM   23  C   UNL     1     -10.182   8.993  66.362  1.00  0.00    -0.297 C  
BRANCH  23  24
HETATM   24  C   UNL     1     -10.165   7.586  66.900  1.00  0.00    -0.289 C  
HETATM   25  H   UNL     1      -8.846   6.143  67.135  1.00  0.00     0.000 HD 
HETATM   26  O   UNL     1      -8.857   7.031  66.796  1.00  0.00    -0.117 OA 
BRANCH  24  27
HETATM   27  C   UNL     1     -10.591   7.499  68.371  1.00  0.00    -0.177 C  
BRANCH  27  28
HETATM   28  C   UNL     1      -9.886   8.515  69.273  1.00  0.00    -0.185 C  
BRANCH  28  29
HETATM   29  C   UNL     1     -10.876   9.305  70.093  1.00  0.00    -0.275 A  
HETATM   30  C   UNL     1     -11.457   8.738  71.235  1.00  0.00    -0.355 A  
HETATM   31  C   UNL     1     -12.406   9.448  71.971  1.00  0.00    -0.418 A  
HETATM   32  C   UNL     1     -12.783  10.728  71.571  1.00  0.00    -0.536 A  
HETATM   33  C   UNL     1     -12.208  11.301  70.438  1.00  0.00    -0.453 A  
HETATM   34  C   UNL     1     -11.259  10.594  69.701  1.00  0.00    -0.351 A  
ENDBRANCH  28  29
ENDBRANCH  27  28
ENDBRANCH  24  27
ENDBRANCH  23  24
ENDBRANCH  20  22
ENDBRANCH  12  13
ENDBRANCH  11  12
ENDBRANCH   9  10
ENDBRANCH   8   9
ENDBRANCH   7   8
ENDBRANCH   4   7
ENDBRANCH   2   3
TORSDOF 12
ENDMDL
MODEL      119
REMARK 921   NORMALIZED FREE ENERGY PREDICTED BY IDOCK:   -5.10 KCAL/MOL
REMARK 922        TOTAL FREE ENERGY PREDICTED BY IDOCK:  -11.52 KCAL/MOL
REMARK 923 INTER-LIGAND FREE ENERGY PREDICTED BY IDOCK:   -9.89 KCAL/MOL
REMARK 924 INTRA-LIGAND FREE ENERGY PREDICTED BY IDOCK:   -1.63 KCAL/MOL
REMARK 927      BINDING AFFINITY PREDICTED BY RF-SCORE:    0.00 PKD
ROOT
HETATM    1  C   UNL     1     -13.438   7.509  71.561  1.00  0.00    -0.426 C  
HETATM    2  C   UNL     1     -12.139   6.815  71.195  1.00  0.00    -0.370 C  
ENDROOT
BRANCH   2   3
HETATM    3  N   UNL     1     -11.875   6.894  69.776  1.00  0.00    -0.632 N  
HETATM    4  C   UNL     1     -10.995   6.027  69.168  1.00  0.00    -0.359 C  
HETATM    5  H   UNL     1     -12.348   7.604  69.217  1.00  0.00     0.000 HD 
HETATM    6  O   UNL     1     -10.382   5.157  69.774  1.00  0.00    -0.271 OA 
BRANCH   4   7
HETATM    7  C   UNL     1     -10.870   6.249  67.674  1.00  0.00    -0.433 C  
BRANCH   7   8
HETATM    8  C   UNL     1     -10.976   7.736  67.327  1.00  0.00    -0.065 C  
BRANCH   8   9
HETATM    9  C   UNL     1      -9.644   8.480  67.413  1.00  0.00    -0.204 C  
BRANCH   9  10
HETATM   10  C   UNL     1      -9.296   9.171  66.125  1.00  0.00    -0.288 C  
HETATM   11  C   UNL     1      -9.127  10.489  65.931  1.00  0.00    -0.192 C  
BRANCH  11  12
HETATM   12  C   UNL     1      -9.280  11.578  66.957  1.00  0.00    -0.180 C  
BRANCH  12  13
HETATM   13  C   UNL     1      -9.935  12.851  66.402  1.00  0.00    -0.267 C  
HETATM   14  C   UNL     1     -11.378  12.677  65.906  1.00  0.00    -0.334 C  
HETATM   15  C   UNL     1     -11.946  14.089  65.966  1.00  0.00    -0.434 C  
HETATM   16  O   UNL     1     -12.140  11.850  66.778  1.00  0.00    -0.593 OA 
HETATM   17  H   UNL     1     -13.032  11.742  66.471  1.00  0.00     0.000 HD 
HETATM   18  C   UNL     1     -11.405  14.631  67.287  1.00  0.00    -0.353 C  
HETATM   19  O   UNL     1     -12.291  14.277  68.353  1.00  0.00    -0.584 OA 
HETATM   20  C   UNL     1     -10.040  13.939  67.505  1.00  0.00    -0.244 C  
HETATM   21  H   UNL     1     -11.954  14.614  69.175  1.00  0.00     0.000 HD 
BRANCH  20  22
HETATM   22  C   UNL     1      -8.896  14.927  67.434  1.00  0.00    -0.204 C  
HETATM   23  C   UNL     1      -7.780  14.818  68.175  1.00  0.00    -0.122 C  
BRANCH  23  24
HETATM   24  C   UNL     1      -6.631  15.791  68.246  1.00  0.00    -0.120 C  
HETATM   25  H   UNL     1      -5.489  16.774  66.979  1.00  0.00     0.000 HD 
HETATM   26  O   UNL     1      -6.213  16.161  66.934  1.00  0.00    -0.316 OA 
BRANCH  24  27
HETATM   27  C   UNL     1      -6.980  17.079  69.003  1.00  0.00    -0.229 C  
BRANCH  27  28
HETATM   28  C   UNL     1      -6.804  18.349  68.165  1.00  0.00    -0.234 C  
BRANCH  28  29
HETATM   29  C   UNL     1      -8.135  18.929  67.759  1.00  0.00    -0.284 A  
HETATM   30  C   UNL     1      -8.938  19.583  68.703  1.00  0.00    -0.386 A  
HETATM   31  C   UNL     1     -10.190  20.082  68.343  1.00  0.00    -0.510 A  
HETATM   32  C   UNL     1     -10.650  19.932  67.036  1.00  0.00    -0.533 A  
HETATM   33  C   UNL     1      -9.856  19.288  66.088  1.00  0.00    -0.429 A  
HETATM   34  C   UNL     1      -8.605  18.787  66.447  1.00  0.00    -0.294 A  
ENDBRANCH  28  29
ENDBRANCH  27  28
ENDBRANCH  24  27
ENDBRANCH  23  24
ENDBRANCH  20  22
ENDBRANCH  12  13
ENDBRANCH  11  12
ENDBRANCH   9  10
ENDBRANCH   8   9
ENDBRANCH   7   8
ENDBRANCH   4   7
ENDBRANCH   2   3
TORSDOF 12
ENDMDL
MODEL      120
REMARK 921   NORMALIZED FREE ENERGY PREDICTED BY IDOCK:   -5.10 KCAL/MOL
REMARK 922        TOTAL FREE ENERGY PREDICTED BY IDOCK:  -11.52 KCAL/MOL
REMARK 923 INTER-LIGAND FREE ENERGY PREDICTED BY IDOCK:   -8.54 KCAL/MOL
REMARK 924 INTRA-LIGAND FREE ENERGY PREDICTED BY IDOCK:   -2.98 KCAL/MOL
REMARK 927      BINDING AFFINITY PREDICTED BY RF-SCORE:    0.00 PKD
ROOT
HETATM    1  C   UNL     1     -11.846  15.188  69.605  1.00  0.00    -0.362 C  
HETATM    2  C   UNL     1     -12.221  14.389  70.840  1.00  0.00    -0.342 C  
ENDROOT
BRANCH   2   3
HETATM    3  N   UNL     1     -12.045  12.970  70.629  1.00  0.00    -0.508 N  
HETATM    4  C   UNL     1     -12.704  12.049  71.412  1.00  0.00    -0.275 C  
HETATM    5  H   UNL     1     -11.423  12.646  69.889  1.00  0.00     0.000 HD 
HETATM    6  O   UNL     1     -13.458  12.360  72.326  1.00  0.00    -0.541 OA 
BRANCH   4   7
HETATM    7  C   UNL     1     -12.414  10.613  71.023  1.00  0.00    -0.515 C  
BRANCH   7   8
HETATM    8  C   UNL     1     -12.891   9.642  72.106  1.00  0.00    -0.460 C  
BRANCH   8   9
HETATM    9  C   UNL     1     -12.010   8.401  72.245  1.00  0.00    -0.455 C  
BRANCH   9  10
HETATM   10  C   UNL     1     -12.338   7.354  71.218  1.00  0.00    -0.380 C  
HETATM   11  C   UNL     1     -11.472   6.645  70.477  1.00  0.00    -0.432 C  
BRANCH  11  12
HETATM   12  C   UNL     1      -9.972   6.761  70.484  1.00  0.00    -0.197 C  
BRANCH  12  13
HETATM   13  C   UNL     1      -9.382   7.133  69.117  1.00  0.00    -0.141 C  
HETATM   14  C   UNL     1      -8.898   5.946  68.272  1.00  0.00    -0.110 C  
HETATM   15  C   UNL     1      -8.917   6.492  66.851  1.00  0.00    -0.128 C  
HETATM   16  O   UNL     1      -9.800   4.847  68.342  1.00  0.00    -0.149 OA 
HETATM   17  H   UNL     1      -9.501   4.112  67.819  1.00  0.00     0.000 HD 
HETATM   18  C   UNL     1     -10.218   7.289  66.796  1.00  0.00    -0.235 C  
HETATM   19  O   UNL     1     -11.298   6.427  66.432  1.00  0.00    -0.614 OA 
HETATM   20  C   UNL     1     -10.450   7.824  68.228  1.00  0.00    -0.215 C  
HETATM   21  H   UNL     1     -12.108   6.923  66.398  1.00  0.00     0.000 HD 
BRANCH  20  22
HETATM   22  C   UNL     1     -10.343   9.333  68.285  1.00  0.00    -0.257 C  
HETATM   23  C   UNL     1     -11.122  10.156  67.563  1.00  0.00    -0.251 C  
BRANCH  23  24
HETATM   24  C   UNL     1     -11.034  11.658  67.479  1.00  0.00    -0.259 C  
HETATM   25  H   UNL     1     -10.183  13.115  68.492  1.00  0.00     0.000 HD 
HETATM   26  O   UNL     1     -10.238  12.168  68.546  1.00  0.00    -0.216 OA 
BRANCH  24  27
HETATM   27  C   UNL     1     -10.418  12.151  66.163  1.00  0.00    -0.281 C  
BRANCH  27  28
HETATM   28  C   UNL     1     -10.323  11.065  65.087  1.00  0.00    -0.346 C  
BRANCH  28  29
HETATM   29  C   UNL     1      -8.957  10.426  65.070  1.00  0.00    -0.221 A  
HETATM   30  C   UNL     1      -8.652   9.440  64.122  1.00  0.00    -0.216 A  
HETATM   31  C   UNL     1      -7.405   8.814  64.130  1.00  0.00    -0.101 A  
HETATM   32  C   UNL     1      -6.454   9.167  65.085  1.00  0.00    -0.069 A  
HETATM   33  C   UNL     1      -6.748  10.150  66.029  1.00  0.00    -0.106 A  
HETATM   34  C   UNL     1      -7.993  10.777  66.023  1.00  0.00    -0.154 A  
ENDBRANCH  28  29
ENDBRANCH  27  28
ENDBRANCH  24  27
ENDBRANCH  23  24
ENDBRANCH  20  22
ENDBRANCH  12  13
ENDBRANCH  11  12
ENDBRANCH   9  10
ENDBRANCH   8   9
ENDBRANCH   7   8
ENDBRANCH   4   7
ENDBRANCH   2   3
TORSDOF 12
ENDMDL
MODEL      121
REMARK 921   NORMALIZED FREE ENERGY PREDICTED BY IDOCK:   -5.10 KCAL/MOL
REMARK 922        TOTAL FREE ENERGY PREDICTED BY IDOCK:  -11.51 KCAL/MOL
REMARK 923 INTER-LIGAND FREE ENERGY PREDICTED BY IDOCK:   -8.33 KCAL/MOL
REMARK 924 INTRA-LIGAND FREE ENERGY PREDICTED BY IDOCK:   -3.18 KCAL/MOL
REMARK 927      BINDING AFFINITY PREDICTED BY RF-SCORE:    0.00 PKD
ROOT
HETATM    1  C   UNL     1      -7.712   6.034  63.781  1.00  0.00    -0.101 C  
HETATM    2  C   UNL     1      -8.083   7.466  64.118  1.00  0.00    -0.046 C  
ENDROOT
BRANCH   2   3
HETATM    3  N   UNL     1      -8.682   7.566  65.430  1.00  0.00    -0.345 N  
HETATM    4  C   UNL     1      -9.483   8.635  65.765  1.00  0.00    -0.122 C  
HETATM    5  H   UNL     1      -8.509   6.833  66.118  1.00  0.00     0.000 HD 
HETATM    6  O   UNL     1      -9.728   9.557  64.998  1.00  0.00    -0.248 OA 
BRANCH   4   7
HETATM    7  C   UNL     1     -10.041   8.549  67.172  1.00  0.00    -0.331 C  
BRANCH   7   8
HETATM    8  C   UNL     1      -9.125   9.260  68.172  1.00  0.00    -0.130 C  
BRANCH   8   9
HETATM    9  C   UNL     1      -9.787  10.448  68.869  1.00  0.00    -0.206 C  
BRANCH   9  10
HETATM   10  C   UNL     1      -8.956  11.696  68.774  1.00  0.00    -0.016 C  
HETATM   11  C   UNL     1      -8.817  12.499  67.706  1.00  0.00    -0.178 C  
BRANCH  11  12
HETATM   12  C   UNL     1      -9.437  12.310  66.349  1.00  0.00    -0.240 C  
BRANCH  12  13
HETATM   13  C   UNL     1     -10.358  13.466  65.933  1.00  0.00    -0.290 C  
HETATM   14  C   UNL     1     -10.508  13.664  64.417  1.00  0.00    -0.300 C  
HETATM   15  C   UNL     1     -11.827  14.414  64.288  1.00  0.00    -0.385 C  
HETATM   16  O   UNL     1     -10.630  12.422  63.733  1.00  0.00    -0.399 OA 
HETATM   17  H   UNL     1     -10.723  12.545  62.796  1.00  0.00     0.000 HD 
HETATM   18  C   UNL     1     -12.734  13.711  65.296  1.00  0.00    -0.430 C  
HETATM   19  O   UNL     1     -13.364  12.587  64.677  1.00  0.00    -0.804 OA 
HETATM   20  C   UNL     1     -11.808  13.218  66.431  1.00  0.00    -0.446 C  
HETATM   21  H   UNL     1     -13.927  12.150  65.304  1.00  0.00     0.000 HD 
BRANCH  20  22
HETATM   22  C   UNL     1     -12.088  13.938  67.733  1.00  0.00    -0.328 C  
HETATM   23  C   UNL     1     -12.103  13.323  68.928  1.00  0.00    -0.260 C  
BRANCH  23  24
HETATM   24  C   UNL     1     -12.460  13.926  70.262  1.00  0.00    -0.314 C  
HETATM   25  H   UNL     1     -13.116  13.293  72.006  1.00  0.00     0.000 HD 
HETATM   26  O   UNL     1     -12.891  12.912  71.165  1.00  0.00    -0.326 OA 
BRANCH  24  27
HETATM   27  C   UNL     1     -11.287  14.666  70.919  1.00  0.00    -0.140 C  
BRANCH  27  28
HETATM   28  C   UNL     1     -11.228  16.155  70.566  1.00  0.00    -0.381 C  
BRANCH  28  29
HETATM   29  C   UNL     1     -10.376  16.397  69.345  1.00  0.00    -0.290 A  
HETATM   30  C   UNL     1     -10.863  17.178  68.288  1.00  0.00    -0.314 A  
HETATM   31  C   UNL     1     -10.097  17.368  67.138  1.00  0.00    -0.307 A  
HETATM   32  C   UNL     1      -8.838  16.780  67.034  1.00  0.00    -0.227 A  
HETATM   33  C   UNL     1      -8.343  16.005  68.082  1.00  0.00    -0.160 A  
HETATM   34  C   UNL     1      -9.108  15.813  69.232  1.00  0.00    -0.263 A  
ENDBRANCH  28  29
ENDBRANCH  27  28
ENDBRANCH  24  27
ENDBRANCH  23  24
ENDBRANCH  20  22
ENDBRANCH  12  13
ENDBRANCH  11  12
ENDBRANCH   9  10
ENDBRANCH   8   9
ENDBRANCH   7   8
ENDBRANCH   4   7
ENDBRANCH   2   3
TORSDOF 12
ENDMDL
MODEL      122
REMARK 921   NORMALIZED FREE ENERGY PREDICTED BY IDOCK:   -5.10 KCAL/MOL
REMARK 922        TOTAL FREE ENERGY PREDICTED BY IDOCK:  -11.50 KCAL/MOL
REMARK 923 INTER-LIGAND FREE ENERGY PREDICTED BY IDOCK:   -8.86 KCAL/MOL
REMARK 924 INTRA-LIGAND FREE ENERGY PREDICTED BY IDOCK:   -2.65 KCAL/MOL
REMARK 927      BINDING AFFINITY PREDICTED BY RF-SCORE:    0.00 PKD
ROOT
HETATM    1  C   UNL     1     -13.544   7.228  71.603  1.00  0.00    -0.435 C  
HETATM    2  C   UNL     1     -13.863   8.707  71.716  1.00  0.00    -0.425 C  
ENDROOT
BRANCH   2   3
HETATM    3  N   UNL     1     -12.952   9.510  70.931  1.00  0.00    -0.543 N  
HETATM    4  C   UNL     1     -12.791  10.854  71.184  1.00  0.00    -0.409 C  
HETATM    5  H   UNL     1     -12.419   9.073  70.179  1.00  0.00     0.000 HD 
HETATM    6  O   UNL     1     -13.402  11.450  72.061  1.00  0.00    -0.467 OA 
BRANCH   4   7
HETATM    7  C   UNL     1     -11.775  11.517  70.276  1.00  0.00    -0.379 C  
BRANCH   7   8
HETATM    8  C   UNL     1     -11.894  10.997  68.842  1.00  0.00    -0.378 C  
BRANCH   8   9
HETATM    9  C   UNL     1     -11.783  12.092  67.782  1.00  0.00    -0.390 C  
BRANCH   9  10
HETATM   10  C   UNL     1     -11.765  13.467  68.387  1.00  0.00    -0.393 C  
HETATM   11  C   UNL     1     -11.461  14.621  67.772  1.00  0.00    -0.359 C  
BRANCH  11  12
HETATM   12  C   UNL     1     -11.036  14.794  66.340  1.00  0.00    -0.331 C  
BRANCH  12  13
HETATM   13  C   UNL     1      -9.643  15.423  66.187  1.00  0.00    -0.362 C  
HETATM   14  C   UNL     1      -9.636  16.946  65.984  1.00  0.00    -0.209 C  
HETATM   15  C   UNL     1      -8.238  17.355  66.429  1.00  0.00    -0.306 C  
HETATM   16  O   UNL     1     -10.582  17.594  66.826  1.00  0.00    -0.313 OA 
HETATM   17  H   UNL     1     -10.578  18.536  66.700  1.00  0.00     0.000 HD 
HETATM   18  C   UNL     1      -8.007  16.516  67.683  1.00  0.00    -0.163 C  
HETATM   19  O   UNL     1      -8.524  17.203  68.825  1.00  0.00    -0.256 OA 
HETATM   20  C   UNL     1      -8.800  15.206  67.472  1.00  0.00    -0.190 C  
HETATM   21  H   UNL     1      -8.380  16.681  69.606  1.00  0.00     0.000 HD 
BRANCH  20  22
HETATM   22  C   UNL     1      -7.880  14.010  67.348  1.00  0.00    -0.188 C  
HETATM   23  C   UNL     1      -8.153  12.810  67.888  1.00  0.00    -0.159 C  
BRANCH  23  24
HETATM   24  C   UNL     1      -7.267  11.591  67.900  1.00  0.00    -0.085 C  
HETATM   25  H   UNL     1      -5.582  11.036  68.754  1.00  0.00     0.000 HD 
HETATM   26  O   UNL     1      -6.140  11.805  68.746  1.00  0.00    -0.047 OA 
BRANCH  24  27
HETATM   27  C   UNL     1      -7.987  10.330  68.395  1.00  0.00    -0.108 C  
BRANCH  27  28
HETATM   28  C   UNL     1      -8.989   9.761  67.386  1.00  0.00    -0.144 C  
BRANCH  28  29
HETATM   29  C   UNL     1      -9.662   8.521  67.918  1.00  0.00    -0.193 A  
HETATM   30  C   UNL     1      -9.476   8.134  69.252  1.00  0.00    -0.159 A  
HETATM   31  C   UNL     1     -10.060   6.963  69.737  1.00  0.00    -0.196 A  
HETATM   32  C   UNL     1     -10.835   6.170  68.893  1.00  0.00    -0.406 A  
HETATM   33  C   UNL     1     -11.030   6.550  67.566  1.00  0.00    -0.444 A  
HETATM   34  C   UNL     1     -10.446   7.719  67.079  1.00  0.00    -0.419 A  
ENDBRANCH  28  29
ENDBRANCH  27  28
ENDBRANCH  24  27
ENDBRANCH  23  24
ENDBRANCH  20  22
ENDBRANCH  12  13
ENDBRANCH  11  12
ENDBRANCH   9  10
ENDBRANCH   8   9
ENDBRANCH   7   8
ENDBRANCH   4   7
ENDBRANCH   2   3
TORSDOF 12
ENDMDL
MODEL      123
REMARK 921   NORMALIZED FREE ENERGY PREDICTED BY IDOCK:   -5.09 KCAL/MOL
REMARK 922        TOTAL FREE ENERGY PREDICTED BY IDOCK:  -11.50 KCAL/MOL
REMARK 923 INTER-LIGAND FREE ENERGY PREDICTED BY IDOCK:   -8.28 KCAL/MOL
REMARK 924 INTRA-LIGAND FREE ENERGY PREDICTED BY IDOCK:   -3.22 KCAL/MOL
REMARK 927      BINDING AFFINITY PREDICTED BY RF-SCORE:    0.00 PKD
ROOT
HETATM    1  C   UNL     1     -12.965  14.802  72.955  1.00  0.00    -0.583 C  
HETATM    2  C   UNL     1     -12.385  15.501  71.740  1.00  0.00    -0.402 C  
ENDROOT
BRANCH   2   3
HETATM    3  N   UNL     1     -11.767  14.562  70.831  1.00  0.00    -0.436 N  
HETATM    4  C   UNL     1     -11.595  14.870  69.500  1.00  0.00    -0.303 C  
HETATM    5  H   UNL     1     -11.453  13.657  71.181  1.00  0.00     0.000 HD 
HETATM    6  O   UNL     1     -11.956  15.929  69.003  1.00  0.00    -0.378 OA 
BRANCH   4   7
HETATM    7  C   UNL     1     -10.906  13.772  68.714  1.00  0.00    -0.281 C  
BRANCH   7   8
HETATM    8  C   UNL     1     -11.927  12.866  68.022  1.00  0.00    -0.323 C  
BRANCH   8   9
HETATM    9  C   UNL     1     -11.439  11.430  67.831  1.00  0.00    -0.361 C  
BRANCH   9  10
HETATM   10  C   UNL     1     -10.264  11.108  68.709  1.00  0.00    -0.219 C  
HETATM   11  C   UNL     1     -10.234  10.254  69.745  1.00  0.00    -0.262 C  
BRANCH  11  12
HETATM   12  C   UNL     1     -11.384   9.447  70.282  1.00  0.00    -0.261 C  
BRANCH  12  13
HETATM   13  C   UNL     1     -10.950   8.141  70.962  1.00  0.00    -0.273 C  
HETATM   14  C   UNL     1     -11.038   8.146  72.495  1.00  0.00    -0.377 C  
HETATM   15  C   UNL     1     -11.122   6.667  72.848  1.00  0.00    -0.263 C  
HETATM   16  O   UNL     1     -12.225   8.784  72.953  1.00  0.00    -0.294 OA 
HETATM   17  H   UNL     1     -12.280   8.787  73.901  1.00  0.00     0.000 HD 
HETATM   18  C   UNL     1     -12.076   6.106  71.797  1.00  0.00    -0.106 C  
HETATM   19  O   UNL     1     -13.426   6.244  72.248  1.00  0.00    -0.426 OA 
HETATM   20  C   UNL     1     -11.868   6.966  70.530  1.00  0.00    -0.385 C  
HETATM   21  H   UNL     1     -14.020   5.895  71.593  1.00  0.00     0.000 HD 
BRANCH  20  22
HETATM   22  C   UNL     1     -11.262   6.161  69.401  1.00  0.00    -0.466 C  
HETATM   23  C   UNL     1      -9.963   5.816  69.356  1.00  0.00    -0.244 C  
BRANCH  23  24
HETATM   24  C   UNL     1      -9.246   5.101  68.240  1.00  0.00    -0.117 C  
HETATM   25  H   UNL     1      -9.710   4.302  66.501  1.00  0.00     0.000 HD 
HETATM   26  O   UNL     1     -10.162   4.754  67.204  1.00  0.00    -0.188 OA 
BRANCH  24  27
HETATM   27  C   UNL     1      -8.127   5.939  67.609  1.00  0.00    -0.102 C  
BRANCH  27  28
HETATM   28  C   UNL     1      -8.015   7.350  68.195  1.00  0.00    -0.123 C  
BRANCH  28  29
HETATM   29  C   UNL     1      -8.300   8.403  67.153  1.00  0.00    -0.122 A  
HETATM   30  C   UNL     1      -7.417   9.476  66.975  1.00  0.00    -0.091 A  
HETATM   31  C   UNL     1      -7.698  10.476  66.043  1.00  0.00    -0.147 A  
HETATM   32  C   UNL     1      -8.863  10.412  65.283  1.00  0.00    -0.203 A  
HETATM   33  C   UNL     1      -9.746   9.345  65.450  1.00  0.00    -0.248 A  
HETATM   34  C   UNL     1      -9.467   8.345  66.381  1.00  0.00    -0.293 A  
ENDBRANCH  28  29
ENDBRANCH  27  28
ENDBRANCH  24  27
ENDBRANCH  23  24
ENDBRANCH  20  22
ENDBRANCH  12  13
ENDBRANCH  11  12
ENDBRANCH   9  10
ENDBRANCH   8   9
ENDBRANCH   7   8
ENDBRANCH   4   7
ENDBRANCH   2   3
TORSDOF 12
ENDMDL
MODEL      124
REMARK 921   NORMALIZED FREE ENERGY PREDICTED BY IDOCK:   -5.09 KCAL/MOL
REMARK 922        TOTAL FREE ENERGY PREDICTED BY IDOCK:  -11.50 KCAL/MOL
REMARK 923 INTER-LIGAND FREE ENERGY PREDICTED BY IDOCK:   -8.93 KCAL/MOL
REMARK 924 INTRA-LIGAND FREE ENERGY PREDICTED BY IDOCK:   -2.57 KCAL/MOL
REMARK 927      BINDING AFFINITY PREDICTED BY RF-SCORE:    0.00 PKD
ROOT
HETATM    1  C   UNL     1     -10.954   6.464  68.178  1.00  0.00    -0.393 C  
HETATM    2  C   UNL     1     -10.642   5.774  66.864  1.00  0.00    -0.308 C  
ENDROOT
BRANCH   2   3
HETATM    3  N   UNL     1      -9.926   6.647  65.961  1.00  0.00    -0.372 N  
HETATM    4  C   UNL     1      -8.571   6.508  65.764  1.00  0.00    -0.144 C  
HETATM    5  H   UNL     1     -10.433   7.379  65.463  1.00  0.00     0.000 HD 
HETATM    6  O   UNL     1      -7.892   5.662  66.333  1.00  0.00    -0.098 OA 
BRANCH   4   7
HETATM    7  C   UNL     1      -8.005   7.496  64.763  1.00  0.00    -0.132 C  
BRANCH   7   8
HETATM    8  C   UNL     1      -8.038   8.922  65.319  1.00  0.00    -0.126 C  
BRANCH   8   9
HETATM    9  C   UNL     1      -8.508   9.963  64.303  1.00  0.00    -0.178 C  
BRANCH   9  10
HETATM   10  C   UNL     1     -10.004  10.100  64.284  1.00  0.00    -0.174 C  
HETATM   11  C   UNL     1     -10.713  11.231  64.139  1.00  0.00    -0.436 C  
BRANCH  11  12
HETATM   12  C   UNL     1     -10.168  12.625  63.997  1.00  0.00    -0.363 C  
BRANCH  12  13
HETATM   13  C   UNL     1     -10.053  13.376  65.331  1.00  0.00    -0.270 C  
HETATM   14  C   UNL     1     -10.389  14.873  65.266  1.00  0.00    -0.396 C  
HETATM   15  C   UNL     1     -10.752  15.216  66.705  1.00  0.00    -0.310 C  
HETATM   16  O   UNL     1     -11.525  15.123  64.446  1.00  0.00    -0.614 OA 
HETATM   17  H   UNL     1     -11.733  16.049  64.406  1.00  0.00     0.000 HD 
HETATM   18  C   UNL     1     -11.595  14.024  67.151  1.00  0.00    -0.372 C  
HETATM   19  O   UNL     1     -12.964  14.242  66.800  1.00  0.00    -0.260 OA 
HETATM   20  C   UNL     1     -11.055  12.804  66.370  1.00  0.00    -0.320 C  
HETATM   21  H   UNL     1     -13.488  13.500  67.078  1.00  0.00     0.000 HD 
BRANCH  20  22
HETATM   22  C   UNL     1     -10.400  11.797  67.290  1.00  0.00    -0.231 C  
HETATM   23  C   UNL     1      -9.075  11.752  67.513  1.00  0.00    -0.175 C  
BRANCH  23  24
HETATM   24  C   UNL     1      -8.319  10.738  68.333  1.00  0.00    -0.132 C  
HETATM   25  H   UNL     1      -7.213  10.731  69.961  1.00  0.00     0.000 HD 
HETATM   26  O   UNL     1      -7.689  11.370  69.444  1.00  0.00    -0.007 OA 
BRANCH  24  27
HETATM   27  C   UNL     1      -9.216   9.620  68.880  1.00  0.00    -0.147 C  
BRANCH  27  28
HETATM   28  C   UNL     1      -9.206   9.520  70.408  1.00  0.00    -0.305 C  
BRANCH  28  29
HETATM   29  C   UNL     1     -10.606   9.538  70.969  1.00  0.00    -0.392 A  
HETATM   30  C   UNL     1     -11.012   8.557  71.883  1.00  0.00    -0.394 A  
HETATM   31  C   UNL     1     -12.319   8.543  72.371  1.00  0.00    -0.424 A  
HETATM   32  C   UNL     1     -13.231   9.509  71.949  1.00  0.00    -0.524 A  
HETATM   33  C   UNL     1     -12.834  10.492  71.043  1.00  0.00    -0.502 A  
HETATM   34  C   UNL     1     -11.528  10.507  70.554  1.00  0.00    -0.433 A  
ENDBRANCH  28  29
ENDBRANCH  27  28
ENDBRANCH  24  27
ENDBRANCH  23  24
ENDBRANCH  20  22
ENDBRANCH  12  13
ENDBRANCH  11  12
ENDBRANCH   9  10
ENDBRANCH   8   9
ENDBRANCH   7   8
ENDBRANCH   4   7
ENDBRANCH   2   3
TORSDOF 12
ENDMDL
MODEL      125
REMARK 921   NORMALIZED FREE ENERGY PREDICTED BY IDOCK:   -5.09 KCAL/MOL
REMARK 922        TOTAL FREE ENERGY PREDICTED BY IDOCK:  -11.50 KCAL/MOL
REMARK 923 INTER-LIGAND FREE ENERGY PREDICTED BY IDOCK:   -8.80 KCAL/MOL
REMARK 924 INTRA-LIGAND FREE ENERGY PREDICTED BY IDOCK:   -2.70 KCAL/MOL
REMARK 927      BINDING AFFINITY PREDICTED BY RF-SCORE:    0.00 PKD
ROOT
HETATM    1  C   UNL     1     -13.049  10.254  70.899  1.00  0.00    -0.423 C  
HETATM    2  C   UNL     1     -13.086  11.371  71.926  1.00  0.00    -0.400 C  
ENDROOT
BRANCH   2   3
HETATM    3  N   UNL     1     -12.787  12.653  71.329  1.00  0.00    -0.319 N  
HETATM    4  C   UNL     1     -13.487  13.783  71.686  1.00  0.00    -0.333 C  
HETATM    5  H   UNL     1     -12.045  12.721  70.632  1.00  0.00     0.000 HD 
HETATM    6  O   UNL     1     -14.397  13.780  72.506  1.00  0.00    -0.696 OA 
BRANCH   4   7
HETATM    7  C   UNL     1     -13.011  15.034  70.974  1.00  0.00    -0.466 C  
BRANCH   7   8
HETATM    8  C   UNL     1     -11.915  14.705  69.957  1.00  0.00    -0.376 C  
BRANCH   8   9
HETATM    9  C   UNL     1     -11.545  15.882  69.055  1.00  0.00    -0.392 C  
BRANCH   9  10
HETATM   10  C   UNL     1     -11.162  15.437  67.672  1.00  0.00    -0.311 C  
HETATM   11  C   UNL     1      -9.926  15.380  67.151  1.00  0.00    -0.234 C  
BRANCH  11  12
HETATM   12  C   UNL     1      -8.643  15.780  67.826  1.00  0.00    -0.164 C  
BRANCH  12  13
HETATM   13  C   UNL     1      -7.507  14.766  67.630  1.00  0.00    -0.203 C  
HETATM   14  C   UNL     1      -6.091  15.334  67.807  1.00  0.00    -0.149 C  
HETATM   15  C   UNL     1      -5.255  14.102  68.128  1.00  0.00    -0.118 C  
HETATM   16  O   UNL     1      -6.016  16.227  68.913  1.00  0.00    -0.123 OA 
HETATM   17  H   UNL     1      -5.140  16.578  69.023  1.00  0.00     0.000 HD 
HETATM   18  C   UNL     1      -6.140  13.314  69.090  1.00  0.00    -0.094 C  
HETATM   19  O   UNL     1      -5.916  13.761  70.429  1.00  0.00    -0.150 OA 
HETATM   20  C   UNL     1      -7.598  13.630  68.683  1.00  0.00    -0.115 C  
HETATM   21  H   UNL     1      -6.467  13.271  71.028  1.00  0.00     0.000 HD 
BRANCH  20  22
HETATM   22  C   UNL     1      -8.302  12.407  68.135  1.00  0.00    -0.178 C  
HETATM   23  C   UNL     1      -9.172  11.674  68.850  1.00  0.00     0.045 C  
BRANCH  23  24
HETATM   24  C   UNL     1      -9.851  10.395  68.431  1.00  0.00    -0.162 C  
HETATM   25  H   UNL     1     -10.371   8.692  69.270  1.00  0.00     0.000 HD 
HETATM   26  O   UNL     1      -9.942   9.498  69.535  1.00  0.00    -0.174 OA 
BRANCH  24  27
HETATM   27  C   UNL     1     -11.270  10.617  67.893  1.00  0.00    -0.376 C  
BRANCH  27  28
HETATM   28  C   UNL     1     -11.530  12.051  67.424  1.00  0.00    -0.406 C  
BRANCH  28  29
HETATM   29  C   UNL     1     -11.410  12.170  65.925  1.00  0.00    -0.407 A  
HETATM   30  C   UNL     1     -12.207  13.084  65.224  1.00  0.00    -0.513 A  
HETATM   31  C   UNL     1     -12.132  13.166  63.833  1.00  0.00    -0.536 A  
HETATM   32  C   UNL     1     -11.259  12.336  63.132  1.00  0.00    -0.236 A  
HETATM   33  C   UNL     1     -10.458  11.427  63.822  1.00  0.00    -0.456 A  
HETATM   34  C   UNL     1     -10.533  11.343  65.212  1.00  0.00    -0.340 A  
ENDBRANCH  28  29
ENDBRANCH  27  28
ENDBRANCH  24  27
ENDBRANCH  23  24
ENDBRANCH  20  22
ENDBRANCH  12  13
ENDBRANCH  11  12
ENDBRANCH   9  10
ENDBRANCH   8   9
ENDBRANCH   7   8
ENDBRANCH   4   7
ENDBRANCH   2   3
TORSDOF 12
ENDMDL
MODEL      126
REMARK 921   NORMALIZED FREE ENERGY PREDICTED BY IDOCK:   -5.09 KCAL/MOL
REMARK 922        TOTAL FREE ENERGY PREDICTED BY IDOCK:  -11.50 KCAL/MOL
REMARK 923 INTER-LIGAND FREE ENERGY PREDICTED BY IDOCK:   -9.58 KCAL/MOL
REMARK 924 INTRA-LIGAND FREE ENERGY PREDICTED BY IDOCK:   -1.92 KCAL/MOL
REMARK 927      BINDING AFFINITY PREDICTED BY RF-SCORE:    0.00 PKD
ROOT
HETATM    1  C   UNL     1      -9.776   4.665  70.132  1.00  0.00    -0.285 C  
HETATM    2  C   UNL     1      -9.188   5.539  71.224  1.00  0.00    -0.146 C  
ENDROOT
BRANCH   2   3
HETATM    3  N   UNL     1      -9.970   6.739  71.423  1.00  0.00    -0.179 N  
HETATM    4  C   UNL     1     -10.973   6.785  72.365  1.00  0.00    -0.246 C  
HETATM    5  H   UNL     1      -9.775   7.565  70.857  1.00  0.00     0.000 HD 
HETATM    6  O   UNL     1     -11.273   5.833  73.074  1.00  0.00    -0.273 OA 
BRANCH   4   7
HETATM    7  C   UNL     1     -11.660   8.134  72.445  1.00  0.00    -0.463 C  
BRANCH   7   8
HETATM    8  C   UNL     1     -13.148   8.015  72.107  1.00  0.00    -0.225 C  
BRANCH   8   9
HETATM    9  C   UNL     1     -13.702   9.221  71.349  1.00  0.00    -0.325 C  
BRANCH   9  10
HETATM   10  C   UNL     1     -12.851  10.446  71.533  1.00  0.00    -0.569 C  
HETATM   11  C   UNL     1     -12.246  11.165  70.575  1.00  0.00    -0.475 C  
BRANCH  11  12
HETATM   12  C   UNL     1     -12.255  10.887  69.097  1.00  0.00    -0.181 C  
BRANCH  12  13
HETATM   13  C   UNL     1     -10.851  10.732  68.495  1.00  0.00    -0.270 C  
HETATM   14  C   UNL     1     -10.047   9.533  69.020  1.00  0.00    -0.193 C  
HETATM   15  C   UNL     1      -9.026   9.284  67.918  1.00  0.00    -0.130 C  
HETATM   16  O   UNL     1     -10.858   8.371  69.150  1.00  0.00    -0.394 OA 
HETATM   17  H   UNL     1     -10.361   7.630  69.474  1.00  0.00     0.000 HD 
HETATM   18  C   UNL     1      -9.838   9.455  66.637  1.00  0.00    -0.245 C  
HETATM   19  O   UNL     1     -10.454   8.213  66.287  1.00  0.00    -0.373 OA 
HETATM   20  C   UNL     1     -10.934  10.495  66.963  1.00  0.00    -0.247 C  
HETATM   21  H   UNL     1     -10.960   8.320  65.489  1.00  0.00     0.000 HD 
BRANCH  20  22
HETATM   22  C   UNL     1     -10.737  11.777  66.182  1.00  0.00    -0.320 C  
HETATM   23  C   UNL     1     -11.755  12.513  65.705  1.00  0.00    -0.473 C  
BRANCH  23  24
HETATM   24  C   UNL     1     -11.665  13.747  64.842  1.00  0.00    -0.363 C  
HETATM   25  H   UNL     1     -12.895  15.118  64.148  1.00  0.00     0.000 HD 
HETATM   26  O   UNL     1     -12.952  14.341  64.692  1.00  0.00    -0.621 OA 
BRANCH  24  27
HETATM   27  C   UNL     1     -10.724  14.814  65.416  1.00  0.00    -0.385 C  
BRANCH  27  28
HETATM   28  C   UNL     1     -11.050  15.204  66.861  1.00  0.00    -0.314 C  
BRANCH  28  29
HETATM   29  C   UNL     1     -10.222  16.381  67.312  1.00  0.00    -0.278 A  
HETATM   30  C   UNL     1     -10.696  17.232  68.319  1.00  0.00    -0.349 A  
HETATM   31  C   UNL     1      -9.955  18.348  68.710  1.00  0.00    -0.404 A  
HETATM   32  C   UNL     1      -8.734  18.622  68.096  1.00  0.00    -0.336 A  
HETATM   33  C   UNL     1      -8.253  17.779  67.096  1.00  0.00    -0.233 A  
HETATM   34  C   UNL     1      -8.992  16.664  66.705  1.00  0.00    -0.285 A  
ENDBRANCH  28  29
ENDBRANCH  27  28
ENDBRANCH  24  27
ENDBRANCH  23  24
ENDBRANCH  20  22
ENDBRANCH  12  13
ENDBRANCH  11  12
ENDBRANCH   9  10
ENDBRANCH   8   9
ENDBRANCH   7   8
ENDBRANCH   4   7
ENDBRANCH   2   3
TORSDOF 12
ENDMDL
MODEL      127
REMARK 921   NORMALIZED FREE ENERGY PREDICTED BY IDOCK:   -5.09 KCAL/MOL
REMARK 922        TOTAL FREE ENERGY PREDICTED BY IDOCK:  -11.49 KCAL/MOL
REMARK 923 INTER-LIGAND FREE ENERGY PREDICTED BY IDOCK:   -8.40 KCAL/MOL
REMARK 924 INTRA-LIGAND FREE ENERGY PREDICTED BY IDOCK:   -3.09 KCAL/MOL
REMARK 927      BINDING AFFINITY PREDICTED BY RF-SCORE:    0.00 PKD
ROOT
HETATM    1  C   UNL     1     -10.356  17.249  66.025  1.00  0.00    -0.312 C  
HETATM    2  C   UNL     1     -10.963  16.387  64.934  1.00  0.00    -0.263 C  
ENDROOT
BRANCH   2   3
HETATM    3  N   UNL     1     -11.261  15.056  65.412  1.00  0.00    -0.354 N  
HETATM    4  C   UNL     1     -12.134  14.236  64.733  1.00  0.00    -0.446 C  
HETATM    5  H   UNL     1     -10.818  14.719  66.267  1.00  0.00     0.000 HD 
HETATM    6  O   UNL     1     -12.712  14.573  63.707  1.00  0.00    -0.780 OA 
BRANCH   4   7
HETATM    7  C   UNL     1     -12.298  12.872  65.373  1.00  0.00    -0.538 C  
BRANCH   7   8
HETATM    8  C   UNL     1     -11.922  12.911  66.856  1.00  0.00    -0.402 C  
BRANCH   8   9
HETATM    9  C   UNL     1     -10.716  12.040  67.205  1.00  0.00    -0.277 C  
BRANCH   9  10
HETATM   10  C   UNL     1     -11.065  10.579  67.251  1.00  0.00    -0.284 C  
HETATM   11  C   UNL     1     -10.908   9.740  68.287  1.00  0.00    -0.256 C  
BRANCH  11  12
HETATM   12  C   UNL     1     -10.315  10.066  69.630  1.00  0.00    -0.274 C  
BRANCH  12  13
HETATM   13  C   UNL     1     -10.308   8.876  70.600  1.00  0.00    -0.265 C  
HETATM   14  C   UNL     1     -11.112   9.086  71.892  1.00  0.00    -0.363 C  
HETATM   15  C   UNL     1     -11.414   7.666  72.354  1.00  0.00    -0.392 C  
HETATM   16  O   UNL     1     -12.347   9.747  71.642  1.00  0.00    -0.364 OA 
HETATM   17  H   UNL     1     -12.845   9.877  72.441  1.00  0.00     0.000 HD 
HETATM   18  C   UNL     1     -11.778   6.943  71.061  1.00  0.00    -0.345 C  
HETATM   19  O   UNL     1     -13.173   7.105  70.793  1.00  0.00    -0.576 OA 
HETATM   20  C   UNL     1     -10.959   7.629  69.943  1.00  0.00    -0.208 C  
HETATM   21  H   UNL     1     -13.399   6.654  69.987  1.00  0.00     0.000 HD 
BRANCH  20  22
HETATM   22  C   UNL     1      -9.924   6.695  69.356  1.00  0.00    -0.169 C  
HETATM   23  C   UNL     1     -10.148   5.933  68.271  1.00  0.00    -0.203 C  
BRANCH  23  24
HETATM   24  C   UNL     1      -9.222   4.909  67.666  1.00  0.00    -0.124 C  
HETATM   25  H   UNL     1      -9.369   3.362  66.458  1.00  0.00     0.000 HD 
HETATM   26  O   UNL     1      -9.953   4.007  66.839  1.00  0.00    -0.187 OA 
BRANCH  24  27
HETATM   27  C   UNL     1      -8.114   5.534  66.808  1.00  0.00    -0.105 C  
BRANCH  27  28
HETATM   28  C   UNL     1      -8.641   6.453  65.703  1.00  0.00    -0.138 C  
BRANCH  28  29
HETATM   29  C   UNL     1      -8.243   7.888  65.944  1.00  0.00    -0.126 A  
HETATM   30  C   UNL     1      -8.523   8.869  64.984  1.00  0.00    -0.194 A  
HETATM   31  C   UNL     1      -8.117  10.189  65.182  1.00  0.00    -0.148 A  
HETATM   32  C   UNL     1      -7.427  10.539  66.341  1.00  0.00    -0.133 A  
HETATM   33  C   UNL     1      -7.148   9.570  67.304  1.00  0.00    -0.086 A  
HETATM   34  C   UNL     1      -7.552   8.250  67.108  1.00  0.00    -0.093 A  
ENDBRANCH  28  29
ENDBRANCH  27  28
ENDBRANCH  24  27
ENDBRANCH  23  24
ENDBRANCH  20  22
ENDBRANCH  12  13
ENDBRANCH  11  12
ENDBRANCH   9  10
ENDBRANCH   8   9
ENDBRANCH   7   8
ENDBRANCH   4   7
ENDBRANCH   2   3
TORSDOF 12
ENDMDL
MODEL      128
REMARK 921   NORMALIZED FREE ENERGY PREDICTED BY IDOCK:   -5.05 KCAL/MOL
REMARK 922        TOTAL FREE ENERGY PREDICTED BY IDOCK:  -11.43 KCAL/MOL
REMARK 923 INTER-LIGAND FREE ENERGY PREDICTED BY IDOCK:   -8.84 KCAL/MOL
REMARK 924 INTRA-LIGAND FREE ENERGY PREDICTED BY IDOCK:   -2.60 KCAL/MOL
REMARK 927      BINDING AFFINITY PREDICTED BY RF-SCORE:    0.00 PKD
ROOT
HETATM    1  C   UNL     1      -7.535   6.726  65.367  1.00  0.00    -0.084 C  
HETATM    2  C   UNL     1      -8.986   6.423  65.690  1.00  0.00    -0.004 C  
ENDROOT
BRANCH   2   3
HETATM    3  N   UNL     1      -9.225   6.424  67.115  1.00  0.00    -0.121 N  
HETATM    4  C   UNL     1     -10.494   6.259  67.623  1.00  0.00    -0.230 C  
HETATM    5  H   UNL     1      -8.441   6.549  67.756  1.00  0.00     0.000 HD 
HETATM    6  O   UNL     1     -11.486   6.114  66.919  1.00  0.00    -0.067 OA 
BRANCH   4   7
HETATM    7  C   UNL     1     -10.540   6.261  69.138  1.00  0.00    -0.325 C  
BRANCH   7   8
HETATM    8  C   UNL     1      -9.136   6.115  69.731  1.00  0.00    -0.144 C  
BRANCH   8   9
HETATM    9  C   UNL     1      -9.083   6.351  71.240  1.00  0.00    -0.148 C  
BRANCH   9  10
HETATM   10  C   UNL     1     -10.175   5.620  71.968  1.00  0.00    -0.252 C  
HETATM   11  C   UNL     1     -11.199   6.160  72.648  1.00  0.00    -0.312 C  
BRANCH  11  12
HETATM   12  C   UNL     1     -11.467   7.625  72.863  1.00  0.00    -0.342 C  
BRANCH  12  13
HETATM   13  C   UNL     1     -12.257   8.276  71.720  1.00  0.00    -0.367 C  
HETATM   14  C   UNL     1     -13.764   8.430  71.975  1.00  0.00    -0.374 C  
HETATM   15  C   UNL     1     -14.170   9.550  71.027  1.00  0.00     0.279 C  
HETATM   16  O   UNL     1     -14.032   8.852  73.308  1.00  0.00    -1.203 OA 
HETATM   17  H   UNL     1     -14.964   8.947  73.466  1.00  0.00     0.000 HD 
HETATM   18  C   UNL     1     -13.029  10.556  71.158  1.00  0.00    -0.411 C  
HETATM   19  O   UNL     1     -13.291  11.444  72.248  1.00  0.00    -0.629 OA 
HETATM   20  C   UNL     1     -11.763   9.726  71.467  1.00  0.00    -0.450 C  
HETATM   21  H   UNL     1     -12.581  12.069  72.330  1.00  0.00     0.000 HD 
BRANCH  20  22
HETATM   22  C   UNL     1     -10.762   9.792  70.334  1.00  0.00    -0.368 C  
HETATM   23  C   UNL     1     -11.045  10.314  69.128  1.00  0.00    -0.283 C  
BRANCH  23  24
HETATM   24  C   UNL     1     -10.154  10.344  67.913  1.00  0.00    -0.171 C  
HETATM   25  H   UNL     1      -9.967   9.335  66.233  1.00  0.00     0.000 HD 
HETATM   26  O   UNL     1     -10.529   9.316  66.999  1.00  0.00    -0.253 OA 
BRANCH  24  27
HETATM   27  C   UNL     1     -10.210  11.679  67.159  1.00  0.00    -0.240 C  
BRANCH  27  28
HETATM   28  C   UNL     1     -11.501  12.466  67.404  1.00  0.00    -0.418 C  
BRANCH  28  29
HETATM   29  C   UNL     1     -11.296  13.553  68.430  1.00  0.00    -0.327 A  
HETATM   30  C   UNL     1     -10.171  14.386  68.360  1.00  0.00    -0.243 A  
HETATM   31  C   UNL     1      -9.954  15.364  69.331  1.00  0.00    -0.272 A  
HETATM   32  C   UNL     1     -10.858  15.517  70.380  1.00  0.00    -0.356 A  
HETATM   33  C   UNL     1     -11.982  14.696  70.456  1.00  0.00    -0.376 A  
HETATM   34  C   UNL     1     -12.201  13.717  69.486  1.00  0.00    -0.344 A  
ENDBRANCH  28  29
ENDBRANCH  27  28
ENDBRANCH  24  27
ENDBRANCH  23  24
ENDBRANCH  20  22
ENDBRANCH  12  13
ENDBRANCH  11  12
ENDBRANCH   9  10
ENDBRANCH   8   9
ENDBRANCH   7   8
ENDBRANCH   4   7
ENDBRANCH   2   3
TORSDOF 12
ENDMDL
MODEL      129
REMARK 921   NORMALIZED FREE ENERGY PREDICTED BY IDOCK:   -5.04 KCAL/MOL
REMARK 922        TOTAL FREE ENERGY PREDICTED BY IDOCK:  -11.41 KCAL/MOL
REMARK 923 INTER-LIGAND FREE ENERGY PREDICTED BY IDOCK:   -9.03 KCAL/MOL
REMARK 924 INTRA-LIGAND FREE ENERGY PREDICTED BY IDOCK:   -2.38 KCAL/MOL
REMARK 927      BINDING AFFINITY PREDICTED BY RF-SCORE:    0.00 PKD
ROOT
HETATM    1  C   UNL     1     -10.109  17.484  66.453  1.00  0.00    -0.346 C  
HETATM    2  C   UNL     1     -10.737  16.454  65.532  1.00  0.00    -0.287 C  
ENDROOT
BRANCH   2   3
HETATM    3  N   UNL     1     -10.206  15.131  65.773  1.00  0.00    -0.315 N  
HETATM    4  C   UNL     1     -10.951  14.175  66.426  1.00  0.00    -0.311 C  
HETATM    5  H   UNL     1      -9.264  14.903  65.455  1.00  0.00     0.000 HD 
HETATM    6  O   UNL     1     -12.084  14.377  66.847  1.00  0.00    -0.425 OA 
BRANCH   4   7
HETATM    7  C   UNL     1     -10.237  12.846  66.561  1.00  0.00    -0.264 C  
BRANCH   7   8
HETATM    8  C   UNL     1     -10.833  12.012  67.698  1.00  0.00    -0.273 C  
BRANCH   8   9
HETATM    9  C   UNL     1     -10.991  10.532  67.353  1.00  0.00    -0.352 C  
BRANCH   9  10
HETATM   10  C   UNL     1      -9.756   9.964  66.713  1.00  0.00    -0.244 C  
HETATM   11  C   UNL     1      -8.628   9.575  67.328  1.00  0.00    -0.128 C  
BRANCH  11  12
HETATM   12  C   UNL     1      -8.332   9.652  68.801  1.00  0.00    -0.111 C  
BRANCH  12  13
HETATM   13  C   UNL     1      -8.726   8.383  69.570  1.00  0.00    -0.137 C  
HETATM   14  C   UNL     1      -7.740   7.213  69.444  1.00  0.00    -0.107 C  
HETATM   15  C   UNL     1      -8.034   6.369  70.677  1.00  0.00    -0.112 C  
HETATM   16  O   UNL     1      -6.388   7.653  69.515  1.00  0.00    -0.031 OA 
HETATM   17  H   UNL     1      -5.778   6.929  69.437  1.00  0.00     0.000 HD 
HETATM   18  C   UNL     1      -8.212   7.407  71.782  1.00  0.00    -0.103 C  
HETATM   19  O   UNL     1      -6.942   7.724  72.356  1.00  0.00    -0.061 OA 
HETATM   20  C   UNL     1      -8.792   8.665  71.096  1.00  0.00    -0.249 C  
HETATM   21  H   UNL     1      -7.053   8.370  73.044  1.00  0.00     0.000 HD 
BRANCH  20  22
HETATM   22  C   UNL     1     -10.204   8.952  71.557  1.00  0.00    -0.398 C  
HETATM   23  C   UNL     1     -11.288   8.742  70.789  1.00  0.00    -0.313 C  
BRANCH  23  24
HETATM   24  C   UNL     1     -12.720   9.079  71.118  1.00  0.00    -0.192 C  
HETATM   25  H   UNL     1     -13.877   9.074  72.710  1.00  0.00     0.000 HD 
HETATM   26  O   UNL     1     -12.975   8.862  72.503  1.00  0.00    -0.418 OA 
BRANCH  24  27
HETATM   27  C   UNL     1     -13.082  10.536  70.801  1.00  0.00    -0.335 C  
BRANCH  27  28
HETATM   28  C   UNL     1     -13.283  11.402  72.048  1.00  0.00    -0.432 C  
BRANCH  28  29
HETATM   29  C   UNL     1     -13.220  12.871  71.714  1.00  0.00    -0.479 A  
HETATM   30  C   UNL     1     -14.069  13.779  72.361  1.00  0.00    -0.593 A  
HETATM   31  C   UNL     1     -14.046  15.132  72.023  1.00  0.00    -0.659 A  
HETATM   32  C   UNL     1     -13.175  15.589  71.036  1.00  0.00    -0.539 A  
HETATM   33  C   UNL     1     -12.324  14.694  70.390  1.00  0.00    -0.399 A  
HETATM   34  C   UNL     1     -12.346  13.341  70.726  1.00  0.00    -0.425 A  
ENDBRANCH  28  29
ENDBRANCH  27  28
ENDBRANCH  24  27
ENDBRANCH  23  24
ENDBRANCH  20  22
ENDBRANCH  12  13
ENDBRANCH  11  12
ENDBRANCH   9  10
ENDBRANCH   8   9
ENDBRANCH   7   8
ENDBRANCH   4   7
ENDBRANCH   2   3
TORSDOF 12
ENDMDL
MODEL      130
REMARK 921   NORMALIZED FREE ENERGY PREDICTED BY IDOCK:   -5.03 KCAL/MOL
REMARK 922        TOTAL FREE ENERGY PREDICTED BY IDOCK:  -11.40 KCAL/MOL
REMARK 923 INTER-LIGAND FREE ENERGY PREDICTED BY IDOCK:   -8.74 KCAL/MOL
REMARK 924 INTRA-LIGAND FREE ENERGY PREDICTED BY IDOCK:   -2.66 KCAL/MOL
REMARK 927      BINDING AFFINITY PREDICTED BY RF-SCORE:    0.00 PKD
ROOT
HETATM    1  C   UNL     1      -6.671  11.873  68.325  1.00  0.00    -0.063 C  
HETATM    2  C   UNL     1      -6.743  11.443  66.872  1.00  0.00    -0.145 C  
ENDROOT
BRANCH   2   3
HETATM    3  N   UNL     1      -7.950  10.696  66.597  1.00  0.00    -0.128 N  
HETATM    4  C   UNL     1      -8.160  10.114  65.368  1.00  0.00    -0.149 C  
HETATM    5  H   UNL     1      -8.657  10.600  67.326  1.00  0.00     0.000 HD 
HETATM    6  O   UNL     1      -7.365  10.195  64.441  1.00  0.00    -0.138 OA 
BRANCH   4   7
HETATM    7  C   UNL     1      -9.468   9.352  65.281  1.00  0.00    -0.296 C  
BRANCH   7   8
HETATM    8  C   UNL     1     -10.111   9.202  66.662  1.00  0.00    -0.343 C  
BRANCH   8   9
HETATM    9  C   UNL     1     -10.492   7.763  67.006  1.00  0.00    -0.419 C  
BRANCH   9  10
HETATM   10  C   UNL     1      -9.478   7.105  67.897  1.00  0.00    -0.135 C  
HETATM   11  C   UNL     1      -9.715   6.404  69.018  1.00  0.00    -0.145 C  
BRANCH  11  12
HETATM   12  C   UNL     1     -11.054   6.148  69.655  1.00  0.00    -0.489 C  
BRANCH  12  13
HETATM   13  C   UNL     1     -11.305   6.993  70.911  1.00  0.00    -0.334 C  
HETATM   14  C   UNL     1     -10.835   6.357  72.228  1.00  0.00    -0.239 C  
HETATM   15  C   UNL     1     -10.667   7.552  73.157  1.00  0.00    -0.452 C  
HETATM   16  O   UNL     1      -9.571   5.720  72.084  1.00  0.00    -0.150 OA 
HETATM   17  H   UNL     1      -9.280   5.326  72.898  1.00  0.00     0.000 HD 
HETATM   18  C   UNL     1     -10.007   8.602  72.267  1.00  0.00    -0.291 C  
HETATM   19  O   UNL     1      -8.587   8.436  72.295  1.00  0.00    -0.180 OA 
HETATM   20  C   UNL     1     -10.525   8.333  70.835  1.00  0.00    -0.230 C  
HETATM   21  H   UNL     1      -8.177   9.089  71.741  1.00  0.00     0.000 HD 
BRANCH  20  22
HETATM   22  C   UNL     1     -11.396   9.466  70.335  1.00  0.00    -0.295 C  
HETATM   23  C   UNL     1     -10.901  10.605  69.821  1.00  0.00    -0.317 C  
BRANCH  23  24
HETATM   24  C   UNL     1     -11.676  11.822  69.384  1.00  0.00    -0.341 C  
HETATM   25  H   UNL     1     -12.662  13.293  70.242  1.00  0.00     0.000 HD 
HETATM   26  O   UNL     1     -12.174  12.527  70.518  1.00  0.00    -0.365 OA 
BRANCH  24  27
HETATM   27  C   UNL     1     -10.835  12.805  68.559  1.00  0.00    -0.279 C  
BRANCH  27  28
HETATM   28  C   UNL     1     -11.669  13.710  67.647  1.00  0.00    -0.398 C  
BRANCH  28  29
HETATM   29  C   UNL     1     -11.534  13.308  66.200  1.00  0.00    -0.359 A  
HETATM   30  C   UNL     1     -12.651  12.851  65.488  1.00  0.00    -0.359 A  
HETATM   31  C   UNL     1     -12.523  12.436  64.162  1.00  0.00    -0.534 A  
HETATM   32  C   UNL     1     -11.277  12.474  63.537  1.00  0.00    -0.525 A  
HETATM   33  C   UNL     1     -10.162  12.931  64.237  1.00  0.00    -0.337 A  
HETATM   34  C   UNL     1     -10.288  13.346  65.562  1.00  0.00    -0.302 A  
ENDBRANCH  28  29
ENDBRANCH  27  28
ENDBRANCH  24  27
ENDBRANCH  23  24
ENDBRANCH  20  22
ENDBRANCH  12  13
ENDBRANCH  11  12
ENDBRANCH   9  10
ENDBRANCH   8   9
ENDBRANCH   7   8
ENDBRANCH   4   7
ENDBRANCH   2   3
TORSDOF 12
ENDMDL
MODEL      131
REMARK 921   NORMALIZED FREE ENERGY PREDICTED BY IDOCK:   -5.03 KCAL/MOL
REMARK 922        TOTAL FREE ENERGY PREDICTED BY IDOCK:  -11.39 KCAL/MOL
REMARK 923 INTER-LIGAND FREE ENERGY PREDICTED BY IDOCK:   -8.47 KCAL/MOL
REMARK 924 INTRA-LIGAND FREE ENERGY PREDICTED BY IDOCK:   -2.92 KCAL/MOL
REMARK 927      BINDING AFFINITY PREDICTED BY RF-SCORE:    0.00 PKD
ROOT
HETATM    1  C   UNL     1      -6.696   7.752  73.119  1.00  0.00    -0.082 C  
HETATM    2  C   UNL     1      -6.116   6.997  71.938  1.00  0.00    -0.038 C  
ENDROOT
BRANCH   2   3
HETATM    3  N   UNL     1      -6.878   7.229  70.732  1.00  0.00    -0.052 N  
HETATM    4  C   UNL     1      -7.943   6.421  70.399  1.00  0.00    -0.112 C  
HETATM    5  H   UNL     1      -6.624   8.002  70.118  1.00  0.00     0.000 HD 
HETATM    6  O   UNL     1      -8.301   5.467  71.078  1.00  0.00    -0.116 OA 
BRANCH   4   7
HETATM    7  C   UNL     1      -8.633   6.837  69.115  1.00  0.00    -0.131 C  
BRANCH   7   8
HETATM    8  C   UNL     1      -7.705   7.684  68.240  1.00  0.00    -0.120 C  
BRANCH   8   9
HETATM    9  C   UNL     1      -8.299   9.038  67.851  1.00  0.00    -0.117 C  
BRANCH   9  10
HETATM   10  C   UNL     1      -9.699   8.911  67.320  1.00  0.00    -0.235 C  
HETATM   11  C   UNL     1     -10.193   9.458  66.197  1.00  0.00    -0.264 C  
BRANCH  11  12
HETATM   12  C   UNL     1      -9.463  10.351  65.232  1.00  0.00    -0.290 C  
BRANCH  12  13
HETATM   13  C   UNL     1      -9.996  11.791  65.210  1.00  0.00    -0.284 C  
HETATM   14  C   UNL     1     -10.329  12.339  63.815  1.00  0.00    -0.435 C  
HETATM   15  C   UNL     1     -11.318  13.461  64.103  1.00  0.00    -0.398 C  
HETATM   16  O   UNL     1     -10.981  11.365  63.007  1.00  0.00    -0.773 OA 
HETATM   17  H   UNL     1     -11.188  11.704  62.145  1.00  0.00     0.000 HD 
HETATM   18  C   UNL     1     -12.220  12.869  65.183  1.00  0.00    -0.470 C  
HETATM   19  O   UNL     1     -13.290  12.143  64.573  1.00  0.00    -0.691 OA 
HETATM   20  C   UNL     1     -11.334  11.893  65.990  1.00  0.00    -0.375 C  
HETATM   21  H   UNL     1     -13.851  11.774  65.246  1.00  0.00     0.000 HD 
BRANCH  20  22
HETATM   22  C   UNL     1     -11.124  12.373  67.410  1.00  0.00    -0.320 C  
HETATM   23  C   UNL     1     -11.666  11.768  68.481  1.00  0.00    -0.390 C  
BRANCH  23  24
HETATM   24  C   UNL     1     -11.595  12.218  69.918  1.00  0.00    -0.203 C  
HETATM   25  H   UNL     1     -12.612  13.406  71.113  1.00  0.00     0.000 HD 
HETATM   26  O   UNL     1     -12.657  13.123  70.208  1.00  0.00    -0.191 OA 
BRANCH  24  27
HETATM   27  C   UNL     1     -11.688  11.057  70.916  1.00  0.00    -0.185 C  
BRANCH  27  28
HETATM   28  C   UNL     1     -10.539  10.051  70.795  1.00  0.00    -0.209 C  
BRANCH  28  29
HETATM   29  C   UNL     1     -10.914   8.714  71.384  1.00  0.00    -0.341 A  
HETATM   30  C   UNL     1     -10.367   8.304  72.607  1.00  0.00    -0.374 A  
HETATM   31  C   UNL     1     -10.675   7.049  73.134  1.00  0.00    -0.359 A  
HETATM   32  C   UNL     1     -11.532   6.195  72.442  1.00  0.00    -0.349 A  
HETATM   33  C   UNL     1     -12.084   6.596  71.227  1.00  0.00    -0.395 A  
HETATM   34  C   UNL     1     -11.776   7.849  70.698  1.00  0.00    -0.169 A  
ENDBRANCH  28  29
ENDBRANCH  27  28
ENDBRANCH  24  27
ENDBRANCH  23  24
ENDBRANCH  20  22
ENDBRANCH  12  13
ENDBRANCH  11  12
ENDBRANCH   9  10
ENDBRANCH   8   9
ENDBRANCH   7   8
ENDBRANCH   4   7
ENDBRANCH   2   3
TORSDOF 12
ENDMDL
MODEL      132
REMARK 921   NORMALIZED FREE ENERGY PREDICTED BY IDOCK:   -5.02 KCAL/MOL
REMARK 922        TOTAL FREE ENERGY PREDICTED BY IDOCK:  -11.38 KCAL/MOL
REMARK 923 INTER-LIGAND FREE ENERGY PREDICTED BY IDOCK:   -9.65 KCAL/MOL
REMARK 924 INTRA-LIGAND FREE ENERGY PREDICTED BY IDOCK:   -1.73 KCAL/MOL
REMARK 927      BINDING AFFINITY PREDICTED BY RF-SCORE:    0.00 PKD
ROOT
HETATM    1  C   UNL     1     -14.319   8.002  71.619  1.00  0.00    -0.581 C  
HETATM    2  C   UNL     1     -12.821   8.193  71.767  1.00  0.00    -0.333 C  
ENDROOT
BRANCH   2   3
HETATM    3  N   UNL     1     -12.222   7.123  72.533  1.00  0.00    -0.502 N  
HETATM    4  C   UNL     1     -10.973   7.266  73.095  1.00  0.00    -0.340 C  
HETATM    5  H   UNL     1     -12.733   6.249  72.660  1.00  0.00     0.000 HD 
HETATM    6  O   UNL     1     -10.295   8.279  72.979  1.00  0.00    -0.275 OA 
BRANCH   4   7
HETATM    7  C   UNL     1     -10.527   6.050  73.883  1.00  0.00    -0.286 C  
BRANCH   7   8
HETATM    8  C   UNL     1     -11.309   4.803  73.460  1.00  0.00    -0.340 C  
BRANCH   8   9
HETATM    9  C   UNL     1     -10.459   3.770  72.721  1.00  0.00    -0.222 C  
BRANCH   9  10
HETATM   10  C   UNL     1      -9.178   4.356  72.200  1.00  0.00    -0.164 C  
HETATM   11  C   UNL     1      -8.912   4.734  70.940  1.00  0.00    -0.160 C  
BRANCH  11  12
HETATM   12  C   UNL     1      -9.829   4.625  69.753  1.00  0.00    -0.296 C  
BRANCH  12  13
HETATM   13  C   UNL     1      -9.222   5.183  68.458  1.00  0.00    -0.145 C  
HETATM   14  C   UNL     1      -8.884   4.130  67.392  1.00  0.00    -0.116 C  
HETATM   15  C   UNL     1      -8.865   4.932  66.098  1.00  0.00    -0.122 C  
HETATM   16  O   UNL     1      -9.900   3.139  67.289  1.00  0.00    -0.342 OA 
HETATM   17  H   UNL     1      -9.690   2.488  66.630  1.00  0.00     0.000 HD 
HETATM   18  C   UNL     1     -10.071   5.857  66.237  1.00  0.00    -0.046 C  
HETATM   19  O   UNL     1     -11.244   5.196  65.758  1.00  0.00    -0.808 OA 
HETATM   20  C   UNL     1     -10.222   6.136  67.750  1.00  0.00    -0.211 C  
HETATM   21  H   UNL     1     -11.995   5.772  65.845  1.00  0.00     0.000 HD 
BRANCH  20  22
HETATM   22  C   UNL     1      -9.949   7.587  68.080  1.00  0.00    -0.198 C  
HETATM   23  C   UNL     1     -10.519   8.614  67.425  1.00  0.00    -0.351 C  
BRANCH  23  24
HETATM   24  C   UNL     1     -10.246  10.084  67.614  1.00  0.00    -0.204 C  
HETATM   25  H   UNL     1     -10.564  11.753  66.620  1.00  0.00     0.000 HD 
HETATM   26  O   UNL     1     -10.736  10.826  66.500  1.00  0.00    -0.240 OA 
BRANCH  24  27
HETATM   27  C   UNL     1     -10.896  10.658  68.879  1.00  0.00    -0.272 C  
BRANCH  27  28
HETATM   28  C   UNL     1     -11.282  12.134  68.753  1.00  0.00    -0.314 C  
BRANCH  28  29
HETATM   29  C   UNL     1     -12.031  12.613  69.971  1.00  0.00    -0.377 A  
HETATM   30  C   UNL     1     -12.524  11.691  70.904  1.00  0.00    -0.440 A  
HETATM   31  C   UNL     1     -13.256  12.126  72.009  1.00  0.00    -0.496 A  
HETATM   32  C   UNL     1     -13.503  13.486  72.190  1.00  0.00    -0.631 A  
HETATM   33  C   UNL     1     -13.013  14.411  71.269  1.00  0.00    -0.414 A  
HETATM   34  C   UNL     1     -12.281  13.978  70.164  1.00  0.00    -0.425 A  
ENDBRANCH  28  29
ENDBRANCH  27  28
ENDBRANCH  24  27
ENDBRANCH  23  24
ENDBRANCH  20  22
ENDBRANCH  12  13
ENDBRANCH  11  12
ENDBRANCH   9  10
ENDBRANCH   8   9
ENDBRANCH   7   8
ENDBRANCH   4   7
ENDBRANCH   2   3
TORSDOF 12
ENDMDL
MODEL      133
REMARK 921   NORMALIZED FREE ENERGY PREDICTED BY IDOCK:   -5.01 KCAL/MOL
REMARK 922        TOTAL FREE ENERGY PREDICTED BY IDOCK:  -11.36 KCAL/MOL
REMARK 923 INTER-LIGAND FREE ENERGY PREDICTED BY IDOCK:   -9.26 KCAL/MOL
REMARK 924 INTRA-LIGAND FREE ENERGY PREDICTED BY IDOCK:   -2.10 KCAL/MOL
REMARK 927      BINDING AFFINITY PREDICTED BY RF-SCORE:    0.00 PKD
ROOT
HETATM    1  C   UNL     1      -9.112   1.495  68.729  1.00  0.00    -0.171 C  
HETATM    2  C   UNL     1      -9.115   2.414  69.937  1.00  0.00    -0.109 C  
ENDROOT
BRANCH   2   3
HETATM    3  N   UNL     1      -9.512   3.758  69.582  1.00  0.00    -0.180 N  
HETATM    4  C   UNL     1      -8.573   4.724  69.300  1.00  0.00    -0.083 C  
HETATM    5  H   UNL     1     -10.504   3.994  69.541  1.00  0.00     0.000 HD 
HETATM    6  O   UNL     1      -7.366   4.521  69.339  1.00  0.00    -0.051 OA 
BRANCH   4   7
HETATM    7  C   UNL     1      -9.182   6.061  68.924  1.00  0.00    -0.125 C  
BRANCH   7   8
HETATM    8  C   UNL     1      -8.162   6.948  68.206  1.00  0.00    -0.123 C  
BRANCH   8   9
HETATM    9  C   UNL     1      -8.792   7.933  67.223  1.00  0.00    -0.131 C  
BRANCH   9  10
HETATM   10  C   UNL     1      -8.521   9.362  67.598  1.00  0.00    -0.119 C  
HETATM   11  C   UNL     1      -9.028  10.463  67.021  1.00  0.00    -0.150 C  
BRANCH  11  12
HETATM   12  C   UNL     1      -9.961  10.516  65.843  1.00  0.00    -0.313 C  
BRANCH  12  13
HETATM   13  C   UNL     1     -10.379  11.942  65.457  1.00  0.00    -0.303 C  
HETATM   14  C   UNL     1     -10.410  12.225  63.948  1.00  0.00    -0.429 C  
HETATM   15  C   UNL     1     -11.355  13.414  63.832  1.00  0.00    -0.298 C  
HETATM   16  O   UNL     1     -10.967  11.138  63.219  1.00  0.00    -0.753 OA 
HETATM   17  H   UNL     1     -10.986  11.313  62.286  1.00  0.00     0.000 HD 
HETATM   18  C   UNL     1     -12.480  13.068  64.804  1.00  0.00    -0.427 C  
HETATM   19  O   UNL     1     -13.467  12.276  64.139  1.00  0.00    -0.594 OA 
HETATM   20  C   UNL     1     -11.829  12.235  65.931  1.00  0.00    -0.420 C  
HETATM   21  H   UNL     1     -14.167  12.061  64.744  1.00  0.00     0.000 HD 
BRANCH  20  22
HETATM   22  C   UNL     1     -11.853  12.969  67.254  1.00  0.00    -0.419 C  
HETATM   23  C   UNL     1     -11.592  12.376  68.432  1.00  0.00    -0.373 C  
BRANCH  23  24
HETATM   24  C   UNL     1     -11.680  12.992  69.805  1.00  0.00    -0.276 C  
HETATM   25  H   UNL     1     -12.555  14.545  70.639  1.00  0.00     0.000 HD 
HETATM   26  O   UNL     1     -12.501  14.157  69.774  1.00  0.00    -0.332 OA 
BRANCH  24  27
HETATM   27  C   UNL     1     -12.263  12.039  70.855  1.00  0.00    -0.325 C  
BRANCH  27  28
HETATM   28  C   UNL     1     -12.428  10.601  70.353  1.00  0.00    -0.421 C  
BRANCH  28  29
HETATM   29  C   UNL     1     -11.624   9.633  71.185  1.00  0.00    -0.456 A  
HETATM   30  C   UNL     1     -10.234   9.550  71.024  1.00  0.00    -0.332 A  
HETATM   31  C   UNL     1      -9.492   8.625  71.758  1.00  0.00    -0.354 A  
HETATM   32  C   UNL     1     -10.131   7.775  72.658  1.00  0.00    -0.320 A  
HETATM   33  C   UNL     1     -11.513   7.853  72.828  1.00  0.00    -0.428 A  
HETATM   34  C   UNL     1     -12.257   8.777  72.095  1.00  0.00    -0.448 A  
ENDBRANCH  28  29
ENDBRANCH  27  28
ENDBRANCH  24  27
ENDBRANCH  23  24
ENDBRANCH  20  22
ENDBRANCH  12  13
ENDBRANCH  11  12
ENDBRANCH   9  10
ENDBRANCH   8   9
ENDBRANCH   7   8
ENDBRANCH   4   7
ENDBRANCH   2   3
TORSDOF 12
ENDMDL
MODEL      134
REMARK 921   NORMALIZED FREE ENERGY PREDICTED BY IDOCK:   -5.01 KCAL/MOL
REMARK 922        TOTAL FREE ENERGY PREDICTED BY IDOCK:  -11.36 KCAL/MOL
REMARK 923 INTER-LIGAND FREE ENERGY PREDICTED BY IDOCK:   -9.53 KCAL/MOL
REMARK 924 INTRA-LIGAND FREE ENERGY PREDICTED BY IDOCK:   -1.83 KCAL/MOL
REMARK 927      BINDING AFFINITY PREDICTED BY RF-SCORE:    0.00 PKD
ROOT
HETATM    1  C   UNL     1     -10.109   4.044  72.454  1.00  0.00    -0.242 C  
HETATM    2  C   UNL     1      -9.575   3.844  71.048  1.00  0.00    -0.181 C  
ENDROOT
BRANCH   2   3
HETATM    3  N   UNL     1     -10.218   4.731  70.104  1.00  0.00    -0.236 N  
HETATM    4  C   UNL     1      -9.652   5.940  69.768  1.00  0.00    -0.153 C  
HETATM    5  H   UNL     1     -11.104   4.456  69.681  1.00  0.00     0.000 HD 
HETATM    6  O   UNL     1      -8.597   6.344  70.240  1.00  0.00    -0.132 OA 
BRANCH   4   7
HETATM    7  C   UNL     1     -10.459   6.716  68.745  1.00  0.00    -0.241 C  
BRANCH   7   8
HETATM    8  C   UNL     1      -9.544   7.391  67.720  1.00  0.00    -0.162 C  
BRANCH   8   9
HETATM    9  C   UNL     1     -10.286   8.311  66.751  1.00  0.00    -0.375 C  
BRANCH   9  10
HETATM   10  C   UNL     1     -10.651   9.624  67.382  1.00  0.00    -0.333 C  
HETATM   11  C   UNL     1     -10.749  10.818  66.775  1.00  0.00    -0.291 C  
BRANCH  11  12
HETATM   12  C   UNL     1     -10.482  11.116  65.325  1.00  0.00    -0.326 C  
BRANCH  12  13
HETATM   13  C   UNL     1     -10.553  12.612  64.987  1.00  0.00    -0.329 C  
HETATM   14  C   UNL     1     -11.808  13.046  64.215  1.00  0.00    -0.396 C  
HETATM   15  C   UNL     1     -11.908  14.536  64.512  1.00  0.00    -0.459 C  
HETATM   16  O   UNL     1     -12.979  12.410  64.714  1.00  0.00    -0.786 OA 
HETATM   17  H   UNL     1     -13.756  12.678  64.237  1.00  0.00     0.000 HD 
HETATM   18  C   UNL     1     -11.572  14.623  65.999  1.00  0.00    -0.328 C  
HETATM   19  O   UNL     1     -12.759  14.434  66.774  1.00  0.00    -0.477 OA 
HETATM   20  C   UNL     1     -10.587  13.467  66.282  1.00  0.00    -0.292 C  
HETATM   21  H   UNL     1     -12.549  14.489  67.699  1.00  0.00     0.000 HD 
BRANCH  20  22
HETATM   22  C   UNL     1      -9.213  13.982  66.654  1.00  0.00    -0.262 C  
HETATM   23  C   UNL     1      -8.803  14.137  67.925  1.00  0.00    -0.182 C  
BRANCH  23  24
HETATM   24  C   UNL     1      -7.498  14.725  68.399  1.00  0.00    -0.114 C  
HETATM   25  H   UNL     1      -5.803  15.320  67.594  1.00  0.00     0.000 HD 
HETATM   26  O   UNL     1      -6.626  14.950  67.295  1.00  0.00    -0.297 OA 
BRANCH  24  27
HETATM   27  C   UNL     1      -7.673  16.061  69.133  1.00  0.00    -0.231 C  
BRANCH  27  28
HETATM   28  C   UNL     1      -7.300  17.280  68.283  1.00  0.00    -0.214 C  
BRANCH  28  29
HETATM   29  C   UNL     1      -8.529  18.017  67.810  1.00  0.00    -0.247 A  
HETATM   30  C   UNL     1      -9.180  17.621  66.634  1.00  0.00    -0.284 A  
HETATM   31  C   UNL     1     -10.289  18.327  66.169  1.00  0.00    -0.414 A  
HETATM   32  C   UNL     1     -10.757  19.434  66.874  1.00  0.00    -0.570 A  
HETATM   33  C   UNL     1     -10.118  19.832  68.047  1.00  0.00    -0.571 A  
HETATM   34  C   UNL     1      -9.008  19.128  68.514  1.00  0.00    -0.406 A  
ENDBRANCH  28  29
ENDBRANCH  27  28
ENDBRANCH  24  27
ENDBRANCH  23  24
ENDBRANCH  20  22
ENDBRANCH  12  13
ENDBRANCH  11  12
ENDBRANCH   9  10
ENDBRANCH   8   9
ENDBRANCH   7   8
ENDBRANCH   4   7
ENDBRANCH   2   3
TORSDOF 12
ENDMDL
MODEL      135
REMARK 921   NORMALIZED FREE ENERGY PREDICTED BY IDOCK:   -5.00 KCAL/MOL
REMARK 922        TOTAL FREE ENERGY PREDICTED BY IDOCK:  -11.35 KCAL/MOL
REMARK 923 INTER-LIGAND FREE ENERGY PREDICTED BY IDOCK:   -8.59 KCAL/MOL
REMARK 924 INTRA-LIGAND FREE ENERGY PREDICTED BY IDOCK:   -2.76 KCAL/MOL
REMARK 927      BINDING AFFINITY PREDICTED BY RF-SCORE:    0.00 PKD
ROOT
HETATM    1  C   UNL     1     -11.807  14.965  69.135  1.00  0.00    -0.340 C  
HETATM    2  C   UNL     1     -11.701  15.151  67.633  1.00  0.00    -0.216 C  
ENDROOT
BRANCH   2   3
HETATM    3  N   UNL     1     -11.309  13.928  66.972  1.00  0.00    -0.313 N  
HETATM    4  C   UNL     1     -12.040  13.423  65.920  1.00  0.00    -0.439 C  
HETATM    5  H   UNL     1     -10.477  13.430  67.289  1.00  0.00     0.000 HD 
HETATM    6  O   UNL     1     -13.054  13.957  65.489  1.00  0.00    -0.699 OA 
BRANCH   4   7
HETATM    7  C   UNL     1     -11.457  12.149  65.340  1.00  0.00    -0.387 C  
BRANCH   7   8
HETATM    8  C   UNL     1      -9.947  12.076  65.580  1.00  0.00    -0.270 C  
BRANCH   8   9
HETATM    9  C   UNL     1      -9.563  11.267  66.819  1.00  0.00    -0.214 C  
BRANCH   9  10
HETATM   10  C   UNL     1     -10.560  10.185  67.122  1.00  0.00    -0.308 C  
HETATM   11  C   UNL     1     -11.397  10.123  68.170  1.00  0.00    -0.171 C  
BRANCH  11  12
HETATM   12  C   UNL     1     -11.502  11.111  69.299  1.00  0.00    -0.363 C  
BRANCH  12  13
HETATM   13  C   UNL     1     -11.491  10.454  70.687  1.00  0.00    -0.438 C  
HETATM   14  C   UNL     1     -12.873  10.274  71.333  1.00  0.00    -0.441 C  
HETATM   15  C   UNL     1     -12.650   9.154  72.340  1.00  0.00    -0.381 C  
HETATM   16  O   UNL     1     -13.844   9.839  70.387  1.00  0.00    -0.400 OA 
HETATM   17  H   UNL     1     -14.699   9.728  70.786  1.00  0.00     0.000 HD 
HETATM   18  C   UNL     1     -11.769   8.166  71.580  1.00  0.00    -0.286 C  
HETATM   19  O   UNL     1     -12.588   7.267  70.829  1.00  0.00    -0.569 OA 
HETATM   20  C   UNL     1     -10.916   9.014  70.609  1.00  0.00    -0.308 C  
HETATM   21  H   UNL     1     -12.039   6.652  70.356  1.00  0.00     0.000 HD 
BRANCH  20  22
HETATM   22  C   UNL     1      -9.448   8.972  70.972  1.00  0.00    -0.342 C  
HETATM   23  C   UNL     1      -8.486   9.541  70.224  1.00  0.00    -0.237 C  
BRANCH  23  24
HETATM   24  C   UNL     1      -6.997   9.477  70.448  1.00  0.00    -0.112 C  
HETATM   25  H   UNL     1      -5.758   9.589  71.974  1.00  0.00     0.000 HD 
HETATM   26  O   UNL     1      -6.697   9.629  71.833  1.00  0.00    -0.279 OA 
BRANCH  24  27
HETATM   27  C   UNL     1      -6.375   8.156  69.979  1.00  0.00    -0.032 C  
BRANCH  27  28
HETATM   28  C   UNL     1      -6.884   7.691  68.612  1.00  0.00    -0.066 C  
BRANCH  28  29
HETATM   29  C   UNL     1      -8.070   6.769  68.751  1.00  0.00    -0.120 A  
HETATM   30  C   UNL     1      -9.176   6.910  67.903  1.00  0.00    -0.124 A  
HETATM   31  C   UNL     1     -10.294   6.090  68.056  1.00  0.00    -0.250 A  
HETATM   32  C   UNL     1     -10.316   5.122  69.059  1.00  0.00    -0.205 A  
HETATM   33  C   UNL     1      -9.218   4.971  69.904  1.00  0.00    -0.175 A  
HETATM   34  C   UNL     1      -8.100   5.791  69.753  1.00  0.00    -0.104 A  
ENDBRANCH  28  29
ENDBRANCH  27  28
ENDBRANCH  24  27
ENDBRANCH  23  24
ENDBRANCH  20  22
ENDBRANCH  12  13
ENDBRANCH  11  12
ENDBRANCH   9  10
ENDBRANCH   8   9
ENDBRANCH   7   8
ENDBRANCH   4   7
ENDBRANCH   2   3
TORSDOF 12
ENDMDL
MODEL      136
REMARK 921   NORMALIZED FREE ENERGY PREDICTED BY IDOCK:   -5.00 KCAL/MOL
REMARK 922        TOTAL FREE ENERGY PREDICTED BY IDOCK:  -11.34 KCAL/MOL
REMARK 923 INTER-LIGAND FREE ENERGY PREDICTED BY IDOCK:   -9.63 KCAL/MOL
REMARK 924 INTRA-LIGAND FREE ENERGY PREDICTED BY IDOCK:   -1.71 KCAL/MOL
REMARK 927      BINDING AFFINITY PREDICTED BY RF-SCORE:    0.00 PKD
ROOT
HETATM    1  C   UNL     1     -12.324  12.337  63.877  1.00  0.00    -0.606 C  
HETATM    2  C   UNL     1     -10.992  11.664  63.605  1.00  0.00    -0.431 C  
ENDROOT
BRANCH   2   3
HETATM    3  N   UNL     1     -10.467  11.025  64.790  1.00  0.00    -0.325 N  
HETATM    4  C   UNL     1      -9.591   9.967  64.698  1.00  0.00    -0.297 C  
HETATM    5  H   UNL     1     -10.751  11.363  65.710  1.00  0.00     0.000 HD 
HETATM    6  O   UNL     1      -9.213   9.499  63.632  1.00  0.00    -0.206 OA 
BRANCH   4   7
HETATM    7  C   UNL     1      -9.131   9.449  66.047  1.00  0.00    -0.228 C  
BRANCH   7   8
HETATM    8  C   UNL     1     -10.060   8.346  66.558  1.00  0.00    -0.317 C  
BRANCH   8   9
HETATM    9  C   UNL     1     -10.193   8.315  68.081  1.00  0.00    -0.255 C  
BRANCH   9  10
HETATM   10  C   UNL     1      -8.867   8.467  68.769  1.00  0.00    -0.140 C  
HETATM   11  C   UNL     1      -8.353   7.675  69.724  1.00  0.00    -0.133 C  
BRANCH  11  12
HETATM   12  C   UNL     1      -9.006   6.472  70.346  1.00  0.00    -0.152 C  
BRANCH  12  13
HETATM   13  C   UNL     1      -9.557   6.735  71.754  1.00  0.00    -0.157 C  
HETATM   14  C   UNL     1      -8.901   5.914  72.874  1.00  0.00    -0.123 C  
HETATM   15  C   UNL     1      -9.184   6.734  74.126  1.00  0.00    -0.234 C  
HETATM   16  O   UNL     1      -7.490   5.827  72.706  1.00  0.00    -0.093 OA 
HETATM   17  H   UNL     1      -7.084   5.319  73.398  1.00  0.00     0.000 HD 
HETATM   18  C   UNL     1      -8.941   8.170  73.670  1.00  0.00    -0.205 C  
HETATM   19  O   UNL     1      -7.558   8.498  73.823  1.00  0.00    -0.337 OA 
HETATM   20  C   UNL     1      -9.315   8.211  72.171  1.00  0.00    -0.270 C  
HETATM   21  H   UNL     1      -7.407   9.392  73.539  1.00  0.00     0.000 HD 
BRANCH  20  22
HETATM   22  C   UNL     1     -10.532   9.075  71.922  1.00  0.00    -0.373 C  
HETATM   23  C   UNL     1     -11.767   8.576  71.742  1.00  0.00    -0.392 C  
BRANCH  23  24
HETATM   24  C   UNL     1     -13.021   9.339  71.399  1.00  0.00    -0.326 C  
HETATM   25  H   UNL     1     -14.719   9.802  72.281  1.00  0.00     0.000 HD 
HETATM   26  O   UNL     1     -13.929   9.321  72.497  1.00  0.00    -0.459 OA 
BRANCH  24  27
HETATM   27  C   UNL     1     -12.752  10.807  71.042  1.00  0.00    -0.513 C  
BRANCH  27  28
HETATM   28  C   UNL     1     -13.436  11.801  71.984  1.00  0.00    -0.319 C  
BRANCH  28  29
HETATM   29  C   UNL     1     -13.058  13.223  71.653  1.00  0.00    -0.453 A  
HETATM   30  C   UNL     1     -12.406  13.517  70.448  1.00  0.00    -0.397 A  
HETATM   31  C   UNL     1     -12.014  14.824  70.157  1.00  0.00    -0.367 A  
HETATM   32  C   UNL     1     -12.270  15.847  71.067  1.00  0.00    -0.421 A  
HETATM   33  C   UNL     1     -12.922  15.565  72.266  1.00  0.00    -0.504 A  
HETATM   34  C   UNL     1     -13.314  14.259  72.560  1.00  0.00    -0.595 A  
ENDBRANCH  28  29
ENDBRANCH  27  28
ENDBRANCH  24  27
ENDBRANCH  23  24
ENDBRANCH  20  22
ENDBRANCH  12  13
ENDBRANCH  11  12
ENDBRANCH   9  10
ENDBRANCH   8   9
ENDBRANCH   7   8
ENDBRANCH   4   7
ENDBRANCH   2   3
TORSDOF 12
ENDMDL
MODEL      137
REMARK 921   NORMALIZED FREE ENERGY PREDICTED BY IDOCK:   -5.00 KCAL/MOL
REMARK 922        TOTAL FREE ENERGY PREDICTED BY IDOCK:  -11.34 KCAL/MOL
REMARK 923 INTER-LIGAND FREE ENERGY PREDICTED BY IDOCK:  -10.23 KCAL/MOL
REMARK 924 INTRA-LIGAND FREE ENERGY PREDICTED BY IDOCK:   -1.10 KCAL/MOL
REMARK 927      BINDING AFFINITY PREDICTED BY RF-SCORE:    0.00 PKD
ROOT
HETATM    1  C   UNL     1     -14.034   7.362  71.778  1.00  0.00    -0.469 C  
HETATM    2  C   UNL     1     -12.594   6.892  71.695  1.00  0.00    -0.367 C  
ENDROOT
BRANCH   2   3
HETATM    3  N   UNL     1     -11.836   7.666  70.738  1.00  0.00    -0.426 N  
HETATM    4  C   UNL     1     -11.076   7.051  69.768  1.00  0.00    -0.241 C  
HETATM    5  H   UNL     1     -11.863   8.685  70.783  1.00  0.00     0.000 HD 
HETATM    6  O   UNL     1     -10.984   5.835  69.658  1.00  0.00    -0.354 OA 
BRANCH   4   7
HETATM    7  C   UNL     1     -10.377   8.027  68.844  1.00  0.00    -0.222 C  
BRANCH   7   8
HETATM    8  C   UNL     1     -10.978   9.430  68.968  1.00  0.00    -0.094 C  
BRANCH   8   9
HETATM    9  C   UNL     1     -10.038  10.443  69.621  1.00  0.00    -0.226 C  
BRANCH   9  10
HETATM   10  C   UNL     1      -8.909  10.837  68.711  1.00  0.00    -0.163 C  
HETATM   11  C   UNL     1      -8.892  11.851  67.832  1.00  0.00    -0.172 C  
BRANCH  11  12
HETATM   12  C   UNL     1     -10.015  12.806  67.535  1.00  0.00    -0.210 C  
BRANCH  12  13
HETATM   13  C   UNL     1     -10.126  13.175  66.049  1.00  0.00    -0.286 C  
HETATM   14  C   UNL     1     -10.921  12.181  65.189  1.00  0.00    -0.310 C  
HETATM   15  C   UNL     1     -11.354  13.016  63.992  1.00  0.00    -0.458 C  
HETATM   16  O   UNL     1     -12.088  11.720  65.860  1.00  0.00    -0.381 OA 
HETATM   17  H   UNL     1     -12.580  11.105  65.329  1.00  0.00     0.000 HD 
HETATM   18  C   UNL     1     -11.769  14.344  64.619  1.00  0.00    -0.430 C  
HETATM   19  O   UNL     1     -13.141  14.283  65.017  1.00  0.00    -0.682 OA 
HETATM   20  C   UNL     1     -10.880  14.520  65.872  1.00  0.00    -0.308 C  
HETATM   21  H   UNL     1     -13.398  15.110  65.408  1.00  0.00     0.000 HD 
BRANCH  20  22
HETATM   22  C   UNL     1      -9.927  15.686  65.722  1.00  0.00    -0.390 C  
HETATM   23  C   UNL     1      -9.674  16.565  66.707  1.00  0.00    -0.268 C  
BRANCH  23  24
HETATM   24  C   UNL     1      -8.819  17.804  66.631  1.00  0.00    -0.264 C  
HETATM   25  H   UNL     1      -7.262  18.424  65.599  1.00  0.00     0.000 HD 
HETATM   26  O   UNL     1      -7.801  17.643  65.647  1.00  0.00    -0.533 OA 
BRANCH  24  27
HETATM   27  C   UNL     1      -9.618  19.063  66.272  1.00  0.00    -0.367 C  
BRANCH  27  28
HETATM   28  C   UNL     1      -9.487  20.186  67.305  1.00  0.00    -0.532 C  
BRANCH  28  29
HETATM   29  C   UNL     1      -8.072  20.304  67.813  1.00  0.00    -0.268 A  
HETATM   30  C   UNL     1      -7.705  19.705  69.025  1.00  0.00    -0.291 A  
HETATM   31  C   UNL     1      -6.409  19.849  69.521  1.00  0.00    -0.382 A  
HETATM   32  C   UNL     1      -5.470  20.594  68.810  1.00  0.00    -0.355 A  
HETATM   33  C   UNL     1      -5.825  21.191  67.601  1.00  0.00    -0.405 A  
HETATM   34  C   UNL     1      -7.120  21.048  67.104  1.00  0.00    -0.383 A  
ENDBRANCH  28  29
ENDBRANCH  27  28
ENDBRANCH  24  27
ENDBRANCH  23  24
ENDBRANCH  20  22
ENDBRANCH  12  13
ENDBRANCH  11  12
ENDBRANCH   9  10
ENDBRANCH   8   9
ENDBRANCH   7   8
ENDBRANCH   4   7
ENDBRANCH   2   3
TORSDOF 12
ENDMDL
MODEL      138
REMARK 921   NORMALIZED FREE ENERGY PREDICTED BY IDOCK:   -4.99 KCAL/MOL
REMARK 922        TOTAL FREE ENERGY PREDICTED BY IDOCK:  -11.33 KCAL/MOL
REMARK 923 INTER-LIGAND FREE ENERGY PREDICTED BY IDOCK:   -8.39 KCAL/MOL
REMARK 924 INTRA-LIGAND FREE ENERGY PREDICTED BY IDOCK:   -2.94 KCAL/MOL
REMARK 927      BINDING AFFINITY PREDICTED BY RF-SCORE:    0.00 PKD
ROOT
HETATM    1  C   UNL     1     -11.949  12.218  63.425  1.00  0.00    -0.588 C  
HETATM    2  C   UNL     1     -12.281  13.132  64.590  1.00  0.00    -0.414 C  
ENDROOT
BRANCH   2   3
HETATM    3  N   UNL     1     -12.016  12.492  65.859  1.00  0.00    -0.431 N  
HETATM    4  C   UNL     1     -11.911  13.230  67.017  1.00  0.00    -0.390 C  
HETATM    5  H   UNL     1     -11.906  11.479  65.897  1.00  0.00     0.000 HD 
HETATM    6  O   UNL     1     -12.020  14.449  67.051  1.00  0.00    -0.409 OA 
BRANCH   4   7
HETATM    7  C   UNL     1     -11.659  12.381  68.248  1.00  0.00    -0.384 C  
BRANCH   7   8
HETATM    8  C   UNL     1     -11.372  10.927  67.865  1.00  0.00    -0.380 C  
BRANCH   8   9
HETATM    9  C   UNL     1     -10.897  10.068  69.036  1.00  0.00    -0.253 C  
BRANCH   9  10
HETATM   10  C   UNL     1     -11.392  10.586  70.356  1.00  0.00    -0.411 C  
HETATM   11  C   UNL     1     -11.903   9.868  71.370  1.00  0.00    -0.476 C  
BRANCH  11  12
HETATM   12  C   UNL     1     -12.126   8.381  71.399  1.00  0.00    -0.337 C  
BRANCH  12  13
HETATM   13  C   UNL     1     -10.825   7.570  71.492  1.00  0.00    -0.253 C  
HETATM   14  C   UNL     1     -10.167   7.553  72.880  1.00  0.00    -0.278 C  
HETATM   15  C   UNL     1      -9.305   6.298  72.847  1.00  0.00    -0.140 C  
HETATM   16  O   UNL     1     -11.130   7.409  73.918  1.00  0.00    -0.488 OA 
HETATM   17  H   UNL     1     -10.723   7.398  74.776  1.00  0.00     0.000 HD 
HETATM   18  C   UNL     1     -10.201   5.273  72.157  1.00  0.00    -0.199 C  
HETATM   19  O   UNL     1     -11.029   4.625  73.125  1.00  0.00    -0.243 OA 
HETATM   20  C   UNL     1     -11.089   6.073  71.177  1.00  0.00    -0.336 C  
HETATM   21  H   UNL     1     -11.586   3.987  72.695  1.00  0.00     0.000 HD 
BRANCH  20  22
HETATM   22  C   UNL     1     -10.774   5.736  69.736  1.00  0.00    -0.418 C  
HETATM   23  C   UNL     1     -11.034   6.566  68.710  1.00  0.00    -0.371 C  
BRANCH  23  24
HETATM   24  C   UNL     1     -10.845   6.289  67.240  1.00  0.00    -0.375 C  
HETATM   25  H   UNL     1     -10.638   7.337  65.587  1.00  0.00     0.000 HD 
HETATM   26  O   UNL     1     -10.757   7.512  66.514  1.00  0.00    -0.107 OA 
BRANCH  24  27
HETATM   27  C   UNL     1      -9.580   5.476  66.939  1.00  0.00    -0.149 C  
BRANCH  27  28
HETATM   28  C   UNL     1      -8.323   6.337  66.778  1.00  0.00    -0.110 C  
BRANCH  28  29
HETATM   29  C   UNL     1      -7.782   6.777  68.115  1.00  0.00    -0.109 A  
HETATM   30  C   UNL     1      -7.770   8.135  68.459  1.00  0.00    -0.112 A  
HETATM   31  C   UNL     1      -7.229   8.552  69.675  1.00  0.00    -0.052 A  
HETATM   32  C   UNL     1      -6.696   7.615  70.558  1.00  0.00    -0.042 A  
HETATM   33  C   UNL     1      -6.708   6.261  70.226  1.00  0.00    -0.053 A  
HETATM   34  C   UNL     1      -7.247   5.842  69.010  1.00  0.00    -0.082 A  
ENDBRANCH  28  29
ENDBRANCH  27  28
ENDBRANCH  24  27
ENDBRANCH  23  24
ENDBRANCH  20  22
ENDBRANCH  12  13
ENDBRANCH  11  12
ENDBRANCH   9  10
ENDBRANCH   8   9
ENDBRANCH   7   8
ENDBRANCH   4   7
ENDBRANCH   2   3
TORSDOF 12
ENDMDL
MODEL      139
REMARK 921   NORMALIZED FREE ENERGY PREDICTED BY IDOCK:   -4.99 KCAL/MOL
REMARK 922        TOTAL FREE ENERGY PREDICTED BY IDOCK:  -11.32 KCAL/MOL
REMARK 923 INTER-LIGAND FREE ENERGY PREDICTED BY IDOCK:   -9.57 KCAL/MOL
REMARK 924 INTRA-LIGAND FREE ENERGY PREDICTED BY IDOCK:   -1.76 KCAL/MOL
REMARK 927      BINDING AFFINITY PREDICTED BY RF-SCORE:    0.00 PKD
ROOT
HETATM    1  C   UNL     1      -8.510  16.866  66.648  1.00  0.00    -0.285 C  
HETATM    2  C   UNL     1      -9.914  17.103  66.123  1.00  0.00    -0.281 C  
ENDROOT
BRANCH   2   3
HETATM    3  N   UNL     1     -10.534  15.872  65.690  1.00  0.00    -0.372 N  
HETATM    4  C   UNL     1     -11.363  15.843  64.590  1.00  0.00    -0.322 C  
HETATM    5  H   UNL     1     -10.356  15.010  66.206  1.00  0.00     0.000 HD 
HETATM    6  O   UNL     1     -11.633  16.836  63.926  1.00  0.00    -1.122 OA 
BRANCH   4   7
HETATM    7  C   UNL     1     -11.896  14.459  64.276  1.00  0.00    -0.385 C  
BRANCH   7   8
HETATM    8  C   UNL     1     -12.463  13.790  65.531  1.00  0.00    -0.548 C  
BRANCH   8   9
HETATM    9  C   UNL     1     -11.993  12.349  65.721  1.00  0.00    -0.437 C  
BRANCH   9  10
HETATM   10  C   UNL     1     -11.498  12.093  67.116  1.00  0.00    -0.413 C  
HETATM   11  C   UNL     1     -10.328  11.541  67.474  1.00  0.00    -0.220 C  
BRANCH  11  12
HETATM   12  C   UNL     1      -9.257  11.021  66.554  1.00  0.00    -0.187 C  
BRANCH  12  13
HETATM   13  C   UNL     1      -8.094  10.343  67.292  1.00  0.00    -0.114 C  
HETATM   14  C   UNL     1      -6.714  10.971  67.048  1.00  0.00    -0.108 C  
HETATM   15  C   UNL     1      -5.905  10.530  68.259  1.00  0.00    -0.043 C  
HETATM   16  O   UNL     1      -6.776  12.393  67.044  1.00  0.00    -0.315 OA 
HETATM   17  H   UNL     1      -5.923  12.782  66.893  1.00  0.00     0.000 HD 
HETATM   18  C   UNL     1      -6.884  10.696  69.418  1.00  0.00    -0.095 C  
HETATM   19  O   UNL     1      -6.818  12.034  69.918  1.00  0.00    -0.347 OA 
HETATM   20  C   UNL     1      -8.290  10.439  68.829  1.00  0.00    -0.134 C  
HETATM   21  H   UNL     1      -7.428  12.137  70.639  1.00  0.00     0.000 HD 
BRANCH  20  22
HETATM   22  C   UNL     1      -8.912   9.182  69.398  1.00  0.00    -0.147 C  
HETATM   23  C   UNL     1      -8.605   7.946  68.968  1.00  0.00    -0.135 C  
BRANCH  23  24
HETATM   24  C   UNL     1      -9.231   6.645  69.401  1.00  0.00    -0.142 C  
HETATM   25  H   UNL     1      -9.307   5.551  71.036  1.00  0.00     0.000 HD 
HETATM   26  O   UNL     1      -8.912   6.371  70.763  1.00  0.00    -0.143 OA 
BRANCH  24  27
HETATM   27  C   UNL     1     -10.759   6.641  69.271  1.00  0.00    -0.307 C  
BRANCH  27  28
HETATM   28  C   UNL     1     -11.484   6.312  70.579  1.00  0.00    -0.407 C  
BRANCH  28  29
HETATM   29  C   UNL     1     -12.235   7.509  71.108  1.00  0.00    -0.330 A  
HETATM   30  C   UNL     1     -13.591   7.401  71.441  1.00  0.00    -0.410 A  
HETATM   31  C   UNL     1     -14.301   8.515  71.888  1.00  0.00    -0.536 A  
HETATM   32  C   UNL     1     -13.661   9.747  72.007  1.00  0.00    -0.436 A  
HETATM   33  C   UNL     1     -12.310   9.864  71.682  1.00  0.00    -0.496 A  
HETATM   34  C   UNL     1     -11.599   8.751  71.235  1.00  0.00    -0.353 A  
ENDBRANCH  28  29
ENDBRANCH  27  28
ENDBRANCH  24  27
ENDBRANCH  23  24
ENDBRANCH  20  22
ENDBRANCH  12  13
ENDBRANCH  11  12
ENDBRANCH   9  10
ENDBRANCH   8   9
ENDBRANCH   7   8
ENDBRANCH   4   7
ENDBRANCH   2   3
TORSDOF 12
ENDMDL
MODEL      140
REMARK 921   NORMALIZED FREE ENERGY PREDICTED BY IDOCK:   -4.99 KCAL/MOL
REMARK 922        TOTAL FREE ENERGY PREDICTED BY IDOCK:  -11.32 KCAL/MOL
REMARK 923 INTER-LIGAND FREE ENERGY PREDICTED BY IDOCK:   -9.97 KCAL/MOL
REMARK 924 INTRA-LIGAND FREE ENERGY PREDICTED BY IDOCK:   -1.35 KCAL/MOL
REMARK 927      BINDING AFFINITY PREDICTED BY RF-SCORE:    0.00 PKD
ROOT
HETATM    1  C   UNL     1      -6.372   4.308  65.150  1.00  0.00    -0.035 C  
HETATM    2  C   UNL     1      -7.869   4.323  64.904  1.00  0.00    -0.088 C  
ENDROOT
BRANCH   2   3
HETATM    3  N   UNL     1      -8.577   4.991  65.973  1.00  0.00    -0.118 N  
HETATM    4  C   UNL     1      -9.946   4.897  66.086  1.00  0.00    -0.231 C  
HETATM    5  H   UNL     1      -8.054   5.543  66.653  1.00  0.00     0.000 HD 
HETATM    6  O   UNL     1     -10.643   4.264  65.303  1.00  0.00    -0.248 OA 
BRANCH   4   7
HETATM    7  C   UNL     1     -10.502   5.643  67.283  1.00  0.00    -0.322 C  
BRANCH   7   8
HETATM    8  C   UNL     1      -9.779   6.977  67.485  1.00  0.00    -0.167 C  
BRANCH   8   9
HETATM    9  C   UNL     1      -9.277   7.190  68.912  1.00  0.00    -0.137 C  
BRANCH   9  10
HETATM   10  C   UNL     1      -9.075   8.644  69.231  1.00  0.00    -0.149 C  
HETATM   11  C   UNL     1      -9.557   9.318  70.288  1.00  0.00    -0.276 C  
BRANCH  11  12
HETATM   12  C   UNL     1     -10.439   8.775  71.378  1.00  0.00    -0.354 C  
BRANCH  12  13
HETATM   13  C   UNL     1     -11.930   8.770  71.012  1.00  0.00    -0.291 C  
HETATM   14  C   UNL     1     -12.645   7.425  71.211  1.00  0.00    -0.340 C  
HETATM   15  C   UNL     1     -14.110   7.819  71.341  1.00  0.00    -0.458 C  
HETATM   16  O   UNL     1     -12.243   6.789  72.419  1.00  0.00    -0.492 OA 
HETATM   17  H   UNL     1     -12.685   5.957  72.543  1.00  0.00     0.000 HD 
HETATM   18  C   UNL     1     -14.065   9.064  72.224  1.00  0.00    -0.413 C  
HETATM   19  O   UNL     1     -14.092   8.680  73.600  1.00  0.00    -0.818 OA 
HETATM   20  C   UNL     1     -12.719   9.758  71.912  1.00  0.00    -0.501 C  
HETATM   21  H   UNL     1     -14.064   9.455  74.150  1.00  0.00     0.000 HD 
BRANCH  20  22
HETATM   22  C   UNL     1     -12.925  11.097  71.237  1.00  0.00    -0.457 C  
HETATM   23  C   UNL     1     -13.092  12.247  71.912  1.00  0.00    -0.469 C  
BRANCH  23  24
HETATM   24  C   UNL     1     -13.393  13.608  71.339  1.00  0.00    -0.248 C  
HETATM   25  H   UNL     1     -14.509  15.160  71.810  1.00  0.00     0.000 HD 
HETATM   26  O   UNL     1     -14.319  14.302  72.172  1.00  0.00    -0.511 OA 
BRANCH  24  27
HETATM   27  C   UNL     1     -12.146  14.489  71.196  1.00  0.00    -0.408 C  
BRANCH  27  28
HETATM   28  C   UNL     1     -12.335  15.667  70.235  1.00  0.00    -0.402 C  
BRANCH  28  29
HETATM   29  C   UNL     1     -11.772  15.359  68.870  1.00  0.00    -0.377 A  
HETATM   30  C   UNL     1     -11.849  14.060  68.351  1.00  0.00    -0.397 A  
HETATM   31  C   UNL     1     -11.291  13.761  67.108  1.00  0.00    -0.344 A  
HETATM   32  C   UNL     1     -10.649  14.757  66.375  1.00  0.00    -0.300 A  
HETATM   33  C   UNL     1     -10.571  16.053  66.881  1.00  0.00    -0.300 A  
HETATM   34  C   UNL     1     -11.129  16.355  68.124  1.00  0.00    -0.320 A  
ENDBRANCH  28  29
ENDBRANCH  27  28
ENDBRANCH  24  27
ENDBRANCH  23  24
ENDBRANCH  20  22
ENDBRANCH  12  13
ENDBRANCH  11  12
ENDBRANCH   9  10
ENDBRANCH   8   9
ENDBRANCH   7   8
ENDBRANCH   4   7
ENDBRANCH   2   3
TORSDOF 12
ENDMDL
MODEL      141
REMARK 921   NORMALIZED FREE ENERGY PREDICTED BY IDOCK:   -4.98 KCAL/MOL
REMARK 922        TOTAL FREE ENERGY PREDICTED BY IDOCK:  -11.30 KCAL/MOL
REMARK 923 INTER-LIGAND FREE ENERGY PREDICTED BY IDOCK:   -8.50 KCAL/MOL
REMARK 924 INTRA-LIGAND FREE ENERGY PREDICTED BY IDOCK:   -2.80 KCAL/MOL
REMARK 927      BINDING AFFINITY PREDICTED BY RF-SCORE:    0.00 PKD
ROOT
HETATM    1  C   UNL     1      -7.516  10.748  69.665  1.00  0.00    -0.082 C  
HETATM    2  C   UNL     1      -6.211  11.515  69.757  1.00  0.00    -0.138 C  
ENDROOT
BRANCH   2   3
HETATM    3  N   UNL     1      -6.358  12.874  69.286  1.00  0.00    -0.103 N  
HETATM    4  C   UNL     1      -5.950  13.941  70.055  1.00  0.00    -0.143 C  
HETATM    5  H   UNL     1      -6.771  13.045  68.369  1.00  0.00     0.000 HD 
HETATM    6  O   UNL     1      -5.457  13.816  71.169  1.00  0.00    -0.161 OA 
BRANCH   4   7
HETATM    7  C   UNL     1      -6.161  15.282  69.382  1.00  0.00    -0.122 C  
BRANCH   7   8
HETATM    8  C   UNL     1      -5.841  16.435  70.337  1.00  0.00    -0.049 C  
BRANCH   8   9
HETATM    9  C   UNL     1      -5.179  17.630  69.653  1.00  0.00    -0.187 C  
BRANCH   9  10
HETATM   10  C   UNL     1      -5.600  17.768  68.218  1.00  0.00    -0.158 C  
HETATM   11  C   UNL     1      -6.515  18.614  67.719  1.00  0.00    -0.213 C  
BRANCH  11  12
HETATM   12  C   UNL     1      -7.351  19.597  68.491  1.00  0.00    -0.371 C  
BRANCH  12  13
HETATM   13  C   UNL     1      -8.859  19.330  68.388  1.00  0.00    -0.395 C  
HETATM   14  C   UNL     1      -9.621  20.261  67.433  1.00  0.00    -0.432 C  
HETATM   15  C   UNL     1     -10.872  19.465  67.087  1.00  0.00    -0.561 C  
HETATM   16  O   UNL     1      -8.893  20.495  66.233  1.00  0.00    -0.557 OA 
HETATM   17  H   UNL     1      -9.364  21.071  65.642  1.00  0.00     0.000 HD 
HETATM   18  C   UNL     1     -10.344  18.047  66.886  1.00  0.00    -0.370 C  
HETATM   19  O   UNL     1      -9.917  17.878  65.533  1.00  0.00    -0.481 OA 
HETATM   20  C   UNL     1      -9.127  17.907  67.829  1.00  0.00    -0.258 C  
HETATM   21  H   UNL     1      -9.588  16.995  65.408  1.00  0.00     0.000 HD 
BRANCH  20  22
HETATM   22  C   UNL     1      -9.388  16.906  68.934  1.00  0.00    -0.229 C  
HETATM   23  C   UNL     1     -10.621  16.588  69.365  1.00  0.00    -0.329 C  
BRANCH  23  24
HETATM   24  C   UNL     1     -10.982  15.679  70.512  1.00  0.00    -0.350 C  
HETATM   25  H   UNL     1     -12.323  15.633  71.952  1.00  0.00     0.000 HD 
HETATM   26  O   UNL     1     -12.096  16.205  71.229  1.00  0.00    -0.414 OA 
BRANCH  24  27
HETATM   27  C   UNL     1     -11.347  14.259  70.062  1.00  0.00    -0.224 C  
BRANCH  27  28
HETATM   28  C   UNL     1     -12.111  14.214  68.736  1.00  0.00    -0.326 C  
BRANCH  28  29
HETATM   29  C   UNL     1     -11.325  13.488  67.672  1.00  0.00    -0.326 A  
HETATM   30  C   UNL     1      -9.950  13.276  67.832  1.00  0.00    -0.233 A  
HETATM   31  C   UNL     1      -9.210  12.645  66.832  1.00  0.00    -0.216 A  
HETATM   32  C   UNL     1      -9.839  12.221  65.663  1.00  0.00    -0.247 A  
HETATM   33  C   UNL     1     -11.209  12.424  65.497  1.00  0.00    -0.364 A  
HETATM   34  C   UNL     1     -11.949  13.056  66.495  1.00  0.00    -0.457 A  
ENDBRANCH  28  29
ENDBRANCH  27  28
ENDBRANCH  24  27
ENDBRANCH  23  24
ENDBRANCH  20  22
ENDBRANCH  12  13
ENDBRANCH  11  12
ENDBRANCH   9  10
ENDBRANCH   8   9
ENDBRANCH   7   8
ENDBRANCH   4   7
ENDBRANCH   2   3
TORSDOF 12
ENDMDL
MODEL      142
REMARK 921   NORMALIZED FREE ENERGY PREDICTED BY IDOCK:   -4.97 KCAL/MOL
REMARK 922        TOTAL FREE ENERGY PREDICTED BY IDOCK:  -11.30 KCAL/MOL
REMARK 923 INTER-LIGAND FREE ENERGY PREDICTED BY IDOCK:   -9.42 KCAL/MOL
REMARK 924 INTRA-LIGAND FREE ENERGY PREDICTED BY IDOCK:   -1.88 KCAL/MOL
REMARK 927      BINDING AFFINITY PREDICTED BY RF-SCORE:    0.00 PKD
ROOT
HETATM    1  C   UNL     1      -7.508  11.564  66.971  1.00  0.00    -0.151 C  
HETATM    2  C   UNL     1      -7.365  12.570  68.098  1.00  0.00    -0.110 C  
ENDROOT
BRANCH   2   3
HETATM    3  N   UNL     1      -6.975  13.871  67.604  1.00  0.00    -0.170 N  
HETATM    4  C   UNL     1      -7.282  15.017  68.302  1.00  0.00    -0.112 C  
HETATM    5  H   UNL     1      -6.464  13.941  66.724  1.00  0.00     0.000 HD 
HETATM    6  O   UNL     1      -7.901  15.015  69.359  1.00  0.00    -0.190 OA 
BRANCH   4   7
HETATM    7  C   UNL     1      -6.767  16.280  67.640  1.00  0.00    -0.169 C  
BRANCH   7   8
HETATM    8  C   UNL     1      -7.678  17.472  67.944  1.00  0.00    -0.213 C  
BRANCH   8   9
HETATM    9  C   UNL     1      -7.837  18.436  66.769  1.00  0.00    -0.253 C  
BRANCH   9  10
HETATM   10  C   UNL     1      -9.274  18.798  66.523  1.00  0.00    -0.336 C  
HETATM   11  C   UNL     1     -10.248  17.992  66.071  1.00  0.00    -0.304 C  
BRANCH  11  12
HETATM   12  C   UNL     1     -10.113  16.547  65.677  1.00  0.00    -0.278 C  
BRANCH  12  13
HETATM   13  C   UNL     1     -11.353  15.705  66.009  1.00  0.00     0.053 C  
HETATM   14  C   UNL     1     -11.805  14.747  64.897  1.00  0.00    -0.377 C  
HETATM   15  C   UNL     1     -12.611  13.694  65.644  1.00  0.00    -0.531 C  
HETATM   16  O   UNL     1     -10.699  14.105  64.272  1.00  0.00    -0.596 OA 
HETATM   17  H   UNL     1     -10.979  13.513  63.584  1.00  0.00     0.000 HD 
HETATM   18  C   UNL     1     -11.783  13.440  66.901  1.00  0.00    -0.389 C  
HETATM   19  O   UNL     1     -10.800  12.437  66.637  1.00  0.00    -0.235 OA 
HETATM   20  C   UNL     1     -11.076  14.777  67.222  1.00  0.00    -0.334 C  
HETATM   21  H   UNL     1     -10.284  12.279  67.420  1.00  0.00     0.000 HD 
BRANCH  20  22
HETATM   22  C   UNL     1     -11.579  15.377  68.518  1.00  0.00    -0.373 C  
HETATM   23  C   UNL     1     -11.817  14.651  69.624  1.00  0.00    -0.367 C  
BRANCH  23  24
HETATM   24  C   UNL     1     -12.402  15.135  70.926  1.00  0.00    -0.354 C  
HETATM   25  H   UNL     1     -14.146  15.773  71.579  1.00  0.00     0.000 HD 
HETATM   26  O   UNL     1     -13.778  15.469  70.758  1.00  0.00    -0.475 OA 
BRANCH  24  27
HETATM   27  C   UNL     1     -12.310  14.094  72.049  1.00  0.00    -0.234 C  
BRANCH  27  28
HETATM   28  C   UNL     1     -13.427  13.048  72.008  1.00  0.00    -0.584 C  
BRANCH  28  29
HETATM   29  C   UNL     1     -12.910  11.709  71.546  1.00  0.00    -0.469 A  
HETATM   30  C   UNL     1     -13.251  10.542  72.242  1.00  0.00    -0.253 A  
HETATM   31  C   UNL     1     -12.739   9.306  71.845  1.00  0.00    -0.474 A  
HETATM   32  C   UNL     1     -11.882   9.227  70.749  1.00  0.00    -0.303 A  
HETATM   33  C   UNL     1     -11.541  10.382  70.047  1.00  0.00    -0.378 A  
HETATM   34  C   UNL     1     -12.051  11.618  70.443  1.00  0.00    -0.462 A  
ENDBRANCH  28  29
ENDBRANCH  27  28
ENDBRANCH  24  27
ENDBRANCH  23  24
ENDBRANCH  20  22
ENDBRANCH  12  13
ENDBRANCH  11  12
ENDBRANCH   9  10
ENDBRANCH   8   9
ENDBRANCH   7   8
ENDBRANCH   4   7
ENDBRANCH   2   3
TORSDOF 12
ENDMDL
MODEL      143
REMARK 921   NORMALIZED FREE ENERGY PREDICTED BY IDOCK:   -4.97 KCAL/MOL
REMARK 922        TOTAL FREE ENERGY PREDICTED BY IDOCK:  -11.30 KCAL/MOL
REMARK 923 INTER-LIGAND FREE ENERGY PREDICTED BY IDOCK:   -8.50 KCAL/MOL
REMARK 924 INTRA-LIGAND FREE ENERGY PREDICTED BY IDOCK:   -2.80 KCAL/MOL
REMARK 927      BINDING AFFINITY PREDICTED BY RF-SCORE:    0.00 PKD
ROOT
HETATM    1  C   UNL     1     -11.282  15.429  70.566  1.00  0.00    -0.358 C  
HETATM    2  C   UNL     1     -12.483  14.523  70.761  1.00  0.00    -0.351 C  
ENDROOT
BRANCH   2   3
HETATM    3  N   UNL     1     -12.104  13.129  70.756  1.00  0.00    -0.503 N  
HETATM    4  C   UNL     1     -12.773  12.208  71.532  1.00  0.00    -0.243 C  
HETATM    5  H   UNL     1     -11.328  12.821  70.170  1.00  0.00     0.000 HD 
HETATM    6  O   UNL     1     -13.705  12.502  72.269  1.00  0.00    -0.482 OA 
BRANCH   4   7
HETATM    7  C   UNL     1     -12.248  10.795  71.373  1.00  0.00    -0.374 C  
BRANCH   7   8
HETATM    8  C   UNL     1     -13.343   9.856  70.860  1.00  0.00    -0.256 C  
BRANCH   8   9
HETATM    9  C   UNL     1     -13.783   8.812  71.885  1.00  0.00    -0.477 C  
BRANCH   9  10
HETATM   10  C   UNL     1     -13.309   7.432  71.529  1.00  0.00    -0.435 C  
HETATM   11  C   UNL     1     -12.277   6.764  72.070  1.00  0.00    -0.331 C  
BRANCH  11  12
HETATM   12  C   UNL     1     -11.339   7.261  73.135  1.00  0.00    -0.173 C  
BRANCH  12  13
HETATM   13  C   UNL     1     -10.090   7.954  72.574  1.00  0.00    -0.325 C  
HETATM   14  C   UNL     1      -8.855   7.907  73.486  1.00  0.00    -0.272 C  
HETATM   15  C   UNL     1      -7.695   8.116  72.522  1.00  0.00    -0.169 C  
HETATM   16  O   UNL     1      -8.702   6.633  74.102  1.00  0.00    -0.134 OA 
HETATM   17  H   UNL     1      -7.939   6.604  74.666  1.00  0.00     0.000 HD 
HETATM   18  C   UNL     1      -8.077   7.258  71.318  1.00  0.00    -0.102 C  
HETATM   19  O   UNL     1      -7.616   5.919  71.514  1.00  0.00    -0.095 OA 
HETATM   20  C   UNL     1      -9.622   7.264  71.264  1.00  0.00    -0.164 C  
HETATM   21  H   UNL     1      -7.854   5.385  70.765  1.00  0.00     0.000 HD 
BRANCH  20  22
HETATM   22  C   UNL     1     -10.134   7.983  70.034  1.00  0.00    -0.196 C  
HETATM   23  C   UNL     1      -9.405   8.143  68.916  1.00  0.00    -0.147 C  
BRANCH  23  24
HETATM   24  C   UNL     1      -9.786   8.916  67.679  1.00  0.00    -0.182 C  
HETATM   25  H   UNL     1     -10.727   8.564  65.986  1.00  0.00     0.000 HD 
HETATM   26  O   UNL     1     -10.487   8.076  66.765  1.00  0.00    -0.330 OA 
BRANCH  24  27
HETATM   27  C   UNL     1     -10.681  10.126  67.979  1.00  0.00    -0.305 C  
BRANCH  27  28
HETATM   28  C   UNL     1      -9.914  11.335  68.522  1.00  0.00    -0.206 C  
BRANCH  28  29
HETATM   29  C   UNL     1     -10.359  12.613  67.855  1.00  0.00    -0.221 A  
HETATM   30  C   UNL     1      -9.528  13.741  67.867  1.00  0.00    -0.214 A  
HETATM   31  C   UNL     1      -9.953  14.938  67.291  1.00  0.00    -0.230 A  
HETATM   32  C   UNL     1     -11.212  15.018  66.699  1.00  0.00    -0.311 A  
HETATM   33  C   UNL     1     -12.044  13.900  66.679  1.00  0.00    -0.485 A  
HETATM   34  C   UNL     1     -11.621  12.702  67.255  1.00  0.00    -0.428 A  
ENDBRANCH  28  29
ENDBRANCH  27  28
ENDBRANCH  24  27
ENDBRANCH  23  24
ENDBRANCH  20  22
ENDBRANCH  12  13
ENDBRANCH  11  12
ENDBRANCH   9  10
ENDBRANCH   8   9
ENDBRANCH   7   8
ENDBRANCH   4   7
ENDBRANCH   2   3
TORSDOF 12
ENDMDL
MODEL      144
REMARK 921   NORMALIZED FREE ENERGY PREDICTED BY IDOCK:   -4.96 KCAL/MOL
REMARK 922        TOTAL FREE ENERGY PREDICTED BY IDOCK:  -11.27 KCAL/MOL
REMARK 923 INTER-LIGAND FREE ENERGY PREDICTED BY IDOCK:   -8.39 KCAL/MOL
REMARK 924 INTRA-LIGAND FREE ENERGY PREDICTED BY IDOCK:   -2.87 KCAL/MOL
REMARK 927      BINDING AFFINITY PREDICTED BY RF-SCORE:    0.00 PKD
ROOT
HETATM    1  C   UNL     1     -12.867  12.441  71.432  1.00  0.00    -0.360 C  
HETATM    2  C   UNL     1     -12.199  11.556  70.397  1.00  0.00    -0.355 C  
ENDROOT
BRANCH   2   3
HETATM    3  N   UNL     1     -11.223  12.287  69.621  1.00  0.00    -0.479 N  
HETATM    4  C   UNL     1     -11.257  12.275  68.244  1.00  0.00    -0.267 C  
HETATM    5  H   UNL     1     -10.497  12.820  70.100  1.00  0.00     0.000 HD 
HETATM    6  O   UNL     1     -12.088  11.651  67.597  1.00  0.00    -0.615 OA 
BRANCH   4   7
HETATM    7  C   UNL     1     -10.171  13.121  67.610  1.00  0.00    -0.224 C  
BRANCH   7   8
HETATM    8  C   UNL     1      -9.480  12.368  66.470  1.00  0.00    -0.242 C  
BRANCH   8   9
HETATM    9  C   UNL     1      -8.510  11.289  66.950  1.00  0.00    -0.152 C  
BRANCH   9  10
HETATM   10  C   UNL     1      -8.586  10.044  66.113  1.00  0.00    -0.142 C  
HETATM   11  C   UNL     1      -9.438   9.017  66.262  1.00  0.00    -0.306 C  
BRANCH  11  12
HETATM   12  C   UNL     1     -10.491   8.865  67.325  1.00  0.00    -0.348 C  
BRANCH  12  13
HETATM   13  C   UNL     1     -10.257   7.662  68.249  1.00  0.00    -0.229 C  
HETATM   14  C   UNL     1     -11.104   6.421  67.929  1.00  0.00    -0.270 C  
HETATM   15  C   UNL     1     -10.311   5.282  68.554  1.00  0.00    -0.182 C  
HETATM   16  O   UNL     1     -11.190   6.190  66.527  1.00  0.00    -0.741 OA 
HETATM   17  H   UNL     1     -11.714   5.423  66.328  1.00  0.00     0.000 HD 
HETATM   18  C   UNL     1      -8.865   5.620  68.200  1.00  0.00    -0.108 C  
HETATM   19  O   UNL     1      -8.544   5.079  66.916  1.00  0.00    -0.107 OA 
HETATM   20  C   UNL     1      -8.791   7.163  68.139  1.00  0.00    -0.126 C  
HETATM   21  H   UNL     1      -7.644   5.290  66.696  1.00  0.00     0.000 HD 
BRANCH  20  22
HETATM   22  C   UNL     1      -7.919   7.724  69.242  1.00  0.00    -0.125 C  
HETATM   23  C   UNL     1      -7.915   7.242  70.497  1.00  0.00    -0.104 C  
BRANCH  23  24
HETATM   24  C   UNL     1      -7.158   7.784  71.682  1.00  0.00    -0.064 C  
HETATM   25  H   UNL     1      -6.757   9.549  72.456  1.00  0.00     0.000 HD 
HETATM   26  O   UNL     1      -7.234   9.207  71.709  1.00  0.00    -0.315 OA 
BRANCH  24  27
HETATM   27  C   UNL     1      -7.690   7.265  73.024  1.00  0.00    -0.107 C  
BRANCH  27  28
HETATM   28  C   UNL     1      -8.906   8.039  73.541  1.00  0.00    -0.333 C  
BRANCH  28  29
HETATM   29  C   UNL     1     -10.159   7.661  72.792  1.00  0.00    -0.311 A  
HETATM   30  C   UNL     1     -10.922   8.645  72.150  1.00  0.00    -0.434 A  
HETATM   31  C   UNL     1     -12.105   8.307  71.494  1.00  0.00    -0.335 A  
HETATM   32  C   UNL     1     -12.537   6.982  71.475  1.00  0.00    -0.426 A  
HETATM   33  C   UNL     1     -11.782   5.995  72.107  1.00  0.00    -0.335 A  
HETATM   34  C   UNL     1     -10.599   6.331  72.764  1.00  0.00    -0.252 A  
ENDBRANCH  28  29
ENDBRANCH  27  28
ENDBRANCH  24  27
ENDBRANCH  23  24
ENDBRANCH  20  22
ENDBRANCH  12  13
ENDBRANCH  11  12
ENDBRANCH   9  10
ENDBRANCH   8   9
ENDBRANCH   7   8
ENDBRANCH   4   7
ENDBRANCH   2   3
TORSDOF 12
ENDMDL
MODEL      145
REMARK 921   NORMALIZED FREE ENERGY PREDICTED BY IDOCK:   -4.95 KCAL/MOL
REMARK 922        TOTAL FREE ENERGY PREDICTED BY IDOCK:  -11.25 KCAL/MOL
REMARK 923 INTER-LIGAND FREE ENERGY PREDICTED BY IDOCK:  -10.23 KCAL/MOL
REMARK 924 INTRA-LIGAND FREE ENERGY PREDICTED BY IDOCK:   -1.02 KCAL/MOL
REMARK 927      BINDING AFFINITY PREDICTED BY RF-SCORE:    0.00 PKD
ROOT
HETATM    1  C   UNL     1      -9.555   3.398  70.901  1.00  0.00    -0.239 C  
HETATM    2  C   UNL     1      -9.231   2.808  69.541  1.00  0.00    -0.134 C  
ENDROOT
BRANCH   2   3
HETATM    3  N   UNL     1      -9.908   3.517  68.479  1.00  0.00     0.049 N  
HETATM    4  C   UNL     1      -9.232   3.918  67.348  1.00  0.00    -0.172 C  
HETATM    5  H   UNL     1     -10.903   3.724  68.569  1.00  0.00     0.000 HD 
HETATM    6  O   UNL     1      -8.037   3.716  67.173  1.00  0.00    -0.090 OA 
BRANCH   4   7
HETATM    7  C   UNL     1     -10.116   4.621  66.338  1.00  0.00    -0.289 C  
BRANCH   7   8
HETATM    8  C   UNL     1     -10.734   5.888  66.935  1.00  0.00    -0.395 C  
BRANCH   8   9
HETATM    9  C   UNL     1     -10.095   7.179  66.425  1.00  0.00    -0.051 C  
BRANCH   9  10
HETATM   10  C   UNL     1     -10.467   8.367  67.265  1.00  0.00    -0.373 C  
HETATM   11  C   UNL     1     -10.417   9.661  66.909  1.00  0.00    -0.282 C  
BRANCH  11  12
HETATM   12  C   UNL     1      -9.942  10.217  65.594  1.00  0.00    -0.348 C  
BRANCH  12  13
HETATM   13  C   UNL     1     -10.344  11.681  65.369  1.00  0.00    -0.313 C  
HETATM   14  C   UNL     1     -10.473  12.102  63.898  1.00  0.00    -0.409 C  
HETATM   15  C   UNL     1     -11.387  13.318  63.956  1.00  0.00    -0.403 C  
HETATM   16  O   UNL     1     -11.111  11.098  63.116  1.00  0.00    -0.811 OA 
HETATM   17  H   UNL     1     -11.190  11.358  62.206  1.00  0.00     0.000 HD 
HETATM   18  C   UNL     1     -12.451  12.911  64.973  1.00  0.00    -0.492 C  
HETATM   19  O   UNL     1     -13.505  12.206  64.313  1.00  0.00    -0.708 OA 
HETATM   20  C   UNL     1     -11.748  11.963  65.970  1.00  0.00    -0.209 C  
HETATM   21  H   UNL     1     -14.167  11.952  64.945  1.00  0.00     0.000 HD 
BRANCH  20  22
HETATM   22  C   UNL     1     -11.657  12.574  67.352  1.00  0.00    -0.434 C  
HETATM   23  C   UNL     1     -11.733  13.897  67.581  1.00  0.00    -0.403 C  
BRANCH  23  24
HETATM   24  C   UNL     1     -11.564  14.608  68.899  1.00  0.00    -0.310 C  
HETATM   25  H   UNL     1     -11.433  14.116  70.800  1.00  0.00     0.000 HD 
HETATM   26  O   UNL     1     -11.540  13.668  69.970  1.00  0.00    -0.254 OA 
BRANCH  24  27
HETATM   27  C   UNL     1     -10.273  15.433  68.975  1.00  0.00    -0.233 C  
BRANCH  27  28
HETATM   28  C   UNL     1     -10.476  16.838  69.548  1.00  0.00    -0.263 C  
BRANCH  28  29
HETATM   29  C   UNL     1     -10.286  17.897  68.491  1.00  0.00    -0.393 A  
HETATM   30  C   UNL     1     -10.069  19.231  68.859  1.00  0.00    -0.434 A  
HETATM   31  C   UNL     1      -9.936  20.221  67.885  1.00  0.00    -0.492 A  
HETATM   32  C   UNL     1     -10.019  19.886  66.535  1.00  0.00    -0.591 A  
HETATM   33  C   UNL     1     -10.230  18.560  66.159  1.00  0.00    -0.424 A  
HETATM   34  C   UNL     1     -10.364  17.569  67.131  1.00  0.00    -0.330 A  
ENDBRANCH  28  29
ENDBRANCH  27  28
ENDBRANCH  24  27
ENDBRANCH  23  24
ENDBRANCH  20  22
ENDBRANCH  12  13
ENDBRANCH  11  12
ENDBRANCH   9  10
ENDBRANCH   8   9
ENDBRANCH   7   8
ENDBRANCH   4   7
ENDBRANCH   2   3
TORSDOF 12
ENDMDL
MODEL      146
REMARK 921   NORMALIZED FREE ENERGY PREDICTED BY IDOCK:   -4.94 KCAL/MOL
REMARK 922        TOTAL FREE ENERGY PREDICTED BY IDOCK:  -11.25 KCAL/MOL
REMARK 923 INTER-LIGAND FREE ENERGY PREDICTED BY IDOCK:   -8.77 KCAL/MOL
REMARK 924 INTRA-LIGAND FREE ENERGY PREDICTED BY IDOCK:   -2.48 KCAL/MOL
REMARK 927      BINDING AFFINITY PREDICTED BY RF-SCORE:    0.00 PKD
ROOT
HETATM    1  C   UNL     1      -6.739  11.931  68.361  1.00  0.00    -0.067 C  
HETATM    2  C   UNL     1      -6.675  11.539  66.896  1.00  0.00    -0.139 C  
ENDROOT
BRANCH   2   3
HETATM    3  N   UNL     1      -7.703  10.582  66.556  1.00  0.00    -0.125 N  
HETATM    4  C   UNL     1      -7.659   9.885  65.369  1.00  0.00    -0.131 C  
HETATM    5  H   UNL     1      -8.473  10.420  67.205  1.00  0.00     0.000 HD 
HETATM    6  O   UNL     1      -6.774  10.031  64.536  1.00  0.00    -0.120 OA 
BRANCH   4   7
HETATM    7  C   UNL     1      -8.807   8.909  65.204  1.00  0.00    -0.209 C  
BRANCH   7   8
HETATM    8  C   UNL     1      -9.458   8.590  66.552  1.00  0.00    -0.282 C  
BRANCH   8   9
HETATM    9  C   UNL     1      -9.677   7.096  66.787  1.00  0.00    -0.252 C  
BRANCH   9  10
HETATM   10  C   UNL     1      -9.072   6.630  68.080  1.00  0.00    -0.119 C  
HETATM   11  C   UNL     1      -9.725   6.220  69.180  1.00  0.00    -0.154 C  
BRANCH  11  12
HETATM   12  C   UNL     1     -11.215   6.165  69.377  1.00  0.00    -0.466 C  
BRANCH  12  13
HETATM   13  C   UNL     1     -11.732   7.180  70.407  1.00  0.00    -0.273 C  
HETATM   14  C   UNL     1     -11.961   6.617  71.817  1.00  0.00    -0.345 C  
HETATM   15  C   UNL     1     -11.898   7.852  72.705  1.00  0.00    -0.352 C  
HETATM   16  O   UNL     1     -10.916   5.732  72.207  1.00  0.00    -0.238 OA 
HETATM   17  H   UNL     1     -11.058   5.383  73.079  1.00  0.00     0.000 HD 
HETATM   18  C   UNL     1     -10.729   8.645  72.126  1.00  0.00    -0.347 C  
HETATM   19  O   UNL     1      -9.506   8.208  72.724  1.00  0.00    -0.234 OA 
HETATM   20  C   UNL     1     -10.703   8.324  70.614  1.00  0.00    -0.240 C  
HETATM   21  H   UNL     1      -8.778   8.701  72.363  1.00  0.00     0.000 HD 
BRANCH  20  22
HETATM   22  C   UNL     1     -11.036   9.541  69.779  1.00  0.00    -0.245 C  
HETATM   23  C   UNL     1     -10.163  10.537  69.545  1.00  0.00    -0.230 C  
BRANCH  23  24
HETATM   24  C   UNL     1     -10.424  11.826  68.809  1.00  0.00    -0.198 C  
HETATM   25  H   UNL     1     -10.339  12.473  66.952  1.00  0.00     0.000 HD 
HETATM   26  O   UNL     1     -10.175  11.660  67.415  1.00  0.00    -0.199 OA 
BRANCH  24  27
HETATM   27  C   UNL     1     -11.864  12.329  68.968  1.00  0.00    -0.358 C  
BRANCH  27  28
HETATM   28  C   UNL     1     -11.973  13.852  69.078  1.00  0.00    -0.402 C  
BRANCH  28  29
HETATM   29  C   UNL     1     -12.262  14.282  70.495  1.00  0.00    -0.427 A  
HETATM   30  C   UNL     1     -11.772  15.504  70.975  1.00  0.00    -0.423 A  
HETATM   31  C   UNL     1     -11.999  15.886  72.297  1.00  0.00    -0.617 A  
HETATM   32  C   UNL     1     -12.717  15.050  73.150  1.00  0.00    -0.595 A  
HETATM   33  C   UNL     1     -13.212  13.835  72.680  1.00  0.00    -0.571 A  
HETATM   34  C   UNL     1     -12.986  13.451  71.359  1.00  0.00    -0.412 A  
ENDBRANCH  28  29
ENDBRANCH  27  28
ENDBRANCH  24  27
ENDBRANCH  23  24
ENDBRANCH  20  22
ENDBRANCH  12  13
ENDBRANCH  11  12
ENDBRANCH   9  10
ENDBRANCH   8   9
ENDBRANCH   7   8
ENDBRANCH   4   7
ENDBRANCH   2   3
TORSDOF 12
ENDMDL
MODEL      147
REMARK 921   NORMALIZED FREE ENERGY PREDICTED BY IDOCK:   -4.94 KCAL/MOL
REMARK 922        TOTAL FREE ENERGY PREDICTED BY IDOCK:  -11.24 KCAL/MOL
REMARK 923 INTER-LIGAND FREE ENERGY PREDICTED BY IDOCK:   -8.71 KCAL/MOL
REMARK 924 INTRA-LIGAND FREE ENERGY PREDICTED BY IDOCK:   -2.54 KCAL/MOL
REMARK 927      BINDING AFFINITY PREDICTED BY RF-SCORE:    0.00 PKD
ROOT
HETATM    1  C   UNL     1     -12.295  12.366  63.490  1.00  0.00    -0.648 C  
HETATM    2  C   UNL     1     -11.159  13.140  64.131  1.00  0.00    -0.394 C  
ENDROOT
BRANCH   2   3
HETATM    3  N   UNL     1     -11.365  13.309  65.552  1.00  0.00    -0.291 N  
HETATM    4  C   UNL     1     -11.294  14.553  66.138  1.00  0.00    -0.348 C  
HETATM    5  H   UNL     1     -11.566  12.493  66.130  1.00  0.00     0.000 HD 
HETATM    6  O   UNL     1     -11.046  15.577  65.513  1.00  0.00    -0.320 OA 
BRANCH   4   7
HETATM    7  C   UNL     1     -11.565  14.531  67.629  1.00  0.00    -0.402 C  
BRANCH   7   8
HETATM    8  C   UNL     1     -10.901  13.321  68.291  1.00  0.00    -0.276 C  
BRANCH   8   9
HETATM    9  C   UNL     1     -11.897  12.328  68.889  1.00  0.00    -0.355 C  
BRANCH   9  10
HETATM   10  C   UNL     1     -12.267  12.678  70.303  1.00  0.00    -0.347 C  
HETATM   11  C   UNL     1     -12.710  11.842  71.256  1.00  0.00    -0.401 C  
BRANCH  11  12
HETATM   12  C   UNL     1     -12.968  10.368  71.114  1.00  0.00    -0.506 C  
BRANCH  12  13
HETATM   13  C   UNL     1     -11.782   9.495  71.549  1.00  0.00    -0.472 C  
HETATM   14  C   UNL     1     -12.123   8.391  72.561  1.00  0.00    -0.337 C  
HETATM   15  C   UNL     1     -10.997   7.384  72.377  1.00  0.00    -0.319 C  
HETATM   16  O   UNL     1     -13.354   7.750  72.246  1.00  0.00    -0.502 OA 
HETATM   17  H   UNL     1     -13.565   7.067  72.872  1.00  0.00     0.000 HD 
HETATM   18  C   UNL     1     -10.817   7.326  70.862  1.00  0.00    -0.243 C  
HETATM   19  O   UNL     1     -11.712   6.360  70.307  1.00  0.00    -0.411 OA 
HETATM   20  C   UNL     1     -11.189   8.731  70.336  1.00  0.00    -0.247 C  
HETATM   21  H   UNL     1     -11.601   6.324  69.364  1.00  0.00     0.000 HD 
BRANCH  20  22
HETATM   22  C   UNL     1      -9.988   9.443  69.751  1.00  0.00    -0.217 C  
HETATM   23  C   UNL     1      -8.765   9.407  70.308  1.00  0.00    -0.261 C  
BRANCH  23  24
HETATM   24  C   UNL     1      -7.534  10.151  69.859  1.00  0.00    -0.170 C  
HETATM   25  H   UNL     1      -5.786   9.711  69.069  1.00  0.00     0.000 HD 
HETATM   26  O   UNL     1      -6.562   9.241  69.351  1.00  0.00    -0.043 OA 
BRANCH  24  27
HETATM   27  C   UNL     1      -7.823  11.183  68.761  1.00  0.00    -0.142 C  
BRANCH  27  28
HETATM   28  C   UNL     1      -6.607  12.035  68.386  1.00  0.00    -0.058 C  
BRANCH  28  29
HETATM   29  C   UNL     1      -6.930  13.507  68.433  1.00  0.00    -0.105 A  
HETATM   30  C   UNL     1      -7.574  14.123  67.352  1.00  0.00    -0.179 A  
HETATM   31  C   UNL     1      -7.835  15.494  67.372  1.00  0.00    -0.213 A  
HETATM   32  C   UNL     1      -7.454  16.259  68.472  1.00  0.00    -0.176 A  
HETATM   33  C   UNL     1      -6.817  15.654  69.554  1.00  0.00    -0.189 A  
HETATM   34  C   UNL     1      -6.554  14.285  69.536  1.00  0.00    -0.134 A  
ENDBRANCH  28  29
ENDBRANCH  27  28
ENDBRANCH  24  27
ENDBRANCH  23  24
ENDBRANCH  20  22
ENDBRANCH  12  13
ENDBRANCH  11  12
ENDBRANCH   9  10
ENDBRANCH   8   9
ENDBRANCH   7   8
ENDBRANCH   4   7
ENDBRANCH   2   3
TORSDOF 12
ENDMDL
MODEL      148
REMARK 921   NORMALIZED FREE ENERGY PREDICTED BY IDOCK:   -4.93 KCAL/MOL
REMARK 922        TOTAL FREE ENERGY PREDICTED BY IDOCK:  -11.23 KCAL/MOL
REMARK 923 INTER-LIGAND FREE ENERGY PREDICTED BY IDOCK:   -8.00 KCAL/MOL
REMARK 924 INTRA-LIGAND FREE ENERGY PREDICTED BY IDOCK:   -3.23 KCAL/MOL
REMARK 927      BINDING AFFINITY PREDICTED BY RF-SCORE:    0.00 PKD
ROOT
HETATM    1  C   UNL     1     -12.671  14.326  65.671  1.00  0.00    -0.395 C  
HETATM    2  C   UNL     1     -12.105  14.260  64.265  1.00  0.00    -0.441 C  
ENDROOT
BRANCH   2   3
HETATM    3  N   UNL     1     -10.979  13.357  64.187  1.00  0.00    -0.528 N  
HETATM    4  C   UNL     1     -11.116  12.095  63.654  1.00  0.00    -0.457 C  
HETATM    5  H   UNL     1     -10.068  13.660  64.533  1.00  0.00     0.000 HD 
HETATM    6  O   UNL     1     -12.177  11.657  63.229  1.00  0.00    -0.430 OA 
BRANCH   4   7
HETATM    7  C   UNL     1      -9.820  11.309  63.633  1.00  0.00    -0.377 C  
BRANCH   7   8
HETATM    8  C   UNL     1      -9.890  10.109  64.582  1.00  0.00    -0.361 C  
BRANCH   8   9
HETATM    9  C   UNL     1     -10.433  10.456  65.967  1.00  0.00    -0.211 C  
BRANCH   9  10
HETATM   10  C   UNL     1      -9.415  10.230  67.049  1.00  0.00    -0.191 C  
HETATM   11  C   UNL     1      -9.499   9.369  68.075  1.00  0.00    -0.148 C  
BRANCH  11  12
HETATM   12  C   UNL     1     -10.649   8.455  68.395  1.00  0.00    -0.155 C  
BRANCH  12  13
HETATM   13  C   UNL     1     -10.785   8.143  69.892  1.00  0.00    -0.241 C  
HETATM   14  C   UNL     1     -11.427   9.256  70.733  1.00  0.00    -0.292 C  
HETATM   15  C   UNL     1     -11.948   8.516  71.958  1.00  0.00    -0.427 C  
HETATM   16  O   UNL     1     -12.534   9.850  70.064  1.00  0.00    -0.491 OA 
HETATM   17  H   UNL     1     -12.931  10.538  70.584  1.00  0.00     0.000 HD 
HETATM   18  C   UNL     1     -12.545   7.239  71.372  1.00  0.00    -0.388 C  
HETATM   19  O   UNL     1     -13.903   7.472  70.990  1.00  0.00    -0.631 OA 
HETATM   20  C   UNL     1     -11.708   6.915  70.114  1.00  0.00    -0.306 C  
HETATM   21  H   UNL     1     -14.274   6.677  70.626  1.00  0.00     0.000 HD 
BRANCH  20  22
HETATM   22  C   UNL     1     -10.916   5.636  70.285  1.00  0.00    -0.287 C  
HETATM   23  C   UNL     1      -9.784   5.560  71.007  1.00  0.00    -0.229 C  
BRANCH  23  24
HETATM   24  C   UNL     1      -8.878   4.366  71.162  1.00  0.00    -0.115 C  
HETATM   25  H   UNL     1      -9.055   2.473  71.670  1.00  0.00     0.000 HD 
HETATM   26  O   UNL     1      -9.627   3.225  71.572  1.00  0.00    -0.143 OA 
BRANCH  24  27
HETATM   27  C   UNL     1      -8.141   3.998  69.868  1.00  0.00    -0.060 C  
BRANCH  27  28
HETATM   28  C   UNL     1      -7.181   5.087  69.379  1.00  0.00    -0.056 C  
BRANCH  28  29
HETATM   29  C   UNL     1      -7.626   5.659  68.056  1.00  0.00    -0.085 A  
HETATM   30  C   UNL     1      -8.798   5.194  67.444  1.00  0.00    -0.105 A  
HETATM   31  C   UNL     1      -9.189   5.688  66.200  1.00  0.00    -0.169 A  
HETATM   32  C   UNL     1      -8.412   6.649  65.556  1.00  0.00    -0.135 A  
HETATM   33  C   UNL     1      -7.247   7.120  66.158  1.00  0.00    -0.074 A  
HETATM   34  C   UNL     1      -6.854   6.628  67.402  1.00  0.00    -0.073 A  
ENDBRANCH  28  29
ENDBRANCH  27  28
ENDBRANCH  24  27
ENDBRANCH  23  24
ENDBRANCH  20  22
ENDBRANCH  12  13
ENDBRANCH  11  12
ENDBRANCH   9  10
ENDBRANCH   8   9
ENDBRANCH   7   8
ENDBRANCH   4   7
ENDBRANCH   2   3
TORSDOF 12
ENDMDL
MODEL      149
REMARK 921   NORMALIZED FREE ENERGY PREDICTED BY IDOCK:   -4.92 KCAL/MOL
REMARK 922        TOTAL FREE ENERGY PREDICTED BY IDOCK:  -11.21 KCAL/MOL
REMARK 923 INTER-LIGAND FREE ENERGY PREDICTED BY IDOCK:   -9.52 KCAL/MOL
REMARK 924 INTRA-LIGAND FREE ENERGY PREDICTED BY IDOCK:   -1.70 KCAL/MOL
REMARK 927      BINDING AFFINITY PREDICTED BY RF-SCORE:    0.00 PKD
ROOT
HETATM    1  C   UNL     1      -7.516  19.856  68.138  1.00  0.00    -0.329 C  
HETATM    2  C   UNL     1      -8.275  20.176  66.864  1.00  0.00    -0.316 C  
ENDROOT
BRANCH   2   3
HETATM    3  N   UNL     1      -8.926  19.004  66.323  1.00  0.00    -0.315 N  
HETATM    4  C   UNL     1     -10.280  18.809  66.479  1.00  0.00    -0.413 C  
HETATM    5  H   UNL     1      -8.374  18.310  65.819  1.00  0.00     0.000 HD 
HETATM    6  O   UNL     1     -11.007  19.590  67.080  1.00  0.00    -0.477 OA 
BRANCH   4   7
HETATM    7  C   UNL     1     -10.783  17.539  65.821  1.00  0.00    -0.106 C  
BRANCH   7   8
HETATM    8  C   UNL     1     -10.175  16.299  66.482  1.00  0.00    -0.307 C  
BRANCH   8   9
HETATM    9  C   UNL     1     -10.405  15.011  65.693  1.00  0.00    -0.374 C  
BRANCH   9  10
HETATM   10  C   UNL     1     -10.485  13.805  66.585  1.00  0.00    -0.272 C  
HETATM   11  C   UNL     1     -10.823  12.555  66.231  1.00  0.00    -0.299 C  
BRANCH  11  12
HETATM   12  C   UNL     1     -11.231  12.083  64.863  1.00  0.00    -0.374 C  
BRANCH  12  13
HETATM   13  C   UNL     1     -10.583  10.752  64.457  1.00  0.00    -0.258 C  
HETATM   14  C   UNL     1      -9.793  10.787  63.140  1.00  0.00    -0.334 C  
HETATM   15  C   UNL     1      -8.838   9.608  63.270  1.00  0.00    -0.254 C  
HETATM   16  O   UNL     1      -9.022  11.977  63.021  1.00  0.00    -0.613 OA 
HETATM   17  H   UNL     1      -8.533  11.999  62.206  1.00  0.00     0.000 HD 
HETATM   18  C   UNL     1      -8.365   9.694  64.719  1.00  0.00    -0.151 C  
HETATM   19  O   UNL     1      -7.233  10.564  64.807  1.00  0.00    -0.314 OA 
HETATM   20  C   UNL     1      -9.541  10.303  65.516  1.00  0.00    -0.299 C  
HETATM   21  H   UNL     1      -6.939  10.617  65.709  1.00  0.00     0.000 HD 
BRANCH  20  22
HETATM   22  C   UNL     1     -10.125   9.310  66.497  1.00  0.00    -0.343 C  
HETATM   23  C   UNL     1      -9.374   8.484  67.246  1.00  0.00    -0.184 C  
BRANCH  23  24
HETATM   24  C   UNL     1      -9.856   7.402  68.178  1.00  0.00    -0.156 C  
HETATM   25  H   UNL     1      -9.617   5.459  68.385  1.00  0.00     0.000 HD 
HETATM   26  O   UNL     1      -9.313   6.141  67.797  1.00  0.00    -0.112 OA 
BRANCH  24  27
HETATM   27  C   UNL     1      -9.469   7.652  69.641  1.00  0.00    -0.156 C  
BRANCH  27  28
HETATM   28  C   UNL     1      -9.365   9.137  70.001  1.00  0.00    -0.218 C  
BRANCH  28  29
HETATM   29  C   UNL     1     -10.680   9.674  70.507  1.00  0.00    -0.374 A  
HETATM   30  C   UNL     1     -11.187  10.882  70.010  1.00  0.00    -0.340 A  
HETATM   31  C   UNL     1     -12.381  11.406  70.507  1.00  0.00    -0.439 A  
HETATM   32  C   UNL     1     -13.077  10.727  71.505  1.00  0.00    -0.517 A  
HETATM   33  C   UNL     1     -12.583   9.522  72.003  1.00  0.00    -0.456 A  
HETATM   34  C   UNL     1     -11.389   8.998  71.508  1.00  0.00    -0.416 A  
ENDBRANCH  28  29
ENDBRANCH  27  28
ENDBRANCH  24  27
ENDBRANCH  23  24
ENDBRANCH  20  22
ENDBRANCH  12  13
ENDBRANCH  11  12
ENDBRANCH   9  10
ENDBRANCH   8   9
ENDBRANCH   7   8
ENDBRANCH   4   7
ENDBRANCH   2   3
TORSDOF 12
ENDMDL
MODEL      150
REMARK 921   NORMALIZED FREE ENERGY PREDICTED BY IDOCK:   -4.91 KCAL/MOL
REMARK 922        TOTAL FREE ENERGY PREDICTED BY IDOCK:  -11.19 KCAL/MOL
REMARK 923 INTER-LIGAND FREE ENERGY PREDICTED BY IDOCK:   -8.77 KCAL/MOL
REMARK 924 INTRA-LIGAND FREE ENERGY PREDICTED BY IDOCK:   -2.41 KCAL/MOL
REMARK 927      BINDING AFFINITY PREDICTED BY RF-SCORE:    0.00 PKD
ROOT
HETATM    1  C   UNL     1     -12.118  12.868  63.770  1.00  0.00    -0.583 C  
HETATM    2  C   UNL     1     -12.390  14.053  64.678  1.00  0.00    -0.397 C  
ENDROOT
BRANCH   2   3
HETATM    3  N   UNL     1     -12.320  13.682  66.073  1.00  0.00    -0.446 N  
HETATM    4  C   UNL     1     -11.648  14.466  66.984  1.00  0.00    -0.384 C  
HETATM    5  H   UNL     1     -12.775  12.825  66.388  1.00  0.00     0.000 HD 
HETATM    6  O   UNL     1     -11.068  15.501  66.681  1.00  0.00    -0.293 OA 
BRANCH   4   7
HETATM    7  C   UNL     1     -11.708  13.928  68.399  1.00  0.00    -0.391 C  
BRANCH   7   8
HETATM    8  C   UNL     1     -10.861  12.661  68.543  1.00  0.00    -0.279 C  
BRANCH   8   9
HETATM    9  C   UNL     1     -11.656  11.443  69.010  1.00  0.00    -0.383 C  
BRANCH   9  10
HETATM   10  C   UNL     1     -12.170  11.604  70.413  1.00  0.00    -0.434 C  
HETATM   11  C   UNL     1     -12.374  10.635  71.319  1.00  0.00    -0.488 C  
BRANCH  11  12
HETATM   12  C   UNL     1     -12.166   9.158  71.123  1.00  0.00    -0.350 C  
BRANCH  12  13
HETATM   13  C   UNL     1     -11.049   8.577  72.002  1.00  0.00    -0.412 C  
HETATM   14  C   UNL     1     -11.512   7.554  73.050  1.00  0.00    -0.197 C  
HETATM   15  C   UNL     1     -10.250   6.757  73.348  1.00  0.00    -0.293 C  
HETATM   16  O   UNL     1     -12.490   6.664  72.521  1.00  0.00    -0.509 OA 
HETATM   17  H   UNL     1     -12.776   6.031  73.169  1.00  0.00     0.000 HD 
HETATM   18  C   UNL     1      -9.624   6.558  71.970  1.00  0.00    -0.149 C  
HETATM   19  O   UNL     1     -10.166   5.385  71.358  1.00  0.00    -0.200 OA 
HETATM   20  C   UNL     1     -10.020   7.799  71.138  1.00  0.00    -0.194 C  
HETATM   21  H   UNL     1      -9.776   5.262  70.500  1.00  0.00     0.000 HD 
BRANCH  20  22
HETATM   22  C   UNL     1      -8.816   8.649  70.793  1.00  0.00    -0.206 C  
HETATM   23  C   UNL     1      -8.848   9.642  69.888  1.00  0.00    -0.240 C  
BRANCH  23  24
HETATM   24  C   UNL     1      -7.691  10.480  69.409  1.00  0.00    -0.155 C  
HETATM   25  H   UNL     1      -6.035  11.226  70.168  1.00  0.00     0.000 HD 
HETATM   26  O   UNL     1      -6.764  10.698  70.470  1.00  0.00    -0.312 OA 
BRANCH  24  27
HETATM   27  C   UNL     1      -6.924   9.837  68.247  1.00  0.00    -0.073 C  
BRANCH  27  28
HETATM   28  C   UNL     1      -7.784   9.599  67.002  1.00  0.00    -0.095 C  
BRANCH  28  29
HETATM   29  C   UNL     1      -8.588   8.328  67.124  1.00  0.00    -0.123 A  
HETATM   30  C   UNL     1      -7.949   7.114  67.407  1.00  0.00    -0.112 A  
HETATM   31  C   UNL     1      -8.683   5.929  67.476  1.00  0.00    -0.104 A  
HETATM   32  C   UNL     1     -10.059   5.948  67.263  1.00  0.00    -0.208 A  
HETATM   33  C   UNL     1     -10.704   7.152  66.984  1.00  0.00    -0.420 A  
HETATM   34  C   UNL     1      -9.973   8.338  66.914  1.00  0.00    -0.343 A  
ENDBRANCH  28  29
ENDBRANCH  27  28
ENDBRANCH  24  27
ENDBRANCH  23  24
ENDBRANCH  20  22
ENDBRANCH  12  13
ENDBRANCH  11  12
ENDBRANCH   9  10
ENDBRANCH   8   9
ENDBRANCH   7   8
ENDBRANCH   4   7
ENDBRANCH   2   3
TORSDOF 12
ENDMDL
MODEL      151
REMARK 921   NORMALIZED FREE ENERGY PREDICTED BY IDOCK:   -4.91 KCAL/MOL
REMARK 922        TOTAL FREE ENERGY PREDICTED BY IDOCK:  -11.19 KCAL/MOL
REMARK 923 INTER-LIGAND FREE ENERGY PREDICTED BY IDOCK:   -8.70 KCAL/MOL
REMARK 924 INTRA-LIGAND FREE ENERGY PREDICTED BY IDOCK:   -2.49 KCAL/MOL
REMARK 927      BINDING AFFINITY PREDICTED BY RF-SCORE:    0.00 PKD
ROOT
HETATM    1  C   UNL     1     -10.342  11.095  63.441  1.00  0.00    -0.419 C  
HETATM    2  C   UNL     1      -9.111  10.265  63.755  1.00  0.00    -0.256 C  
ENDROOT
BRANCH   2   3
HETATM    3  N   UNL     1      -9.300   9.463  64.944  1.00  0.00    -0.430 N  
HETATM    4  C   UNL     1      -8.253   8.762  65.501  1.00  0.00    -0.132 C  
HETATM    5  H   UNL     1     -10.222   9.416  65.376  1.00  0.00     0.000 HD 
HETATM    6  O   UNL     1      -7.121   8.761  65.034  1.00  0.00    -0.078 OA 
BRANCH   4   7
HETATM    7  C   UNL     1      -8.639   8.004  66.755  1.00  0.00    -0.133 C  
BRANCH   7   8
HETATM    8  C   UNL     1      -9.844   7.095  66.501  1.00  0.00    -0.189 C  
BRANCH   8   9
HETATM    9  C   UNL     1      -9.672   5.682  67.056  1.00  0.00    -0.155 C  
BRANCH   9  10
HETATM   10  C   UNL     1      -9.185   5.686  68.478  1.00  0.00    -0.131 C  
HETATM   11  C   UNL     1      -9.923   5.853  69.587  1.00  0.00    -0.234 C  
BRANCH  11  12
HETATM   12  C   UNL     1     -11.404   6.108  69.656  1.00  0.00    -0.442 C  
BRANCH  12  13
HETATM   13  C   UNL     1     -11.766   7.416  70.373  1.00  0.00    -0.163 C  
HETATM   14  C   UNL     1     -12.519   7.244  71.700  1.00  0.00    -0.359 C  
HETATM   15  C   UNL     1     -12.245   8.550  72.434  1.00  0.00    -0.432 C  
HETATM   16  O   UNL     1     -11.986   6.175  72.474  1.00  0.00    -0.490 OA 
HETATM   17  H   UNL     1     -12.452   6.068  73.295  1.00  0.00     0.000 HD 
HETATM   18  C   UNL     1     -10.767   8.809  72.154  1.00  0.00    -0.313 C  
HETATM   19  O   UNL     1      -9.966   8.143  73.132  1.00  0.00    -0.282 OA 
HETATM   20  C   UNL     1     -10.484   8.202  70.761  1.00  0.00    -0.223 C  
HETATM   21  H   UNL     1      -9.046   8.305  72.957  1.00  0.00     0.000 HD 
BRANCH  20  22
HETATM   22  C   UNL     1     -10.148   9.271  69.743  1.00  0.00    -0.218 C  
HETATM   23  C   UNL     1     -11.066  10.096  69.209  1.00  0.00    -0.270 C  
BRANCH  23  24
HETATM   24  C   UNL     1     -10.851  11.124  68.128  1.00  0.00    -0.219 C  
HETATM   25  H   UNL     1     -10.947  11.199  66.163  1.00  0.00     0.000 HD 
HETATM   26  O   UNL     1     -11.083  10.550  66.844  1.00  0.00    -0.196 OA 
BRANCH  24  27
HETATM   27  C   UNL     1     -11.773  12.342  68.266  1.00  0.00    -0.398 C  
BRANCH  27  28
HETATM   28  C   UNL     1     -12.035  13.066  66.942  1.00  0.00    -0.415 C  
BRANCH  28  29
HETATM   29  C   UNL     1     -11.488  14.471  66.966  1.00  0.00    -0.383 A  
HETATM   30  C   UNL     1     -10.980  15.050  65.795  1.00  0.00    -0.351 A  
HETATM   31  C   UNL     1     -10.432  16.333  65.821  1.00  0.00    -0.379 A  
HETATM   32  C   UNL     1     -10.388  17.048  67.016  1.00  0.00    -0.304 A  
HETATM   33  C   UNL     1     -10.895  16.482  68.185  1.00  0.00    -0.345 A  
HETATM   34  C   UNL     1     -11.443  15.199  68.161  1.00  0.00    -0.356 A  
ENDBRANCH  28  29
ENDBRANCH  27  28
ENDBRANCH  24  27
ENDBRANCH  23  24
ENDBRANCH  20  22
ENDBRANCH  12  13
ENDBRANCH  11  12
ENDBRANCH   9  10
ENDBRANCH   8   9
ENDBRANCH   7   8
ENDBRANCH   4   7
ENDBRANCH   2   3
TORSDOF 12
ENDMDL
MODEL      152
REMARK 921   NORMALIZED FREE ENERGY PREDICTED BY IDOCK:   -4.89 KCAL/MOL
REMARK 922        TOTAL FREE ENERGY PREDICTED BY IDOCK:  -11.15 KCAL/MOL
REMARK 923 INTER-LIGAND FREE ENERGY PREDICTED BY IDOCK:   -8.40 KCAL/MOL
REMARK 924 INTRA-LIGAND FREE ENERGY PREDICTED BY IDOCK:   -2.75 KCAL/MOL
REMARK 927      BINDING AFFINITY PREDICTED BY RF-SCORE:    0.00 PKD
ROOT
HETATM    1  C   UNL     1     -10.470   7.345  67.067  1.00  0.00    -0.404 C  
HETATM    2  C   UNL     1      -8.989   7.450  66.754  1.00  0.00    -0.141 C  
ENDROOT
BRANCH   2   3
HETATM    3  N   UNL     1      -8.602   8.811  66.459  1.00  0.00    -0.115 N  
HETATM    4  C   UNL     1      -7.486   9.373  67.037  1.00  0.00    -0.091 C  
HETATM    5  H   UNL     1      -9.165   9.364  65.812  1.00  0.00     0.000 HD 
HETATM    6  O   UNL     1      -6.767   8.778  67.829  1.00  0.00    -0.064 OA 
BRANCH   4   7
HETATM    7  C   UNL     1      -7.229  10.797  66.585  1.00  0.00    -0.134 C  
BRANCH   7   8
HETATM    8  C   UNL     1      -6.496  11.594  67.667  1.00  0.00    -0.075 C  
BRANCH   8   9
HETATM    9  C   UNL     1      -6.596  13.108  67.484  1.00  0.00    -0.159 C  
BRANCH   9  10
HETATM   10  C   UNL     1      -7.648  13.718  68.366  1.00  0.00    -0.135 C  
HETATM   11  C   UNL     1      -8.809  14.271  67.982  1.00  0.00    -0.178 C  
BRANCH  11  12
HETATM   12  C   UNL     1      -9.307  14.434  66.572  1.00  0.00    -0.300 C  
BRANCH  12  13
HETATM   13  C   UNL     1     -10.732  13.903  66.362  1.00  0.00    -0.281 C  
HETATM   14  C   UNL     1     -11.633  14.786  65.485  1.00  0.00    -0.301 C  
HETATM   15  C   UNL     1     -12.697  13.818  64.985  1.00  0.00    -0.379 C  
HETATM   16  O   UNL     1     -10.931  15.300  64.359  1.00  0.00    -0.657 OA 
HETATM   17  H   UNL     1     -11.488  15.846  63.817  1.00  0.00     0.000 HD 
HETATM   18  C   UNL     1     -11.900  12.560  64.647  1.00  0.00    -0.378 C  
HETATM   19  O   UNL     1     -11.411  12.645  63.307  1.00  0.00    -0.654 OA 
HETATM   20  C   UNL     1     -10.706  12.536  65.627  1.00  0.00    -0.297 C  
HETATM   21  H   UNL     1     -10.915  11.862  63.096  1.00  0.00     0.000 HD 
BRANCH  20  22
HETATM   22  C   UNL     1     -10.799  11.374  66.593  1.00  0.00    -0.339 C  
HETATM   23  C   UNL     1     -10.978  11.527  67.917  1.00  0.00    -0.287 C  
BRANCH  23  24
HETATM   24  C   UNL     1     -10.992  10.447  68.968  1.00  0.00    -0.238 C  
HETATM   25  H   UNL     1      -9.672   9.349  69.930  1.00  0.00     0.000 HD 
HETATM   26  O   UNL     1      -9.662  10.029  69.267  1.00  0.00    -0.191 OA 
BRANCH  24  27
HETATM   27  C   UNL     1     -11.645  10.896  70.282  1.00  0.00    -0.426 C  
BRANCH  27  28
HETATM   28  C   UNL     1     -12.652   9.887  70.840  1.00  0.00    -0.392 C  
BRANCH  28  29
HETATM   29  C   UNL     1     -11.976   8.602  71.248  1.00  0.00    -0.339 A  
HETATM   30  C   UNL     1     -12.135   7.445  70.474  1.00  0.00    -0.089 A  
HETATM   31  C   UNL     1     -11.548   6.243  70.870  1.00  0.00    -0.338 A  
HETATM   32  C   UNL     1     -10.798   6.188  72.043  1.00  0.00    -0.292 A  
HETATM   33  C   UNL     1     -10.631   7.335  72.817  1.00  0.00    -0.322 A  
HETATM   34  C   UNL     1     -11.217   8.537  72.423  1.00  0.00    -0.399 A  
ENDBRANCH  28  29
ENDBRANCH  27  28
ENDBRANCH  24  27
ENDBRANCH  23  24
ENDBRANCH  20  22
ENDBRANCH  12  13
ENDBRANCH  11  12
ENDBRANCH   9  10
ENDBRANCH   8   9
ENDBRANCH   7   8
ENDBRANCH   4   7
ENDBRANCH   2   3
TORSDOF 12
ENDMDL
MODEL      153
REMARK 921   NORMALIZED FREE ENERGY PREDICTED BY IDOCK:   -4.88 KCAL/MOL
REMARK 922        TOTAL FREE ENERGY PREDICTED BY IDOCK:  -11.14 KCAL/MOL
REMARK 923 INTER-LIGAND FREE ENERGY PREDICTED BY IDOCK:   -9.60 KCAL/MOL
REMARK 924 INTRA-LIGAND FREE ENERGY PREDICTED BY IDOCK:   -1.54 KCAL/MOL
REMARK 927      BINDING AFFINITY PREDICTED BY RF-SCORE:    0.00 PKD
ROOT
HETATM    1  C   UNL     1     -10.231  19.986  67.974  1.00  0.00    -0.538 C  
HETATM    2  C   UNL     1     -10.676  19.190  66.761  1.00  0.00    -0.397 C  
ENDROOT
BRANCH   2   3
HETATM    3  N   UNL     1     -10.104  17.862  66.757  1.00  0.00    -0.332 N  
HETATM    4  C   UNL     1     -10.340  16.991  65.717  1.00  0.00    -0.261 C  
HETATM    5  H   UNL     1      -9.517  17.566  67.537  1.00  0.00     0.000 HD 
HETATM    6  O   UNL     1     -11.042  17.269  64.753  1.00  0.00    -0.954 OA 
BRANCH   4   7
HETATM    7  C   UNL     1      -9.635  15.659  65.879  1.00  0.00    -0.385 C  
BRANCH   7   8
HETATM    8  C   UNL     1     -10.218  14.866  67.052  1.00  0.00    -0.256 C  
BRANCH   8   9
HETATM    9  C   UNL     1     -11.672  14.445  66.843  1.00  0.00    -0.422 C  
BRANCH   9  10
HETATM   10  C   UNL     1     -11.908  13.011  67.225  1.00  0.00    -0.419 C  
HETATM   11  C   UNL     1     -11.389  11.920  66.641  1.00  0.00    -0.400 C  
BRANCH  11  12
HETATM   12  C   UNL     1     -10.476  11.884  65.447  1.00  0.00    -0.312 C  
BRANCH  12  13
HETATM   13  C   UNL     1      -9.766  10.536  65.260  1.00  0.00    -0.328 C  
HETATM   14  C   UNL     1      -9.513  10.130  63.801  1.00  0.00    -0.275 C  
HETATM   15  C   UNL     1      -8.362   9.138  63.905  1.00  0.00    -0.183 C  
HETATM   16  O   UNL     1      -9.082  11.235  63.014  1.00  0.00    -0.394 OA 
HETATM   17  H   UNL     1      -8.926  10.984  62.111  1.00  0.00     0.000 HD 
HETATM   18  C   UNL     1      -7.436   9.777  64.936  1.00  0.00    -0.129 C  
HETATM   19  O   UNL     1      -6.539  10.681  64.285  1.00  0.00    -0.354 OA 
HETATM   20  C   UNL     1      -8.351  10.568  65.898  1.00  0.00    -0.161 C  
HETATM   21  H   UNL     1      -5.963  11.079  64.927  1.00  0.00     0.000 HD 
BRANCH  20  22
HETATM   22  C   UNL     1      -8.345   9.973  67.290  1.00  0.00    -0.121 C  
HETATM   23  C   UNL     1      -9.072   8.896  67.635  1.00  0.00    -0.144 C  
BRANCH  23  24
HETATM   24  C   UNL     1      -9.206   8.285  69.006  1.00  0.00    -0.147 C  
HETATM   25  H   UNL     1      -8.147   7.106  70.174  1.00  0.00     0.000 HD 
HETATM   26  O   UNL     1      -8.062   7.491  69.309  1.00  0.00    -0.121 OA 
BRANCH  24  27
HETATM   27  C   UNL     1      -9.355   9.331  70.118  1.00  0.00    -0.258 C  
BRANCH  27  28
HETATM   28  C   UNL     1     -10.676   9.224  70.886  1.00  0.00    -0.371 C  
BRANCH  28  29
HETATM   29  C   UNL     1     -10.686   8.024  71.799  1.00  0.00    -0.296 A  
HETATM   30  C   UNL     1     -11.575   6.967  71.565  1.00  0.00    -0.329 A  
HETATM   31  C   UNL     1     -11.619   5.875  72.432  1.00  0.00    -0.341 A  
HETATM   32  C   UNL     1     -10.775   5.830  73.540  1.00  0.00    -0.300 A  
HETATM   33  C   UNL     1      -9.884   6.875  73.778  1.00  0.00    -0.313 A  
HETATM   34  C   UNL     1      -9.839   7.968  72.913  1.00  0.00    -0.357 A  
ENDBRANCH  28  29
ENDBRANCH  27  28
ENDBRANCH  24  27
ENDBRANCH  23  24
ENDBRANCH  20  22
ENDBRANCH  12  13
ENDBRANCH  11  12
ENDBRANCH   9  10
ENDBRANCH   8   9
ENDBRANCH   7   8
ENDBRANCH   4   7
ENDBRANCH   2   3
TORSDOF 12
ENDMDL
MODEL      154
REMARK 921   NORMALIZED FREE ENERGY PREDICTED BY IDOCK:   -4.88 KCAL/MOL
REMARK 922        TOTAL FREE ENERGY PREDICTED BY IDOCK:  -11.14 KCAL/MOL
REMARK 923 INTER-LIGAND FREE ENERGY PREDICTED BY IDOCK:   -8.61 KCAL/MOL
REMARK 924 INTRA-LIGAND FREE ENERGY PREDICTED BY IDOCK:   -2.53 KCAL/MOL
REMARK 927      BINDING AFFINITY PREDICTED BY RF-SCORE:    0.00 PKD
ROOT
HETATM    1  C   UNL     1     -14.410  14.643  71.735  1.00  0.00    -0.638 C  
HETATM    2  C   UNL     1     -13.269  13.742  72.170  1.00  0.00    -0.447 C  
ENDROOT
BRANCH   2   3
HETATM    3  N   UNL     1     -12.722  13.001  71.056  1.00  0.00    -0.309 N  
HETATM    4  C   UNL     1     -12.724  11.624  71.050  1.00  0.00    -0.298 C  
HETATM    5  H   UNL     1     -12.327  13.506  70.263  1.00  0.00     0.000 HD 
HETATM    6  O   UNL     1     -13.168  10.948  71.970  1.00  0.00    -0.492 OA 
BRANCH   4   7
HETATM    7  C   UNL     1     -12.133  11.029  69.788  1.00  0.00    -0.424 C  
BRANCH   7   8
HETATM    8  C   UNL     1     -11.089  11.965  69.173  1.00  0.00    -0.285 C  
BRANCH   8   9
HETATM    9  C   UNL     1      -9.900  11.233  68.553  1.00  0.00    -0.198 C  
BRANCH   9  10
HETATM   10  C   UNL     1      -9.104  12.118  67.637  1.00  0.00    -0.181 C  
HETATM   11  C   UNL     1      -9.404  12.456  66.372  1.00  0.00    -0.219 C  
BRANCH  11  12
HETATM   12  C   UNL     1     -10.593  11.998  65.573  1.00  0.00    -0.313 C  
BRANCH  12  13
HETATM   13  C   UNL     1     -10.267  10.868  64.587  1.00  0.00    -0.411 C  
HETATM   14  C   UNL     1      -9.879  11.329  63.174  1.00  0.00    -0.375 C  
HETATM   15  C   UNL     1      -9.090  10.150  62.622  1.00  0.00    -0.305 C  
HETATM   16  O   UNL     1      -9.023  12.465  63.207  1.00  0.00    -0.130 OA 
HETATM   17  H   UNL     1      -8.783  12.751  62.333  1.00  0.00     0.000 HD 
HETATM   18  C   UNL     1      -8.223   9.720  63.802  1.00  0.00    -0.162 C  
HETATM   19  O   UNL     1      -7.008  10.474  63.808  1.00  0.00    -0.327 OA 
HETATM   20  C   UNL     1      -9.038  10.053  65.073  1.00  0.00    -0.255 C  
HETATM   21  H   UNL     1      -6.468  10.206  64.543  1.00  0.00     0.000 HD 
BRANCH  20  22
HETATM   22  C   UNL     1      -9.449   8.801  65.816  1.00  0.00    -0.239 C  
HETATM   23  C   UNL     1      -8.587   8.039  66.512  1.00  0.00    -0.148 C  
BRANCH  23  24
HETATM   24  C   UNL     1      -8.876   6.732  67.206  1.00  0.00    -0.118 C  
HETATM   25  H   UNL     1      -8.450   4.829  66.939  1.00  0.00     0.000 HD 
HETATM   26  O   UNL     1      -8.268   5.652  66.502  1.00  0.00    -0.105 OA 
BRANCH  24  27
HETATM   27  C   UNL     1      -8.363   6.693  68.651  1.00  0.00    -0.123 C  
BRANCH  27  28
HETATM   28  C   UNL     1      -8.646   7.977  69.436  1.00  0.00    -0.136 C  
BRANCH  28  29
HETATM   29  C   UNL     1      -9.785   7.789  70.406  1.00  0.00    -0.179 A  
HETATM   30  C   UNL     1     -10.863   6.958  70.076  1.00  0.00    -0.299 A  
HETATM   31  C   UNL     1     -11.940   6.815  70.951  1.00  0.00    -0.437 A  
HETATM   32  C   UNL     1     -11.949   7.503  72.162  1.00  0.00    -0.323 A  
HETATM   33  C   UNL     1     -10.879   8.330  72.501  1.00  0.00    -0.421 A  
HETATM   34  C   UNL     1      -9.802   8.474  71.628  1.00  0.00    -0.317 A  
ENDBRANCH  28  29
ENDBRANCH  27  28
ENDBRANCH  24  27
ENDBRANCH  23  24
ENDBRANCH  20  22
ENDBRANCH  12  13
ENDBRANCH  11  12
ENDBRANCH   9  10
ENDBRANCH   8   9
ENDBRANCH   7   8
ENDBRANCH   4   7
ENDBRANCH   2   3
TORSDOF 12
ENDMDL
MODEL      155
REMARK 921   NORMALIZED FREE ENERGY PREDICTED BY IDOCK:   -4.88 KCAL/MOL
REMARK 922        TOTAL FREE ENERGY PREDICTED BY IDOCK:  -11.14 KCAL/MOL
REMARK 923 INTER-LIGAND FREE ENERGY PREDICTED BY IDOCK:   -8.26 KCAL/MOL
REMARK 924 INTRA-LIGAND FREE ENERGY PREDICTED BY IDOCK:   -2.88 KCAL/MOL
REMARK 927      BINDING AFFINITY PREDICTED BY RF-SCORE:    0.00 PKD
ROOT
HETATM    1  C   UNL     1     -10.656  15.785  65.696  1.00  0.00    -0.393 C  
HETATM    2  C   UNL     1     -10.750  14.596  64.759  1.00  0.00    -0.377 C  
ENDROOT
BRANCH   2   3
HETATM    3  N   UNL     1     -10.479  13.354  65.448  1.00  0.00    -0.294 N  
HETATM    4  C   UNL     1     -11.487  12.453  65.710  1.00  0.00    -0.370 C  
HETATM    5  H   UNL     1      -9.527  13.141  65.744  1.00  0.00     0.000 HD 
HETATM    6  O   UNL     1     -12.656  12.641  65.396  1.00  0.00    -0.641 OA 
BRANCH   4   7
HETATM    7  C   UNL     1     -11.005  11.201  66.415  1.00  0.00    -0.248 C  
BRANCH   7   8
HETATM    8  C   UNL     1     -10.678  11.486  67.883  1.00  0.00    -0.241 C  
BRANCH   8   9
HETATM    9  C   UNL     1     -11.120  10.375  68.834  1.00  0.00    -0.296 C  
BRANCH   9  10
HETATM   10  C   UNL     1      -9.982   9.471  69.219  1.00  0.00    -0.191 C  
HETATM   11  C   UNL     1      -9.877   8.154  68.983  1.00  0.00    -0.176 C  
BRANCH  11  12
HETATM   12  C   UNL     1     -10.893   7.275  68.307  1.00  0.00    -0.114 C  
BRANCH  12  13
HETATM   13  C   UNL     1     -10.481   5.797  68.252  1.00  0.00    -0.281 C  
HETATM   14  C   UNL     1     -10.522   5.162  66.854  1.00  0.00    -0.223 C  
HETATM   15  C   UNL     1      -9.573   3.977  66.976  1.00  0.00    -0.231 C  
HETATM   16  O   UNL     1     -10.012   6.043  65.859  1.00  0.00    -0.389 OA 
HETATM   17  H   UNL     1     -10.037   5.650  64.995  1.00  0.00     0.000 HD 
HETATM   18  C   UNL     1      -8.405   4.541  67.780  1.00  0.00    -0.099 C  
HETATM   19  O   UNL     1      -7.460   5.149  66.896  1.00  0.00    -0.085 OA 
HETATM   20  C   UNL     1      -9.007   5.621  68.707  1.00  0.00    -0.117 C  
HETATM   21  H   UNL     1      -6.733   5.500  67.397  1.00  0.00     0.000 HD 
BRANCH  20  22
HETATM   22  C   UNL     1      -8.911   5.222  70.164  1.00  0.00    -0.144 C  
HETATM   23  C   UNL     1      -9.970   4.831  70.894  1.00  0.00    -0.283 C  
BRANCH  23  24
HETATM   24  C   UNL     1      -9.996   4.505  72.365  1.00  0.00    -0.171 C  
HETATM   25  H   UNL     1      -8.691   4.313  73.827  1.00  0.00     0.000 HD 
HETATM   26  O   UNL     1      -8.674   4.519  72.900  1.00  0.00    -0.111 OA 
BRANCH  24  27
HETATM   27  C   UNL     1     -10.839   5.490  73.185  1.00  0.00    -0.328 C  
BRANCH  27  28
HETATM   28  C   UNL     1     -10.601   6.956  72.813  1.00  0.00    -0.270 C  
BRANCH  28  29
HETATM   29  C   UNL     1     -11.874   7.620  72.350  1.00  0.00    -0.336 A  
HETATM   30  C   UNL     1     -12.912   6.854  71.805  1.00  0.00    -0.326 A  
HETATM   31  C   UNL     1     -14.073   7.468  71.335  1.00  0.00    -0.496 A  
HETATM   32  C   UNL     1     -14.206   8.853  71.406  1.00  0.00    -0.241 A  
HETATM   33  C   UNL     1     -13.181   9.624  71.951  1.00  0.00    -0.538 A  
HETATM   34  C   UNL     1     -12.019   9.012  72.421  1.00  0.00    -0.255 A  
ENDBRANCH  28  29
ENDBRANCH  27  28
ENDBRANCH  24  27
ENDBRANCH  23  24
ENDBRANCH  20  22
ENDBRANCH  12  13
ENDBRANCH  11  12
ENDBRANCH   9  10
ENDBRANCH   8   9
ENDBRANCH   7   8
ENDBRANCH   4   7
ENDBRANCH   2   3
TORSDOF 12
ENDMDL
MODEL      156
REMARK 921   NORMALIZED FREE ENERGY PREDICTED BY IDOCK:   -4.87 KCAL/MOL
REMARK 922        TOTAL FREE ENERGY PREDICTED BY IDOCK:  -11.11 KCAL/MOL
REMARK 923 INTER-LIGAND FREE ENERGY PREDICTED BY IDOCK:   -9.22 KCAL/MOL
REMARK 924 INTRA-LIGAND FREE ENERGY PREDICTED BY IDOCK:   -1.89 KCAL/MOL
REMARK 927      BINDING AFFINITY PREDICTED BY RF-SCORE:    0.00 PKD
ROOT
HETATM    1  C   UNL     1     -10.850  19.329  66.413  1.00  0.00    -0.375 C  
HETATM    2  C   UNL     1      -9.416  19.791  66.231  1.00  0.00    -0.406 C  
ENDROOT
BRANCH   2   3
HETATM    3  N   UNL     1      -8.484  18.694  66.358  1.00  0.00    -0.289 N  
HETATM    4  C   UNL     1      -7.906  18.389  67.570  1.00  0.00    -0.231 C  
HETATM    5  H   UNL     1      -8.250  18.137  65.536  1.00  0.00     0.000 HD 
HETATM    6  O   UNL     1      -8.129  19.018  68.597  1.00  0.00    -0.344 OA 
BRANCH   4   7
HETATM    7  C   UNL     1      -6.979  17.192  67.509  1.00  0.00    -0.172 C  
BRANCH   7   8
HETATM    8  C   UNL     1      -7.728  15.938  67.050  1.00  0.00    -0.268 C  
BRANCH   8   9
HETATM    9  C   UNL     1      -8.610  15.321  68.134  1.00  0.00    -0.160 C  
BRANCH   9  10
HETATM   10  C   UNL     1      -8.446  13.831  68.219  1.00  0.00    -0.173 C  
HETATM   11  C   UNL     1      -9.421  12.910  68.302  1.00  0.00    -0.206 C  
BRANCH  11  12
HETATM   12  C   UNL     1     -10.901  13.167  68.362  1.00  0.00    -0.283 C  
BRANCH  12  13
HETATM   13  C   UNL     1     -11.661  12.651  67.131  1.00  0.00    -0.434 C  
HETATM   14  C   UNL     1     -12.274  13.742  66.241  1.00  0.00    -0.447 C  
HETATM   15  C   UNL     1     -12.433  13.050  64.894  1.00  0.00    -0.512 C  
HETATM   16  O   UNL     1     -11.390  14.846  66.076  1.00  0.00    -0.342 OA 
HETATM   17  H   UNL     1     -11.769  15.520  65.525  1.00  0.00     0.000 HD 
HETATM   18  C   UNL     1     -11.137  12.257  64.748  1.00  0.00    -0.311 C  
HETATM   19  O   UNL     1     -10.130  13.081  64.156  1.00  0.00    -0.593 OA 
HETATM   20  C   UNL     1     -10.707  11.876  66.183  1.00  0.00    -0.318 C  
HETATM   21  H   UNL     1      -9.323  12.587  64.066  1.00  0.00     0.000 HD 
BRANCH  20  22
HETATM   22  C   UNL     1     -10.779  10.381  66.409  1.00  0.00    -0.134 C  
HETATM   23  C   UNL     1      -9.713   9.567  66.310  1.00  0.00    -0.310 C  
BRANCH  23  24
HETATM   24  C   UNL     1      -9.697   8.064  66.425  1.00  0.00    -0.185 C  
HETATM   25  H   UNL     1      -8.661   6.569  65.674  1.00  0.00     0.000 HD 
HETATM   26  O   UNL     1      -8.671   7.516  65.602  1.00  0.00    -0.144 OA 
BRANCH  24  27
HETATM   27  C   UNL     1      -9.456   7.574  67.858  1.00  0.00    -0.153 C  
BRANCH  27  28
HETATM   28  C   UNL     1     -10.628   6.774  68.436  1.00  0.00    -0.270 C  
BRANCH  28  29
HETATM   29  C   UNL     1     -11.023   7.285  69.799  1.00  0.00    -0.235 A  
HETATM   30  C   UNL     1     -10.615   8.557  70.222  1.00  0.00    -0.238 A  
HETATM   31  C   UNL     1     -10.940   9.016  71.498  1.00  0.00    -0.418 A  
HETATM   32  C   UNL     1     -11.676   8.207  72.363  1.00  0.00    -0.461 A  
HETATM   33  C   UNL     1     -12.090   6.942  71.950  1.00  0.00    -0.370 A  
HETATM   34  C   UNL     1     -11.765   6.481  70.674  1.00  0.00    -0.436 A  
ENDBRANCH  28  29
ENDBRANCH  27  28
ENDBRANCH  24  27
ENDBRANCH  23  24
ENDBRANCH  20  22
ENDBRANCH  12  13
ENDBRANCH  11  12
ENDBRANCH   9  10
ENDBRANCH   8   9
ENDBRANCH   7   8
ENDBRANCH   4   7
ENDBRANCH   2   3
TORSDOF 12
ENDMDL
MODEL      157
REMARK 921   NORMALIZED FREE ENERGY PREDICTED BY IDOCK:   -4.86 KCAL/MOL
REMARK 922        TOTAL FREE ENERGY PREDICTED BY IDOCK:  -11.10 KCAL/MOL
REMARK 923 INTER-LIGAND FREE ENERGY PREDICTED BY IDOCK:   -9.19 KCAL/MOL
REMARK 924 INTRA-LIGAND FREE ENERGY PREDICTED BY IDOCK:   -1.92 KCAL/MOL
REMARK 927      BINDING AFFINITY PREDICTED BY RF-SCORE:    0.00 PKD
ROOT
HETATM    1  C   UNL     1      -8.433   7.015  71.062  1.00  0.00    -0.133 C  
HETATM    2  C   UNL     1      -9.751   7.261  70.353  1.00  0.00    -0.172 C  
ENDROOT
BRANCH   2   3
HETATM    3  N   UNL     1      -9.565   7.440  68.930  1.00  0.00    -0.148 N  
HETATM    4  C   UNL     1      -9.895   6.443  68.040  1.00  0.00    -0.123 C  
HETATM    5  H   UNL     1      -9.183   8.319  68.581  1.00  0.00     0.000 HD 
HETATM    6  O   UNL     1     -10.348   5.359  68.383  1.00  0.00    -0.179 OA 
BRANCH   4   7
HETATM    7  C   UNL     1      -9.654   6.827  66.593  1.00  0.00    -0.211 C  
BRANCH   7   8
HETATM    8  C   UNL     1      -8.157   6.849  66.271  1.00  0.00    -0.112 C  
BRANCH   8   9
HETATM    9  C   UNL     1      -7.605   8.253  66.028  1.00  0.00    -0.078 C  
BRANCH   9  10
HETATM   10  C   UNL     1      -7.954   8.771  64.662  1.00  0.00    -0.135 C  
HETATM   11  C   UNL     1      -8.911   9.660  64.351  1.00  0.00    -0.263 C  
BRANCH  11  12
HETATM   12  C   UNL     1      -9.875  10.316  65.301  1.00  0.00    -0.372 C  
BRANCH  12  13
HETATM   13  C   UNL     1     -10.186  11.776  64.944  1.00  0.00    -0.315 C  
HETATM   14  C   UNL     1     -10.668  12.005  63.503  1.00  0.00    -0.455 C  
HETATM   15  C   UNL     1     -11.417  13.328  63.587  1.00  0.00    -0.287 C  
HETATM   16  O   UNL     1     -11.583  10.998  63.087  1.00  0.00    -0.601 OA 
HETATM   17  H   UNL     1     -11.881  11.139  62.196  1.00  0.00     0.000 HD 
HETATM   18  C   UNL     1     -12.200  13.209  64.892  1.00  0.00    -0.428 C  
HETATM   19  O   UNL     1     -13.453  12.566  64.647  1.00  0.00    -0.639 OA 
HETATM   20  C   UNL     1     -11.343  12.322  65.824  1.00  0.00    -0.400 C  
HETATM   21  H   UNL     1     -13.940  12.492  65.460  1.00  0.00     0.000 HD 
BRANCH  20  22
HETATM   22  C   UNL     1     -10.827  13.099  67.016  1.00  0.00    -0.278 C  
HETATM   23  C   UNL     1     -11.466  14.159  67.538  1.00  0.00    -0.365 C  
BRANCH  23  24
HETATM   24  C   UNL     1     -10.994  15.051  68.658  1.00  0.00    -0.257 C  
HETATM   25  H   UNL     1     -11.464  16.813  69.399  1.00  0.00     0.000 HD 
HETATM   26  O   UNL     1     -11.762  16.251  68.693  1.00  0.00    -0.314 OA 
BRANCH  24  27
HETATM   27  C   UNL     1     -11.101  14.390  70.038  1.00  0.00    -0.125 C  
BRANCH  27  28
HETATM   28  C   UNL     1     -12.510  13.895  70.372  1.00  0.00    -0.404 C  
BRANCH  28  29
HETATM   29  C   UNL     1     -12.515  12.419  70.687  1.00  0.00    -0.320 A  
HETATM   30  C   UNL     1     -13.265  11.930  71.764  1.00  0.00    -0.426 A  
HETATM   31  C   UNL     1     -13.238  10.573  72.087  1.00  0.00    -0.398 A  
HETATM   32  C   UNL     1     -12.460   9.694  71.336  1.00  0.00    -0.465 A  
HETATM   33  C   UNL     1     -11.713  10.171  70.260  1.00  0.00    -0.361 A  
HETATM   34  C   UNL     1     -11.739  11.528  69.936  1.00  0.00    -0.420 A  
ENDBRANCH  28  29
ENDBRANCH  27  28
ENDBRANCH  24  27
ENDBRANCH  23  24
ENDBRANCH  20  22
ENDBRANCH  12  13
ENDBRANCH  11  12
ENDBRANCH   9  10
ENDBRANCH   8   9
ENDBRANCH   7   8
ENDBRANCH   4   7
ENDBRANCH   2   3
TORSDOF 12
ENDMDL
MODEL      158
REMARK 921   NORMALIZED FREE ENERGY PREDICTED BY IDOCK:   -4.83 KCAL/MOL
REMARK 922        TOTAL FREE ENERGY PREDICTED BY IDOCK:  -11.05 KCAL/MOL
REMARK 923 INTER-LIGAND FREE ENERGY PREDICTED BY IDOCK:   -8.70 KCAL/MOL
REMARK 924 INTRA-LIGAND FREE ENERGY PREDICTED BY IDOCK:   -2.36 KCAL/MOL
REMARK 927      BINDING AFFINITY PREDICTED BY RF-SCORE:    0.00 PKD
ROOT
HETATM    1  C   UNL     1     -12.032  12.141  70.330  1.00  0.00    -0.389 C  
HETATM    2  C   UNL     1     -12.042  13.564  69.803  1.00  0.00    -0.318 C  
ENDROOT
BRANCH   2   3
HETATM    3  N   UNL     1     -12.239  13.600  68.371  1.00  0.00    -0.381 N  
HETATM    4  C   UNL     1     -11.998  14.747  67.649  1.00  0.00    -0.213 C  
HETATM    5  H   UNL     1     -12.562  12.761  67.888  1.00  0.00     0.000 HD 
HETATM    6  O   UNL     1     -11.620  15.795  68.159  1.00  0.00    -0.344 OA 
BRANCH   4   7
HETATM    7  C   UNL     1     -12.235  14.581  66.161  1.00  0.00    -0.268 C  
BRANCH   7   8
HETATM    8  C   UNL     1     -11.217  13.618  65.546  1.00  0.00    -0.301 C  
BRANCH   8   9
HETATM    9  C   UNL     1     -11.770  12.212  65.311  1.00  0.00    -0.364 C  
BRANCH   9  10
HETATM   10  C   UNL     1     -11.203  11.579  64.072  1.00  0.00    -0.414 C  
HETATM   11  C   UNL     1     -10.110  10.805  63.984  1.00  0.00    -0.410 C  
BRANCH  11  12
HETATM   12  C   UNL     1      -9.183  10.422  65.106  1.00  0.00    -0.250 C  
BRANCH  12  13
HETATM   13  C   UNL     1      -9.888  10.292  66.463  1.00  0.00    -0.265 C  
HETATM   14  C   UNL     1     -10.382   8.879  66.807  1.00  0.00    -0.247 C  
HETATM   15  C   UNL     1     -10.491   8.902  68.325  1.00  0.00    -0.243 C  
HETATM   16  O   UNL     1      -9.432   7.885  66.441  1.00  0.00    -0.200 OA 
HETATM   17  H   UNL     1      -9.737   7.011  66.653  1.00  0.00     0.000 HD 
HETATM   18  C   UNL     1      -9.232   9.650  68.758  1.00  0.00    -0.141 C  
HETATM   19  O   UNL     1      -8.146   8.731  68.894  1.00  0.00    -0.110 OA 
HETATM   20  C   UNL     1      -8.918  10.649  67.621  1.00  0.00    -0.139 C  
HETATM   21  H   UNL     1      -7.363   9.197  69.164  1.00  0.00     0.000 HD 
BRANCH  20  22
HETATM   22  C   UNL     1      -9.085  12.083  68.075  1.00  0.00    -0.188 C  
HETATM   23  C   UNL     1      -8.358  13.102  67.586  1.00  0.00    -0.174 C  
BRANCH  23  24
HETATM   24  C   UNL     1      -8.382  14.541  68.034  1.00  0.00    -0.153 C  
HETATM   25  H   UNL     1      -7.690  15.597  69.544  1.00  0.00     0.000 HD 
HETATM   26  O   UNL     1      -7.675  14.690  69.262  1.00  0.00    -0.143 OA 
BRANCH  24  27
HETATM   27  C   UNL     1      -7.752  15.498  67.014  1.00  0.00    -0.246 C  
BRANCH  27  28
HETATM   28  C   UNL     1      -8.776  16.197  66.116  1.00  0.00    -0.358 C  
BRANCH  28  29
HETATM   29  C   UNL     1      -9.147  17.555  66.656  1.00  0.00    -0.287 A  
HETATM   30  C   UNL     1     -10.225  18.262  66.109  1.00  0.00    -0.393 A  
HETATM   31  C   UNL     1     -10.544  19.538  66.575  1.00  0.00    -0.579 A  
HETATM   32  C   UNL     1      -9.787  20.118  67.591  1.00  0.00    -0.567 A  
HETATM   33  C   UNL     1      -8.714  19.420  68.144  1.00  0.00    -0.370 A  
HETATM   34  C   UNL     1      -8.394  18.145  67.680  1.00  0.00    -0.244 A  
ENDBRANCH  28  29
ENDBRANCH  27  28
ENDBRANCH  24  27
ENDBRANCH  23  24
ENDBRANCH  20  22
ENDBRANCH  12  13
ENDBRANCH  11  12
ENDBRANCH   9  10
ENDBRANCH   8   9
ENDBRANCH   7   8
ENDBRANCH   4   7
ENDBRANCH   2   3
TORSDOF 12
ENDMDL
MODEL      159
REMARK 921   NORMALIZED FREE ENERGY PREDICTED BY IDOCK:   -4.82 KCAL/MOL
REMARK 922        TOTAL FREE ENERGY PREDICTED BY IDOCK:  -11.04 KCAL/MOL
REMARK 923 INTER-LIGAND FREE ENERGY PREDICTED BY IDOCK:   -8.82 KCAL/MOL
REMARK 924 INTRA-LIGAND FREE ENERGY PREDICTED BY IDOCK:   -2.22 KCAL/MOL
REMARK 927      BINDING AFFINITY PREDICTED BY RF-SCORE:    0.00 PKD
ROOT
HETATM    1  C   UNL     1      -8.954   5.725  71.815  1.00  0.00    -0.143 C  
HETATM    2  C   UNL     1      -7.918   6.526  71.049  1.00  0.00    -0.111 C  
ENDROOT
BRANCH   2   3
HETATM    3  N   UNL     1      -8.425   6.965  69.768  1.00  0.00    -0.132 N  
HETATM    4  C   UNL     1      -8.282   6.184  68.643  1.00  0.00    -0.108 C  
HETATM    5  H   UNL     1      -8.896   7.867  69.697  1.00  0.00     0.000 HD 
HETATM    6  O   UNL     1      -7.720   5.097  68.646  1.00  0.00    -0.077 OA 
BRANCH   4   7
HETATM    7  C   UNL     1      -8.900   6.800  67.403  1.00  0.00    -0.117 C  
BRANCH   7   8
HETATM    8  C   UNL     1      -7.824   7.379  66.480  1.00  0.00    -0.098 C  
BRANCH   8   9
HETATM    9  C   UNL     1      -8.093   8.822  66.058  1.00  0.00    -0.112 C  
BRANCH   9  10
HETATM   10  C   UNL     1      -9.498   9.016  65.563  1.00  0.00    -0.220 C  
HETATM   11  C   UNL     1     -10.055  10.158  65.126  1.00  0.00    -0.329 C  
BRANCH  11  12
HETATM   12  C   UNL     1      -9.404  11.512  65.064  1.00  0.00    -0.107 C  
BRANCH  12  13
HETATM   13  C   UNL     1      -9.949  12.500  66.106  1.00  0.00    -0.267 C  
HETATM   14  C   UNL     1      -9.806  13.983  65.733  1.00  0.00    -0.256 C  
HETATM   15  C   UNL     1     -10.874  14.664  66.579  1.00  0.00    -0.315 C  
HETATM   16  O   UNL     1     -10.108  14.213  64.361  1.00  0.00    -0.682 OA 
HETATM   17  H   UNL     1     -10.019  15.130  64.131  1.00  0.00     0.000 HD 
HETATM   18  C   UNL     1     -12.068  13.720  66.469  1.00  0.00    -0.443 C  
HETATM   19  O   UNL     1     -12.839  14.049  65.311  1.00  0.00    -0.686 OA 
HETATM   20  C   UNL     1     -11.476  12.301  66.304  1.00  0.00    -0.435 C  
HETATM   21  H   UNL     1     -13.582  13.461  65.243  1.00  0.00     0.000 HD 
BRANCH  20  22
HETATM   22  C   UNL     1     -11.781  11.426  67.500  1.00  0.00    -0.220 C  
HETATM   23  C   UNL     1     -10.870  11.114  68.438  1.00  0.00    -0.248 C  
BRANCH  23  24
HETATM   24  C   UNL     1     -11.047  10.183  69.610  1.00  0.00    -0.263 C  
HETATM   25  H   UNL     1      -9.956   8.870  70.590  1.00  0.00     0.000 HD 
HETATM   26  O   UNL     1      -9.844   9.457  69.851  1.00  0.00    -0.184 OA 
BRANCH  24  27
HETATM   27  C   UNL     1     -11.418  10.912  70.907  1.00  0.00     0.020 C  
BRANCH  27  28
HETATM   28  C   UNL     1     -12.861  11.426  70.929  1.00  0.00    -0.323 C  
BRANCH  28  29
HETATM   29  C   UNL     1     -12.914  12.905  71.220  1.00  0.00    -0.317 A  
HETATM   30  C   UNL     1     -13.608  13.379  72.341  1.00  0.00    -0.708 A  
HETATM   31  C   UNL     1     -13.698  14.749  72.590  1.00  0.00    -0.547 A  
HETATM   32  C   UNL     1     -13.096  15.656  71.720  1.00  0.00    -0.546 A  
HETATM   33  C   UNL     1     -12.400  15.193  70.605  1.00  0.00    -0.420 A  
HETATM   34  C   UNL     1     -12.309  13.824  70.354  1.00  0.00    -0.423 A  
ENDBRANCH  28  29
ENDBRANCH  27  28
ENDBRANCH  24  27
ENDBRANCH  23  24
ENDBRANCH  20  22
ENDBRANCH  12  13
ENDBRANCH  11  12
ENDBRANCH   9  10
ENDBRANCH   8   9
ENDBRANCH   7   8
ENDBRANCH   4   7
ENDBRANCH   2   3
TORSDOF 12
ENDMDL
MODEL      160
REMARK 921   NORMALIZED FREE ENERGY PREDICTED BY IDOCK:   -4.81 KCAL/MOL
REMARK 922        TOTAL FREE ENERGY PREDICTED BY IDOCK:  -11.03 KCAL/MOL
REMARK 923 INTER-LIGAND FREE ENERGY PREDICTED BY IDOCK:   -8.97 KCAL/MOL
REMARK 924 INTRA-LIGAND FREE ENERGY PREDICTED BY IDOCK:   -2.05 KCAL/MOL
REMARK 927      BINDING AFFINITY PREDICTED BY RF-SCORE:    0.00 PKD
ROOT
HETATM    1  C   UNL     1      -6.888  12.238  67.398  1.00  0.00    -0.145 C  
HETATM    2  C   UNL     1      -7.859  12.094  68.554  1.00  0.00    -0.122 C  
ENDROOT
BRANCH   2   3
HETATM    3  N   UNL     1      -8.541  10.820  68.521  1.00  0.00    -0.141 N  
HETATM    4  C   UNL     1      -8.349   9.885  69.513  1.00  0.00    -0.168 C  
HETATM    5  H   UNL     1      -9.175  10.610  67.749  1.00  0.00     0.000 HD 
HETATM    6  O   UNL     1      -7.597  10.059  70.464  1.00  0.00    -0.276 OA 
BRANCH   4   7
HETATM    7  C   UNL     1      -9.169   8.625  69.318  1.00  0.00    -0.150 C  
BRANCH   7   8
HETATM    8  C   UNL     1     -10.631   8.854  69.713  1.00  0.00    -0.230 C  
BRANCH   8   9
HETATM    9  C   UNL     1     -10.811   9.280  71.169  1.00  0.00    -0.407 C  
BRANCH   9  10
HETATM   10  C   UNL     1     -12.119   9.982  71.397  1.00  0.00    -0.498 C  
HETATM   11  C   UNL     1     -12.518  11.149  70.865  1.00  0.00    -0.509 C  
BRANCH  11  12
HETATM   12  C   UNL     1     -11.728  12.036  69.943  1.00  0.00    -0.374 C  
BRANCH  12  13
HETATM   13  C   UNL     1     -12.408  13.383  69.659  1.00  0.00    -0.187 C  
HETATM   14  C   UNL     1     -12.532  14.318  70.871  1.00  0.00    -0.354 C  
HETATM   15  C   UNL     1     -12.679  15.696  70.241  1.00  0.00    -0.248 C  
HETATM   16  O   UNL     1     -11.350  14.312  71.664  1.00  0.00    -0.183 OA 
HETATM   17  H   UNL     1     -11.426  14.890  72.414  1.00  0.00     0.000 HD 
HETATM   18  C   UNL     1     -11.666  15.673  69.100  1.00  0.00    -0.390 C  
HETATM   19  O   UNL     1     -10.384  16.080  69.584  1.00  0.00    -0.257 OA 
HETATM   20  C   UNL     1     -11.590  14.203  68.626  1.00  0.00    -0.352 C  
HETATM   21  H   UNL     1      -9.753  16.066  68.873  1.00  0.00     0.000 HD 
BRANCH  20  22
HETATM   22  C   UNL     1     -12.130  14.041  67.221  1.00  0.00    -0.405 C  
HETATM   23  C   UNL     1     -12.054  12.891  66.530  1.00  0.00    -0.375 C  
BRANCH  23  24
HETATM   24  C   UNL     1     -12.475  12.653  65.102  1.00  0.00    -0.463 C  
HETATM   25  H   UNL     1     -13.105  13.733  63.581  1.00  0.00     0.000 HD 
HETATM   26  O   UNL     1     -12.840  13.883  64.481  1.00  0.00    -0.644 OA 
BRANCH  24  27
HETATM   27  C   UNL     1     -11.374  12.010  64.250  1.00  0.00    -0.433 C  
BRANCH  27  28
HETATM   28  C   UNL     1     -10.104  11.679  65.039  1.00  0.00    -0.305 C  
BRANCH  28  29
HETATM   29  C   UNL     1      -9.383  10.492  64.450  1.00  0.00    -0.307 A  
HETATM   30  C   UNL     1      -9.269  10.355  63.060  1.00  0.00    -0.312 A  
HETATM   31  C   UNL     1      -8.642   9.237  62.509  1.00  0.00    -0.226 A  
HETATM   32  C   UNL     1      -8.126   8.247  63.342  1.00  0.00    -0.133 A  
HETATM   33  C   UNL     1      -8.232   8.376  64.726  1.00  0.00    -0.162 A  
HETATM   34  C   UNL     1      -8.858   9.493  65.279  1.00  0.00    -0.220 A  
ENDBRANCH  28  29
ENDBRANCH  27  28
ENDBRANCH  24  27
ENDBRANCH  23  24
ENDBRANCH  20  22
ENDBRANCH  12  13
ENDBRANCH  11  12
ENDBRANCH   9  10
ENDBRANCH   8   9
ENDBRANCH   7   8
ENDBRANCH   4   7
ENDBRANCH   2   3
TORSDOF 12
ENDMDL
MODEL      161
REMARK 921   NORMALIZED FREE ENERGY PREDICTED BY IDOCK:   -4.81 KCAL/MOL
REMARK 922        TOTAL FREE ENERGY PREDICTED BY IDOCK:  -11.01 KCAL/MOL
REMARK 923 INTER-LIGAND FREE ENERGY PREDICTED BY IDOCK:   -9.15 KCAL/MOL
REMARK 924 INTRA-LIGAND FREE ENERGY PREDICTED BY IDOCK:   -1.87 KCAL/MOL
REMARK 927      BINDING AFFINITY PREDICTED BY RF-SCORE:    0.00 PKD
ROOT
HETATM    1  C   UNL     1      -7.324   2.499  65.554  1.00  0.00    -0.067 C  
HETATM    2  C   UNL     1      -8.478   3.337  65.036  1.00  0.00    -0.099 C  
ENDROOT
BRANCH   2   3
HETATM    3  N   UNL     1      -9.115   4.080  66.101  1.00  0.00    -0.133 N  
HETATM    4  C   UNL     1     -10.326   4.705  65.905  1.00  0.00    -0.283 C  
HETATM    5  H   UNL     1      -8.659   4.143  67.011  1.00  0.00     0.000 HD 
HETATM    6  O   UNL     1     -10.928   4.684  64.839  1.00  0.00    -0.070 OA 
BRANCH   4   7
HETATM    7  C   UNL     1     -10.845   5.409  67.143  1.00  0.00    -0.083 C  
BRANCH   7   8
HETATM    8  C   UNL     1      -9.728   5.616  68.168  1.00  0.00    -0.153 C  
BRANCH   8   9
HETATM    9  C   UNL     1     -10.035   5.013  69.538  1.00  0.00    -0.302 C  
BRANCH   9  10
HETATM   10  C   UNL     1      -9.323   5.732  70.648  1.00  0.00    -0.186 C  
HETATM   11  C   UNL     1      -9.854   6.183  71.795  1.00  0.00    -0.185 C  
BRANCH  11  12
HETATM   12  C   UNL     1     -11.295   6.100  72.216  1.00  0.00    -0.346 C  
BRANCH  12  13
HETATM   13  C   UNL     1     -12.196   7.130  71.519  1.00  0.00    -0.396 C  
HETATM   14  C   UNL     1     -13.686   6.762  71.468  1.00  0.00    -0.035 C  
HETATM   15  C   UNL     1     -14.375   8.107  71.283  1.00  0.00    -0.381 C  
HETATM   16  O   UNL     1     -14.132   6.195  72.694  1.00  0.00    -0.500 OA 
HETATM   17  H   UNL     1     -15.053   5.968  72.662  1.00  0.00     0.000 HD 
HETATM   18  C   UNL     1     -13.610   9.030  72.227  1.00  0.00    -0.484 C  
HETATM   19  O   UNL     1     -14.183   8.966  73.535  1.00  0.00    -1.194 OA 
HETATM   20  C   UNL     1     -12.163   8.486  72.275  1.00  0.00    -0.454 C  
HETATM   21  H   UNL     1     -13.705   9.541  74.123  1.00  0.00     0.000 HD 
BRANCH  20  22
HETATM   22  C   UNL     1     -11.181   9.456  71.653  1.00  0.00    -0.431 C  
HETATM   23  C   UNL     1     -11.078   9.652  70.327  1.00  0.00    -0.327 C  
BRANCH  23  24
HETATM   24  C   UNL     1     -10.077  10.520  69.607  1.00  0.00    -0.139 C  
HETATM   25  H   UNL     1      -8.611  10.270  68.318  1.00  0.00     0.000 HD 
HETATM   26  O   UNL     1      -9.241   9.723  68.772  1.00  0.00    -0.136 OA 
BRANCH  24  27
HETATM   27  C   UNL     1     -10.734  11.589  68.724  1.00  0.00    -0.247 C  
BRANCH  27  28
HETATM   28  C   UNL     1     -12.091  12.067  69.249  1.00  0.00    -0.249 C  
BRANCH  28  29
HETATM   29  C   UNL     1     -11.973  13.405  69.937  1.00  0.00    -0.408 A  
HETATM   30  C   UNL     1     -11.023  14.339  69.506  1.00  0.00    -0.206 A  
HETATM   31  C   UNL     1     -10.880  15.559  70.167  1.00  0.00    -0.346 A  
HETATM   32  C   UNL     1     -11.686  15.855  71.265  1.00  0.00    -0.504 A  
HETATM   33  C   UNL     1     -12.637  14.933  71.699  1.00  0.00    -0.396 A  
HETATM   34  C   UNL     1     -12.781  13.713  71.039  1.00  0.00    -0.408 A  
ENDBRANCH  28  29
ENDBRANCH  27  28
ENDBRANCH  24  27
ENDBRANCH  23  24
ENDBRANCH  20  22
ENDBRANCH  12  13
ENDBRANCH  11  12
ENDBRANCH   9  10
ENDBRANCH   8   9
ENDBRANCH   7   8
ENDBRANCH   4   7
ENDBRANCH   2   3
TORSDOF 12
ENDMDL
MODEL      162
REMARK 921   NORMALIZED FREE ENERGY PREDICTED BY IDOCK:   -4.80 KCAL/MOL
REMARK 922        TOTAL FREE ENERGY PREDICTED BY IDOCK:  -11.01 KCAL/MOL
REMARK 923 INTER-LIGAND FREE ENERGY PREDICTED BY IDOCK:   -9.08 KCAL/MOL
REMARK 924 INTRA-LIGAND FREE ENERGY PREDICTED BY IDOCK:   -1.93 KCAL/MOL
REMARK 927      BINDING AFFINITY PREDICTED BY RF-SCORE:    0.00 PKD
ROOT
HETATM    1  C   UNL     1     -11.027   2.114  62.861  1.00  0.00    -0.234 C  
HETATM    2  C   UNL     1     -10.767   3.608  62.820  1.00  0.00    -0.178 C  
ENDROOT
BRANCH   2   3
HETATM    3  N   UNL     1     -10.525   4.143  64.141  1.00  0.00    -0.438 N  
HETATM    4  C   UNL     1      -9.244   4.308  64.617  1.00  0.00    -0.156 C  
HETATM    5  H   UNL     1     -11.317   4.401  64.730  1.00  0.00     0.000 HD 
HETATM    6  O   UNL     1      -8.245   4.011  63.974  1.00  0.00    -0.089 OA 
BRANCH   4   7
HETATM    7  C   UNL     1      -9.193   4.905  66.009  1.00  0.00    -0.151 C  
BRANCH   7   8
HETATM    8  C   UNL     1     -10.602   5.122  66.567  1.00  0.00    -0.320 C  
BRANCH   8   9
HETATM    9  C   UNL     1     -10.819   6.516  67.154  1.00  0.00    -0.472 C  
BRANCH   9  10
HETATM   10  C   UNL     1      -9.746   6.892  68.136  1.00  0.00    -0.134 C  
HETATM   11  C   UNL     1      -9.729   6.643  69.455  1.00  0.00    -0.153 C  
BRANCH  11  12
HETATM   12  C   UNL     1     -10.800   5.957  70.257  1.00  0.00    -0.391 C  
BRANCH  12  13
HETATM   13  C   UNL     1     -11.054   6.612  71.622  1.00  0.00    -0.290 C  
HETATM   14  C   UNL     1     -10.460   5.862  72.824  1.00  0.00    -0.209 C  
HETATM   15  C   UNL     1     -10.344   6.942  73.892  1.00  0.00    -0.398 C  
HETATM   16  O   UNL     1      -9.155   5.368  72.544  1.00  0.00    -0.136 OA 
HETATM   17  H   UNL     1      -8.787   4.904  73.287  1.00  0.00     0.000 HD 
HETATM   18  C   UNL     1      -9.827   8.151  73.117  1.00  0.00    -0.197 C  
HETATM   19  O   UNL     1      -8.399   8.115  73.063  1.00  0.00    -0.171 OA 
HETATM   20  C   UNL     1     -10.398   8.017  71.687  1.00  0.00    -0.267 C  
HETATM   21  H   UNL     1      -8.078   8.868  72.580  1.00  0.00     0.000 HD 
BRANCH  20  22
HETATM   22  C   UNL     1     -11.389   9.118  71.376  1.00  0.00    -0.414 C  
HETATM   23  C   UNL     1     -11.342   9.859  70.256  1.00  0.00    -0.357 C  
BRANCH  23  24
HETATM   24  C   UNL     1     -12.219  11.031  69.897  1.00  0.00    -0.336 C  
HETATM   25  H   UNL     1     -12.772  12.730  70.724  1.00  0.00     0.000 HD 
HETATM   26  O   UNL     1     -12.218  11.992  70.951  1.00  0.00    -0.352 OA 
BRANCH  24  27
HETATM   27  C   UNL     1     -11.773  11.746  68.615  1.00  0.00    -0.389 C  
BRANCH  27  28
HETATM   28  C   UNL     1     -10.972  10.853  67.664  1.00  0.00    -0.350 C  
BRANCH  28  29
HETATM   29  C   UNL     1     -10.967  11.408  66.261  1.00  0.00    -0.303 A  
HETATM   30  C   UNL     1     -11.801  12.482  65.925  1.00  0.00    -0.489 A  
HETATM   31  C   UNL     1     -11.832  12.971  64.618  1.00  0.00    -0.422 A  
HETATM   32  C   UNL     1     -11.031  12.390  63.638  1.00  0.00    -0.525 A  
HETATM   33  C   UNL     1     -10.194  11.323  63.965  1.00  0.00    -0.403 A  
HETATM   34  C   UNL     1     -10.162  10.833  65.270  1.00  0.00    -0.351 A  
ENDBRANCH  28  29
ENDBRANCH  27  28
ENDBRANCH  24  27
ENDBRANCH  23  24
ENDBRANCH  20  22
ENDBRANCH  12  13
ENDBRANCH  11  12
ENDBRANCH   9  10
ENDBRANCH   8   9
ENDBRANCH   7   8
ENDBRANCH   4   7
ENDBRANCH   2   3
TORSDOF 12
ENDMDL
MODEL      163
REMARK 921   NORMALIZED FREE ENERGY PREDICTED BY IDOCK:   -4.80 KCAL/MOL
REMARK 922        TOTAL FREE ENERGY PREDICTED BY IDOCK:  -11.01 KCAL/MOL
REMARK 923 INTER-LIGAND FREE ENERGY PREDICTED BY IDOCK:   -8.52 KCAL/MOL
REMARK 924 INTRA-LIGAND FREE ENERGY PREDICTED BY IDOCK:   -2.48 KCAL/MOL
REMARK 927      BINDING AFFINITY PREDICTED BY RF-SCORE:    0.00 PKD
ROOT
HETATM    1  C   UNL     1     -14.118   8.118  71.593  1.00  0.00    -0.504 C  
HETATM    2  C   UNL     1     -12.867   7.262  71.535  1.00  0.00    -0.388 C  
ENDROOT
BRANCH   2   3
HETATM    3  N   UNL     1     -11.868   7.838  70.662  1.00  0.00    -0.465 N  
HETATM    4  C   UNL     1     -11.175   7.058  69.764  1.00  0.00    -0.217 C  
HETATM    5  H   UNL     1     -11.675   8.838  70.713  1.00  0.00     0.000 HD 
HETATM    6  O   UNL     1     -11.343   5.850  69.652  1.00  0.00    -0.370 OA 
BRANCH   4   7
HETATM    7  C   UNL     1     -10.192   7.845  68.920  1.00  0.00    -0.215 C  
BRANCH   7   8
HETATM    8  C   UNL     1     -10.496   9.344  68.974  1.00  0.00    -0.233 C  
BRANCH   8   9
HETATM    9  C   UNL     1      -9.393  10.169  69.636  1.00  0.00    -0.215 C  
BRANCH   9  10
HETATM   10  C   UNL     1      -8.335  10.590  68.658  1.00  0.00    -0.132 C  
HETATM   11  C   UNL     1      -8.430  11.547  67.721  1.00  0.00    -0.137 C  
BRANCH  11  12
HETATM   12  C   UNL     1      -9.635  12.395  67.417  1.00  0.00    -0.184 C  
BRANCH  12  13
HETATM   13  C   UNL     1      -9.712  12.845  65.951  1.00  0.00    -0.190 C  
HETATM   14  C   UNL     1     -10.157  11.760  64.960  1.00  0.00    -0.263 C  
HETATM   15  C   UNL     1     -10.686  12.559  63.776  1.00  0.00    -0.483 C  
HETATM   16  O   UNL     1     -11.224  10.975  65.482  1.00  0.00    -0.021 OA 
HETATM   17  H   UNL     1     -11.499  10.304  64.869  1.00  0.00     0.000 HD 
HETATM   18  C   UNL     1     -11.471  13.690  64.435  1.00  0.00    -0.386 C  
HETATM   19  O   UNL     1     -12.812  13.263  64.688  1.00  0.00    -0.679 OA 
HETATM   20  C   UNL     1     -10.762  13.975  65.778  1.00  0.00    -0.294 C  
HETATM   21  H   UNL     1     -13.300  13.967  65.098  1.00  0.00     0.000 HD 
BRANCH  20  22
HETATM   22  C   UNL     1     -10.123  15.347  65.793  1.00  0.00    -0.391 C  
HETATM   23  C   UNL     1     -10.817  16.482  65.987  1.00  0.00    -0.069 C  
BRANCH  23  24
HETATM   24  C   UNL     1     -10.294  17.894  65.928  1.00  0.00    -0.259 C  
HETATM   25  H   UNL     1     -10.691  19.543  64.929  1.00  0.00     0.000 HD 
HETATM   26  O   UNL     1     -11.021  18.652  64.965  1.00  0.00    -0.559 OA 
BRANCH  24  27
HETATM   27  C   UNL     1     -10.394  18.628  67.271  1.00  0.00    -0.440 C  
BRANCH  27  28
HETATM   28  C   UNL     1      -9.048  18.787  67.984  1.00  0.00    -0.328 C  
BRANCH  28  29
HETATM   29  C   UNL     1      -8.428  17.448  68.295  1.00  0.00    -0.249 A  
HETATM   30  C   UNL     1      -7.185  17.102  67.749  1.00  0.00    -0.169 A  
HETATM   31  C   UNL     1      -6.628  15.847  67.997  1.00  0.00    -0.143 A  
HETATM   32  C   UNL     1      -7.309  14.928  68.792  1.00  0.00    -0.127 A  
HETATM   33  C   UNL     1      -8.545  15.264  69.343  1.00  0.00    -0.226 A  
HETATM   34  C   UNL     1      -9.103  16.518  69.096  1.00  0.00    -0.184 A  
ENDBRANCH  28  29
ENDBRANCH  27  28
ENDBRANCH  24  27
ENDBRANCH  23  24
ENDBRANCH  20  22
ENDBRANCH  12  13
ENDBRANCH  11  12
ENDBRANCH   9  10
ENDBRANCH   8   9
ENDBRANCH   7   8
ENDBRANCH   4   7
ENDBRANCH   2   3
TORSDOF 12
ENDMDL
MODEL      164
REMARK 921   NORMALIZED FREE ENERGY PREDICTED BY IDOCK:   -4.78 KCAL/MOL
REMARK 922        TOTAL FREE ENERGY PREDICTED BY IDOCK:  -10.97 KCAL/MOL
REMARK 923 INTER-LIGAND FREE ENERGY PREDICTED BY IDOCK:   -9.06 KCAL/MOL
REMARK 924 INTRA-LIGAND FREE ENERGY PREDICTED BY IDOCK:   -1.91 KCAL/MOL
REMARK 927      BINDING AFFINITY PREDICTED BY RF-SCORE:    0.00 PKD
ROOT
HETATM    1  C   UNL     1      -9.973   2.960  63.796  1.00  0.00    -0.160 C  
HETATM    2  C   UNL     1      -8.717   3.601  64.357  1.00  0.00    -0.105 C  
ENDROOT
BRANCH   2   3
HETATM    3  N   UNL     1      -8.948   4.976  64.740  1.00  0.00    -0.260 N  
HETATM    4  C   UNL     1      -7.909   5.785  65.144  1.00  0.00    -0.105 C  
HETATM    5  H   UNL     1      -9.896   5.352  64.712  1.00  0.00     0.000 HD 
HETATM    6  O   UNL     1      -6.748   5.402  65.215  1.00  0.00    -0.043 OA 
BRANCH   4   7
HETATM    7  C   UNL     1      -8.344   7.197  65.479  1.00  0.00    -0.132 C  
BRANCH   7   8
HETATM    8  C   UNL     1      -9.335   7.206  66.647  1.00  0.00    -0.207 C  
BRANCH   8   9
HETATM    9  C   UNL     1      -9.779   8.609  67.060  1.00  0.00    -0.262 C  
BRANCH   9  10
HETATM   10  C   UNL     1     -10.232   9.430  65.887  1.00  0.00    -0.123 C  
HETATM   11  C   UNL     1      -9.872  10.689  65.590  1.00  0.00    -0.307 C  
BRANCH  11  12
HETATM   12  C   UNL     1      -8.955  11.576  66.386  1.00  0.00    -0.200 C  
BRANCH  12  13
HETATM   13  C   UNL     1      -9.699  12.583  67.275  1.00  0.00    -0.202 C  
HETATM   14  C   UNL     1      -9.443  14.060  66.940  1.00  0.00    -0.265 C  
HETATM   15  C   UNL     1     -10.658  14.770  67.520  1.00  0.00    -0.259 C  
HETATM   16  O   UNL     1      -9.420  14.286  65.535  1.00  0.00    -0.534 OA 
HETATM   17  H   UNL     1      -9.261  15.199  65.329  1.00  0.00     0.000 HD 
HETATM   18  C   UNL     1     -11.817  13.850  67.145  1.00  0.00    -0.412 C  
HETATM   19  O   UNL     1     -12.298  14.187  65.841  1.00  0.00    -0.448 OA 
HETATM   20  C   UNL     1     -11.235  12.419  67.122  1.00  0.00    -0.353 C  
HETATM   21  H   UNL     1     -13.020  13.615  65.608  1.00  0.00     0.000 HD 
BRANCH  20  22
HETATM   22  C   UNL     1     -11.823  11.559  68.220  1.00  0.00    -0.327 C  
HETATM   23  C   UNL     1     -11.196  11.318  69.384  1.00  0.00    -0.345 C  
BRANCH  23  24
HETATM   24  C   UNL     1     -11.651  10.408  70.496  1.00  0.00    -0.344 C  
HETATM   25  H   UNL     1     -10.836   9.093  71.713  1.00  0.00     0.000 HD 
HETATM   26  O   UNL     1     -10.548   9.667  71.012  1.00  0.00    -0.311 OA 
BRANCH  24  27
HETATM   27  C   UNL     1     -12.292  11.164  71.667  1.00  0.00    -0.153 C  
BRANCH  27  28
HETATM   28  C   UNL     1     -13.273  12.255  71.227  1.00  0.00    -0.071 C  
BRANCH  28  29
HETATM   29  C   UNL     1     -12.835  13.616  71.707  1.00  0.00    -0.407 A  
HETATM   30  C   UNL     1     -13.342  14.138  72.904  1.00  0.00    -0.532 A  
HETATM   31  C   UNL     1     -12.974  15.415  73.331  1.00  0.00    -0.662 A  
HETATM   32  C   UNL     1     -12.097  16.179  72.564  1.00  0.00    -0.644 A  
HETATM   33  C   UNL     1     -11.584  15.666  71.374  1.00  0.00    -0.499 A  
HETATM   34  C   UNL     1     -11.951  14.390  70.946  1.00  0.00    -0.393 A  
ENDBRANCH  28  29
ENDBRANCH  27  28
ENDBRANCH  24  27
ENDBRANCH  23  24
ENDBRANCH  20  22
ENDBRANCH  12  13
ENDBRANCH  11  12
ENDBRANCH   9  10
ENDBRANCH   8   9
ENDBRANCH   7   8
ENDBRANCH   4   7
ENDBRANCH   2   3
TORSDOF 12
ENDMDL
MODEL      165
REMARK 921   NORMALIZED FREE ENERGY PREDICTED BY IDOCK:   -4.78 KCAL/MOL
REMARK 922        TOTAL FREE ENERGY PREDICTED BY IDOCK:  -10.97 KCAL/MOL
REMARK 923 INTER-LIGAND FREE ENERGY PREDICTED BY IDOCK:   -8.24 KCAL/MOL
REMARK 924 INTRA-LIGAND FREE ENERGY PREDICTED BY IDOCK:   -2.73 KCAL/MOL
REMARK 927      BINDING AFFINITY PREDICTED BY RF-SCORE:    0.00 PKD
ROOT
HETATM    1  C   UNL     1     -14.408   7.767  71.579  1.00  0.00    -0.574 C  
HETATM    2  C   UNL     1     -13.994   9.162  72.008  1.00  0.00    -0.371 C  
ENDROOT
BRANCH   2   3
HETATM    3  N   UNL     1     -13.009   9.724  71.112  1.00  0.00    -0.441 N  
HETATM    4  C   UNL     1     -12.642  11.048  71.200  1.00  0.00    -0.418 C  
HETATM    5  H   UNL     1     -12.579   9.130  70.402  1.00  0.00     0.000 HD 
HETATM    6  O   UNL     1     -13.120  11.825  72.017  1.00  0.00    -0.467 OA 
BRANCH   4   7
HETATM    7  C   UNL     1     -11.578  11.444  70.195  1.00  0.00    -0.368 C  
BRANCH   7   8
HETATM    8  C   UNL     1     -12.010  11.093  68.769  1.00  0.00    -0.337 C  
BRANCH   8   9
HETATM    9  C   UNL     1     -11.835  12.241  67.776  1.00  0.00    -0.341 C  
BRANCH   9  10
HETATM   10  C   UNL     1     -11.576  13.551  68.465  1.00  0.00    -0.368 C  
HETATM   11  C   UNL     1     -10.841  14.577  68.006  1.00  0.00    -0.249 C  
BRANCH  11  12
HETATM   12  C   UNL     1     -10.083  14.635  66.708  1.00  0.00    -0.266 C  
BRANCH  12  13
HETATM   13  C   UNL     1      -8.579  14.374  66.868  1.00  0.00    -0.191 C  
HETATM   14  C   UNL     1      -7.748  15.594  67.293  1.00  0.00    -0.206 C  
HETATM   15  C   UNL     1      -6.502  14.974  67.912  1.00  0.00    -0.175 C  
HETATM   16  O   UNL     1      -8.411  16.359  68.293  1.00  0.00    -0.183 OA 
HETATM   17  H   UNL     1      -7.898  17.114  68.557  1.00  0.00     0.000 HD 
HETATM   18  C   UNL     1      -7.054  13.810  68.730  1.00  0.00    -0.106 C  
HETATM   19  O   UNL     1      -7.420  14.268  70.034  1.00  0.00    -0.364 OA 
HETATM   20  C   UNL     1      -8.319  13.327  67.985  1.00  0.00    -0.162 C  
HETATM   21  H   UNL     1      -7.764  13.543  70.544  1.00  0.00     0.000 HD 
BRANCH  20  22
HETATM   22  C   UNL     1      -8.137  11.934  67.421  1.00  0.00    -0.165 C  
HETATM   23  C   UNL     1      -8.274  10.817  68.156  1.00  0.00    -0.119 C  
BRANCH  23  24
HETATM   24  C   UNL     1      -8.025   9.397  67.716  1.00  0.00    -0.096 C  
HETATM   25  H   UNL     1      -6.489   8.311  67.137  1.00  0.00     0.000 HD 
HETATM   26  O   UNL     1      -6.645   9.206  67.414  1.00  0.00    -0.063 OA 
BRANCH  24  27
HETATM   27  C   UNL     1      -8.417   8.362  68.779  1.00  0.00    -0.124 C  
BRANCH  27  28
HETATM   28  C   UNL     1      -9.929   8.237  68.984  1.00  0.00    -0.193 C  
BRANCH  28  29
HETATM   29  C   UNL     1     -10.259   7.785  70.384  1.00  0.00    -0.197 A  
HETATM   30  C   UNL     1     -10.939   6.578  70.595  1.00  0.00    -0.340 A  
HETATM   31  C   UNL     1     -11.286   6.177  71.885  1.00  0.00    -0.350 A  
HETATM   32  C   UNL     1     -10.956   6.980  72.976  1.00  0.00    -0.327 A  
HETATM   33  C   UNL     1     -10.276   8.180  72.777  1.00  0.00    -0.372 A  
HETATM   34  C   UNL     1      -9.929   8.582  71.488  1.00  0.00    -0.314 A  
ENDBRANCH  28  29
ENDBRANCH  27  28
ENDBRANCH  24  27
ENDBRANCH  23  24
ENDBRANCH  20  22
ENDBRANCH  12  13
ENDBRANCH  11  12
ENDBRANCH   9  10
ENDBRANCH   8   9
ENDBRANCH   7   8
ENDBRANCH   4   7
ENDBRANCH   2   3
TORSDOF 12
ENDMDL
MODEL      166
REMARK 921   NORMALIZED FREE ENERGY PREDICTED BY IDOCK:   -4.77 KCAL/MOL
REMARK 922        TOTAL FREE ENERGY PREDICTED BY IDOCK:  -10.96 KCAL/MOL
REMARK 923 INTER-LIGAND FREE ENERGY PREDICTED BY IDOCK:   -8.77 KCAL/MOL
REMARK 924 INTRA-LIGAND FREE ENERGY PREDICTED BY IDOCK:   -2.18 KCAL/MOL
REMARK 927      BINDING AFFINITY PREDICTED BY RF-SCORE:    0.00 PKD
ROOT
HETATM    1  C   UNL     1     -10.299  17.192  66.890  1.00  0.00    -0.308 C  
HETATM    2  C   UNL     1     -10.602  17.045  68.369  1.00  0.00    -0.375 C  
ENDROOT
BRANCH   2   3
HETATM    3  N   UNL     1     -11.552  15.983  68.614  1.00  0.00    -0.384 N  
HETATM    4  C   UNL     1     -11.132  14.689  68.826  1.00  0.00    -0.260 C  
HETATM    5  H   UNL     1     -12.550  16.197  68.631  1.00  0.00     0.000 HD 
HETATM    6  O   UNL     1      -9.955  14.354  68.811  1.00  0.00    -0.233 OA 
BRANCH   4   7
HETATM    7  C   UNL     1     -12.271  13.725  69.092  1.00  0.00    -0.289 C  
BRANCH   7   8
HETATM    8  C   UNL     1     -11.993  12.874  70.334  1.00  0.00    -0.329 C  
BRANCH   8   9
HETATM    9  C   UNL     1     -11.964  11.372  70.052  1.00  0.00    -0.442 C  
BRANCH   9  10
HETATM   10  C   UNL     1     -10.602  10.901  69.629  1.00  0.00    -0.178 C  
HETATM   11  C   UNL     1     -10.115  10.842  68.379  1.00  0.00    -0.196 C  
BRANCH  11  12
HETATM   12  C   UNL     1     -10.839  11.205  67.111  1.00  0.00    -0.326 C  
BRANCH  12  13
HETATM   13  C   UNL     1     -10.447  10.332  65.912  1.00  0.00    -0.167 C  
HETATM   14  C   UNL     1     -10.185  11.098  64.607  1.00  0.00    -0.317 C  
HETATM   15  C   UNL     1      -9.304  10.146  63.809  1.00  0.00    -0.336 C  
HETATM   16  O   UNL     1      -9.453  12.297  64.838  1.00  0.00    -0.454 OA 
HETATM   17  H   UNL     1      -9.291  12.771  64.031  1.00  0.00     0.000 HD 
HETATM   18  C   UNL     1      -8.336   9.598  64.854  1.00  0.00    -0.148 C  
HETATM   19  O   UNL     1      -7.209  10.470  64.972  1.00  0.00    -0.282 OA 
HETATM   20  C   UNL     1      -9.115   9.584  66.190  1.00  0.00    -0.207 C  
HETATM   21  H   UNL     1      -6.607  10.129  65.624  1.00  0.00     0.000 HD 
BRANCH  20  22
HETATM   22  C   UNL     1      -9.351   8.174  66.683  1.00  0.00    -0.250 C  
HETATM   23  C   UNL     1     -10.576   7.651  66.864  1.00  0.00    -0.359 C  
BRANCH  23  24
HETATM   24  C   UNL     1     -10.918   6.298  67.435  1.00  0.00    -0.356 C  
HETATM   25  H   UNL     1     -10.449   4.419  67.081  1.00  0.00     0.000 HD 
HETATM   26  O   UNL     1     -10.233   5.272  66.721  1.00  0.00    -0.195 OA 
BRANCH  24  27
HETATM   27  C   UNL     1     -10.547   6.160  68.917  1.00  0.00    -0.335 C  
BRANCH  27  28
HETATM   28  C   UNL     1     -11.055   7.315  69.785  1.00  0.00    -0.203 C  
BRANCH  28  29
HETATM   29  C   UNL     1     -10.674   7.125  71.232  1.00  0.00    -0.245 A  
HETATM   30  C   UNL     1     -11.159   6.024  71.951  1.00  0.00    -0.331 A  
HETATM   31  C   UNL     1     -10.846   5.867  73.301  1.00  0.00    -0.291 A  
HETATM   32  C   UNL     1     -10.046   6.809  73.945  1.00  0.00    -0.375 A  
HETATM   33  C   UNL     1      -9.555   7.905  73.237  1.00  0.00    -0.351 A  
HETATM   34  C   UNL     1      -9.867   8.064  71.887  1.00  0.00    -0.251 A  
ENDBRANCH  28  29
ENDBRANCH  27  28
ENDBRANCH  24  27
ENDBRANCH  23  24
ENDBRANCH  20  22
ENDBRANCH  12  13
ENDBRANCH  11  12
ENDBRANCH   9  10
ENDBRANCH   8   9
ENDBRANCH   7   8
ENDBRANCH   4   7
ENDBRANCH   2   3
TORSDOF 12
ENDMDL
MODEL      167
REMARK 921   NORMALIZED FREE ENERGY PREDICTED BY IDOCK:   -4.77 KCAL/MOL
REMARK 922        TOTAL FREE ENERGY PREDICTED BY IDOCK:  -10.95 KCAL/MOL
REMARK 923 INTER-LIGAND FREE ENERGY PREDICTED BY IDOCK:   -9.00 KCAL/MOL
REMARK 924 INTRA-LIGAND FREE ENERGY PREDICTED BY IDOCK:   -1.95 KCAL/MOL
REMARK 927      BINDING AFFINITY PREDICTED BY RF-SCORE:    0.00 PKD
ROOT
HETATM    1  C   UNL     1     -12.588  12.925  64.465  1.00  0.00    -0.420 C  
HETATM    2  C   UNL     1     -11.377  13.623  63.876  1.00  0.00    -0.108 C  
ENDROOT
BRANCH   2   3
HETATM    3  N   UNL     1     -10.790  14.552  64.814  1.00  0.00    -0.519 N  
HETATM    4  C   UNL     1     -11.021  15.906  64.713  1.00  0.00    -0.375 C  
HETATM    5  H   UNL     1     -10.194  14.200  65.564  1.00  0.00     0.000 HD 
HETATM    6  O   UNL     1     -11.714  16.405  63.836  1.00  0.00    -1.085 OA 
BRANCH   4   7
HETATM    7  C   UNL     1     -10.343  16.714  65.801  1.00  0.00    -0.338 C  
BRANCH   7   8
HETATM    8  C   UNL     1      -8.966  16.137  66.138  1.00  0.00    -0.372 C  
BRANCH   8   9
HETATM    9  C   UNL     1      -8.726  15.962  67.638  1.00  0.00    -0.174 C  
BRANCH   9  10
HETATM   10  C   UNL     1      -7.509  15.129  67.925  1.00  0.00    -0.149 C  
HETATM   11  C   UNL     1      -7.406  13.792  67.856  1.00  0.00    -0.155 C  
BRANCH  11  12
HETATM   12  C   UNL     1      -8.499  12.820  67.506  1.00  0.00    -0.181 C  
BRANCH  12  13
HETATM   13  C   UNL     1      -9.430  12.498  68.683  1.00  0.00    -0.010 C  
HETATM   14  C   UNL     1     -10.666  13.403  68.800  1.00  0.00    -0.232 C  
HETATM   15  C   UNL     1     -11.643  12.562  69.611  1.00  0.00    -0.323 C  
HETATM   16  O   UNL     1     -11.250  13.666  67.529  1.00  0.00    -0.276 OA 
HETATM   17  H   UNL     1     -12.014  14.225  67.601  1.00  0.00     0.000 HD 
HETATM   18  C   UNL     1     -11.484  11.165  69.018  1.00  0.00    -0.296 C  
HETATM   19  O   UNL     1     -12.356  11.014  67.895  1.00  0.00    -0.421 OA 
HETATM   20  C   UNL     1     -10.016  11.068  68.543  1.00  0.00    -0.198 C  
HETATM   21  H   UNL     1     -12.257  10.144  67.526  1.00  0.00     0.000 HD 
BRANCH  20  22
HETATM   22  C   UNL     1      -9.234  10.056  69.351  1.00  0.00    -0.229 C  
HETATM   23  C   UNL     1      -9.795   9.253  70.272  1.00  0.00    -0.265 C  
BRANCH  23  24
HETATM   24  C   UNL     1      -9.094   8.283  71.189  1.00  0.00    -0.162 C  
HETATM   25  H   UNL     1      -8.009   8.371  72.829  1.00  0.00     0.000 HD 
HETATM   26  O   UNL     1      -8.451   8.983  72.251  1.00  0.00    -0.356 OA 
BRANCH  24  27
HETATM   27  C   UNL     1     -10.045   7.256  71.817  1.00  0.00    -0.193 C  
BRANCH  27  28
HETATM   28  C   UNL     1     -11.190   6.835  70.891  1.00  0.00    -0.338 C  
BRANCH  28  29
HETATM   29  C   UNL     1     -10.677   6.078  69.691  1.00  0.00    -0.405 A  
HETATM   30  C   UNL     1     -10.892   6.575  68.399  1.00  0.00    -0.357 A  
HETATM   31  C   UNL     1     -10.459   5.857  67.284  1.00  0.00    -0.325 A  
HETATM   32  C   UNL     1      -9.808   4.636  67.451  1.00  0.00    -0.207 A  
HETATM   33  C   UNL     1      -9.586   4.136  68.733  1.00  0.00    -0.210 A  
HETATM   34  C   UNL     1     -10.019   4.852  69.849  1.00  0.00    -0.317 A  
ENDBRANCH  28  29
ENDBRANCH  27  28
ENDBRANCH  24  27
ENDBRANCH  23  24
ENDBRANCH  20  22
ENDBRANCH  12  13
ENDBRANCH  11  12
ENDBRANCH   9  10
ENDBRANCH   8   9
ENDBRANCH   7   8
ENDBRANCH   4   7
ENDBRANCH   2   3
TORSDOF 12
ENDMDL
MODEL      168
REMARK 921   NORMALIZED FREE ENERGY PREDICTED BY IDOCK:   -4.75 KCAL/MOL
REMARK 922        TOTAL FREE ENERGY PREDICTED BY IDOCK:  -10.91 KCAL/MOL
REMARK 923 INTER-LIGAND FREE ENERGY PREDICTED BY IDOCK:   -8.61 KCAL/MOL
REMARK 924 INTRA-LIGAND FREE ENERGY PREDICTED BY IDOCK:   -2.30 KCAL/MOL
REMARK 927      BINDING AFFINITY PREDICTED BY RF-SCORE:    0.00 PKD
ROOT
HETATM    1  C   UNL     1      -9.788  20.250  66.937  1.00  0.00    -0.597 C  
HETATM    2  C   UNL     1      -9.956  19.700  68.340  1.00  0.00    -0.439 C  
ENDROOT
BRANCH   2   3
HETATM    3  N   UNL     1      -9.199  18.483  68.530  1.00  0.00    -0.330 N  
HETATM    4  C   UNL     1      -9.805  17.250  68.445  1.00  0.00    -0.309 C  
HETATM    5  H   UNL     1      -8.201  18.539  68.730  1.00  0.00     0.000 HD 
HETATM    6  O   UNL     1     -11.000  17.101  68.219  1.00  0.00    -0.352 OA 
BRANCH   4   7
HETATM    7  C   UNL     1      -8.845  16.094  68.645  1.00  0.00    -0.218 C  
BRANCH   7   8
HETATM    8  C   UNL     1      -9.595  14.763  68.735  1.00  0.00    -0.215 C  
BRANCH   8   9
HETATM    9  C   UNL     1      -8.909  13.622  67.986  1.00  0.00    -0.187 C  
BRANCH   9  10
HETATM   10  C   UNL     1      -9.869  12.849  67.127  1.00  0.00    -0.225 C  
HETATM   11  C   UNL     1      -9.910  11.519  66.950  1.00  0.00    -0.220 C  
BRANCH  11  12
HETATM   12  C   UNL     1      -8.979  10.500  67.549  1.00  0.00    -0.137 C  
BRANCH  12  13
HETATM   13  C   UNL     1      -9.602   9.103  67.676  1.00  0.00    -0.181 C  
HETATM   14  C   UNL     1     -10.087   8.484  66.357  1.00  0.00    -0.201 C  
HETATM   15  C   UNL     1     -10.103   6.990  66.653  1.00  0.00    -0.219 C  
HETATM   16  O   UNL     1      -9.168   8.720  65.296  1.00  0.00    -0.400 OA 
HETATM   17  H   UNL     1      -9.468   8.337  64.480  1.00  0.00     0.000 HD 
HETATM   18  C   UNL     1      -8.815   6.772  67.442  1.00  0.00    -0.117 C  
HETATM   19  O   UNL     1      -7.731   6.536  66.541  1.00  0.00    -0.095 OA 
HETATM   20  C   UNL     1      -8.561   8.085  68.216  1.00  0.00    -0.130 C  
HETATM   21  H   UNL     1      -6.929   6.400  67.032  1.00  0.00     0.000 HD 
BRANCH  20  22
HETATM   22  C   UNL     1      -8.688   7.887  69.711  1.00  0.00    -0.137 C  
HETATM   23  C   UNL     1      -9.824   8.116  70.392  1.00  0.00    -0.188 C  
BRANCH  23  24
HETATM   24  C   UNL     1     -10.028   8.037  71.883  1.00  0.00    -0.195 C  
HETATM   25  H   UNL     1      -9.210   8.814  73.496  1.00  0.00     0.000 HD 
HETATM   26  O   UNL     1      -9.081   8.864  72.556  1.00  0.00    -0.349 OA 
BRANCH  24  27
HETATM   27  C   UNL     1     -11.429   8.481  72.322  1.00  0.00    -0.445 C  
BRANCH  27  28
HETATM   28  C   UNL     1     -12.325   8.918  71.160  1.00  0.00    -0.282 C  
BRANCH  28  29
HETATM   29  C   UNL     1     -12.455  10.420  71.100  1.00  0.00    -0.509 A  
HETATM   30  C   UNL     1     -11.940  11.129  70.007  1.00  0.00    -0.447 A  
HETATM   31  C   UNL     1     -12.018  12.521  69.967  1.00  0.00    -0.372 A  
HETATM   32  C   UNL     1     -12.610  13.216  71.020  1.00  0.00    -0.397 A  
HETATM   33  C   UNL     1     -13.128  12.519  72.110  1.00  0.00    -0.428 A  
HETATM   34  C   UNL     1     -13.051  11.127  72.152  1.00  0.00    -0.288 A  
ENDBRANCH  28  29
ENDBRANCH  27  28
ENDBRANCH  24  27
ENDBRANCH  23  24
ENDBRANCH  20  22
ENDBRANCH  12  13
ENDBRANCH  11  12
ENDBRANCH   9  10
ENDBRANCH   8   9
ENDBRANCH   7   8
ENDBRANCH   4   7
ENDBRANCH   2   3
TORSDOF 12
ENDMDL
MODEL      169
REMARK 921   NORMALIZED FREE ENERGY PREDICTED BY IDOCK:   -4.73 KCAL/MOL
REMARK 922        TOTAL FREE ENERGY PREDICTED BY IDOCK:  -10.88 KCAL/MOL
REMARK 923 INTER-LIGAND FREE ENERGY PREDICTED BY IDOCK:   -9.51 KCAL/MOL
REMARK 924 INTRA-LIGAND FREE ENERGY PREDICTED BY IDOCK:   -1.37 KCAL/MOL
REMARK 927      BINDING AFFINITY PREDICTED BY RF-SCORE:    0.00 PKD
ROOT
HETATM    1  C   UNL     1      -6.043   7.937  63.007  1.00  0.00    -0.068 C  
HETATM    2  C   UNL     1      -7.447   8.458  62.761  1.00  0.00    -0.104 C  
ENDROOT
BRANCH   2   3
HETATM    3  N   UNL     1      -8.078   8.887  63.989  1.00  0.00    -0.154 N  
HETATM    4  C   UNL     1      -9.128   9.778  63.974  1.00  0.00    -0.237 C  
HETATM    5  H   UNL     1      -7.740   8.524  64.880  1.00  0.00     0.000 HD 
HETATM    6  O   UNL     1      -9.582  10.265  62.946  1.00  0.00    -0.316 OA 
BRANCH   4   7
HETATM    7  C   UNL     1      -9.673  10.085  65.354  1.00  0.00    -0.368 C  
BRANCH   7   8
HETATM    8  C   UNL     1     -10.270  11.494  65.409  1.00  0.00    -0.311 C  
BRANCH   8   9
HETATM    9  C   UNL     1      -9.525  12.438  66.352  1.00  0.00    -0.240 C  
BRANCH   9  10
HETATM   10  C   UNL     1     -10.045  13.845  66.275  1.00  0.00    -0.306 C  
HETATM   11  C   UNL     1     -11.085  14.364  66.947  1.00  0.00    -0.325 C  
BRANCH  11  12
HETATM   12  C   UNL     1     -11.988  13.642  67.909  1.00  0.00    -0.382 C  
BRANCH  12  13
HETATM   13  C   UNL     1     -11.567  13.799  69.377  1.00  0.00    -0.365 C  
HETATM   14  C   UNL     1     -11.635  15.232  69.924  1.00  0.00    -0.311 C  
HETATM   15  C   UNL     1     -11.739  15.031  71.430  1.00  0.00    -0.409 C  
HETATM   16  O   UNL     1     -12.806  15.910  69.481  1.00  0.00    -0.499 OA 
HETATM   17  H   UNL     1     -12.848  16.796  69.819  1.00  0.00     0.000 HD 
HETATM   18  C   UNL     1     -12.716  13.866  71.564  1.00  0.00    -0.357 C  
HETATM   19  O   UNL     1     -14.057  14.359  71.583  1.00  0.00    -0.416 OA 
HETATM   20  C   UNL     1     -12.510  12.990  70.308  1.00  0.00    -0.217 C  
HETATM   21  H   UNL     1     -14.665  13.634  71.666  1.00  0.00     0.000 HD 
BRANCH  20  22
HETATM   22  C   UNL     1     -11.931  11.636  70.659  1.00  0.00    -0.356 C  
HETATM   23  C   UNL     1     -12.645  10.656  71.240  1.00  0.00    -0.533 C  
BRANCH  23  24
HETATM   24  C   UNL     1     -12.143   9.316  71.711  1.00  0.00    -0.387 C  
HETATM   25  H   UNL     1     -12.893   7.713  72.574  1.00  0.00     0.000 HD 
HETATM   26  O   UNL     1     -13.209   8.558  72.277  1.00  0.00    -0.348 OA 
BRANCH  24  27
HETATM   27  C   UNL     1     -11.523   8.477  70.586  1.00  0.00    -0.249 C  
BRANCH  27  28
HETATM   28  C   UNL     1     -11.771   6.974  70.735  1.00  0.00    -0.394 C  
BRANCH  28  29
HETATM   29  C   UNL     1     -11.025   6.186  69.687  1.00  0.00    -0.459 A  
HETATM   30  C   UNL     1     -10.230   5.094  70.058  1.00  0.00    -0.354 A  
HETATM   31  C   UNL     1      -9.502   4.390  69.098  1.00  0.00    -0.240 A  
HETATM   32  C   UNL     1      -9.563   4.772  67.760  1.00  0.00    -0.194 A  
HETATM   33  C   UNL     1     -10.355   5.855  67.380  1.00  0.00    -0.274 A  
HETATM   34  C   UNL     1     -11.082   6.560  68.338  1.00  0.00    -0.340 A  
ENDBRANCH  28  29
ENDBRANCH  27  28
ENDBRANCH  24  27
ENDBRANCH  23  24
ENDBRANCH  20  22
ENDBRANCH  12  13
ENDBRANCH  11  12
ENDBRANCH   9  10
ENDBRANCH   8   9
ENDBRANCH   7   8
ENDBRANCH   4   7
ENDBRANCH   2   3
TORSDOF 12
ENDMDL
MODEL      170
REMARK 921   NORMALIZED FREE ENERGY PREDICTED BY IDOCK:   -4.72 KCAL/MOL
REMARK 922        TOTAL FREE ENERGY PREDICTED BY IDOCK:  -10.86 KCAL/MOL
REMARK 923 INTER-LIGAND FREE ENERGY PREDICTED BY IDOCK:   -8.98 KCAL/MOL
REMARK 924 INTRA-LIGAND FREE ENERGY PREDICTED BY IDOCK:   -1.88 KCAL/MOL
REMARK 927      BINDING AFFINITY PREDICTED BY RF-SCORE:    0.00 PKD
ROOT
HETATM    1  C   UNL     1      -6.255   9.705  71.173  1.00  0.00    -0.046 C  
HETATM    2  C   UNL     1      -5.400  10.949  71.019  1.00  0.00    -0.099 C  
ENDROOT
BRANCH   2   3
HETATM    3  N   UNL     1      -5.937  11.842  70.018  1.00  0.00    -0.147 N  
HETATM    4  C   UNL     1      -5.894  13.208  70.188  1.00  0.00    -0.147 C  
HETATM    5  H   UNL     1      -6.356  11.455  69.172  1.00  0.00     0.000 HD 
HETATM    6  O   UNL     1      -5.419  13.747  71.179  1.00  0.00    -0.161 OA 
BRANCH   4   7
HETATM    7  C   UNL     1      -6.481  13.977  69.021  1.00  0.00    -0.101 C  
BRANCH   7   8
HETATM    8  C   UNL     1      -6.465  15.484  69.291  1.00  0.00    -0.141 C  
BRANCH   8   9
HETATM    9  C   UNL     1      -5.468  16.251  68.422  1.00  0.00    -0.104 C  
BRANCH   9  10
HETATM   10  C   UNL     1      -6.088  16.738  67.143  1.00  0.00    -0.209 C  
HETATM   11  C   UNL     1      -6.852  17.829  66.976  1.00  0.00    -0.204 C  
BRANCH  11  12
HETATM   12  C   UNL     1      -7.289  18.796  68.041  1.00  0.00    -0.269 C  
BRANCH  12  13
HETATM   13  C   UNL     1      -8.815  18.916  68.169  1.00  0.00    -0.341 C  
HETATM   14  C   UNL     1      -9.435  20.123  67.450  1.00  0.00    -0.400 C  
HETATM   15  C   UNL     1     -10.884  19.705  67.244  1.00  0.00    -0.519 C  
HETATM   16  O   UNL     1      -8.844  20.336  66.173  1.00  0.00    -0.560 OA 
HETATM   17  H   UNL     1      -9.228  21.083  65.728  1.00  0.00     0.000 HD 
HETATM   18  C   UNL     1     -10.775  18.243  66.821  1.00  0.00    -0.218 C  
HETATM   19  O   UNL     1     -10.597  18.162  65.405  1.00  0.00    -0.636 OA 
HETATM   20  C   UNL     1      -9.516  17.688  67.528  1.00  0.00    -0.256 C  
HETATM   21  H   UNL     1     -10.528  17.251  65.142  1.00  0.00     0.000 HD 
BRANCH  20  22
HETATM   22  C   UNL     1      -9.872  16.639  68.559  1.00  0.00    -0.252 C  
HETATM   23  C   UNL     1     -11.127  16.205  68.768  1.00  0.00    -0.354 C  
BRANCH  23  24
HETATM   24  C   UNL     1     -11.596  15.239  69.826  1.00  0.00    -0.314 C  
HETATM   25  H   UNL     1     -12.772  15.281  71.403  1.00  0.00     0.000 HD 
HETATM   26  O   UNL     1     -12.477  15.890  70.737  1.00  0.00    -0.409 OA 
BRANCH  24  27
HETATM   27  C   UNL     1     -12.338  14.028  69.246  1.00  0.00    -0.210 C  
BRANCH  27  28
HETATM   28  C   UNL     1     -11.461  12.780  69.111  1.00  0.00    -0.361 C  
BRANCH  28  29
HETATM   29  C   UNL     1     -11.883  11.702  70.078  1.00  0.00    -0.435 A  
HETATM   30  C   UNL     1     -12.909  11.945  71.000  1.00  0.00    -0.291 A  
HETATM   31  C   UNL     1     -13.274  10.967  71.926  1.00  0.00    -0.503 A  
HETATM   32  C   UNL     1     -12.616   9.739  71.938  1.00  0.00    -0.479 A  
HETATM   33  C   UNL     1     -11.597   9.487  71.021  1.00  0.00    -0.419 A  
HETATM   34  C   UNL     1     -11.230  10.463  70.095  1.00  0.00    -0.393 A  
ENDBRANCH  28  29
ENDBRANCH  27  28
ENDBRANCH  24  27
ENDBRANCH  23  24
ENDBRANCH  20  22
ENDBRANCH  12  13
ENDBRANCH  11  12
ENDBRANCH   9  10
ENDBRANCH   8   9
ENDBRANCH   7   8
ENDBRANCH   4   7
ENDBRANCH   2   3
TORSDOF 12
ENDMDL
MODEL      171
REMARK 921   NORMALIZED FREE ENERGY PREDICTED BY IDOCK:   -4.70 KCAL/MOL
REMARK 922        TOTAL FREE ENERGY PREDICTED BY IDOCK:  -10.83 KCAL/MOL
REMARK 923 INTER-LIGAND FREE ENERGY PREDICTED BY IDOCK:   -8.21 KCAL/MOL
REMARK 924 INTRA-LIGAND FREE ENERGY PREDICTED BY IDOCK:   -2.62 KCAL/MOL
REMARK 927      BINDING AFFINITY PREDICTED BY RF-SCORE:    0.00 PKD
ROOT
HETATM    1  C   UNL     1      -6.409   8.077  70.160  1.00  0.00    -0.033 C  
HETATM    2  C   UNL     1      -6.517   8.756  68.807  1.00  0.00    -0.053 C  
ENDROOT
BRANCH   2   3
HETATM    3  N   UNL     1      -7.539   8.147  67.987  1.00  0.00    -0.104 N  
HETATM    4  C   UNL     1      -7.909   8.703  66.783  1.00  0.00    -0.094 C  
HETATM    5  H   UNL     1      -7.995   7.291  68.305  1.00  0.00     0.000 HD 
HETATM    6  O   UNL     1      -7.417   9.733  66.339  1.00  0.00    -0.096 OA 
BRANCH   4   7
HETATM    7  C   UNL     1      -8.974   7.908  66.056  1.00  0.00    -0.195 C  
BRANCH   7   8
HETATM    8  C   UNL     1     -10.334   8.051  66.744  1.00  0.00    -0.360 C  
BRANCH   8   9
HETATM    9  C   UNL     1     -10.941   6.719  67.184  1.00  0.00    -0.458 C  
BRANCH   9  10
HETATM   10  C   UNL     1     -10.092   6.020  68.207  1.00  0.00    -0.194 C  
HETATM   11  C   UNL     1     -10.384   5.818  69.502  1.00  0.00    -0.333 C  
BRANCH  11  12
HETATM   12  C   UNL     1     -11.617   6.277  70.231  1.00  0.00    -0.379 C  
BRANCH  12  13
HETATM   13  C   UNL     1     -11.312   7.003  71.549  1.00  0.00    -0.290 C  
HETATM   14  C   UNL     1     -11.160   6.090  72.775  1.00  0.00    -0.269 C  
HETATM   15  C   UNL     1     -10.337   6.930  73.741  1.00  0.00    -0.409 C  
HETATM   16  O   UNL     1     -10.424   4.912  72.466  1.00  0.00    -0.194 OA 
HETATM   17  H   UNL     1     -10.330   4.347  73.224  1.00  0.00     0.000 HD 
HETATM   18  C   UNL     1      -9.285   7.574  72.842  1.00  0.00    -0.168 C  
HETATM   19  O   UNL     1      -8.160   6.702  72.714  1.00  0.00    -0.107 OA 
HETATM   20  C   UNL     1      -9.956   7.753  71.461  1.00  0.00    -0.205 C  
HETATM   21  H   UNL     1      -7.506   7.103  72.154  1.00  0.00     0.000 HD 
BRANCH  20  22
HETATM   22  C   UNL     1     -10.140   9.214  71.114  1.00  0.00    -0.384 C  
HETATM   23  C   UNL     1     -10.297   9.660  69.856  1.00  0.00    -0.282 C  
BRANCH  23  24
HETATM   24  C   UNL     1     -10.395  11.093  69.399  1.00  0.00    -0.057 C  
HETATM   25  H   UNL     1      -9.312  12.350  68.340  1.00  0.00     0.000 HD 
HETATM   26  O   UNL     1      -9.250  11.446  68.628  1.00  0.00    -0.183 OA 
BRANCH  24  27
HETATM   27  C   UNL     1     -11.637  11.366  68.540  1.00  0.00    -0.384 C  
BRANCH  27  28
HETATM   28  C   UNL     1     -11.668  12.775  67.940  1.00  0.00    -0.408 C  
BRANCH  28  29
HETATM   29  C   UNL     1     -11.601  12.733  66.434  1.00  0.00    -0.435 A  
HETATM   30  C   UNL     1     -11.066  11.614  65.782  1.00  0.00    -0.313 A  
HETATM   31  C   UNL     1     -10.961  11.589  64.391  1.00  0.00    -0.390 A  
HETATM   32  C   UNL     1     -11.389  12.682  63.640  1.00  0.00    -0.544 A  
HETATM   33  C   UNL     1     -11.926  13.798  64.280  1.00  0.00    -0.481 A  
HETATM   34  C   UNL     1     -12.032  13.825  65.670  1.00  0.00    -0.410 A  
ENDBRANCH  28  29
ENDBRANCH  27  28
ENDBRANCH  24  27
ENDBRANCH  23  24
ENDBRANCH  20  22
ENDBRANCH  12  13
ENDBRANCH  11  12
ENDBRANCH   9  10
ENDBRANCH   8   9
ENDBRANCH   7   8
ENDBRANCH   4   7
ENDBRANCH   2   3
TORSDOF 12
ENDMDL
MODEL      172
REMARK 921   NORMALIZED FREE ENERGY PREDICTED BY IDOCK:   -4.68 KCAL/MOL
REMARK 922        TOTAL FREE ENERGY PREDICTED BY IDOCK:  -10.80 KCAL/MOL
REMARK 923 INTER-LIGAND FREE ENERGY PREDICTED BY IDOCK:   -8.06 KCAL/MOL
REMARK 924 INTRA-LIGAND FREE ENERGY PREDICTED BY IDOCK:   -2.74 KCAL/MOL
REMARK 927      BINDING AFFINITY PREDICTED BY RF-SCORE:    0.00 PKD
ROOT
HETATM    1  C   UNL     1     -12.130  14.818  69.971  1.00  0.00    -0.380 C  
HETATM    2  C   UNL     1     -11.723  15.466  68.661  1.00  0.00    -0.354 C  
ENDROOT
BRANCH   2   3
HETATM    3  N   UNL     1     -10.938  14.567  67.844  1.00  0.00    -0.262 N  
HETATM    4  C   UNL     1     -11.470  13.985  66.716  1.00  0.00    -0.363 C  
HETATM    5  H   UNL     1      -9.974  14.362  68.108  1.00  0.00     0.000 HD 
HETATM    6  O   UNL     1     -12.620  14.174  66.341  1.00  0.00    -0.427 OA 
BRANCH   4   7
HETATM    7  C   UNL     1     -10.488  13.097  65.978  1.00  0.00    -0.291 C  
BRANCH   7   8
HETATM    8  C   UNL     1      -9.167  12.982  66.744  1.00  0.00    -0.229 C  
BRANCH   8   9
HETATM    9  C   UNL     1      -9.018  11.669  67.512  1.00  0.00    -0.165 C  
BRANCH   9  10
HETATM   10  C   UNL     1     -10.096  10.682  67.164  1.00  0.00    -0.248 C  
HETATM   11  C   UNL     1     -11.219  10.429  67.856  1.00  0.00    -0.332 C  
BRANCH  11  12
HETATM   12  C   UNL     1     -11.636  11.054  69.158  1.00  0.00    -0.389 C  
BRANCH  12  13
HETATM   13  C   UNL     1     -11.300  10.194  70.385  1.00  0.00    -0.401 C  
HETATM   14  C   UNL     1     -12.451  10.010  71.385  1.00  0.00    -0.411 C  
HETATM   15  C   UNL     1     -12.072   8.736  72.129  1.00  0.00    -0.441 C  
HETATM   16  O   UNL     1     -13.693   9.790  70.725  1.00  0.00    -0.546 OA 
HETATM   17  H   UNL     1     -14.405   9.676  71.343  1.00  0.00     0.000 HD 
HETATM   18  C   UNL     1     -11.558   7.819  71.021  1.00  0.00    -0.283 C  
HETATM   19  O   UNL     1     -12.651   7.103  70.442  1.00  0.00    -0.612 OA 
HETATM   20  C   UNL     1     -10.932   8.748  69.956  1.00  0.00    -0.216 C  
HETATM   21  H   UNL     1     -12.331   6.533  69.752  1.00  0.00     0.000 HD 
BRANCH  20  22
HETATM   22  C   UNL     1      -9.435   8.553  69.856  1.00  0.00    -0.163 C  
HETATM   23  C   UNL     1      -8.863   7.614  69.081  1.00  0.00    -0.139 C  
BRANCH  23  24
HETATM   24  C   UNL     1      -7.397   7.280  68.983  1.00  0.00    -0.091 C  
HETATM   25  H   UNL     1      -5.682   8.180  69.336  1.00  0.00     0.000 HD 
HETATM   26  O   UNL     1      -6.606   8.391  69.398  1.00  0.00    -0.040 OA 
BRANCH  24  27
HETATM   27  C   UNL     1      -6.996   6.075  69.844  1.00  0.00    -0.070 C  
BRANCH  27  28
HETATM   28  C   UNL     1      -6.495   6.459  71.239  1.00  0.00    -0.050 C  
BRANCH  28  29
HETATM   29  C   UNL     1      -7.637   6.603  72.213  1.00  0.00    -0.095 A  
HETATM   30  C   UNL     1      -7.765   7.766  72.984  1.00  0.00    -0.149 A  
HETATM   31  C   UNL     1      -8.794   7.886  73.918  1.00  0.00    -0.315 A  
HETATM   32  C   UNL     1      -9.702   6.844  74.091  1.00  0.00    -0.331 A  
HETATM   33  C   UNL     1      -9.585   5.684  73.326  1.00  0.00    -0.150 A  
HETATM   34  C   UNL     1      -8.557   5.563  72.392  1.00  0.00    -0.118 A  
ENDBRANCH  28  29
ENDBRANCH  27  28
ENDBRANCH  24  27
ENDBRANCH  23  24
ENDBRANCH  20  22
ENDBRANCH  12  13
ENDBRANCH  11  12
ENDBRANCH   9  10
ENDBRANCH   8   9
ENDBRANCH   7   8
ENDBRANCH   4   7
ENDBRANCH   2   3
TORSDOF 12
ENDMDL
MODEL      173
REMARK 921   NORMALIZED FREE ENERGY PREDICTED BY IDOCK:   -4.68 KCAL/MOL
REMARK 922        TOTAL FREE ENERGY PREDICTED BY IDOCK:  -10.80 KCAL/MOL
REMARK 923 INTER-LIGAND FREE ENERGY PREDICTED BY IDOCK:   -8.80 KCAL/MOL
REMARK 924 INTRA-LIGAND FREE ENERGY PREDICTED BY IDOCK:   -2.00 KCAL/MOL
REMARK 927      BINDING AFFINITY PREDICTED BY RF-SCORE:    0.00 PKD
ROOT
HETATM    1  C   UNL     1     -11.150   5.759  71.456  1.00  0.00    -0.281 C  
HETATM    2  C   UNL     1     -10.501   7.101  71.740  1.00  0.00    -0.197 C  
ENDROOT
BRANCH   2   3
HETATM    3  N   UNL     1      -9.549   7.459  70.713  1.00  0.00    -0.171 N  
HETATM    4  C   UNL     1      -8.220   7.657  71.014  1.00  0.00    -0.107 C  
HETATM    5  H   UNL     1      -9.866   7.568  69.750  1.00  0.00     0.000 HD 
HETATM    6  O   UNL     1      -7.765   7.556  72.147  1.00  0.00    -0.085 OA 
BRANCH   4   7
HETATM    7  C   UNL     1      -7.374   7.999  69.803  1.00  0.00    -0.074 C  
BRANCH   7   8
HETATM    8  C   UNL     1      -6.814   9.420  69.907  1.00  0.00    -0.061 C  
BRANCH   8   9
HETATM    9  C   UNL     1      -7.713  10.480  69.272  1.00  0.00    -0.144 C  
BRANCH   9  10
HETATM   10  C   UNL     1      -8.080  10.139  67.856  1.00  0.00    -0.109 C  
HETATM   11  C   UNL     1      -8.435  10.991  66.882  1.00  0.00    -0.139 C  
BRANCH  11  12
HETATM   12  C   UNL     1      -8.580  12.484  66.998  1.00  0.00    -0.188 C  
BRANCH  12  13
HETATM   13  C   UNL     1     -10.040  12.952  67.073  1.00  0.00    -0.245 C  
HETATM   14  C   UNL     1     -10.389  14.140  66.165  1.00  0.00    -0.300 C  
HETATM   15  C   UNL     1     -11.898  14.023  65.995  1.00  0.00    -0.401 C  
HETATM   16  O   UNL     1      -9.784  14.020  64.883  1.00  0.00    -0.564 OA 
HETATM   17  H   UNL     1     -10.000  14.754  64.321  1.00  0.00     0.000 HD 
HETATM   18  C   UNL     1     -12.117  12.525  65.804  1.00  0.00    -0.378 C  
HETATM   19  O   UNL     1     -11.981  12.189  64.421  1.00  0.00    -0.377 OA 
HETATM   20  C   UNL     1     -11.002  11.824  66.613  1.00  0.00    -0.342 C  
HETATM   21  H   UNL     1     -12.117  11.256  64.303  1.00  0.00     0.000 HD 
BRANCH  20  22
HETATM   22  C   UNL     1     -11.565  11.050  67.786  1.00  0.00    -0.277 C  
HETATM   23  C   UNL     1     -11.411  11.433  69.065  1.00  0.00    -0.366 C  
BRANCH  23  24
HETATM   24  C   UNL     1     -11.850  10.689  70.301  1.00  0.00    -0.342 C  
HETATM   25  H   UNL     1     -11.012   9.579  71.694  1.00  0.00     0.000 HD 
HETATM   26  O   UNL     1     -10.735  10.047  70.915  1.00  0.00    -0.300 OA 
BRANCH  24  27
HETATM   27  C   UNL     1     -12.499  11.600  71.351  1.00  0.00    -0.314 C  
BRANCH  27  28
HETATM   28  C   UNL     1     -13.154  12.850  70.756  1.00  0.00     0.114 C  
BRANCH  28  29
HETATM   29  C   UNL     1     -12.826  14.080  71.565  1.00  0.00    -0.440 A  
HETATM   30  C   UNL     1     -12.131  15.146  70.978  1.00  0.00    -0.389 A  
HETATM   31  C   UNL     1     -11.786  16.267  71.734  1.00  0.00    -0.504 A  
HETATM   32  C   UNL     1     -12.132  16.332  73.082  1.00  0.00    -0.608 A  
HETATM   33  C   UNL     1     -12.827  15.278  73.674  1.00  0.00    -0.662 A  
HETATM   34  C   UNL     1     -13.173  14.156  72.920  1.00  0.00    -0.553 A  
ENDBRANCH  28  29
ENDBRANCH  27  28
ENDBRANCH  24  27
ENDBRANCH  23  24
ENDBRANCH  20  22
ENDBRANCH  12  13
ENDBRANCH  11  12
ENDBRANCH   9  10
ENDBRANCH   8   9
ENDBRANCH   7   8
ENDBRANCH   4   7
ENDBRANCH   2   3
TORSDOF 12
ENDMDL
MODEL      174
REMARK 921   NORMALIZED FREE ENERGY PREDICTED BY IDOCK:   -4.66 KCAL/MOL
REMARK 922        TOTAL FREE ENERGY PREDICTED BY IDOCK:  -10.76 KCAL/MOL
REMARK 923 INTER-LIGAND FREE ENERGY PREDICTED BY IDOCK:   -8.64 KCAL/MOL
REMARK 924 INTRA-LIGAND FREE ENERGY PREDICTED BY IDOCK:   -2.12 KCAL/MOL
REMARK 927      BINDING AFFINITY PREDICTED BY RF-SCORE:    0.00 PKD
ROOT
HETATM    1  C   UNL     1     -12.317  14.890  65.738  1.00  0.00     0.138 C  
HETATM    2  C   UNL     1     -12.225  14.485  64.278  1.00  0.00    -0.415 C  
ENDROOT
BRANCH   2   3
HETATM    3  N   UNL     1     -11.035  13.708  64.016  1.00  0.00    -0.551 N  
HETATM    4  C   UNL     1     -11.119  12.418  63.542  1.00  0.00    -0.458 C  
HETATM    5  H   UNL     1     -10.118  14.122  64.184  1.00  0.00     0.000 HD 
HETATM    6  O   UNL     1     -12.182  11.849  63.326  1.00  0.00    -0.506 OA 
BRANCH   4   7
HETATM    7  C   UNL     1      -9.766  11.777  63.303  1.00  0.00    -0.350 C  
BRANCH   7   8
HETATM    8  C   UNL     1      -9.768  10.310  63.739  1.00  0.00    -0.298 C  
BRANCH   8   9
HETATM    9  C   UNL     1      -8.377   9.677  63.761  1.00  0.00    -0.173 C  
BRANCH   9  10
HETATM   10  C   UNL     1      -7.422  10.436  64.639  1.00  0.00    -0.037 C  
HETATM   11  C   UNL     1      -7.565  10.711  65.946  1.00  0.00    -0.138 C  
BRANCH  11  12
HETATM   12  C   UNL     1      -8.733  10.348  66.821  1.00  0.00    -0.132 C  
BRANCH  12  13
HETATM   13  C   UNL     1      -9.754  11.484  66.980  1.00  0.00    -0.202 C  
HETATM   14  C   UNL     1     -11.220  11.034  67.061  1.00  0.00    -0.181 C  
HETATM   15  C   UNL     1     -11.908  12.198  67.762  1.00  0.00    -0.327 C  
HETATM   16  O   UNL     1     -11.371   9.872  67.869  1.00  0.00    -0.517 OA 
HETATM   17  H   UNL     1     -12.278   9.594  67.920  1.00  0.00     0.000 HD 
HETATM   18  C   UNL     1     -10.921  12.582  68.861  1.00  0.00    -0.227 C  
HETATM   19  O   UNL     1     -11.167  11.793  70.028  1.00  0.00    -0.489 OA 
HETATM   20  C   UNL     1      -9.516  12.253  68.307  1.00  0.00    -0.209 C  
HETATM   21  H   UNL     1     -10.552  12.032  70.712  1.00  0.00     0.000 HD 
BRANCH  20  22
HETATM   22  C   UNL     1      -8.693  13.505  68.094  1.00  0.00    -0.174 C  
HETATM   23  C   UNL     1      -7.391  13.596  68.417  1.00  0.00    -0.118 C  
BRANCH  23  24
HETATM   24  C   UNL     1      -6.511  14.816  68.331  1.00  0.00    -0.103 C  
HETATM   25  H   UNL     1      -4.776  15.295  67.533  1.00  0.00     0.000 HD 
HETATM   26  O   UNL     1      -5.331  14.525  67.587  1.00  0.00    -0.313 OA 
BRANCH  24  27
HETATM   27  C   UNL     1      -7.202  16.009  67.660  1.00  0.00    -0.175 C  
BRANCH  27  28
HETATM   28  C   UNL     1      -7.752  17.037  68.653  1.00  0.00    -0.251 C  
BRANCH  28  29
HETATM   29  C   UNL     1      -8.849  17.867  68.035  1.00  0.00    -0.268 A  
HETATM   30  C   UNL     1      -9.274  17.612  66.724  1.00  0.00    -0.281 A  
HETATM   31  C   UNL     1     -10.257  18.406  66.133  1.00  0.00    -0.408 A  
HETATM   32  C   UNL     1     -10.823  19.461  66.846  1.00  0.00    -0.509 A  
HETATM   33  C   UNL     1     -10.410  19.720  68.152  1.00  0.00    -0.561 A  
HETATM   34  C   UNL     1      -9.427  18.928  68.745  1.00  0.00    -0.407 A  
ENDBRANCH  28  29
ENDBRANCH  27  28
ENDBRANCH  24  27
ENDBRANCH  23  24
ENDBRANCH  20  22
ENDBRANCH  12  13
ENDBRANCH  11  12
ENDBRANCH   9  10
ENDBRANCH   8   9
ENDBRANCH   7   8
ENDBRANCH   4   7
ENDBRANCH   2   3
TORSDOF 12
ENDMDL
MODEL      175
REMARK 921   NORMALIZED FREE ENERGY PREDICTED BY IDOCK:   -4.66 KCAL/MOL
REMARK 922        TOTAL FREE ENERGY PREDICTED BY IDOCK:  -10.76 KCAL/MOL
REMARK 923 INTER-LIGAND FREE ENERGY PREDICTED BY IDOCK:   -9.27 KCAL/MOL
REMARK 924 INTRA-LIGAND FREE ENERGY PREDICTED BY IDOCK:   -1.48 KCAL/MOL
REMARK 927      BINDING AFFINITY PREDICTED BY RF-SCORE:    0.00 PKD
ROOT
HETATM    1  C   UNL     1     -10.747  19.803  67.543  1.00  0.00    -0.494 C  
HETATM    2  C   UNL     1      -9.476  19.971  66.730  1.00  0.00    -0.406 C  
ENDROOT
BRANCH   2   3
HETATM    3  N   UNL     1      -8.943  18.695  66.308  1.00  0.00    -0.266 N  
HETATM    4  C   UNL     1      -8.003  18.033  67.067  1.00  0.00    -0.220 C  
HETATM    5  H   UNL     1      -9.267  18.280  65.435  1.00  0.00     0.000 HD 
HETATM    6  O   UNL     1      -7.558  18.472  68.119  1.00  0.00    -0.258 OA 
BRANCH   4   7
HETATM    7  C   UNL     1      -7.586  16.701  66.475  1.00  0.00    -0.327 C  
BRANCH   7   8
HETATM    8  C   UNL     1      -8.790  15.770  66.308  1.00  0.00    -0.378 C  
BRANCH   8   9
HETATM    9  C   UNL     1      -9.631  15.626  67.576  1.00  0.00    -0.224 C  
BRANCH   9  10
HETATM   10  C   UNL     1      -9.611  14.223  68.113  1.00  0.00    -0.218 C  
HETATM   11  C   UNL     1     -10.566  13.288  67.977  1.00  0.00    -0.249 C  
BRANCH  11  12
HETATM   12  C   UNL     1     -11.890  13.446  67.281  1.00  0.00    -0.422 C  
BRANCH  12  13
HETATM   13  C   UNL     1     -12.068  12.500  66.085  1.00  0.00    -0.357 C  
HETATM   14  C   UNL     1     -12.569  13.169  64.796  1.00  0.00    -0.364 C  
HETATM   15  C   UNL     1     -12.119  12.210  63.703  1.00  0.00    -0.648 C  
HETATM   16  O   UNL     1     -11.939  14.426  64.576  1.00  0.00    -0.435 OA 
HETATM   17  H   UNL     1     -12.249  14.840  63.779  1.00  0.00     0.000 HD 
HETATM   18  C   UNL     1     -10.710  11.814  64.137  1.00  0.00    -0.357 C  
HETATM   19  O   UNL     1      -9.765  12.761  63.633  1.00  0.00    -0.655 OA 
HETATM   20  C   UNL     1     -10.711  11.864  65.682  1.00  0.00    -0.325 C  
HETATM   21  H   UNL     1      -8.889  12.514  63.904  1.00  0.00     0.000 HD 
BRANCH  20  22
HETATM   22  C   UNL     1     -10.532  10.488  66.285  1.00  0.00    -0.250 C  
HETATM   23  C   UNL     1      -9.443   9.727  66.078  1.00  0.00    -0.269 C  
BRANCH  23  24
HETATM   24  C   UNL     1      -9.209   8.316  66.554  1.00  0.00    -0.187 C  
HETATM   25  H   UNL     1      -7.905   7.369  67.684  1.00  0.00     0.000 HD 
HETATM   26  O   UNL     1      -8.052   8.258  67.384  1.00  0.00    -0.118 OA 
BRANCH  24  27
HETATM   27  C   UNL     1     -10.387   7.750  67.358  1.00  0.00    -0.354 C  
BRANCH  27  28
HETATM   28  C   UNL     1     -10.806   6.344  66.921  1.00  0.00    -0.428 C  
BRANCH  28  29
HETATM   29  C   UNL     1     -10.069   5.283  67.700  1.00  0.00    -0.216 A  
HETATM   30  C   UNL     1      -9.726   5.502  69.041  1.00  0.00    -0.195 A  
HETATM   31  C   UNL     1      -9.005   4.543  69.752  1.00  0.00    -0.149 A  
HETATM   32  C   UNL     1      -8.621   3.357  69.129  1.00  0.00    -0.111 A  
HETATM   33  C   UNL     1      -8.961   3.129  67.797  1.00  0.00    -0.188 A  
HETATM   34  C   UNL     1      -9.681   4.087  67.084  1.00  0.00    -0.207 A  
ENDBRANCH  28  29
ENDBRANCH  27  28
ENDBRANCH  24  27
ENDBRANCH  23  24
ENDBRANCH  20  22
ENDBRANCH  12  13
ENDBRANCH  11  12
ENDBRANCH   9  10
ENDBRANCH   8   9
ENDBRANCH   7   8
ENDBRANCH   4   7
ENDBRANCH   2   3
TORSDOF 12
ENDMDL
MODEL      176
REMARK 921   NORMALIZED FREE ENERGY PREDICTED BY IDOCK:   -4.65 KCAL/MOL
REMARK 922        TOTAL FREE ENERGY PREDICTED BY IDOCK:  -10.74 KCAL/MOL
REMARK 923 INTER-LIGAND FREE ENERGY PREDICTED BY IDOCK:   -8.49 KCAL/MOL
REMARK 924 INTRA-LIGAND FREE ENERGY PREDICTED BY IDOCK:   -2.25 KCAL/MOL
REMARK 927      BINDING AFFINITY PREDICTED BY RF-SCORE:    0.00 PKD
ROOT
HETATM    1  C   UNL     1      -7.397   9.758  68.716  1.00  0.00    -0.074 C  
HETATM    2  C   UNL     1      -7.636   9.794  70.214  1.00  0.00    -0.172 C  
ENDROOT
BRANCH   2   3
HETATM    3  N   UNL     1      -8.713   8.912  70.603  1.00  0.00    -0.177 N  
HETATM    4  C   UNL     1      -8.804   8.426  71.888  1.00  0.00    -0.203 C  
HETATM    5  H   UNL     1      -9.416   8.645  69.914  1.00  0.00     0.000 HD 
HETATM    6  O   UNL     1      -7.993   8.692  72.766  1.00  0.00    -0.370 OA 
BRANCH   4   7
HETATM    7  C   UNL     1     -10.013   7.539  72.110  1.00  0.00    -0.218 C  
BRANCH   7   8
HETATM    8  C   UNL     1     -11.256   8.123  71.432  1.00  0.00    -0.297 C  
BRANCH   8   9
HETATM    9  C   UNL     1     -12.298   8.652  72.416  1.00  0.00    -0.426 C  
BRANCH   9  10
HETATM   10  C   UNL     1     -13.336   9.503  71.741  1.00  0.00    -0.501 C  
HETATM   11  C   UNL     1     -13.124  10.542  70.918  1.00  0.00    -0.390 C  
BRANCH  11  12
HETATM   12  C   UNL     1     -11.793  11.112  70.510  1.00  0.00    -0.448 C  
BRANCH  12  13
HETATM   13  C   UNL     1     -11.895  12.164  69.396  1.00  0.00    -0.370 C  
HETATM   14  C   UNL     1     -12.339  13.560  69.858  1.00  0.00    -0.224 C  
HETATM   15  C   UNL     1     -11.818  14.477  68.759  1.00  0.00    -0.350 C  
HETATM   16  O   UNL     1     -11.717  13.931  71.083  1.00  0.00    -0.477 OA 
HETATM   17  H   UNL     1     -11.991  14.795  71.369  1.00  0.00     0.000 HD 
HETATM   18  C   UNL     1     -10.428  13.921  68.463  1.00  0.00    -0.250 C  
HETATM   19  O   UNL     1      -9.473  14.511  69.347  1.00  0.00    -0.405 OA 
HETATM   20  C   UNL     1     -10.509  12.402  68.738  1.00  0.00    -0.179 C  
HETATM   21  H   UNL     1      -8.608  14.164  69.162  1.00  0.00     0.000 HD 
BRANCH  20  22
HETATM   22  C   UNL     1     -10.341  11.594  67.469  1.00  0.00    -0.220 C  
HETATM   23  C   UNL     1     -10.611  10.280  67.389  1.00  0.00    -0.324 C  
BRANCH  23  24
HETATM   24  C   UNL     1     -10.390   9.372  66.207  1.00  0.00    -0.141 C  
HETATM   25  H   UNL     1      -9.318   9.382  64.556  1.00  0.00     0.000 HD 
HETATM   26  O   UNL     1      -9.457   9.954  65.301  1.00  0.00    -0.228 OA 
BRANCH  24  27
HETATM   27  C   UNL     1      -9.854   7.990  66.602  1.00  0.00    -0.322 C  
BRANCH  27  28
HETATM   28  C   UNL     1     -10.523   7.408  67.851  1.00  0.00    -0.265 C  
BRANCH  28  29
HETATM   29  C   UNL     1     -10.163   5.956  68.042  1.00  0.00    -0.224 A  
HETATM   30  C   UNL     1     -10.026   5.427  69.332  1.00  0.00    -0.280 A  
HETATM   31  C   UNL     1      -9.650   4.095  69.514  1.00  0.00    -0.274 A  
HETATM   32  C   UNL     1      -9.408   3.283  68.408  1.00  0.00    -0.241 A  
HETATM   33  C   UNL     1      -9.546   3.799  67.121  1.00  0.00    -0.218 A  
HETATM   34  C   UNL     1      -9.921   5.130  66.937  1.00  0.00    -0.227 A  
ENDBRANCH  28  29
ENDBRANCH  27  28
ENDBRANCH  24  27
ENDBRANCH  23  24
ENDBRANCH  20  22
ENDBRANCH  12  13
ENDBRANCH  11  12
ENDBRANCH   9  10
ENDBRANCH   8   9
ENDBRANCH   7   8
ENDBRANCH   4   7
ENDBRANCH   2   3
TORSDOF 12
ENDMDL
MODEL      177
REMARK 921   NORMALIZED FREE ENERGY PREDICTED BY IDOCK:   -4.64 KCAL/MOL
REMARK 922        TOTAL FREE ENERGY PREDICTED BY IDOCK:  -10.74 KCAL/MOL
REMARK 923 INTER-LIGAND FREE ENERGY PREDICTED BY IDOCK:   -8.21 KCAL/MOL
REMARK 924 INTRA-LIGAND FREE ENERGY PREDICTED BY IDOCK:   -2.52 KCAL/MOL
REMARK 927      BINDING AFFINITY PREDICTED BY RF-SCORE:    0.00 PKD
ROOT
HETATM    1  C   UNL     1      -6.946  10.317  69.743  1.00  0.00    -0.129 C  
HETATM    2  C   UNL     1      -7.737  11.000  68.644  1.00  0.00    -0.132 C  
ENDROOT
BRANCH   2   3
HETATM    3  N   UNL     1      -8.663  10.089  68.010  1.00  0.00    -0.125 N  
HETATM    4  C   UNL     1      -8.545   9.771  66.675  1.00  0.00    -0.128 C  
HETATM    5  H   UNL     1      -9.415   9.674  68.560  1.00  0.00     0.000 HD 
HETATM    6  O   UNL     1      -7.676  10.236  65.948  1.00  0.00    -0.124 OA 
BRANCH   4   7
HETATM    7  C   UNL     1      -9.589   8.781  66.199  1.00  0.00    -0.323 C  
BRANCH   7   8
HETATM    8  C   UNL     1     -10.316   8.135  67.383  1.00  0.00    -0.351 C  
BRANCH   8   9
HETATM    9  C   UNL     1     -10.010   6.647  67.550  1.00  0.00    -0.171 C  
BRANCH   9  10
HETATM   10  C   UNL     1      -8.911   6.402  68.543  1.00  0.00    -0.119 C  
HETATM   11  C   UNL     1      -9.034   5.905  69.784  1.00  0.00    -0.135 C  
BRANCH  11  12
HETATM   12  C   UNL     1     -10.310   5.510  70.475  1.00  0.00    -0.342 C  
BRANCH  12  13
HETATM   13  C   UNL     1     -10.639   6.382  71.695  1.00  0.00    -0.261 C  
HETATM   14  C   UNL     1      -9.877   6.019  72.978  1.00  0.00    -0.168 C  
HETATM   15  C   UNL     1      -9.932   7.302  73.797  1.00  0.00    -0.368 C  
HETATM   16  O   UNL     1      -8.512   5.716  72.712  1.00  0.00    -0.119 OA 
HETATM   17  H   UNL     1      -8.040   5.492  73.506  1.00  0.00     0.000 HD 
HETATM   18  C   UNL     1      -9.677   8.394  72.761  1.00  0.00    -0.228 C  
HETATM   19  O   UNL     1      -8.270   8.601  72.614  1.00  0.00    -0.372 OA 
HETATM   20  C   UNL     1     -10.257   7.863  71.430  1.00  0.00    -0.226 C  
HETATM   21  H   UNL     1      -8.111   9.280  71.969  1.00  0.00     0.000 HD 
BRANCH  20  22
HETATM   22  C   UNL     1     -11.447   8.680  70.975  1.00  0.00    -0.324 C  
HETATM   23  C   UNL     1     -11.613   9.978  71.283  1.00  0.00    -0.430 C  
BRANCH  23  24
HETATM   24  C   UNL     1     -12.799  10.850  70.959  1.00  0.00    -0.376 C  
HETATM   25  H   UNL     1     -14.255  11.735  71.945  1.00  0.00     0.000 HD 
HETATM   26  O   UNL     1     -13.507  11.185  72.149  1.00  0.00    -0.380 OA 
BRANCH  24  27
HETATM   27  C   UNL     1     -12.408  12.162  70.265  1.00  0.00    -0.269 C  
BRANCH  27  28
HETATM   28  C   UNL     1     -11.221  12.018  69.308  1.00  0.00    -0.291 C  
BRANCH  28  29
HETATM   29  C   UNL     1     -11.528  12.616  67.958  1.00  0.00    -0.366 A  
HETATM   30  C   UNL     1     -11.811  13.983  67.839  1.00  0.00    -0.411 A  
HETATM   31  C   UNL     1     -12.139  14.532  66.600  1.00  0.00    -0.319 A  
HETATM   32  C   UNL     1     -12.188  13.720  65.469  1.00  0.00    -0.470 A  
HETATM   33  C   UNL     1     -11.903  12.359  65.576  1.00  0.00    -0.469 A  
HETATM   34  C   UNL     1     -11.575  11.808  66.814  1.00  0.00    -0.287 A  
ENDBRANCH  28  29
ENDBRANCH  27  28
ENDBRANCH  24  27
ENDBRANCH  23  24
ENDBRANCH  20  22
ENDBRANCH  12  13
ENDBRANCH  11  12
ENDBRANCH   9  10
ENDBRANCH   8   9
ENDBRANCH   7   8
ENDBRANCH   4   7
ENDBRANCH   2   3
TORSDOF 12
ENDMDL
MODEL      178
REMARK 921   NORMALIZED FREE ENERGY PREDICTED BY IDOCK:   -4.64 KCAL/MOL
REMARK 922        TOTAL FREE ENERGY PREDICTED BY IDOCK:  -10.73 KCAL/MOL
REMARK 923 INTER-LIGAND FREE ENERGY PREDICTED BY IDOCK:   -8.74 KCAL/MOL
REMARK 924 INTRA-LIGAND FREE ENERGY PREDICTED BY IDOCK:   -1.99 KCAL/MOL
REMARK 927      BINDING AFFINITY PREDICTED BY RF-SCORE:    0.00 PKD
ROOT
HETATM    1  C   UNL     1     -13.902   9.257  72.399  1.00  0.00    -0.484 C  
HETATM    2  C   UNL     1     -12.992  10.227  71.670  1.00  0.00    -0.465 C  
ENDROOT
BRANCH   2   3
HETATM    3  N   UNL     1     -11.663   9.684  71.500  1.00  0.00    -0.394 N  
HETATM    4  C   UNL     1     -10.886  10.033  70.418  1.00  0.00    -0.318 C  
HETATM    5  H   UNL     1     -11.295   9.031  72.192  1.00  0.00     0.000 HD 
HETATM    6  O   UNL     1     -11.262  10.800  69.541  1.00  0.00    -0.239 OA 
BRANCH   4   7
HETATM    7  C   UNL     1      -9.517   9.383  70.427  1.00  0.00    -0.319 C  
BRANCH   7   8
HETATM    8  C   UNL     1      -9.417   8.325  71.529  1.00  0.00    -0.244 C  
BRANCH   8   9
HETATM    9  C   UNL     1     -10.029   6.979  71.143  1.00  0.00    -0.191 C  
BRANCH   9  10
HETATM   10  C   UNL     1      -9.053   5.847  71.297  1.00  0.00    -0.148 C  
HETATM   11  C   UNL     1      -8.980   4.732  70.553  1.00  0.00    -0.159 C  
BRANCH  11  12
HETATM   12  C   UNL     1      -9.883   4.347  69.414  1.00  0.00    -0.239 C  
BRANCH  12  13
HETATM   13  C   UNL     1      -9.391   4.846  68.048  1.00  0.00    -0.160 C  
HETATM   14  C   UNL     1      -8.869   3.753  67.105  1.00  0.00    -0.123 C  
HETATM   15  C   UNL     1      -8.999   4.385  65.725  1.00  0.00    -0.129 C  
HETATM   16  O   UNL     1      -9.688   2.589  67.143  1.00  0.00    -0.400 OA 
HETATM   17  H   UNL     1      -9.365   1.913  66.560  1.00  0.00     0.000 HD 
HETATM   18  C   UNL     1     -10.354   5.087  65.785  1.00  0.00    -0.120 C  
HETATM   19  O   UNL     1     -11.388   4.173  65.415  1.00  0.00    -0.634 OA 
HETATM   20  C   UNL     1     -10.549   5.512  67.258  1.00  0.00    -0.294 C  
HETATM   21  H   UNL     1     -12.231   4.610  65.452  1.00  0.00     0.000 HD 
BRANCH  20  22
HETATM   22  C   UNL     1     -10.544   7.018  67.410  1.00  0.00    -0.372 C  
HETATM   23  C   UNL     1      -9.986   7.849  66.512  1.00  0.00    -0.267 C  
BRANCH  23  24
HETATM   24  C   UNL     1      -9.848   9.346  66.614  1.00  0.00    -0.245 C  
HETATM   25  H   UNL     1      -8.470  10.635  67.176  1.00  0.00     0.000 HD 
HETATM   26  O   UNL     1      -8.557   9.691  67.112  1.00  0.00    -0.130 OA 
BRANCH  24  27
HETATM   27  C   UNL     1     -10.034  10.060  65.270  1.00  0.00    -0.368 C  
BRANCH  27  28
HETATM   28  C   UNL     1      -9.462  11.480  65.246  1.00  0.00    -0.206 C  
BRANCH  28  29
HETATM   29  C   UNL     1     -10.442  12.477  65.814  1.00  0.00    -0.296 A  
HETATM   30  C   UNL     1     -11.592  12.826  65.093  1.00  0.00    -0.373 A  
HETATM   31  C   UNL     1     -12.478  13.780  65.593  1.00  0.00    -0.541 A  
HETATM   32  C   UNL     1     -12.221  14.395  66.818  1.00  0.00    -0.319 A  
HETATM   33  C   UNL     1     -11.082  14.051  67.544  1.00  0.00    -0.313 A  
HETATM   34  C   UNL     1     -10.195  13.098  67.045  1.00  0.00    -0.250 A  
ENDBRANCH  28  29
ENDBRANCH  27  28
ENDBRANCH  24  27
ENDBRANCH  23  24
ENDBRANCH  20  22
ENDBRANCH  12  13
ENDBRANCH  11  12
ENDBRANCH   9  10
ENDBRANCH   8   9
ENDBRANCH   7   8
ENDBRANCH   4   7
ENDBRANCH   2   3
TORSDOF 12
ENDMDL
MODEL      179
REMARK 921   NORMALIZED FREE ENERGY PREDICTED BY IDOCK:   -4.64 KCAL/MOL
REMARK 922        TOTAL FREE ENERGY PREDICTED BY IDOCK:  -10.73 KCAL/MOL
REMARK 923 INTER-LIGAND FREE ENERGY PREDICTED BY IDOCK:   -9.81 KCAL/MOL
REMARK 924 INTRA-LIGAND FREE ENERGY PREDICTED BY IDOCK:   -0.92 KCAL/MOL
REMARK 927      BINDING AFFINITY PREDICTED BY RF-SCORE:    0.00 PKD
ROOT
HETATM    1  C   UNL     1      -8.644   8.578  65.648  1.00  0.00    -0.200 C  
HETATM    2  C   UNL     1      -8.183  10.023  65.704  1.00  0.00    -0.143 C  
ENDROOT
BRANCH   2   3
HETATM    3  N   UNL     1      -9.053  10.887  64.938  1.00  0.00    -0.231 N  
HETATM    4  C   UNL     1     -10.276  11.283  65.432  1.00  0.00    -0.270 C  
HETATM    5  H   UNL     1      -8.756  11.210  64.017  1.00  0.00     0.000 HD 
HETATM    6  O   UNL     1     -10.706  10.930  66.523  1.00  0.00    -0.251 OA 
BRANCH   4   7
HETATM    7  C   UNL     1     -11.030  12.208  64.498  1.00  0.00    -0.361 C  
BRANCH   7   8
HETATM    8  C   UNL     1     -11.005  13.650  65.013  1.00  0.00    -0.350 C  
BRANCH   8   9
HETATM    9  C   UNL     1     -11.916  13.884  66.218  1.00  0.00    -0.462 C  
BRANCH   9  10
HETATM   10  C   UNL     1     -11.339  14.885  67.178  1.00  0.00    -0.348 C  
HETATM   11  C   UNL     1     -11.425  14.867  68.518  1.00  0.00    -0.336 C  
BRANCH  11  12
HETATM   12  C   UNL     1     -12.150  13.855  69.362  1.00  0.00    -0.384 C  
BRANCH  12  13
HETATM   13  C   UNL     1     -11.944  14.057  70.870  1.00  0.00    -0.343 C  
HETATM   14  C   UNL     1     -11.558  15.483  71.289  1.00  0.00    -0.404 C  
HETATM   15  C   UNL     1     -11.972  15.545  72.753  1.00  0.00    -0.573 C  
HETATM   16  O   UNL     1     -12.301  16.462  70.571  1.00  0.00    -0.338 OA 
HETATM   17  H   UNL     1     -12.062  17.344  70.830  1.00  0.00     0.000 HD 
HETATM   18  C   UNL     1     -13.322  14.833  72.769  1.00  0.00    -0.486 C  
HETATM   19  O   UNL     1     -14.364  15.768  72.481  1.00  0.00    -0.528 OA 
HETATM   20  C   UNL     1     -13.259  13.774  71.645  1.00  0.00    -0.450 C  
HETATM   21  H   UNL     1     -15.204  15.325  72.491  1.00  0.00     0.000 HD 
BRANCH  20  22
HETATM   22  C   UNL     1     -13.295  12.367  72.202  1.00  0.00    -0.508 C  
HETATM   23  C   UNL     1     -12.997  11.277  71.473  1.00  0.00    -0.520 C  
BRANCH  23  24
HETATM   24  C   UNL     1     -13.090   9.836  71.904  1.00  0.00    -0.446 C  
HETATM   25  H   UNL     1     -14.162   8.253  71.433  1.00  0.00     0.000 HD 
HETATM   26  O   UNL     1     -14.103   9.162  71.161  1.00  0.00    -0.219 OA 
BRANCH  24  27
HETATM   27  C   UNL     1     -11.779   9.064  71.708  1.00  0.00    -0.440 C  
BRANCH  27  28
HETATM   28  C   UNL     1     -10.965   9.536  70.500  1.00  0.00    -0.348 C  
BRANCH  28  29
HETATM   29  C   UNL     1      -9.846   8.576  70.182  1.00  0.00    -0.184 A  
HETATM   30  C   UNL     1      -8.602   9.060  69.754  1.00  0.00    -0.138 A  
HETATM   31  C   UNL     1      -7.578   8.175  69.416  1.00  0.00    -0.101 A  
HETATM   32  C   UNL     1      -7.788   6.800  69.503  1.00  0.00    -0.113 A  
HETATM   33  C   UNL     1      -9.020   6.310  69.932  1.00  0.00    -0.141 A  
HETATM   34  C   UNL     1     -10.046   7.193  70.269  1.00  0.00    -0.195 A  
ENDBRANCH  28  29
ENDBRANCH  27  28
ENDBRANCH  24  27
ENDBRANCH  23  24
ENDBRANCH  20  22
ENDBRANCH  12  13
ENDBRANCH  11  12
ENDBRANCH   9  10
ENDBRANCH   8   9
ENDBRANCH   7   8
ENDBRANCH   4   7
ENDBRANCH   2   3
TORSDOF 12
ENDMDL
MODEL      180
REMARK 921   NORMALIZED FREE ENERGY PREDICTED BY IDOCK:   -4.63 KCAL/MOL
REMARK 922        TOTAL FREE ENERGY PREDICTED BY IDOCK:  -10.72 KCAL/MOL
REMARK 923 INTER-LIGAND FREE ENERGY PREDICTED BY IDOCK:   -7.40 KCAL/MOL
REMARK 924 INTRA-LIGAND FREE ENERGY PREDICTED BY IDOCK:   -3.32 KCAL/MOL
REMARK 927      BINDING AFFINITY PREDICTED BY RF-SCORE:    0.00 PKD
ROOT
HETATM    1  C   UNL     1     -12.378  14.882  72.321  1.00  0.00    -0.426 C  
HETATM    2  C   UNL     1     -12.841  14.338  70.983  1.00  0.00    -0.357 C  
ENDROOT
BRANCH   2   3
HETATM    3  N   UNL     1     -11.740  13.794  70.220  1.00  0.00    -0.476 N  
HETATM    4  C   UNL     1     -11.271  14.434  69.095  1.00  0.00    -0.272 C  
HETATM    5  H   UNL     1     -11.304  12.923  70.520  1.00  0.00     0.000 HD 
HETATM    6  O   UNL     1     -11.749  15.477  68.666  1.00  0.00    -0.353 OA 
BRANCH   4   7
HETATM    7  C   UNL     1     -10.097  13.727  68.447  1.00  0.00    -0.241 C  
BRANCH   7   8
HETATM    8  C   UNL     1     -10.382  12.233  68.275  1.00  0.00    -0.227 C  
BRANCH   8   9
HETATM    9  C   UNL     1      -9.152  11.418  67.876  1.00  0.00    -0.164 C  
BRANCH   9  10
HETATM   10  C   UNL     1      -8.480  10.787  69.062  1.00  0.00    -0.137 C  
HETATM   11  C   UNL     1      -7.991   9.539  69.148  1.00  0.00    -0.094 C  
BRANCH  11  12
HETATM   12  C   UNL     1      -8.035   8.477  68.084  1.00  0.00    -0.111 C  
BRANCH  12  13
HETATM   13  C   UNL     1      -9.305   7.616  68.132  1.00  0.00    -0.146 C  
HETATM   14  C   UNL     1     -10.389   7.998  67.113  1.00  0.00    -0.325 C  
HETATM   15  C   UNL     1     -11.211   6.723  66.978  1.00  0.00    -0.222 C  
HETATM   16  O   UNL     1      -9.830   8.308  65.841  1.00  0.00    -0.466 OA 
HETATM   17  H   UNL     1     -10.500   8.544  65.211  1.00  0.00     0.000 HD 
HETATM   18  C   UNL     1     -10.154   5.623  66.943  1.00  0.00    -0.193 C  
HETATM   19  O   UNL     1      -9.707   5.424  65.600  1.00  0.00    -0.333 OA 
HETATM   20  C   UNL     1      -8.977   6.135  67.804  1.00  0.00    -0.115 C  
HETATM   21  H   UNL     1      -9.049   4.739  65.579  1.00  0.00     0.000 HD 
BRANCH  20  22
HETATM   22  C   UNL     1      -8.798   5.305  69.057  1.00  0.00    -0.111 C  
HETATM   23  C   UNL     1      -9.625   4.303  69.402  1.00  0.00    -0.267 C  
BRANCH  23  24
HETATM   24  C   UNL     1      -9.588   3.482  70.666  1.00  0.00    -0.177 C  
HETATM   25  H   UNL     1      -8.429   2.104  71.461  1.00  0.00     0.000 HD 
HETATM   26  O   UNL     1      -8.452   2.621  70.664  1.00  0.00    -0.051 OA 
BRANCH  24  27
HETATM   27  C   UNL     1      -9.520   4.339  71.937  1.00  0.00    -0.201 C  
BRANCH  27  28
HETATM   28  C   UNL     1     -10.854   4.995  72.304  1.00  0.00    -0.207 C  
BRANCH  28  29
HETATM   29  C   UNL     1     -10.895   6.439  71.868  1.00  0.00    -0.279 A  
HETATM   30  C   UNL     1      -9.982   7.361  72.395  1.00  0.00    -0.221 A  
HETATM   31  C   UNL     1     -10.044   8.706  72.029  1.00  0.00    -0.401 A  
HETATM   32  C   UNL     1     -11.021   9.140  71.134  1.00  0.00    -0.390 A  
HETATM   33  C   UNL     1     -11.932   8.228  70.602  1.00  0.00    -0.028 A  
HETATM   34  C   UNL     1     -11.871   6.884  70.967  1.00  0.00    -0.411 A  
ENDBRANCH  28  29
ENDBRANCH  27  28
ENDBRANCH  24  27
ENDBRANCH  23  24
ENDBRANCH  20  22
ENDBRANCH  12  13
ENDBRANCH  11  12
ENDBRANCH   9  10
ENDBRANCH   8   9
ENDBRANCH   7   8
ENDBRANCH   4   7
ENDBRANCH   2   3
TORSDOF 12
ENDMDL
MODEL      181
REMARK 921   NORMALIZED FREE ENERGY PREDICTED BY IDOCK:   -4.61 KCAL/MOL
REMARK 922        TOTAL FREE ENERGY PREDICTED BY IDOCK:  -10.67 KCAL/MOL
REMARK 923 INTER-LIGAND FREE ENERGY PREDICTED BY IDOCK:   -8.43 KCAL/MOL
REMARK 924 INTRA-LIGAND FREE ENERGY PREDICTED BY IDOCK:   -2.24 KCAL/MOL
REMARK 927      BINDING AFFINITY PREDICTED BY RF-SCORE:    0.00 PKD
ROOT
HETATM    1  C   UNL     1      -9.874   3.955  62.999  1.00  0.00    -0.154 C  
HETATM    2  C   UNL     1     -10.234   3.533  64.411  1.00  0.00    -0.172 C  
ENDROOT
BRANCH   2   3
HETATM    3  N   UNL     1     -10.916   4.589  65.124  1.00  0.00    -0.842 N  
HETATM    4  C   UNL     1     -10.503   4.982  66.378  1.00  0.00    -0.300 C  
HETATM    5  H   UNL     1     -11.717   5.050  64.692  1.00  0.00     0.000 HD 
HETATM    6  O   UNL     1      -9.558   4.470  66.965  1.00  0.00    -0.162 OA 
BRANCH   4   7
HETATM    7  C   UNL     1     -11.324   6.119  66.951  1.00  0.00     0.053 C  
BRANCH   7   8
HETATM    8  C   UNL     1     -10.849   6.486  68.360  1.00  0.00    -0.357 C  
BRANCH   8   9
HETATM    9  C   UNL     1     -10.032   7.777  68.412  1.00  0.00    -0.195 C  
BRANCH   9  10
HETATM   10  C   UNL     1     -10.077   8.530  67.113  1.00  0.00    -0.331 C  
HETATM   11  C   UNL     1      -9.621   9.771  66.878  1.00  0.00    -0.228 C  
BRANCH  11  12
HETATM   12  C   UNL     1      -8.990  10.704  67.875  1.00  0.00    -0.138 C  
BRANCH  12  13
HETATM   13  C   UNL     1      -9.895  11.878  68.271  1.00  0.00    -0.199 C  
HETATM   14  C   UNL     1      -9.595  13.202  67.554  1.00  0.00    -0.208 C  
HETATM   15  C   UNL     1     -10.903  13.972  67.670  1.00  0.00    -0.270 C  
HETATM   16  O   UNL     1      -9.314  13.001  66.173  1.00  0.00    -0.420 OA 
HETATM   17  H   UNL     1      -9.128  13.820  65.729  1.00  0.00     0.000 HD 
HETATM   18  C   UNL     1     -11.964  12.909  67.396  1.00  0.00    -0.300 C  
HETATM   19  O   UNL     1     -12.198  12.811  65.989  1.00  0.00    -0.510 OA 
HETATM   20  C   UNL     1     -11.375  11.576  67.911  1.00  0.00    -0.372 C  
HETATM   21  H   UNL     1     -12.858  12.149  65.819  1.00  0.00     0.000 HD 
BRANCH  20  22
HETATM   22  C   UNL     1     -12.148  11.046  69.099  1.00  0.00    -0.333 C  
HETATM   23  C   UNL     1     -11.563  10.644  70.241  1.00  0.00    -0.424 C  
BRANCH  23  24
HETATM   24  C   UNL     1     -12.230  10.019  71.439  1.00  0.00    -0.416 C  
HETATM   25  H   UNL     1     -14.053   9.506  71.975  1.00  0.00     0.000 HD 
HETATM   26  O   UNL     1     -13.633   9.900  71.219  1.00  0.00    -0.324 OA 
BRANCH  24  27
HETATM   27  C   UNL     1     -11.690   8.621  71.766  1.00  0.00    -0.400 C  
BRANCH  27  28
HETATM   28  C   UNL     1     -10.260   8.629  72.314  1.00  0.00    -0.372 C  
BRANCH  28  29
HETATM   29  C   UNL     1      -9.793   7.236  72.654  1.00  0.00    -0.207 A  
HETATM   30  C   UNL     1     -10.007   6.713  73.936  1.00  0.00    -0.317 A  
HETATM   31  C   UNL     1      -9.538   5.442  74.269  1.00  0.00    -0.155 A  
HETATM   32  C   UNL     1      -8.849   4.684  73.324  1.00  0.00    -0.106 A  
HETATM   33  C   UNL     1      -8.634   5.195  72.044  1.00  0.00    -0.130 A  
HETATM   34  C   UNL     1      -9.103   6.465  71.710  1.00  0.00    -0.143 A  
ENDBRANCH  28  29
ENDBRANCH  27  28
ENDBRANCH  24  27
ENDBRANCH  23  24
ENDBRANCH  20  22
ENDBRANCH  12  13
ENDBRANCH  11  12
ENDBRANCH   9  10
ENDBRANCH   8   9
ENDBRANCH   7   8
ENDBRANCH   4   7
ENDBRANCH   2   3
TORSDOF 12
ENDMDL
MODEL      182
REMARK 921   NORMALIZED FREE ENERGY PREDICTED BY IDOCK:   -4.58 KCAL/MOL
REMARK 922        TOTAL FREE ENERGY PREDICTED BY IDOCK:  -10.62 KCAL/MOL
REMARK 923 INTER-LIGAND FREE ENERGY PREDICTED BY IDOCK:   -8.85 KCAL/MOL
REMARK 924 INTRA-LIGAND FREE ENERGY PREDICTED BY IDOCK:   -1.77 KCAL/MOL
REMARK 927      BINDING AFFINITY PREDICTED BY RF-SCORE:    0.00 PKD
ROOT
HETATM    1  C   UNL     1     -10.305   3.178  72.793  1.00  0.00    -0.238 C  
HETATM    2  C   UNL     1     -11.175   4.068  73.660  1.00  0.00    -0.216 C  
ENDROOT
BRANCH   2   3
HETATM    3  N   UNL     1     -11.337   5.382  73.079  1.00  0.00    -0.410 N  
HETATM    4  C   UNL     1     -10.673   6.473  73.593  1.00  0.00    -0.222 C  
HETATM    5  H   UNL     1     -11.954   5.503  72.275  1.00  0.00     0.000 HD 
HETATM    6  O   UNL     1      -9.926   6.410  74.561  1.00  0.00    -0.302 OA 
BRANCH   4   7
HETATM    7  C   UNL     1     -10.949   7.756  72.835  1.00  0.00    -0.467 C  
BRANCH   7   8
HETATM    8  C   UNL     1     -10.883   7.527  71.323  1.00  0.00    -0.253 C  
BRANCH   8   9
HETATM    9  C   UNL     1     -11.003   8.811  70.504  1.00  0.00    -0.272 C  
BRANCH   9  10
HETATM   10  C   UNL     1      -9.696   9.545  70.405  1.00  0.00    -0.328 C  
HETATM   11  C   UNL     1      -9.157  10.099  69.307  1.00  0.00    -0.208 C  
BRANCH  11  12
HETATM   12  C   UNL     1      -9.726  10.080  67.915  1.00  0.00    -0.168 C  
BRANCH  12  13
HETATM   13  C   UNL     1     -10.185  11.460  67.424  1.00  0.00    -0.221 C  
HETATM   14  C   UNL     1     -11.707  11.648  67.342  1.00  0.00    -0.201 C  
HETATM   15  C   UNL     1     -11.880  13.159  67.404  1.00  0.00    -0.412 C  
HETATM   16  O   UNL     1     -12.370  11.075  68.464  1.00  0.00    -0.762 OA 
HETATM   17  H   UNL     1     -13.311  11.191  68.413  1.00  0.00     0.000 HD 
HETATM   18  C   UNL     1     -10.880  13.586  68.476  1.00  0.00    -0.264 C  
HETATM   19  O   UNL     1     -11.491  13.508  69.765  1.00  0.00    -0.400 OA 
HETATM   20  C   UNL     1      -9.715  12.573  68.399  1.00  0.00    -0.189 C  
HETATM   21  H   UNL     1     -10.868  13.773  70.432  1.00  0.00     0.000 HD 
BRANCH  20  22
HETATM   22  C   UNL     1      -8.434  13.229  67.930  1.00  0.00    -0.177 C  
HETATM   23  C   UNL     1      -7.612  13.911  68.747  1.00  0.00    -0.108 C  
BRANCH  23  24
HETATM   24  C   UNL     1      -6.370  14.674  68.365  1.00  0.00    -0.100 C  
HETATM   25  H   UNL     1      -4.963  14.552  66.994  1.00  0.00     0.000 HD 
HETATM   26  O   UNL     1      -5.746  14.071  67.235  1.00  0.00    -0.305 OA 
BRANCH  24  27
HETATM   27  C   UNL     1      -6.650  16.141  68.014  1.00  0.00    -0.142 C  
BRANCH  27  28
HETATM   28  C   UNL     1      -7.718  16.790  68.900  1.00  0.00    -0.242 C  
BRANCH  28  29
HETATM   29  C   UNL     1      -8.653  17.654  68.091  1.00  0.00    -0.261 A  
HETATM   30  C   UNL     1      -8.718  19.034  68.326  1.00  0.00    -0.366 A  
HETATM   31  C   UNL     1      -9.613  19.831  67.611  1.00  0.00    -0.470 A  
HETATM   32  C   UNL     1     -10.451  19.256  66.658  1.00  0.00    -0.541 A  
HETATM   33  C   UNL     1     -10.390  17.884  66.416  1.00  0.00    -0.365 A  
HETATM   34  C   UNL     1      -9.496  17.086  67.129  1.00  0.00    -0.245 A  
ENDBRANCH  28  29
ENDBRANCH  27  28
ENDBRANCH  24  27
ENDBRANCH  23  24
ENDBRANCH  20  22
ENDBRANCH  12  13
ENDBRANCH  11  12
ENDBRANCH   9  10
ENDBRANCH   8   9
ENDBRANCH   7   8
ENDBRANCH   4   7
ENDBRANCH   2   3
TORSDOF 12
ENDMDL
MODEL      183
REMARK 921   NORMALIZED FREE ENERGY PREDICTED BY IDOCK:   -4.56 KCAL/MOL
REMARK 922        TOTAL FREE ENERGY PREDICTED BY IDOCK:  -10.60 KCAL/MOL
REMARK 923 INTER-LIGAND FREE ENERGY PREDICTED BY IDOCK:   -7.71 KCAL/MOL
REMARK 924 INTRA-LIGAND FREE ENERGY PREDICTED BY IDOCK:   -2.89 KCAL/MOL
REMARK 927      BINDING AFFINITY PREDICTED BY RF-SCORE:    0.00 PKD
ROOT
HETATM    1  C   UNL     1     -10.199  10.955  63.349  1.00  0.00    -0.356 C  
HETATM    2  C   UNL     1      -8.909  11.086  62.562  1.00  0.00    -0.315 C  
ENDROOT
BRANCH   2   3
HETATM    3  N   UNL     1      -7.757  10.750  63.369  1.00  0.00    -0.356 N  
HETATM    4  C   UNL     1      -7.258   9.468  63.395  1.00  0.00    -0.107 C  
HETATM    5  H   UNL     1      -7.308  11.475  63.928  1.00  0.00     0.000 HD 
HETATM    6  O   UNL     1      -7.749   8.543  62.760  1.00  0.00    -0.113 OA 
BRANCH   4   7
HETATM    7  C   UNL     1      -6.034   9.318  64.275  1.00  0.00    -0.072 C  
BRANCH   7   8
HETATM    8  C   UNL     1      -6.420   9.294  65.757  1.00  0.00    -0.068 C  
BRANCH   8   9
HETATM    9  C   UNL     1      -5.566  10.216  66.626  1.00  0.00    -0.046 C  
BRANCH   9  10
HETATM   10  C   UNL     1      -6.045  11.639  66.587  1.00  0.00    -0.094 C  
HETATM   11  C   UNL     1      -6.892  12.234  67.442  1.00  0.00    -0.145 C  
BRANCH  11  12
HETATM   12  C   UNL     1      -7.581  11.599  68.618  1.00  0.00    -0.133 C  
BRANCH  12  13
HETATM   13  C   UNL     1      -8.914  10.928  68.256  1.00  0.00    -0.150 C  
HETATM   14  C   UNL     1      -9.331   9.771  69.177  1.00  0.00    -0.182 C  
HETATM   15  C   UNL     1     -10.838   9.690  68.981  1.00  0.00    -0.206 C  
HETATM   16  O   UNL     1      -9.072  10.067  70.545  1.00  0.00    -0.311 OA 
HETATM   17  H   UNL     1      -9.330   9.352  71.114  1.00  0.00     0.000 HD 
HETATM   18  C   UNL     1     -11.272  11.153  68.960  1.00  0.00    -0.256 C  
HETATM   19  O   UNL     1     -11.515  11.603  70.295  1.00  0.00    -0.487 OA 
HETATM   20  C   UNL     1     -10.085  11.941  68.363  1.00  0.00    -0.206 C  
HETATM   21  H   UNL     1     -11.785  12.514  70.282  1.00  0.00     0.000 HD 
BRANCH  20  22
HETATM   22  C   UNL     1     -10.434  12.543  67.019  1.00  0.00    -0.246 C  
HETATM   23  C   UNL     1     -11.697  12.747  66.607  1.00  0.00    -0.459 C  
BRANCH  23  24
HETATM   24  C   UNL     1     -12.150  13.251  65.261  1.00  0.00    -0.418 C  
HETATM   25  H   UNL     1     -13.609  14.366  64.550  1.00  0.00     0.000 HD 
HETATM   26  O   UNL     1     -13.324  14.048  65.399  1.00  0.00    -0.721 OA 
BRANCH  24  27
HETATM   27  C   UNL     1     -11.090  14.103  64.550  1.00  0.00    -0.340 C  
BRANCH  27  28
HETATM   28  C   UNL     1     -11.120  15.580  64.954  1.00  0.00    -0.428 C  
BRANCH  28  29
HETATM   29  C   UNL     1     -10.213  15.847  66.130  1.00  0.00    -0.340 A  
HETATM   30  C   UNL     1     -10.732  16.393  67.311  1.00  0.00    -0.257 A  
HETATM   31  C   UNL     1      -9.890  16.684  68.385  1.00  0.00    -0.252 A  
HETATM   32  C   UNL     1      -8.523  16.432  68.286  1.00  0.00    -0.195 A  
HETATM   33  C   UNL     1      -7.999  15.885  67.116  1.00  0.00    -0.243 A  
HETATM   34  C   UNL     1      -8.839  15.594  66.042  1.00  0.00    -0.209 A  
ENDBRANCH  28  29
ENDBRANCH  27  28
ENDBRANCH  24  27
ENDBRANCH  23  24
ENDBRANCH  20  22
ENDBRANCH  12  13
ENDBRANCH  11  12
ENDBRANCH   9  10
ENDBRANCH   8   9
ENDBRANCH   7   8
ENDBRANCH   4   7
ENDBRANCH   2   3
TORSDOF 12
ENDMDL
MODEL      184
REMARK 921   NORMALIZED FREE ENERGY PREDICTED BY IDOCK:   -4.56 KCAL/MOL
REMARK 922        TOTAL FREE ENERGY PREDICTED BY IDOCK:  -10.59 KCAL/MOL
REMARK 923 INTER-LIGAND FREE ENERGY PREDICTED BY IDOCK:   -9.14 KCAL/MOL
REMARK 924 INTRA-LIGAND FREE ENERGY PREDICTED BY IDOCK:   -1.45 KCAL/MOL
REMARK 927      BINDING AFFINITY PREDICTED BY RF-SCORE:    0.00 PKD
ROOT
HETATM    1  C   UNL     1     -11.182  11.929  68.505  1.00  0.00    -0.308 C  
HETATM    2  C   UNL     1     -11.408  13.363  68.943  1.00  0.00    -0.287 C  
ENDROOT
BRANCH   2   3
HETATM    3  N   UNL     1     -11.573  14.246  67.810  1.00  0.00    -0.334 N  
HETATM    4  C   UNL     1     -10.527  15.013  67.349  1.00  0.00    -0.257 C  
HETATM    5  H   UNL     1     -12.479  14.302  67.345  1.00  0.00     0.000 HD 
HETATM    6  O   UNL     1      -9.414  15.009  67.860  1.00  0.00    -0.193 OA 
BRANCH   4   7
HETATM    7  C   UNL     1     -10.885  15.852  66.139  1.00  0.00    -0.208 C  
BRANCH   7   8
HETATM    8  C   UNL     1     -10.994  14.986  64.881  1.00  0.00    -0.427 C  
BRANCH   8   9
HETATM    9  C   UNL     1     -12.430  14.597  64.529  1.00  0.00    -0.312 C  
BRANCH   9  10
HETATM   10  C   UNL     1     -12.485  13.468  63.539  1.00  0.00    -0.234 C  
HETATM   11  C   UNL     1     -11.796  12.316  63.583  1.00  0.00    -0.610 C  
BRANCH  11  12
HETATM   12  C   UNL     1     -10.785  11.908  64.619  1.00  0.00    -0.356 C  
BRANCH  12  13
HETATM   13  C   UNL     1     -10.117  10.558  64.322  1.00  0.00    -0.380 C  
HETATM   14  C   UNL     1      -9.441  10.455  62.947  1.00  0.00    -0.325 C  
HETATM   15  C   UNL     1      -8.428   9.333  63.135  1.00  0.00    -0.212 C  
HETATM   16  O   UNL     1      -8.734  11.645  62.617  1.00  0.00    -0.632 OA 
HETATM   17  H   UNL     1      -8.316  11.582  61.766  1.00  0.00     0.000 HD 
HETATM   18  C   UNL     1      -7.841   9.614  64.515  1.00  0.00    -0.134 C  
HETATM   19  O   UNL     1      -6.744  10.524  64.398  1.00  0.00    -0.328 OA 
HETATM   20  C   UNL     1      -8.972  10.279  65.332  1.00  0.00    -0.205 C  
HETATM   21  H   UNL     1      -6.379  10.699  65.257  1.00  0.00     0.000 HD 
BRANCH  20  22
HETATM   22  C   UNL     1      -9.429   9.397  66.474  1.00  0.00    -0.246 C  
HETATM   23  C   UNL     1      -9.718   8.092  66.328  1.00  0.00    -0.197 C  
BRANCH  23  24
HETATM   24  C   UNL     1     -10.265   7.154  67.374  1.00  0.00    -0.226 C  
HETATM   25  H   UNL     1     -11.042   5.347  67.430  1.00  0.00     0.000 HD 
HETATM   26  O   UNL     1     -10.697   5.937  66.771  1.00  0.00    -0.288 OA 
BRANCH  24  27
HETATM   27  C   UNL     1      -9.239   6.798  68.457  1.00  0.00    -0.128 C  
BRANCH  27  28
HETATM   28  C   UNL     1      -9.866   6.204  69.722  1.00  0.00    -0.199 C  
BRANCH  28  29
HETATM   29  C   UNL     1     -10.796   7.186  70.388  1.00  0.00    -0.269 A  
HETATM   30  C   UNL     1     -11.982   6.740  70.987  1.00  0.00    -0.431 A  
HETATM   31  C   UNL     1     -12.868   7.650  71.565  1.00  0.00    -0.376 A  
HETATM   32  C   UNL     1     -12.576   9.012  71.550  1.00  0.00    -0.400 A  
HETATM   33  C   UNL     1     -11.397   9.465  70.961  1.00  0.00    -0.407 A  
HETATM   34  C   UNL     1     -10.510   8.557  70.381  1.00  0.00    -0.227 A  
ENDBRANCH  28  29
ENDBRANCH  27  28
ENDBRANCH  24  27
ENDBRANCH  23  24
ENDBRANCH  20  22
ENDBRANCH  12  13
ENDBRANCH  11  12
ENDBRANCH   9  10
ENDBRANCH   8   9
ENDBRANCH   7   8
ENDBRANCH   4   7
ENDBRANCH   2   3
TORSDOF 12
ENDMDL
MODEL      185
REMARK 921   NORMALIZED FREE ENERGY PREDICTED BY IDOCK:   -4.55 KCAL/MOL
REMARK 922        TOTAL FREE ENERGY PREDICTED BY IDOCK:  -10.57 KCAL/MOL
REMARK 923 INTER-LIGAND FREE ENERGY PREDICTED BY IDOCK:   -7.62 KCAL/MOL
REMARK 924 INTRA-LIGAND FREE ENERGY PREDICTED BY IDOCK:   -2.96 KCAL/MOL
REMARK 927      BINDING AFFINITY PREDICTED BY RF-SCORE:    0.00 PKD
ROOT
HETATM    1  C   UNL     1      -8.779  18.002  67.397  1.00  0.00    -0.248 C  
HETATM    2  C   UNL     1      -7.980  17.175  68.386  1.00  0.00    -0.250 C  
ENDROOT
BRANCH   2   3
HETATM    3  N   UNL     1      -7.898  15.791  67.978  1.00  0.00    -0.130 N  
HETATM    4  C   UNL     1      -6.746  15.061  68.170  1.00  0.00    -0.128 C  
HETATM    5  H   UNL     1      -8.706  15.348  67.541  1.00  0.00     0.000 HD 
HETATM    6  O   UNL     1      -5.733  15.525  68.677  1.00  0.00    -0.094 OA 
BRANCH   4   7
HETATM    7  C   UNL     1      -6.862  13.624  67.703  1.00  0.00    -0.185 C  
BRANCH   7   8
HETATM    8  C   UNL     1      -8.280  13.315  67.216  1.00  0.00    -0.164 C  
BRANCH   8   9
HETATM    9  C   UNL     1      -9.126  12.556  68.237  1.00  0.00    -0.183 C  
BRANCH   9  10
HETATM   10  C   UNL     1     -10.578  12.932  68.163  1.00  0.00    -0.249 C  
HETATM   11  C   UNL     1     -11.607  12.323  68.774  1.00  0.00    -0.380 C  
BRANCH  11  12
HETATM   12  C   UNL     1     -11.541  11.101  69.648  1.00  0.00    -0.398 C  
BRANCH  12  13
HETATM   13  C   UNL     1     -10.451  10.105  69.226  1.00  0.00    -0.246 C  
HETATM   14  C   UNL     1      -9.949   9.178  70.342  1.00  0.00    -0.218 C  
HETATM   15  C   UNL     1      -9.365   7.994  69.583  1.00  0.00    -0.156 C  
HETATM   16  O   UNL     1     -11.017   8.705  71.155  1.00  0.00    -0.236 OA 
HETATM   17  H   UNL     1     -10.707   8.132  71.846  1.00  0.00     0.000 HD 
HETATM   18  C   UNL     1     -10.381   7.753  68.469  1.00  0.00    -0.197 C  
HETATM   19  O   UNL     1     -11.415   6.885  68.938  1.00  0.00    -0.533 OA 
HETATM   20  C   UNL     1     -10.985   9.137  68.137  1.00  0.00    -0.020 C  
HETATM   21  H   UNL     1     -12.047   6.736  68.244  1.00  0.00     0.000 HD 
BRANCH  20  22
HETATM   22  C   UNL     1     -10.607   9.591  66.743  1.00  0.00    -0.208 C  
HETATM   23  C   UNL     1      -9.401   9.366  66.195  1.00  0.00    -0.262 C  
BRANCH  23  24
HETATM   24  C   UNL     1      -8.898   9.853  64.860  1.00  0.00    -0.193 C  
HETATM   25  H   UNL     1      -8.000   9.085  63.285  1.00  0.00     0.000 HD 
HETATM   26  O   UNL     1      -8.317   8.778  64.127  1.00  0.00    -0.170 OA 
BRANCH  24  27
HETATM   27  C   UNL     1     -10.002  10.467  63.990  1.00  0.00    -0.363 C  
BRANCH  27  28
HETATM   28  C   UNL     1      -9.752  11.935  63.631  1.00  0.00    -0.266 C  
BRANCH  28  29
HETATM   29  C   UNL     1     -10.709  12.849  64.355  1.00  0.00    -0.407 A  
HETATM   30  C   UNL     1     -11.992  12.401  64.695  1.00  0.00    -0.462 A  
HETATM   31  C   UNL     1     -12.895  13.257  65.326  1.00  0.00    -0.368 A  
HETATM   32  C   UNL     1     -12.524  14.567  65.621  1.00  0.00    -0.238 A  
HETATM   33  C   UNL     1     -11.248  15.020  65.290  1.00  0.00    -0.368 A  
HETATM   34  C   UNL     1     -10.343  14.167  64.659  1.00  0.00    -0.296 A  
ENDBRANCH  28  29
ENDBRANCH  27  28
ENDBRANCH  24  27
ENDBRANCH  23  24
ENDBRANCH  20  22
ENDBRANCH  12  13
ENDBRANCH  11  12
ENDBRANCH   9  10
ENDBRANCH   8   9
ENDBRANCH   7   8
ENDBRANCH   4   7
ENDBRANCH   2   3
TORSDOF 12
ENDMDL
MODEL      186
REMARK 921   NORMALIZED FREE ENERGY PREDICTED BY IDOCK:   -4.53 KCAL/MOL
REMARK 922        TOTAL FREE ENERGY PREDICTED BY IDOCK:  -10.55 KCAL/MOL
REMARK 923 INTER-LIGAND FREE ENERGY PREDICTED BY IDOCK:   -8.72 KCAL/MOL
REMARK 924 INTRA-LIGAND FREE ENERGY PREDICTED BY IDOCK:   -1.83 KCAL/MOL
REMARK 927      BINDING AFFINITY PREDICTED BY RF-SCORE:    0.00 PKD
ROOT
HETATM    1  C   UNL     1      -9.939  15.483  66.255  1.00  0.00    -0.313 C  
HETATM    2  C   UNL     1     -10.875  15.173  65.102  1.00  0.00    -0.422 C  
ENDROOT
BRANCH   2   3
HETATM    3  N   UNL     1     -10.983  13.750  64.873  1.00  0.00    -0.354 N  
HETATM    4  C   UNL     1     -11.863  13.245  63.942  1.00  0.00    -0.465 C  
HETATM    5  H   UNL     1     -10.399  13.109  65.410  1.00  0.00     0.000 HD 
HETATM    6  O   UNL     1     -12.605  13.949  63.268  1.00  0.00    -0.824 OA 
BRANCH   4   7
HETATM    7  C   UNL     1     -11.814  11.735  63.826  1.00  0.00    -0.484 C  
BRANCH   7   8
HETATM    8  C   UNL     1     -10.535  11.278  63.121  1.00  0.00    -0.293 C  
BRANCH   8   9
HETATM    9  C   UNL     1      -9.372  11.009  64.076  1.00  0.00    -0.231 C  
BRANCH   9  10
HETATM   10  C   UNL     1      -9.754  10.067  65.183  1.00  0.00    -0.380 C  
HETATM   11  C   UNL     1      -9.691  10.300  66.503  1.00  0.00    -0.243 C  
BRANCH  11  12
HETATM   12  C   UNL     1      -9.192  11.548  67.177  1.00  0.00    -0.171 C  
BRANCH  12  13
HETATM   13  C   UNL     1      -9.885  11.839  68.516  1.00  0.00    -0.192 C  
HETATM   14  C   UNL     1     -11.175  12.666  68.415  1.00  0.00    -0.279 C  
HETATM   15  C   UNL     1     -11.916  12.323  69.701  1.00  0.00    -0.347 C  
HETATM   16  O   UNL     1     -11.978  12.257  67.313  1.00  0.00    -0.546 OA 
HETATM   17  H   UNL     1     -12.776  12.769  67.250  1.00  0.00     0.000 HD 
HETATM   18  C   UNL     1     -11.706  10.818  69.839  1.00  0.00    -0.333 C  
HETATM   19  O   UNL     1     -12.725  10.120  69.119  1.00  0.00    -0.205 OA 
HETATM   20  C   UNL     1     -10.331  10.518  69.200  1.00  0.00    -0.240 C  
HETATM   21  H   UNL     1     -12.594   9.183  69.206  1.00  0.00     0.000 HD 
BRANCH  20  22
HETATM   22  C   UNL     1      -9.326  10.050  70.231  1.00  0.00    -0.012 C  
HETATM   23  C   UNL     1      -9.261   8.783  70.675  1.00  0.00    -0.233 C  
BRANCH  23  24
HETATM   24  C   UNL     1      -8.366   8.239  71.759  1.00  0.00    -0.148 C  
HETATM   25  H   UNL     1      -6.665   8.739  72.615  1.00  0.00     0.000 HD 
HETATM   26  O   UNL     1      -7.229   9.082  71.932  1.00  0.00    -0.305 OA 
BRANCH  24  27
HETATM   27  C   UNL     1      -9.069   8.121  73.117  1.00  0.00    -0.335 C  
BRANCH  27  28
HETATM   28  C   UNL     1      -8.453   7.063  74.036  1.00  0.00    -0.180 C  
BRANCH  28  29
HETATM   29  C   UNL     1      -9.232   5.772  73.990  1.00  0.00    -0.127 A  
HETATM   30  C   UNL     1      -8.570   4.543  74.108  1.00  0.00    -0.104 A  
HETATM   31  C   UNL     1      -9.280   3.346  74.021  1.00  0.00    -0.099 A  
HETATM   32  C   UNL     1     -10.658   3.367  73.814  1.00  0.00    -0.279 A  
HETATM   33  C   UNL     1     -11.326   4.585  73.699  1.00  0.00    -0.288 A  
HETATM   34  C   UNL     1     -10.618   5.783  73.786  1.00  0.00    -0.285 A  
ENDBRANCH  28  29
ENDBRANCH  27  28
ENDBRANCH  24  27
ENDBRANCH  23  24
ENDBRANCH  20  22
ENDBRANCH  12  13
ENDBRANCH  11  12
ENDBRANCH   9  10
ENDBRANCH   8   9
ENDBRANCH   7   8
ENDBRANCH   4   7
ENDBRANCH   2   3
TORSDOF 12
ENDMDL
MODEL      187
REMARK 921   NORMALIZED FREE ENERGY PREDICTED BY IDOCK:   -4.53 KCAL/MOL
REMARK 922        TOTAL FREE ENERGY PREDICTED BY IDOCK:  -10.55 KCAL/MOL
REMARK 923 INTER-LIGAND FREE ENERGY PREDICTED BY IDOCK:   -8.24 KCAL/MOL
REMARK 924 INTRA-LIGAND FREE ENERGY PREDICTED BY IDOCK:   -2.31 KCAL/MOL
REMARK 927      BINDING AFFINITY PREDICTED BY RF-SCORE:    0.00 PKD
ROOT
HETATM    1  C   UNL     1      -9.806   2.326  62.989  1.00  0.00    -0.094 C  
HETATM    2  C   UNL     1      -9.430   2.105  64.442  1.00  0.00    -0.128 C  
ENDROOT
BRANCH   2   3
HETATM    3  N   UNL     1      -9.911   3.176  65.285  1.00  0.00    -0.380 N  
HETATM    4  C   UNL     1      -9.147   4.298  65.515  1.00  0.00    -0.138 C  
HETATM    5  H   UNL     1     -10.832   3.099  65.717  1.00  0.00     0.000 HD 
HETATM    6  O   UNL     1      -8.029   4.458  65.041  1.00  0.00    -0.094 OA 
BRANCH   4   7
HETATM    7  C   UNL     1      -9.831   5.319  66.401  1.00  0.00    -0.204 C  
BRANCH   7   8
HETATM    8  C   UNL     1      -8.934   5.719  67.576  1.00  0.00    -0.107 C  
BRANCH   8   9
HETATM    9  C   UNL     1      -9.176   7.143  68.073  1.00  0.00    -0.130 C  
BRANCH   9  10
HETATM   10  C   UNL     1     -10.318   7.808  67.358  1.00  0.00    -0.354 C  
HETATM   11  C   UNL     1     -10.350   9.055  66.863  1.00  0.00    -0.324 C  
BRANCH  11  12
HETATM   12  C   UNL     1      -9.256  10.085  66.943  1.00  0.00    -0.169 C  
BRANCH  12  13
HETATM   13  C   UNL     1      -8.770  10.567  65.569  1.00  0.00    -0.197 C  
HETATM   14  C   UNL     1      -7.406  10.013  65.130  1.00  0.00    -0.139 C  
HETATM   15  C   UNL     1      -7.439  10.154  63.614  1.00  0.00    -0.129 C  
HETATM   16  O   UNL     1      -7.271   8.633  65.449  1.00  0.00    -0.081 OA 
HETATM   17  H   UNL     1      -6.427   8.290  65.178  1.00  0.00     0.000 HD 
HETATM   18  C   UNL     1      -8.855   9.718  63.249  1.00  0.00    -0.245 C  
HETATM   19  O   UNL     1      -8.894   8.300  63.073  1.00  0.00    -0.403 OA 
HETATM   20  C   UNL     1      -9.745  10.110  64.451  1.00  0.00    -0.345 C  
HETATM   21  H   UNL     1      -9.776   8.029  62.846  1.00  0.00     0.000 HD 
BRANCH  20  22
HETATM   22  C   UNL     1     -10.733  11.196  64.084  1.00  0.00    -0.415 C  
HETATM   23  C   UNL     1     -10.617  12.470  64.498  1.00  0.00    -0.363 C  
BRANCH  23  24
HETATM   24  C   UNL     1     -11.589  13.598  64.267  1.00  0.00    -0.382 C  
HETATM   25  H   UNL     1     -13.535  13.876  64.374  1.00  0.00     0.000 HD 
HETATM   26  O   UNL     1     -12.922  13.164  64.521  1.00  0.00    -0.688 OA 
BRANCH  24  27
HETATM   27  C   UNL     1     -11.318  14.816  65.159  1.00  0.00    -0.379 C  
BRANCH  27  28
HETATM   28  C   UNL     1     -10.274  14.557  66.249  1.00  0.00    -0.306 C  
BRANCH  28  29
HETATM   29  C   UNL     1     -10.927  14.255  67.575  1.00  0.00    -0.297 A  
HETATM   30  C   UNL     1     -11.119  12.928  67.980  1.00  0.00    -0.283 A  
HETATM   31  C   UNL     1     -11.762  12.642  69.185  1.00  0.00    -0.375 A  
HETATM   32  C   UNL     1     -12.218  13.681  69.994  1.00  0.00    -0.395 A  
HETATM   33  C   UNL     1     -12.028  15.005  69.601  1.00  0.00    -0.356 A  
HETATM   34  C   UNL     1     -11.386  15.292  68.397  1.00  0.00    -0.338 A  
ENDBRANCH  28  29
ENDBRANCH  27  28
ENDBRANCH  24  27
ENDBRANCH  23  24
ENDBRANCH  20  22
ENDBRANCH  12  13
ENDBRANCH  11  12
ENDBRANCH   9  10
ENDBRANCH   8   9
ENDBRANCH   7   8
ENDBRANCH   4   7
ENDBRANCH   2   3
TORSDOF 12
ENDMDL
MODEL      188
REMARK 921   NORMALIZED FREE ENERGY PREDICTED BY IDOCK:   -4.53 KCAL/MOL
REMARK 922        TOTAL FREE ENERGY PREDICTED BY IDOCK:  -10.54 KCAL/MOL
REMARK 923 INTER-LIGAND FREE ENERGY PREDICTED BY IDOCK:   -8.49 KCAL/MOL
REMARK 924 INTRA-LIGAND FREE ENERGY PREDICTED BY IDOCK:   -2.06 KCAL/MOL
REMARK 927      BINDING AFFINITY PREDICTED BY RF-SCORE:    0.00 PKD
ROOT
HETATM    1  C   UNL     1     -13.488  15.353  71.904  1.00  0.00    -0.571 C  
HETATM    2  C   UNL     1     -12.633  14.296  71.233  1.00  0.00    -0.364 C  
ENDROOT
BRANCH   2   3
HETATM    3  N   UNL     1     -12.640  14.440  69.794  1.00  0.00    -0.524 N  
HETATM    4  C   UNL     1     -11.485  14.733  69.104  1.00  0.00    -0.299 C  
HETATM    5  H   UNL     1     -13.515  14.323  69.283  1.00  0.00     0.000 HD 
HETATM    6  O   UNL     1     -10.401  14.898  69.648  1.00  0.00    -0.205 OA 
BRANCH   4   7
HETATM    7  C   UNL     1     -11.688  14.818  67.604  1.00  0.00    -0.364 C  
BRANCH   7   8
HETATM    8  C   UNL     1     -11.996  13.441  67.011  1.00  0.00    -0.429 C  
BRANCH   8   9
HETATM    9  C   UNL     1     -11.157  12.314  67.613  1.00  0.00    -0.318 C  
BRANCH   9  10
HETATM   10  C   UNL     1      -9.704  12.432  67.250  1.00  0.00    -0.201 C  
HETATM   11  C   UNL     1      -9.064  11.805  66.250  1.00  0.00    -0.209 C  
BRANCH  11  12
HETATM   12  C   UNL     1      -9.653  10.813  65.284  1.00  0.00    -0.278 C  
BRANCH  12  13
HETATM   13  C   UNL     1      -8.912   9.468  65.263  1.00  0.00    -0.244 C  
HETATM   14  C   UNL     1      -7.781   9.365  64.229  1.00  0.00    -0.117 C  
HETATM   15  C   UNL     1      -6.898   8.255  64.782  1.00  0.00    -0.067 C  
HETATM   16  O   UNL     1      -7.012  10.561  64.169  1.00  0.00    -0.328 OA 
HETATM   17  H   UNL     1      -6.312  10.497  63.530  1.00  0.00     0.000 HD 
HETATM   18  C   UNL     1      -6.856   8.549  66.280  1.00  0.00    -0.073 C  
HETATM   19  O   UNL     1      -5.799   9.469  66.562  1.00  0.00    -0.053 OA 
HETATM   20  C   UNL     1      -8.212   9.206  66.623  1.00  0.00    -0.115 C  
HETATM   21  H   UNL     1      -5.773   9.652  67.494  1.00  0.00     0.000 HD 
BRANCH  20  22
HETATM   22  C   UNL     1      -9.046   8.325  67.527  1.00  0.00    -0.148 C  
HETATM   23  C   UNL     1      -8.660   7.100  67.926  1.00  0.00    -0.123 C  
BRANCH  23  24
HETATM   24  C   UNL     1      -9.452   6.113  68.744  1.00  0.00    -0.121 C  
HETATM   25  H   UNL     1      -9.267   5.190  70.473  1.00  0.00     0.000 HD 
HETATM   26  O   UNL     1      -8.767   5.813  69.957  1.00  0.00    -0.128 OA 
BRANCH  24  27
HETATM   27  C   UNL     1     -10.851   6.624  69.114  1.00  0.00    -0.329 C  
BRANCH  27  28
HETATM   28  C   UNL     1     -11.093   6.708  70.623  1.00  0.00    -0.349 C  
BRANCH  28  29
HETATM   29  C   UNL     1     -11.769   8.002  71.001  1.00  0.00    -0.295 A  
HETATM   30  C   UNL     1     -12.943   7.988  71.766  1.00  0.00    -0.354 A  
HETATM   31  C   UNL     1     -13.596   9.180  72.081  1.00  0.00    -0.534 A  
HETATM   32  C   UNL     1     -13.082  10.395  71.633  1.00  0.00    -0.553 A  
HETATM   33  C   UNL     1     -11.913  10.419  70.875  1.00  0.00    -0.478 A  
HETATM   34  C   UNL     1     -11.258   9.229  70.559  1.00  0.00    -0.315 A  
ENDBRANCH  28  29
ENDBRANCH  27  28
ENDBRANCH  24  27
ENDBRANCH  23  24
ENDBRANCH  20  22
ENDBRANCH  12  13
ENDBRANCH  11  12
ENDBRANCH   9  10
ENDBRANCH   8   9
ENDBRANCH   7   8
ENDBRANCH   4   7
ENDBRANCH   2   3
TORSDOF 12
ENDMDL
MODEL      189
REMARK 921   NORMALIZED FREE ENERGY PREDICTED BY IDOCK:   -4.51 KCAL/MOL
REMARK 922        TOTAL FREE ENERGY PREDICTED BY IDOCK:  -10.50 KCAL/MOL
REMARK 923 INTER-LIGAND FREE ENERGY PREDICTED BY IDOCK:   -8.15 KCAL/MOL
REMARK 924 INTRA-LIGAND FREE ENERGY PREDICTED BY IDOCK:   -2.35 KCAL/MOL
REMARK 927      BINDING AFFINITY PREDICTED BY RF-SCORE:    0.00 PKD
ROOT
HETATM    1  C   UNL     1      -8.264   4.671  72.053  1.00  0.00    -0.105 C  
HETATM    2  C   UNL     1      -8.904   5.817  72.814  1.00  0.00    -0.121 C  
ENDROOT
BRANCH   2   3
HETATM    3  N   UNL     1      -9.748   6.618  71.957  1.00  0.00    -0.152 N  
HETATM    4  C   UNL     1     -10.750   7.404  72.482  1.00  0.00    -0.272 C  
HETATM    5  H   UNL     1      -9.600   6.601  70.948  1.00  0.00     0.000 HD 
HETATM    6  O   UNL     1     -10.995   7.470  73.679  1.00  0.00    -0.322 OA 
BRANCH   4   7
HETATM    7  C   UNL     1     -11.508   8.190  71.431  1.00  0.00    -0.301 C  
BRANCH   7   8
HETATM    8  C   UNL     1     -10.710   9.415  70.976  1.00  0.00    -0.407 C  
BRANCH   8   9
HETATM    9  C   UNL     1     -10.430   9.439  69.474  1.00  0.00    -0.229 C  
BRANCH   9  10
HETATM   10  C   UNL     1      -9.331  10.400  69.117  1.00  0.00    -0.211 C  
HETATM   11  C   UNL     1      -8.718  10.526  67.929  1.00  0.00    -0.126 C  
BRANCH  11  12
HETATM   12  C   UNL     1      -8.971   9.710  66.692  1.00  0.00    -0.166 C  
BRANCH  12  13
HETATM   13  C   UNL     1      -8.608  10.442  65.392  1.00  0.00    -0.183 C  
HETATM   14  C   UNL     1      -7.267  10.030  64.767  1.00  0.00    -0.136 C  
HETATM   15  C   UNL     1      -7.421  10.429  63.305  1.00  0.00    -0.062 C  
HETATM   16  O   UNL     1      -7.067   8.622  64.828  1.00  0.00    -0.076 OA 
HETATM   17  H   UNL     1      -6.238   8.367  64.442  1.00  0.00     0.000 HD 
HETATM   18  C   UNL     1      -8.848  10.003  62.971  1.00  0.00    -0.234 C  
HETATM   19  O   UNL     1      -8.860   8.636  62.553  1.00  0.00    -0.420 OA 
HETATM   20  C   UNL     1      -9.653  10.144  64.284  1.00  0.00    -0.354 C  
HETATM   21  H   UNL     1      -9.748   8.372  62.346  1.00  0.00     0.000 HD 
BRANCH  20  22
HETATM   22  C   UNL     1     -10.697  11.235  64.184  1.00  0.00    -0.436 C  
HETATM   23  C   UNL     1     -10.590  12.418  64.813  1.00  0.00    -0.331 C  
BRANCH  23  24
HETATM   24  C   UNL     1     -11.610  13.528  64.853  1.00  0.00    -0.335 C  
HETATM   25  H   UNL     1     -13.139  14.125  63.768  1.00  0.00     0.000 HD 
HETATM   26  O   UNL     1     -12.497  13.426  63.742  1.00  0.00    -0.682 OA 
BRANCH  24  27
HETATM   27  C   UNL     1     -12.460  13.517  66.130  1.00  0.00    -0.424 C  
BRANCH  27  28
HETATM   28  C   UNL     1     -11.809  12.762  67.292  1.00  0.00    -0.414 C  
BRANCH  28  29
HETATM   29  C   UNL     1     -11.223  13.712  68.307  1.00  0.00    -0.302 A  
HETATM   30  C   UNL     1     -12.008  14.182  69.368  1.00  0.00    -0.382 A  
HETATM   31  C   UNL     1     -11.485  15.096  70.284  1.00  0.00    -0.315 A  
HETATM   32  C   UNL     1     -10.174  15.548  70.145  1.00  0.00    -0.230 A  
HETATM   33  C   UNL     1      -9.385  15.083  69.095  1.00  0.00    -0.189 A  
HETATM   34  C   UNL     1      -9.906  14.170  68.178  1.00  0.00    -0.229 A  
ENDBRANCH  28  29
ENDBRANCH  27  28
ENDBRANCH  24  27
ENDBRANCH  23  24
ENDBRANCH  20  22
ENDBRANCH  12  13
ENDBRANCH  11  12
ENDBRANCH   9  10
ENDBRANCH   8   9
ENDBRANCH   7   8
ENDBRANCH   4   7
ENDBRANCH   2   3
TORSDOF 12
ENDMDL
MODEL      190
REMARK 921   NORMALIZED FREE ENERGY PREDICTED BY IDOCK:   -4.51 KCAL/MOL
REMARK 922        TOTAL FREE ENERGY PREDICTED BY IDOCK:  -10.50 KCAL/MOL
REMARK 923 INTER-LIGAND FREE ENERGY PREDICTED BY IDOCK:   -7.63 KCAL/MOL
REMARK 924 INTRA-LIGAND FREE ENERGY PREDICTED BY IDOCK:   -2.87 KCAL/MOL
REMARK 927      BINDING AFFINITY PREDICTED BY RF-SCORE:    0.00 PKD
ROOT
HETATM    1  C   UNL     1      -9.252  15.594  66.979  1.00  0.00    -0.239 C  
HETATM    2  C   UNL     1      -9.081  14.433  67.941  1.00  0.00    -0.187 C  
ENDROOT
BRANCH   2   3
HETATM    3  N   UNL     1     -10.143  13.463  67.798  1.00  0.00    -0.227 N  
HETATM    4  C   UNL     1      -9.992  12.358  66.991  1.00  0.00    -0.212 C  
HETATM    5  H   UNL     1     -11.018  13.599  68.304  1.00  0.00     0.000 HD 
HETATM    6  O   UNL     1      -8.977  12.131  66.344  1.00  0.00    -0.200 OA 
BRANCH   4   7
HETATM    7  C   UNL     1     -11.202  11.444  66.991  1.00  0.00    -0.350 C  
BRANCH   7   8
HETATM    8  C   UNL     1     -11.407  10.803  68.366  1.00  0.00    -0.367 C  
BRANCH   8   9
HETATM    9  C   UNL     1     -10.635   9.497  68.553  1.00  0.00    -0.247 C  
BRANCH   9  10
HETATM   10  C   UNL     1     -10.542   8.706  67.279  1.00  0.00    -0.308 C  
HETATM   11  C   UNL     1     -10.734   7.386  67.128  1.00  0.00    -0.400 C  
BRANCH  11  12
HETATM   12  C   UNL     1     -11.053   6.391  68.210  1.00  0.00    -0.359 C  
BRANCH  12  13
HETATM   13  C   UNL     1      -9.840   5.563  68.657  1.00  0.00    -0.198 C  
HETATM   14  C   UNL     1      -9.738   4.166  68.028  1.00  0.00    -0.094 C  
HETATM   15  C   UNL     1      -8.260   3.825  68.162  1.00  0.00    -0.089 C  
HETATM   16  O   UNL     1     -10.070   4.186  66.644  1.00  0.00    -0.328 OA 
HETATM   17  H   UNL     1     -10.007   3.322  66.255  1.00  0.00     0.000 HD 
HETATM   18  C   UNL     1      -7.561   5.134  67.801  1.00  0.00    -0.087 C  
HETATM   19  O   UNL     1      -7.371   5.205  66.386  1.00  0.00    -0.082 OA 
HETATM   20  C   UNL     1      -8.517   6.264  68.247  1.00  0.00    -0.114 C  
HETATM   21  H   UNL     1      -6.937   6.020  66.161  1.00  0.00     0.000 HD 
BRANCH  20  22
HETATM   22  C   UNL     1      -7.931   7.075  69.383  1.00  0.00    -0.118 C  
HETATM   23  C   UNL     1      -8.432   7.066  70.630  1.00  0.00    -0.139 C  
BRANCH  23  24
HETATM   24  C   UNL     1      -7.983   7.901  71.802  1.00  0.00    -0.104 C  
HETATM   25  H   UNL     1      -7.287   9.718  72.100  1.00  0.00     0.000 HD 
HETATM   26  O   UNL     1      -7.570   9.192  71.361  1.00  0.00    -0.293 OA 
BRANCH  24  27
HETATM   27  C   UNL     1      -9.080   8.097  72.856  1.00  0.00    -0.337 C  
BRANCH  27  28
HETATM   28  C   UNL     1     -10.197   7.052  72.779  1.00  0.00    -0.227 C  
BRANCH  28  29
HETATM   29  C   UNL     1     -11.488   7.661  72.292  1.00  0.00    -0.366 A  
HETATM   30  C   UNL     1     -11.656   9.052  72.293  1.00  0.00    -0.252 A  
HETATM   31  C   UNL     1     -12.864   9.619  71.886  1.00  0.00    -0.515 A  
HETATM   32  C   UNL     1     -13.914   8.800  71.476  1.00  0.00    -0.391 A  
HETATM   33  C   UNL     1     -13.755   7.415  71.468  1.00  0.00    -0.467 A  
HETATM   34  C   UNL     1     -12.548   6.847  71.875  1.00  0.00    -0.336 A  
ENDBRANCH  28  29
ENDBRANCH  27  28
ENDBRANCH  24  27
ENDBRANCH  23  24
ENDBRANCH  20  22
ENDBRANCH  12  13
ENDBRANCH  11  12
ENDBRANCH   9  10
ENDBRANCH   8   9
ENDBRANCH   7   8
ENDBRANCH   4   7
ENDBRANCH   2   3
TORSDOF 12
ENDMDL
MODEL      191
REMARK 921   NORMALIZED FREE ENERGY PREDICTED BY IDOCK:   -4.50 KCAL/MOL
REMARK 922        TOTAL FREE ENERGY PREDICTED BY IDOCK:  -10.50 KCAL/MOL
REMARK 923 INTER-LIGAND FREE ENERGY PREDICTED BY IDOCK:   -7.99 KCAL/MOL
REMARK 924 INTRA-LIGAND FREE ENERGY PREDICTED BY IDOCK:   -2.51 KCAL/MOL
REMARK 927      BINDING AFFINITY PREDICTED BY RF-SCORE:    0.00 PKD
ROOT
HETATM    1  C   UNL     1      -7.402  10.521  69.671  1.00  0.00    -0.151 C  
HETATM    2  C   UNL     1      -7.615  11.356  68.422  1.00  0.00    -0.123 C  
ENDROOT
BRANCH   2   3
HETATM    3  N   UNL     1      -8.513  10.705  67.495  1.00  0.00    -0.121 N  
HETATM    4  C   UNL     1      -8.125  10.433  66.202  1.00  0.00    -0.139 C  
HETATM    5  H   UNL     1      -9.450  10.445  67.802  1.00  0.00     0.000 HD 
HETATM    6  O   UNL     1      -7.022  10.725  65.756  1.00  0.00    -0.122 OA 
BRANCH   4   7
HETATM    7  C   UNL     1      -9.192   9.725  65.391  1.00  0.00    -0.282 C  
BRANCH   7   8
HETATM    8  C   UNL     1     -10.184   8.998  66.302  1.00  0.00    -0.237 C  
BRANCH   8   9
HETATM    9  C   UNL     1      -9.881   7.510  66.471  1.00  0.00    -0.226 C  
BRANCH   9  10
HETATM   10  C   UNL     1      -8.991   7.243  67.652  1.00  0.00    -0.126 C  
HETATM   11  C   UNL     1      -9.343   6.697  68.827  1.00  0.00    -0.131 C  
BRANCH  11  12
HETATM   12  C   UNL     1     -10.720   6.259  69.241  1.00  0.00    -0.367 C  
BRANCH  12  13
HETATM   13  C   UNL     1     -11.331   7.129  70.349  1.00  0.00    -0.325 C  
HETATM   14  C   UNL     1     -11.328   6.496  71.749  1.00  0.00    -0.281 C  
HETATM   15  C   UNL     1     -11.424   7.697  72.679  1.00  0.00    -0.403 C  
HETATM   16  O   UNL     1     -10.105   5.818  72.018  1.00  0.00    -0.179 OA 
HETATM   17  H   UNL     1     -10.103   5.427  72.883  1.00  0.00     0.000 HD 
HETATM   18  C   UNL     1     -10.480   8.714  72.044  1.00  0.00    -0.352 C  
HETATM   19  O   UNL     1      -9.150   8.505  72.525  1.00  0.00    -0.244 OA 
HETATM   20  C   UNL     1     -10.523   8.443  70.523  1.00  0.00    -0.227 C  
HETATM   21  H   UNL     1      -8.563   9.138  72.128  1.00  0.00     0.000 HD 
BRANCH  20  22
HETATM   22  C   UNL     1     -11.150   9.595  69.767  1.00  0.00    -0.247 C  
HETATM   23  C   UNL     1     -11.381  10.799  70.317  1.00  0.00    -0.374 C  
BRANCH  23  24
HETATM   24  C   UNL     1     -12.080  11.975  69.683  1.00  0.00    -0.230 C  
HETATM   25  H   UNL     1     -12.826  13.700  70.268  1.00  0.00     0.000 HD 
HETATM   26  O   UNL     1     -12.386  12.959  70.668  1.00  0.00    -0.358 OA 
BRANCH  24  27
HETATM   27  C   UNL     1     -11.243  12.653  68.591  1.00  0.00    -0.323 C  
BRANCH  27  28
HETATM   28  C   UNL     1     -12.063  13.554  67.662  1.00  0.00    -0.321 C  
BRANCH  28  29
HETATM   29  C   UNL     1     -11.315  14.818  67.321  1.00  0.00    -0.366 A  
HETATM   30  C   UNL     1     -11.191  15.843  68.269  1.00  0.00    -0.354 A  
HETATM   31  C   UNL     1     -10.539  17.032  67.943  1.00  0.00    -0.365 A  
HETATM   32  C   UNL     1     -10.006  17.208  66.668  1.00  0.00    -0.298 A  
HETATM   33  C   UNL     1     -10.121  16.192  65.719  1.00  0.00    -0.390 A  
HETATM   34  C   UNL     1     -10.773  15.003  66.043  1.00  0.00    -0.329 A  
ENDBRANCH  28  29
ENDBRANCH  27  28
ENDBRANCH  24  27
ENDBRANCH  23  24
ENDBRANCH  20  22
ENDBRANCH  12  13
ENDBRANCH  11  12
ENDBRANCH   9  10
ENDBRANCH   8   9
ENDBRANCH   7   8
ENDBRANCH   4   7
ENDBRANCH   2   3
TORSDOF 12
ENDMDL
MODEL      192
REMARK 921   NORMALIZED FREE ENERGY PREDICTED BY IDOCK:   -4.50 KCAL/MOL
REMARK 922        TOTAL FREE ENERGY PREDICTED BY IDOCK:  -10.49 KCAL/MOL
REMARK 923 INTER-LIGAND FREE ENERGY PREDICTED BY IDOCK:   -8.94 KCAL/MOL
REMARK 924 INTRA-LIGAND FREE ENERGY PREDICTED BY IDOCK:   -1.55 KCAL/MOL
REMARK 927      BINDING AFFINITY PREDICTED BY RF-SCORE:    0.00 PKD
ROOT
HETATM    1  C   UNL     1      -9.478   2.988  72.356  1.00  0.00    -0.179 C  
HETATM    2  C   UNL     1      -9.828   4.333  72.964  1.00  0.00    -0.135 C  
ENDROOT
BRANCH   2   3
HETATM    3  N   UNL     1     -10.876   4.996  72.223  1.00  0.00    -0.180 N  
HETATM    4  C   UNL     1     -10.582   5.959  71.283  1.00  0.00    -0.252 C  
HETATM    5  H   UNL     1     -11.850   4.747  72.398  1.00  0.00     0.000 HD 
HETATM    6  O   UNL     1      -9.441   6.320  71.025  1.00  0.00    -0.172 OA 
BRANCH   4   7
HETATM    7  C   UNL     1     -11.810   6.518  70.593  1.00  0.00    -0.398 C  
BRANCH   7   8
HETATM    8  C   UNL     1     -12.607   7.424  71.535  1.00  0.00    -0.401 C  
BRANCH   8   9
HETATM    9  C   UNL     1     -11.800   8.602  72.080  1.00  0.00    -0.443 C  
BRANCH   9  10
HETATM   10  C   UNL     1     -12.650   9.821  72.298  1.00  0.00    -0.264 C  
HETATM   11  C   UNL     1     -13.016  10.729  71.380  1.00  0.00    -0.535 C  
BRANCH  11  12
HETATM   12  C   UNL     1     -12.630  10.749  69.926  1.00  0.00    -0.199 C  
BRANCH  12  13
HETATM   13  C   UNL     1     -11.232  11.331  69.674  1.00  0.00    -0.321 C  
HETATM   14  C   UNL     1     -10.121  10.290  69.472  1.00  0.00    -0.235 C  
HETATM   15  C   UNL     1      -9.051  11.059  68.707  1.00  0.00    -0.161 C  
HETATM   16  O   UNL     1     -10.557   9.204  68.662  1.00  0.00    -0.245 OA 
HETATM   17  H   UNL     1      -9.870   8.560  68.537  1.00  0.00     0.000 HD 
HETATM   18  C   UNL     1      -9.855  11.868  67.693  1.00  0.00    -0.187 C  
HETATM   19  O   UNL     1     -10.072  11.087  66.515  1.00  0.00    -0.211 OA 
HETATM   20  C   UNL     1     -11.214  12.168  68.366  1.00  0.00    -0.314 C  
HETATM   21  H   UNL     1     -10.573  11.591  65.884  1.00  0.00     0.000 HD 
BRANCH  20  22
HETATM   22  C   UNL     1     -11.388  13.646  68.639  1.00  0.00    -0.321 C  
HETATM   23  C   UNL     1     -11.695  14.142  69.851  1.00  0.00    -0.372 C  
BRANCH  23  24
HETATM   24  C   UNL     1     -11.979  15.579  70.205  1.00  0.00    -0.374 C  
HETATM   25  H   UNL     1     -11.491  16.838  71.638  1.00  0.00     0.000 HD 
HETATM   26  O   UNL     1     -11.312  15.932  71.415  1.00  0.00    -0.382 OA 
BRANCH  24  27
HETATM   27  C   UNL     1     -11.528  16.565  69.121  1.00  0.00    -0.084 C  
BRANCH  27  28
HETATM   28  C   UNL     1     -10.007  16.727  69.034  1.00  0.00    -0.272 C  
BRANCH  28  29
HETATM   29  C   UNL     1      -9.626  17.850  68.102  1.00  0.00    -0.306 A  
HETATM   30  C   UNL     1     -10.469  18.958  67.949  1.00  0.00    -0.459 A  
HETATM   31  C   UNL     1     -10.142  19.978  67.054  1.00  0.00    -0.594 A  
HETATM   32  C   UNL     1      -8.970  19.897  66.305  1.00  0.00    -0.419 A  
HETATM   33  C   UNL     1      -8.123  18.801  66.453  1.00  0.00    -0.296 A  
HETATM   34  C   UNL     1      -8.448  17.780  67.346  1.00  0.00    -0.230 A  
ENDBRANCH  28  29
ENDBRANCH  27  28
ENDBRANCH  24  27
ENDBRANCH  23  24
ENDBRANCH  20  22
ENDBRANCH  12  13
ENDBRANCH  11  12
ENDBRANCH   9  10
ENDBRANCH   8   9
ENDBRANCH   7   8
ENDBRANCH   4   7
ENDBRANCH   2   3
TORSDOF 12
ENDMDL
MODEL      193
REMARK 921   NORMALIZED FREE ENERGY PREDICTED BY IDOCK:   -4.49 KCAL/MOL
REMARK 922        TOTAL FREE ENERGY PREDICTED BY IDOCK:  -10.47 KCAL/MOL
REMARK 923 INTER-LIGAND FREE ENERGY PREDICTED BY IDOCK:   -9.29 KCAL/MOL
REMARK 924 INTRA-LIGAND FREE ENERGY PREDICTED BY IDOCK:   -1.18 KCAL/MOL
REMARK 927      BINDING AFFINITY PREDICTED BY RF-SCORE:    0.00 PKD
ROOT
HETATM    1  C   UNL     1     -10.604   2.156  63.528  1.00  0.00    -0.151 C  
HETATM    2  C   UNL     1     -10.300   3.637  63.403  1.00  0.00    -0.224 C  
ENDROOT
BRANCH   2   3
HETATM    3  N   UNL     1     -10.837   4.386  64.516  1.00  0.00    -0.546 N  
HETATM    4  C   UNL     1     -10.036   4.762  65.571  1.00  0.00    -0.136 C  
HETATM    5  H   UNL     1     -11.825   4.640  64.521  1.00  0.00     0.000 HD 
HETATM    6  O   UNL     1      -8.845   4.486  65.643  1.00  0.00    -0.120 OA 
BRANCH   4   7
HETATM    7  C   UNL     1     -10.771   5.563  66.628  1.00  0.00    -0.332 C  
BRANCH   7   8
HETATM    8  C   UNL     1      -9.953   5.654  67.918  1.00  0.00    -0.174 C  
BRANCH   8   9
HETATM    9  C   UNL     1      -9.453   7.065  68.226  1.00  0.00    -0.128 C  
BRANCH   9  10
HETATM   10  C   UNL     1     -10.303   8.122  67.580  1.00  0.00    -0.330 C  
HETATM   11  C   UNL     1     -10.057   8.770  66.430  1.00  0.00    -0.313 C  
BRANCH  11  12
HETATM   12  C   UNL     1      -8.854   8.606  65.542  1.00  0.00    -0.220 C  
BRANCH  12  13
HETATM   13  C   UNL     1      -8.543   9.852  64.699  1.00  0.00    -0.195 C  
HETATM   14  C   UNL     1      -8.266   9.579  63.213  1.00  0.00    -0.162 C  
HETATM   15  C   UNL     1      -8.559  10.917  62.548  1.00  0.00    -0.313 C  
HETATM   16  O   UNL     1      -9.160   8.608  62.680  1.00  0.00    -0.442 OA 
HETATM   17  H   UNL     1      -8.988   8.440  61.761  1.00  0.00     0.000 HD 
HETATM   18  C   UNL     1      -9.826  11.393  63.254  1.00  0.00    -0.404 C  
HETATM   19  O   UNL     1     -10.977  10.862  62.592  1.00  0.00    -0.603 OA 
HETATM   20  C   UNL     1      -9.754  10.824  64.690  1.00  0.00    -0.344 C  
HETATM   21  H   UNL     1     -11.765  11.158  63.032  1.00  0.00     0.000 HD 
BRANCH  20  22
HETATM   22  C   UNL     1      -9.603  11.922  65.719  1.00  0.00    -0.241 C  
HETATM   23  C   UNL     1     -10.376  13.022  65.744  1.00  0.00    -0.296 C  
BRANCH  23  24
HETATM   24  C   UNL     1     -10.249  14.209  66.664  1.00  0.00    -0.270 C  
HETATM   25  H   UNL     1      -8.905  14.939  67.904  1.00  0.00     0.000 HD 
HETATM   26  O   UNL     1      -8.986  14.191  67.324  1.00  0.00    -0.193 OA 
BRANCH  24  27
HETATM   27  C   UNL     1     -10.372  15.552  65.933  1.00  0.00    -0.365 C  
BRANCH  27  28
HETATM   28  C   UNL     1      -9.159  16.467  66.123  1.00  0.00    -0.362 C  
BRANCH  28  29
HETATM   29  C   UNL     1      -9.546  17.762  66.792  1.00  0.00    -0.301 A  
HETATM   30  C   UNL     1     -10.128  18.795  66.045  1.00  0.00    -0.353 A  
HETATM   31  C   UNL     1     -10.447  20.012  66.649  1.00  0.00    -0.519 A  
HETATM   32  C   UNL     1     -10.187  20.206  68.004  1.00  0.00    -0.493 A  
HETATM   33  C   UNL     1      -9.613  19.182  68.756  1.00  0.00    -0.474 A  
HETATM   34  C   UNL     1      -9.293  17.966  68.154  1.00  0.00    -0.286 A  
ENDBRANCH  28  29
ENDBRANCH  27  28
ENDBRANCH  24  27
ENDBRANCH  23  24
ENDBRANCH  20  22
ENDBRANCH  12  13
ENDBRANCH  11  12
ENDBRANCH   9  10
ENDBRANCH   8   9
ENDBRANCH   7   8
ENDBRANCH   4   7
ENDBRANCH   2   3
TORSDOF 12
ENDMDL
MODEL      194
REMARK 921   NORMALIZED FREE ENERGY PREDICTED BY IDOCK:   -4.49 KCAL/MOL
REMARK 922        TOTAL FREE ENERGY PREDICTED BY IDOCK:  -10.47 KCAL/MOL
REMARK 923 INTER-LIGAND FREE ENERGY PREDICTED BY IDOCK:   -7.96 KCAL/MOL
REMARK 924 INTRA-LIGAND FREE ENERGY PREDICTED BY IDOCK:   -2.51 KCAL/MOL
REMARK 927      BINDING AFFINITY PREDICTED BY RF-SCORE:    0.00 PKD
ROOT
HETATM    1  C   UNL     1      -9.794   4.616  69.032  1.00  0.00    -0.224 C  
HETATM    2  C   UNL     1      -9.348   5.392  70.258  1.00  0.00    -0.154 C  
ENDROOT
BRANCH   2   3
HETATM    3  N   UNL     1      -9.336   6.816  70.011  1.00  0.00    -0.158 N  
HETATM    4  C   UNL     1     -10.254   7.649  70.612  1.00  0.00    -0.199 C  
HETATM    5  H   UNL     1      -8.637   7.210  69.381  1.00  0.00     0.000 HD 
HETATM    6  O   UNL     1     -11.128   7.250  71.370  1.00  0.00    -0.239 OA 
BRANCH   4   7
HETATM    7  C   UNL     1     -10.064   9.109  70.251  1.00  0.00    -0.244 C  
BRANCH   7   8
HETATM    8  C   UNL     1     -11.044   9.998  71.023  1.00  0.00    -0.341 C  
BRANCH   8   9
HETATM    9  C   UNL     1     -12.221  10.485  70.180  1.00  0.00    -0.358 C  
BRANCH   9  10
HETATM   10  C   UNL     1     -11.978  11.850  69.602  1.00  0.00    -0.365 C  
HETATM   11  C   UNL     1     -11.687  12.152  68.326  1.00  0.00    -0.401 C  
BRANCH  11  12
HETATM   12  C   UNL     1     -11.504  11.184  67.190  1.00  0.00    -0.163 C  
BRANCH  12  13
HETATM   13  C   UNL     1     -10.191  11.385  66.421  1.00  0.00    -0.270 C  
HETATM   14  C   UNL     1      -9.168  10.249  66.570  1.00  0.00    -0.153 C  
HETATM   15  C   UNL     1      -8.288  10.402  65.336  1.00  0.00    -0.166 C  
HETATM   16  O   UNL     1      -9.791   8.970  66.520  1.00  0.00    -0.223 OA 
HETATM   17  H   UNL     1      -9.159   8.267  66.612  1.00  0.00     0.000 HD 
HETATM   18  C   UNL     1      -9.288  10.703  64.223  1.00  0.00    -0.258 C  
HETATM   19  O   UNL     1      -9.776   9.479  63.669  1.00  0.00    -0.413 OA 
HETATM   20  C   UNL     1     -10.456  11.462  64.893  1.00  0.00    -0.363 C  
HETATM   21  H   UNL     1     -10.399   9.666  62.976  1.00  0.00     0.000 HD 
BRANCH  20  22
HETATM   22  C   UNL     1     -10.544  12.893  64.407  1.00  0.00    -0.418 C  
HETATM   23  C   UNL     1     -10.481  13.956  65.227  1.00  0.00    -0.386 C  
BRANCH  23  24
HETATM   24  C   UNL     1     -10.649  15.408  64.856  1.00  0.00    -0.352 C  
HETATM   25  H   UNL     1     -11.938  16.502  63.848  1.00  0.00     0.000 HD 
HETATM   26  O   UNL     1     -11.832  15.587  64.082  1.00  0.00    -0.463 OA 
BRANCH  24  27
HETATM   27  C   UNL     1     -10.748  16.332  66.077  1.00  0.00    -0.217 C  
BRANCH  27  28
HETATM   28  C   UNL     1     -10.804  15.581  67.410  1.00  0.00    -0.312 C  
BRANCH  28  29
HETATM   29  C   UNL     1      -9.466  15.597  68.108  1.00  0.00    -0.195 A  
HETATM   30  C   UNL     1      -8.898  16.811  68.515  1.00  0.00    -0.248 A  
HETATM   31  C   UNL     1      -7.641  16.836  69.120  1.00  0.00    -0.181 A  
HETATM   32  C   UNL     1      -6.942  15.647  69.322  1.00  0.00    -0.179 A  
HETATM   33  C   UNL     1      -7.501  14.434  68.924  1.00  0.00    -0.132 A  
HETATM   34  C   UNL     1      -8.757  14.408  68.318  1.00  0.00    -0.180 A  
ENDBRANCH  28  29
ENDBRANCH  27  28
ENDBRANCH  24  27
ENDBRANCH  23  24
ENDBRANCH  20  22
ENDBRANCH  12  13
ENDBRANCH  11  12
ENDBRANCH   9  10
ENDBRANCH   8   9
ENDBRANCH   7   8
ENDBRANCH   4   7
ENDBRANCH   2   3
TORSDOF 12
ENDMDL
MODEL      195
REMARK 921   NORMALIZED FREE ENERGY PREDICTED BY IDOCK:   -4.46 KCAL/MOL
REMARK 922        TOTAL FREE ENERGY PREDICTED BY IDOCK:  -10.43 KCAL/MOL
REMARK 923 INTER-LIGAND FREE ENERGY PREDICTED BY IDOCK:   -8.95 KCAL/MOL
REMARK 924 INTRA-LIGAND FREE ENERGY PREDICTED BY IDOCK:   -1.48 KCAL/MOL
REMARK 927      BINDING AFFINITY PREDICTED BY RF-SCORE:    0.00 PKD
ROOT
HETATM    1  C   UNL     1      -6.592  17.478  69.230  1.00  0.00    -0.235 C  
HETATM    2  C   UNL     1      -5.621  16.487  69.843  1.00  0.00    -0.193 C  
ENDROOT
BRANCH   2   3
HETATM    3  N   UNL     1      -5.591  15.245  69.104  1.00  0.00    -0.098 N  
HETATM    4  C   UNL     1      -5.859  14.044  69.722  1.00  0.00    -0.115 C  
HETATM    5  H   UNL     1      -5.367  15.258  68.109  1.00  0.00     0.000 HD 
HETATM    6  O   UNL     1      -6.124  13.945  70.913  1.00  0.00    -0.183 OA 
BRANCH   4   7
HETATM    7  C   UNL     1      -5.805  12.858  68.779  1.00  0.00    -0.069 C  
BRANCH   7   8
HETATM    8  C   UNL     1      -6.841  11.799  69.166  1.00  0.00    -0.106 C  
BRANCH   8   9
HETATM    9  C   UNL     1      -8.151  11.912  68.389  1.00  0.00    -0.155 C  
BRANCH   9  10
HETATM   10  C   UNL     1      -8.126  13.037  67.393  1.00  0.00    -0.180 C  
HETATM   11  C   UNL     1      -9.180  13.629  66.811  1.00  0.00    -0.251 C  
BRANCH  11  12
HETATM   12  C   UNL     1     -10.630  13.277  66.999  1.00  0.00    -0.259 C  
BRANCH  12  13
HETATM   13  C   UNL     1     -11.191  12.384  65.883  1.00  0.00    -0.373 C  
HETATM   14  C   UNL     1     -11.748  13.136  64.665  1.00  0.00    -0.361 C  
HETATM   15  C   UNL     1     -11.688  12.098  63.552  1.00  0.00    -0.579 C  
HETATM   16  O   UNL     1     -10.918  14.233  64.299  1.00  0.00    -0.599 OA 
HETATM   17  H   UNL     1     -11.262  14.698  63.546  1.00  0.00     0.000 HD 
HETATM   18  C   UNL     1     -10.339  11.419  63.773  1.00  0.00    -0.393 C  
HETATM   19  O   UNL     1      -9.315  12.146  63.089  1.00  0.00    -0.652 OA 
HETATM   20  C   UNL     1     -10.078  11.476  65.295  1.00  0.00    -0.314 C  
HETATM   21  H   UNL     1      -8.476  11.723  63.227  1.00  0.00     0.000 HD 
BRANCH  20  22
HETATM   22  C   UNL     1     -10.089  10.095  65.915  1.00  0.00    -0.325 C  
HETATM   23  C   UNL     1     -10.651   9.825  67.106  1.00  0.00    -0.298 C  
BRANCH  23  24
HETATM   24  C   UNL     1     -10.636   8.514  67.848  1.00  0.00    -0.156 C  
HETATM   25  H   UNL     1     -10.590   6.598  67.398  1.00  0.00     0.000 HD 
HETATM   26  O   UNL     1     -10.600   7.425  66.929  1.00  0.00    -0.326 OA 
BRANCH  24  27
HETATM   27  C   UNL     1      -9.432   8.370  68.788  1.00  0.00    -0.147 C  
BRANCH  27  28
HETATM   28  C   UNL     1      -9.761   7.645  70.097  1.00  0.00    -0.179 C  
BRANCH  28  29
HETATM   29  C   UNL     1     -11.031   8.173  70.715  1.00  0.00    -0.261 A  
HETATM   30  C   UNL     1     -11.198   9.550  70.916  1.00  0.00    -0.411 A  
HETATM   31  C   UNL     1     -12.352  10.040  71.528  1.00  0.00    -0.513 A  
HETATM   32  C   UNL     1     -13.348   9.158  71.944  1.00  0.00    -0.490 A  
HETATM   33  C   UNL     1     -13.193   7.788  71.744  1.00  0.00    -0.354 A  
HETATM   34  C   UNL     1     -12.040   7.296  71.133  1.00  0.00    -0.376 A  
ENDBRANCH  28  29
ENDBRANCH  27  28
ENDBRANCH  24  27
ENDBRANCH  23  24
ENDBRANCH  20  22
ENDBRANCH  12  13
ENDBRANCH  11  12
ENDBRANCH   9  10
ENDBRANCH   8   9
ENDBRANCH   7   8
ENDBRANCH   4   7
ENDBRANCH   2   3
TORSDOF 12
ENDMDL
MODEL      196
REMARK 921   NORMALIZED FREE ENERGY PREDICTED BY IDOCK:   -4.46 KCAL/MOL
REMARK 922        TOTAL FREE ENERGY PREDICTED BY IDOCK:  -10.42 KCAL/MOL
REMARK 923 INTER-LIGAND FREE ENERGY PREDICTED BY IDOCK:   -8.18 KCAL/MOL
REMARK 924 INTRA-LIGAND FREE ENERGY PREDICTED BY IDOCK:   -2.24 KCAL/MOL
REMARK 927      BINDING AFFINITY PREDICTED BY RF-SCORE:    0.00 PKD
ROOT
HETATM    1  C   UNL     1     -11.839  15.428  72.437  1.00  0.00    -0.558 C  
HETATM    2  C   UNL     1     -13.006  15.584  71.481  1.00  0.00    -0.472 C  
ENDROOT
BRANCH   2   3
HETATM    3  N   UNL     1     -12.680  15.098  70.160  1.00  0.00    -0.602 N  
HETATM    4  C   UNL     1     -11.669  15.672  69.421  1.00  0.00    -0.383 C  
HETATM    5  H   UNL     1     -13.206  14.317  69.767  1.00  0.00     0.000 HD 
HETATM    6  O   UNL     1     -11.001  16.618  69.819  1.00  0.00    -0.330 OA 
BRANCH   4   7
HETATM    7  C   UNL     1     -11.459  15.010  68.074  1.00  0.00    -0.357 C  
BRANCH   7   8
HETATM    8  C   UNL     1     -12.273  13.718  67.963  1.00  0.00    -0.179 C  
BRANCH   8   9
HETATM    9  C   UNL     1     -11.453  12.516  67.496  1.00  0.00    -0.397 C  
BRANCH   9  10
HETATM   10  C   UNL     1     -11.427  11.415  68.517  1.00  0.00    -0.361 C  
HETATM   11  C   UNL     1     -10.457  10.506  68.707  1.00  0.00    -0.216 C  
BRANCH  11  12
HETATM   12  C   UNL     1      -9.187  10.364  67.914  1.00  0.00    -0.143 C  
BRANCH  12  13
HETATM   13  C   UNL     1      -9.361   9.553  66.622  1.00  0.00    -0.207 C  
HETATM   14  C   UNL     1      -9.657  10.385  65.366  1.00  0.00    -0.246 C  
HETATM   15  C   UNL     1      -9.221   9.473  64.227  1.00  0.00    -0.166 C  
HETATM   16  O   UNL     1      -8.867  11.568  65.320  1.00  0.00    -0.396 OA 
HETATM   17  H   UNL     1      -9.050  12.083  64.543  1.00  0.00     0.000 HD 
HETATM   18  C   UNL     1      -7.915   8.870  64.738  1.00  0.00    -0.129 C  
HETATM   19  O   UNL     1      -6.823   9.731  64.407  1.00  0.00    -0.107 OA 
HETATM   20  C   UNL     1      -8.055   8.788  66.275  1.00  0.00    -0.107 C  
HETATM   21  H   UNL     1      -6.010   9.355  64.725  1.00  0.00     0.000 HD 
BRANCH  20  22
HETATM   22  C   UNL     1      -8.095   7.354  66.757  1.00  0.00    -0.123 C  
HETATM   23  C   UNL     1      -9.175   6.564  66.633  1.00  0.00    -0.172 C  
BRANCH  23  24
HETATM   24  C   UNL     1      -9.347   5.162  67.159  1.00  0.00    -0.124 C  
HETATM   25  H   UNL     1      -8.192   3.724  67.848  1.00  0.00     0.000 HD 
HETATM   26  O   UNL     1      -8.083   4.608  67.516  1.00  0.00    -0.100 OA 
BRANCH  24  27
HETATM   27  C   UNL     1     -10.252   5.091  68.396  1.00  0.00    -0.143 C  
BRANCH  27  28
HETATM   28  C   UNL     1     -11.145   6.322  68.572  1.00  0.00    -0.397 C  
BRANCH  28  29
HETATM   29  C   UNL     1     -11.034   6.888  69.966  1.00  0.00    -0.320 A  
HETATM   30  C   UNL     1     -12.185   7.099  70.736  1.00  0.00    -0.308 A  
HETATM   31  C   UNL     1     -12.091   7.664  72.008  1.00  0.00    -0.336 A  
HETATM   32  C   UNL     1     -10.846   8.022  72.521  1.00  0.00    -0.415 A  
HETATM   33  C   UNL     1      -9.694   7.811  71.764  1.00  0.00    -0.206 A  
HETATM   34  C   UNL     1      -9.786   7.247  70.492  1.00  0.00    -0.183 A  
ENDBRANCH  28  29
ENDBRANCH  27  28
ENDBRANCH  24  27
ENDBRANCH  23  24
ENDBRANCH  20  22
ENDBRANCH  12  13
ENDBRANCH  11  12
ENDBRANCH   9  10
ENDBRANCH   8   9
ENDBRANCH   7   8
ENDBRANCH   4   7
ENDBRANCH   2   3
TORSDOF 12
ENDMDL
MODEL      197
REMARK 921   NORMALIZED FREE ENERGY PREDICTED BY IDOCK:   -4.45 KCAL/MOL
REMARK 922        TOTAL FREE ENERGY PREDICTED BY IDOCK:  -10.41 KCAL/MOL
REMARK 923 INTER-LIGAND FREE ENERGY PREDICTED BY IDOCK:   -8.22 KCAL/MOL
REMARK 924 INTRA-LIGAND FREE ENERGY PREDICTED BY IDOCK:   -2.19 KCAL/MOL
REMARK 927      BINDING AFFINITY PREDICTED BY RF-SCORE:    0.00 PKD
ROOT
HETATM    1  C   UNL     1     -12.373   8.391  72.384  1.00  0.00    -0.412 C  
HETATM    2  C   UNL     1     -12.205   9.670  71.586  1.00  0.00    -0.402 C  
ENDROOT
BRANCH   2   3
HETATM    3  N   UNL     1     -12.934  10.767  72.180  1.00  0.00    -0.450 N  
HETATM    4  C   UNL     1     -12.853  12.039  71.659  1.00  0.00    -0.294 C  
HETATM    5  H   UNL     1     -13.518  10.597  72.999  1.00  0.00     0.000 HD 
HETATM    6  O   UNL     1     -12.166  12.324  70.686  1.00  0.00    -0.371 OA 
BRANCH   4   7
HETATM    7  C   UNL     1     -13.708  13.047  72.400  1.00  0.00    -0.593 C  
BRANCH   7   8
HETATM    8  C   UNL     1     -12.857  14.200  72.939  1.00  0.00    -0.433 C  
BRANCH   8   9
HETATM    9  C   UNL     1     -12.927  15.464  72.083  1.00  0.00    -0.480 C  
BRANCH   9  10
HETATM   10  C   UNL     1     -11.566  15.935  71.655  1.00  0.00    -0.541 C  
HETATM   11  C   UNL     1     -11.124  16.107  70.399  1.00  0.00    -0.362 C  
BRANCH  11  12
HETATM   12  C   UNL     1     -11.884  15.833  69.130  1.00  0.00    -0.367 C  
BRANCH  12  13
HETATM   13  C   UNL     1     -10.982  15.450  67.948  1.00  0.00    -0.310 C  
HETATM   14  C   UNL     1     -10.535  16.624  67.065  1.00  0.00    -0.283 C  
HETATM   15  C   UNL     1      -9.275  16.098  66.390  1.00  0.00    -0.334 C  
HETATM   16  O   UNL     1     -10.184  17.764  67.842  1.00  0.00    -0.325 OA 
HETATM   17  H   UNL     1      -9.907  18.490  67.296  1.00  0.00     0.000 HD 
HETATM   18  C   UNL     1      -8.550  15.366  67.516  1.00  0.00    -0.174 C  
HETATM   19  O   UNL     1      -7.726  16.284  68.237  1.00  0.00    -0.149 OA 
HETATM   20  C   UNL     1      -9.654  14.824  68.452  1.00  0.00    -0.213 C  
HETATM   21  H   UNL     1      -7.275  15.827  68.938  1.00  0.00     0.000 HD 
BRANCH  20  22
HETATM   22  C   UNL     1      -9.704  13.311  68.440  1.00  0.00    -0.198 C  
HETATM   23  C   UNL     1      -9.853  12.586  67.317  1.00  0.00    -0.204 C  
BRANCH  23  24
HETATM   24  C   UNL     1     -10.005  11.091  67.209  1.00  0.00    -0.181 C  
HETATM   25  H   UNL     1     -11.455   9.808  66.854  1.00  0.00     0.000 HD 
HETATM   26  O   UNL     1     -11.359  10.750  66.923  1.00  0.00    -0.303 OA 
BRANCH  24  27
HETATM   27  C   UNL     1      -9.129  10.476  66.110  1.00  0.00    -0.184 C  
BRANCH  27  28
HETATM   28  C   UNL     1      -7.952   9.658  66.651  1.00  0.00    -0.109 C  
BRANCH  28  29
HETATM   29  C   UNL     1      -7.241  10.388  67.764  1.00  0.00    -0.086 A  
HETATM   30  C   UNL     1      -6.306  11.388  67.467  1.00  0.00    -0.069 A  
HETATM   31  C   UNL     1      -5.613  12.034  68.491  1.00  0.00    -0.052 A  
HETATM   32  C   UNL     1      -5.849  11.686  69.819  1.00  0.00    -0.111 A  
HETATM   33  C   UNL     1      -6.781  10.695  70.124  1.00  0.00    -0.143 A  
HETATM   34  C   UNL     1      -7.474  10.047  69.102  1.00  0.00    -0.092 A  
ENDBRANCH  28  29
ENDBRANCH  27  28
ENDBRANCH  24  27
ENDBRANCH  23  24
ENDBRANCH  20  22
ENDBRANCH  12  13
ENDBRANCH  11  12
ENDBRANCH   9  10
ENDBRANCH   8   9
ENDBRANCH   7   8
ENDBRANCH   4   7
ENDBRANCH   2   3
TORSDOF 12
ENDMDL
MODEL      198
REMARK 921   NORMALIZED FREE ENERGY PREDICTED BY IDOCK:   -4.43 KCAL/MOL
REMARK 922        TOTAL FREE ENERGY PREDICTED BY IDOCK:  -10.37 KCAL/MOL
REMARK 923 INTER-LIGAND FREE ENERGY PREDICTED BY IDOCK:   -7.76 KCAL/MOL
REMARK 924 INTRA-LIGAND FREE ENERGY PREDICTED BY IDOCK:   -2.61 KCAL/MOL
REMARK 927      BINDING AFFINITY PREDICTED BY RF-SCORE:    0.00 PKD
ROOT
HETATM    1  C   UNL     1      -8.528   7.595  74.250  1.00  0.00    -0.282 C  
HETATM    2  C   UNL     1      -7.257   7.969  73.511  1.00  0.00    -0.131 C  
ENDROOT
BRANCH   2   3
HETATM    3  N   UNL     1      -7.506   8.193  72.105  1.00  0.00    -0.096 N  
HETATM    4  C   UNL     1      -6.819   7.490  71.141  1.00  0.00    -0.050 C  
HETATM    5  H   UNL     1      -8.202   8.884  71.822  1.00  0.00     0.000 HD 
HETATM    6  O   UNL     1      -5.963   6.654  71.401  1.00  0.00    -0.035 OA 
BRANCH   4   7
HETATM    7  C   UNL     1      -7.237   7.844  69.727  1.00  0.00    -0.066 C  
BRANCH   7   8
HETATM    8  C   UNL     1      -6.443   9.043  69.202  1.00  0.00    -0.043 C  
BRANCH   8   9
HETATM    9  C   UNL     1      -7.320  10.220  68.779  1.00  0.00    -0.086 C  
BRANCH   9  10
HETATM   10  C   UNL     1      -8.465   9.790  67.908  1.00  0.00    -0.125 C  
HETATM   11  C   UNL     1      -9.034  10.487  66.911  1.00  0.00    -0.151 C  
BRANCH  11  12
HETATM   12  C   UNL     1      -8.673  11.877  66.463  1.00  0.00    -0.158 C  
BRANCH  12  13
HETATM   13  C   UNL     1      -9.686  12.943  66.904  1.00  0.00    -0.240 C  
HETATM   14  C   UNL     1     -10.009  14.009  65.846  1.00  0.00    -0.307 C  
HETATM   15  C   UNL     1     -11.367  14.541  66.285  1.00  0.00    -0.352 C  
HETATM   16  O   UNL     1     -10.149  13.440  64.550  1.00  0.00    -0.601 OA 
HETATM   17  H   UNL     1     -10.350  14.099  63.896  1.00  0.00     0.000 HD 
HETATM   18  C   UNL     1     -12.125  13.281  66.694  1.00  0.00    -0.361 C  
HETATM   19  O   UNL     1     -12.767  12.711  65.551  1.00  0.00    -0.597 OA 
HETATM   20  C   UNL     1     -11.059  12.296  67.226  1.00  0.00    -0.326 C  
HETATM   21  H   UNL     1     -13.239  11.927  65.806  1.00  0.00     0.000 HD 
BRANCH  20  22
HETATM   22  C   UNL     1     -11.227  12.037  68.708  1.00  0.00    -0.316 C  
HETATM   23  C   UNL     1     -11.699  10.881  69.206  1.00  0.00    -0.395 C  
BRANCH  23  24
HETATM   24  C   UNL     1     -11.990  10.559  70.650  1.00  0.00    -0.357 C  
HETATM   25  H   UNL     1     -13.539   9.986  71.720  1.00  0.00     0.000 HD 
HETATM   26  O   UNL     1     -13.357  10.189  70.809  1.00  0.00    -0.361 OA 
BRANCH  24  27
HETATM   27  C   UNL     1     -11.130   9.411  71.194  1.00  0.00    -0.432 C  
BRANCH  27  28
HETATM   28  C   UNL     1     -11.010   8.226  70.230  1.00  0.00    -0.233 C  
BRANCH  28  29
HETATM   29  C   UNL     1     -10.876   6.922  70.976  1.00  0.00    -0.272 A  
HETATM   30  C   UNL     1     -11.479   6.761  72.230  1.00  0.00    -0.314 A  
HETATM   31  C   UNL     1     -11.320   5.573  72.944  1.00  0.00    -0.348 A  
HETATM   32  C   UNL     1     -10.557   4.536  72.410  1.00  0.00    -0.205 A  
HETATM   33  C   UNL     1      -9.957   4.686  71.160  1.00  0.00    -0.265 A  
HETATM   34  C   UNL     1     -10.114   5.873  70.446  1.00  0.00    -0.259 A  
ENDBRANCH  28  29
ENDBRANCH  27  28
ENDBRANCH  24  27
ENDBRANCH  23  24
ENDBRANCH  20  22
ENDBRANCH  12  13
ENDBRANCH  11  12
ENDBRANCH   9  10
ENDBRANCH   8   9
ENDBRANCH   7   8
ENDBRANCH   4   7
ENDBRANCH   2   3
TORSDOF 12
ENDMDL
MODEL      199
REMARK 921   NORMALIZED FREE ENERGY PREDICTED BY IDOCK:   -4.42 KCAL/MOL
REMARK 922        TOTAL FREE ENERGY PREDICTED BY IDOCK:  -10.36 KCAL/MOL
REMARK 923 INTER-LIGAND FREE ENERGY PREDICTED BY IDOCK:   -8.33 KCAL/MOL
REMARK 924 INTRA-LIGAND FREE ENERGY PREDICTED BY IDOCK:   -2.03 KCAL/MOL
REMARK 927      BINDING AFFINITY PREDICTED BY RF-SCORE:    0.00 PKD
ROOT
HETATM    1  C   UNL     1     -11.331  12.282  64.610  1.00  0.00    -0.375 C  
HETATM    2  C   UNL     1     -10.355  12.023  63.478  1.00  0.00    -0.461 C  
ENDROOT
BRANCH   2   3
HETATM    3  N   UNL     1      -9.133  11.417  63.957  1.00  0.00    -0.415 N  
HETATM    4  C   UNL     1      -8.654  10.251  63.402  1.00  0.00    -0.194 C  
HETATM    5  H   UNL     1      -8.618  11.860  64.718  1.00  0.00     0.000 HD 
HETATM    6  O   UNL     1      -9.221   9.656  62.495  1.00  0.00    -0.281 OA 
BRANCH   4   7
HETATM    7  C   UNL     1      -7.349   9.786  64.018  1.00  0.00    -0.128 C  
BRANCH   7   8
HETATM    8  C   UNL     1      -7.575   9.213  65.419  1.00  0.00    -0.097 C  
BRANCH   8   9
HETATM    9  C   UNL     1      -6.470   9.572  66.412  1.00  0.00    -0.070 C  
BRANCH   9  10
HETATM   10  C   UNL     1      -6.258  11.056  66.512  1.00  0.00    -0.133 C  
HETATM   11  C   UNL     1      -6.936  11.923  67.281  1.00  0.00    -0.145 C  
BRANCH  11  12
HETATM   12  C   UNL     1      -8.089  11.608  68.194  1.00  0.00    -0.148 C  
BRANCH  12  13
HETATM   13  C   UNL     1      -9.397  12.303  67.789  1.00  0.00    -0.194 C  
HETATM   14  C   UNL     1     -10.679  11.589  68.240  1.00  0.00    -0.211 C  
HETATM   15  C   UNL     1     -11.721  12.699  68.238  1.00  0.00    -0.389 C  
HETATM   16  O   UNL     1     -10.564  11.085  69.566  1.00  0.00    -0.356 OA 
HETATM   17  H   UNL     1     -11.357  10.643  69.845  1.00  0.00     0.000 HD 
HETATM   18  C   UNL     1     -10.976  13.885  68.845  1.00  0.00    -0.263 C  
HETATM   19  O   UNL     1     -11.084  13.846  70.270  1.00  0.00    -0.468 OA 
HETATM   20  C   UNL     1      -9.494  13.709  68.440  1.00  0.00    -0.190 C  
HETATM   21  H   UNL     1     -10.620  14.584  70.647  1.00  0.00     0.000 HD 
BRANCH  20  22
HETATM   22  C   UNL     1      -9.040  14.801  67.495  1.00  0.00    -0.191 C  
HETATM   23  C   UNL     1      -9.890  15.612  66.842  1.00  0.00    -0.245 C  
BRANCH  23  24
HETATM   24  C   UNL     1      -9.546  16.662  65.816  1.00  0.00    -0.116 C  
HETATM   25  H   UNL     1     -10.466  18.137  64.894  1.00  0.00     0.000 HD 
HETATM   26  O   UNL     1     -10.683  17.476  65.540  1.00  0.00    -0.551 OA 
BRANCH  24  27
HETATM   27  C   UNL     1      -8.408  17.588  66.263  1.00  0.00    -0.259 C  
BRANCH  27  28
HETATM   28  C   UNL     1      -8.893  18.863  66.958  1.00  0.00    -0.306 C  
BRANCH  28  29
HETATM   29  C   UNL     1      -7.799  19.489  67.786  1.00  0.00    -0.323 A  
HETATM   30  C   UNL     1      -7.025  20.532  67.261  1.00  0.00    -0.359 A  
HETATM   31  C   UNL     1      -5.983  21.084  68.006  1.00  0.00    -0.396 A  
HETATM   32  C   UNL     1      -5.706  20.598  69.283  1.00  0.00    -0.408 A  
HETATM   33  C   UNL     1      -6.474  19.564  69.816  1.00  0.00    -0.328 A  
HETATM   34  C   UNL     1      -7.516  19.011  69.072  1.00  0.00    -0.332 A  
ENDBRANCH  28  29
ENDBRANCH  27  28
ENDBRANCH  24  27
ENDBRANCH  23  24
ENDBRANCH  20  22
ENDBRANCH  12  13
ENDBRANCH  11  12
ENDBRANCH   9  10
ENDBRANCH   8   9
ENDBRANCH   7   8
ENDBRANCH   4   7
ENDBRANCH   2   3
TORSDOF 12
ENDMDL
MODEL      200
REMARK 921   NORMALIZED FREE ENERGY PREDICTED BY IDOCK:   -4.42 KCAL/MOL
REMARK 922        TOTAL FREE ENERGY PREDICTED BY IDOCK:  -10.35 KCAL/MOL
REMARK 923 INTER-LIGAND FREE ENERGY PREDICTED BY IDOCK:   -8.84 KCAL/MOL
REMARK 924 INTRA-LIGAND FREE ENERGY PREDICTED BY IDOCK:   -1.52 KCAL/MOL
REMARK 927      BINDING AFFINITY PREDICTED BY RF-SCORE:    0.00 PKD
ROOT
HETATM    1  C   UNL     1     -10.023   2.805  72.240  1.00  0.00    -0.240 C  
HETATM    2  C   UNL     1      -9.724   4.270  72.497  1.00  0.00    -0.147 C  
ENDROOT
BRANCH   2   3
HETATM    3  N   UNL     1     -10.650   5.133  71.798  1.00  0.00    -0.199 N  
HETATM    4  C   UNL     1     -10.395   5.557  70.513  1.00  0.00    -0.272 C  
HETATM    5  H   UNL     1     -11.506   5.433  72.265  1.00  0.00     0.000 HD 
HETATM    6  O   UNL     1      -9.385   5.250  69.892  1.00  0.00    -0.130 OA 
BRANCH   4   7
HETATM    7  C   UNL     1     -11.493   6.431  69.941  1.00  0.00    -0.483 C  
BRANCH   7   8
HETATM    8  C   UNL     1     -11.648   7.721  70.750  1.00  0.00    -0.270 C  
BRANCH   8   9
HETATM    9  C   UNL     1     -10.499   8.709  70.554  1.00  0.00    -0.237 C  
BRANCH   9  10
HETATM   10  C   UNL     1     -10.974  10.133  70.521  1.00  0.00    -0.380 C  
HETATM   11  C   UNL     1     -11.329  10.845  69.439  1.00  0.00    -0.347 C  
BRANCH  11  12
HETATM   12  C   UNL     1     -11.299  10.385  68.007  1.00  0.00    -0.277 C  
BRANCH  12  13
HETATM   13  C   UNL     1     -10.505  11.318  67.082  1.00  0.00    -0.259 C  
HETATM   14  C   UNL     1      -9.486  10.618  66.171  1.00  0.00    -0.179 C  
HETATM   15  C   UNL     1      -9.289  11.611  65.033  1.00  0.00    -0.052 C  
HETATM   16  O   UNL     1     -10.008   9.411  65.626  1.00  0.00    -0.380 OA 
HETATM   17  H   UNL     1      -9.378   8.978  65.063  1.00  0.00     0.000 HD 
HETATM   18  C   UNL     1     -10.704  12.108  64.748  1.00  0.00    -0.301 C  
HETATM   19  O   UNL     1     -11.344  11.234  63.816  1.00  0.00    -0.531 OA 
HETATM   20  C   UNL     1     -11.454  12.054  66.099  1.00  0.00    -0.401 C  
HETATM   21  H   UNL     1     -12.225  11.544  63.639  1.00  0.00     0.000 HD 
BRANCH  20  22
HETATM   22  C   UNL     1     -11.816  13.438  66.592  1.00  0.00    -0.443 C  
HETATM   23  C   UNL     1     -11.220  14.025  67.645  1.00  0.00    -0.317 C  
BRANCH  23  24
HETATM   24  C   UNL     1     -11.568  15.353  68.269  1.00  0.00    -0.348 C  
HETATM   25  H   UNL     1     -11.307  16.248  70.002  1.00  0.00     0.000 HD 
HETATM   26  O   UNL     1     -11.087  15.412  69.609  1.00  0.00    -0.238 OA 
BRANCH  24  27
HETATM   27  C   UNL     1     -10.977  16.547  67.509  1.00  0.00    -0.166 C  
BRANCH  27  28
HETATM   28  C   UNL     1      -9.572  16.286  66.957  1.00  0.00    -0.240 C  
BRANCH  28  29
HETATM   29  C   UNL     1      -8.853  17.577  66.651  1.00  0.00    -0.284 A  
HETATM   30  C   UNL     1      -7.510  17.558  66.254  1.00  0.00    -0.355 A  
HETATM   31  C   UNL     1      -6.827  18.751  66.013  1.00  0.00    -0.289 A  
HETATM   32  C   UNL     1      -7.482  19.972  66.168  1.00  0.00    -0.324 A  
HETATM   33  C   UNL     1      -8.819  19.999  66.559  1.00  0.00    -0.414 A  
HETATM   34  C   UNL     1      -9.503  18.808  66.801  1.00  0.00    -0.335 A  
ENDBRANCH  28  29
ENDBRANCH  27  28
ENDBRANCH  24  27
ENDBRANCH  23  24
ENDBRANCH  20  22
ENDBRANCH  12  13
ENDBRANCH  11  12
ENDBRANCH   9  10
ENDBRANCH   8   9
ENDBRANCH   7   8
ENDBRANCH   4   7
ENDBRANCH   2   3
TORSDOF 12
ENDMDL
MODEL      201
REMARK 921   NORMALIZED FREE ENERGY PREDICTED BY IDOCK:   -4.42 KCAL/MOL
REMARK 922        TOTAL FREE ENERGY PREDICTED BY IDOCK:  -10.35 KCAL/MOL
REMARK 923 INTER-LIGAND FREE ENERGY PREDICTED BY IDOCK:   -8.47 KCAL/MOL
REMARK 924 INTRA-LIGAND FREE ENERGY PREDICTED BY IDOCK:   -1.88 KCAL/MOL
REMARK 927      BINDING AFFINITY PREDICTED BY RF-SCORE:    0.00 PKD
ROOT
HETATM    1  C   UNL     1      -6.362   8.013  68.508  1.00  0.00    -0.053 C  
HETATM    2  C   UNL     1      -6.417   9.020  67.374  1.00  0.00    -0.064 C  
ENDROOT
BRANCH   2   3
HETATM    3  N   UNL     1      -7.655   8.923  66.636  1.00  0.00    -0.089 N  
HETATM    4  C   UNL     1      -7.862   9.666  65.495  1.00  0.00    -0.111 C  
HETATM    5  H   UNL     1      -8.388   8.295  66.965  1.00  0.00     0.000 HD 
HETATM    6  O   UNL     1      -7.035  10.448  65.043  1.00  0.00    -0.128 OA 
BRANCH   4   7
HETATM    7  C   UNL     1      -9.208   9.408  64.847  1.00  0.00    -0.246 C  
BRANCH   7   8
HETATM    8  C   UNL     1     -10.247  10.431  65.312  1.00  0.00    -0.332 C  
BRANCH   8   9
HETATM    9  C   UNL     1     -10.094  11.802  64.655  1.00  0.00    -0.310 C  
BRANCH   9  10
HETATM   10  C   UNL     1     -11.228  12.113  63.720  1.00  0.00    -0.509 C  
HETATM   11  C   UNL     1     -12.162  13.067  63.867  1.00  0.00    -0.511 C  
BRANCH  11  12
HETATM   12  C   UNL     1     -12.304  14.021  65.021  1.00  0.00    -0.458 C  
BRANCH  12  13
HETATM   13  C   UNL     1     -10.963  14.415  65.656  1.00  0.00    -0.314 C  
HETATM   14  C   UNL     1     -10.173  15.489  64.894  1.00  0.00    -0.074 C  
HETATM   15  C   UNL     1      -9.259  16.078  65.960  1.00  0.00    -0.375 C  
HETATM   16  O   UNL     1     -11.022  16.524  64.411  1.00  0.00    -1.082 OA 
HETATM   17  H   UNL     1     -10.534  17.188  63.939  1.00  0.00     0.000 HD 
HETATM   18  C   UNL     1     -10.166  16.188  67.182  1.00  0.00    -0.281 C  
HETATM   19  O   UNL     1     -10.863  17.436  67.155  1.00  0.00    -0.238 OA 
HETATM   20  C   UNL     1     -11.183  15.030  67.064  1.00  0.00    -0.328 C  
HETATM   21  H   UNL     1     -11.428  17.504  67.916  1.00  0.00     0.000 HD 
BRANCH  20  22
HETATM   22  C   UNL     1     -10.994  14.007  68.163  1.00  0.00    -0.268 C  
HETATM   23  C   UNL     1     -11.272  12.700  68.011  1.00  0.00    -0.308 C  
BRANCH  23  24
HETATM   24  C   UNL     1     -11.206  11.623  69.063  1.00  0.00    -0.262 C  
HETATM   25  H   UNL     1     -12.331  10.127  69.672  1.00  0.00     0.000 HD 
HETATM   26  O   UNL     1     -12.373  10.806  69.009  1.00  0.00    -0.422 OA 
BRANCH  24  27
HETATM   27  C   UNL     1      -9.987  10.705  68.908  1.00  0.00    -0.213 C  
BRANCH  27  28
HETATM   28  C   UNL     1      -9.609   9.966  70.195  1.00  0.00    -0.237 C  
BRANCH  28  29
HETATM   29  C   UNL     1      -9.808   8.478  70.054  1.00  0.00    -0.181 A  
HETATM   30  C   UNL     1     -10.703   7.972  69.101  1.00  0.00    -0.121 A  
HETATM   31  C   UNL     1     -10.923   6.599  68.997  1.00  0.00    -0.332 A  
HETATM   32  C   UNL     1     -10.252   5.719  69.844  1.00  0.00    -0.302 A  
HETATM   33  C   UNL     1      -9.357   6.212  70.792  1.00  0.00    -0.170 A  
HETATM   34  C   UNL     1      -9.135   7.585  70.898  1.00  0.00    -0.153 A  
ENDBRANCH  28  29
ENDBRANCH  27  28
ENDBRANCH  24  27
ENDBRANCH  23  24
ENDBRANCH  20  22
ENDBRANCH  12  13
ENDBRANCH  11  12
ENDBRANCH   9  10
ENDBRANCH   8   9
ENDBRANCH   7   8
ENDBRANCH   4   7
ENDBRANCH   2   3
TORSDOF 12
ENDMDL
MODEL      202
REMARK 921   NORMALIZED FREE ENERGY PREDICTED BY IDOCK:   -4.40 KCAL/MOL
REMARK 922        TOTAL FREE ENERGY PREDICTED BY IDOCK:  -10.32 KCAL/MOL
REMARK 923 INTER-LIGAND FREE ENERGY PREDICTED BY IDOCK:   -8.22 KCAL/MOL
REMARK 924 INTRA-LIGAND FREE ENERGY PREDICTED BY IDOCK:   -2.10 KCAL/MOL
REMARK 927      BINDING AFFINITY PREDICTED BY RF-SCORE:    0.00 PKD
ROOT
HETATM    1  C   UNL     1     -12.342  15.699  70.121  1.00  0.00    -0.366 C  
HETATM    2  C   UNL     1     -13.164  14.804  71.029  1.00  0.00    -0.380 C  
ENDROOT
BRANCH   2   3
HETATM    3  N   UNL     1     -12.647  13.454  71.055  1.00  0.00    -0.361 N  
HETATM    4  C   UNL     1     -13.265  12.471  71.795  1.00  0.00    -0.344 C  
HETATM    5  H   UNL     1     -11.811  13.226  70.516  1.00  0.00     0.000 HD 
HETATM    6  O   UNL     1     -14.264  12.669  72.475  1.00  0.00    -0.313 OA 
BRANCH   4   7
HETATM    7  C   UNL     1     -12.593  11.118  71.675  1.00  0.00    -0.386 C  
BRANCH   7   8
HETATM    8  C   UNL     1     -13.528  10.095  71.024  1.00  0.00    -0.220 C  
BRANCH   8   9
HETATM    9  C   UNL     1     -14.053   9.040  71.998  1.00  0.00    -0.434 C  
BRANCH   9  10
HETATM   10  C   UNL     1     -13.820   7.642  71.499  1.00  0.00    -0.466 C  
HETATM   11  C   UNL     1     -12.734   6.879  71.701  1.00  0.00    -0.396 C  
BRANCH  11  12
HETATM   12  C   UNL     1     -11.487   7.264  72.447  1.00  0.00    -0.327 C  
BRANCH  12  13
HETATM   13  C   UNL     1     -10.195   6.806  71.755  1.00  0.00    -0.206 C  
HETATM   14  C   UNL     1      -9.085   6.326  72.702  1.00  0.00    -0.136 C  
HETATM   15  C   UNL     1      -8.222   5.440  71.813  1.00  0.00    -0.119 C  
HETATM   16  O   UNL     1      -9.604   5.528  73.760  1.00  0.00    -0.137 OA 
HETATM   17  H   UNL     1      -8.918   5.231  74.346  1.00  0.00     0.000 HD 
HETATM   18  C   UNL     1      -9.245   4.654  70.997  1.00  0.00    -0.138 C  
HETATM   19  O   UNL     1      -9.635   3.480  71.713  1.00  0.00    -0.132 OA 
HETATM   20  C   UNL     1     -10.468   5.585  70.836  1.00  0.00    -0.319 C  
HETATM   21  H   UNL     1     -10.272   2.991  71.204  1.00  0.00     0.000 HD 
BRANCH  20  22
HETATM   22  C   UNL     1     -10.671   5.998  69.394  1.00  0.00    -0.403 C  
HETATM   23  C   UNL     1      -9.953   5.496  68.375  1.00  0.00    -0.210 C  
BRANCH  23  24
HETATM   24  C   UNL     1     -10.012   5.905  66.926  1.00  0.00    -0.171 C  
HETATM   25  H   UNL     1     -10.828   5.230  65.266  1.00  0.00     0.000 HD 
HETATM   26  O   UNL     1     -10.790   4.972  66.179  1.00  0.00    -0.294 OA 
BRANCH  24  27
HETATM   27  C   UNL     1     -10.627   7.295  66.718  1.00  0.00    -0.288 C  
BRANCH  27  28
HETATM   28  C   UNL     1      -9.607   8.360  66.307  1.00  0.00    -0.286 C  
BRANCH  28  29
HETATM   29  C   UNL     1      -9.826   9.650  67.058  1.00  0.00    -0.249 A  
HETATM   30  C   UNL     1      -8.813  10.616  67.111  1.00  0.00    -0.139 A  
HETATM   31  C   UNL     1      -8.994  11.792  67.840  1.00  0.00    -0.180 A  
HETATM   32  C   UNL     1     -10.189  12.010  68.523  1.00  0.00    -0.218 A  
HETATM   33  C   UNL     1     -11.204  11.057  68.473  1.00  0.00    -0.329 A  
HETATM   34  C   UNL     1     -11.025   9.881  67.745  1.00  0.00    -0.278 A  
ENDBRANCH  28  29
ENDBRANCH  27  28
ENDBRANCH  24  27
ENDBRANCH  23  24
ENDBRANCH  20  22
ENDBRANCH  12  13
ENDBRANCH  11  12
ENDBRANCH   9  10
ENDBRANCH   8   9
ENDBRANCH   7   8
ENDBRANCH   4   7
ENDBRANCH   2   3
TORSDOF 12
ENDMDL
MODEL      203
REMARK 921   NORMALIZED FREE ENERGY PREDICTED BY IDOCK:   -4.40 KCAL/MOL
REMARK 922        TOTAL FREE ENERGY PREDICTED BY IDOCK:  -10.32 KCAL/MOL
REMARK 923 INTER-LIGAND FREE ENERGY PREDICTED BY IDOCK:   -8.61 KCAL/MOL
REMARK 924 INTRA-LIGAND FREE ENERGY PREDICTED BY IDOCK:   -1.71 KCAL/MOL
REMARK 927      BINDING AFFINITY PREDICTED BY RF-SCORE:    0.00 PKD
ROOT
HETATM    1  C   UNL     1     -10.470   1.968  62.428  1.00  0.00    -0.105 C  
HETATM    2  C   UNL     1     -10.681   3.469  62.495  1.00  0.00    -0.175 C  
ENDROOT
BRANCH   2   3
HETATM    3  N   UNL     1     -10.204   4.018  63.744  1.00  0.00    -0.331 N  
HETATM    4  C   UNL     1      -8.873   4.321  63.925  1.00  0.00    -0.135 C  
HETATM    5  H   UNL     1     -10.864   4.184  64.504  1.00  0.00     0.000 HD 
HETATM    6  O   UNL     1      -8.020   4.141  63.065  1.00  0.00    -0.072 OA 
BRANCH   4   7
HETATM    7  C   UNL     1      -8.572   4.911  65.288  1.00  0.00    -0.142 C  
BRANCH   7   8
HETATM    8  C   UNL     1      -9.841   5.463  65.942  1.00  0.00    -0.072 C  
BRANCH   8   9
HETATM    9  C   UNL     1      -9.630   6.796  66.660  1.00  0.00    -0.211 C  
BRANCH   9  10
HETATM   10  C   UNL     1      -8.838   6.638  67.927  1.00  0.00    -0.115 C  
HETATM   11  C   UNL     1      -9.298   6.255  69.129  1.00  0.00    -0.133 C  
BRANCH  11  12
HETATM   12  C   UNL     1     -10.721   5.927  69.487  1.00  0.00    -0.414 C  
BRANCH  12  13
HETATM   13  C   UNL     1     -11.360   6.944  70.444  1.00  0.00    -0.376 C  
HETATM   14  C   UNL     1     -11.473   6.481  71.904  1.00  0.00    -0.301 C  
HETATM   15  C   UNL     1     -11.573   7.787  72.681  1.00  0.00    -0.398 C  
HETATM   16  O   UNL     1     -10.301   5.795  72.331  1.00  0.00    -0.189 OA 
HETATM   17  H   UNL     1     -10.371   5.509  73.234  1.00  0.00     0.000 HD 
HETATM   18  C   UNL     1     -10.547   8.686  71.998  1.00  0.00    -0.351 C  
HETATM   19  O   UNL     1      -9.260   8.485  72.588  1.00  0.00    -0.258 OA 
HETATM   20  C   UNL     1     -10.506   8.238  70.518  1.00  0.00    -0.225 C  
HETATM   21  H   UNL     1      -8.621   9.045  72.162  1.00  0.00     0.000 HD 
BRANCH  20  22
HETATM   22  C   UNL     1     -11.033   9.316  69.595  1.00  0.00    -0.192 C  
HETATM   23  C   UNL     1     -10.276  10.325  69.130  1.00  0.00    -0.234 C  
BRANCH  23  24
HETATM   24  C   UNL     1     -10.723  11.490  68.286  1.00  0.00    -0.211 C  
HETATM   25  H   UNL     1     -12.401  12.131  67.480  1.00  0.00     0.000 HD 
HETATM   26  O   UNL     1     -12.119  11.396  68.012  1.00  0.00    -0.629 OA 
BRANCH  24  27
HETATM   27  C   UNL     1     -10.471  12.848  68.955  1.00  0.00    -0.109 C  
BRANCH  27  28
HETATM   28  C   UNL     1     -11.690  13.775  68.937  1.00  0.00    -0.374 C  
BRANCH  28  29
HETATM   29  C   UNL     1     -12.132  14.129  70.335  1.00  0.00    -0.417 A  
HETATM   30  C   UNL     1     -11.814  15.380  70.880  1.00  0.00    -0.400 A  
HETATM   31  C   UNL     1     -12.182  15.696  72.188  1.00  0.00    -0.528 A  
HETATM   32  C   UNL     1     -12.870  14.764  72.962  1.00  0.00    -0.583 A  
HETATM   33  C   UNL     1     -13.194  13.518  72.428  1.00  0.00    -0.577 A  
HETATM   34  C   UNL     1     -12.827  13.200  71.120  1.00  0.00    -0.349 A  
ENDBRANCH  28  29
ENDBRANCH  27  28
ENDBRANCH  24  27
ENDBRANCH  23  24
ENDBRANCH  20  22
ENDBRANCH  12  13
ENDBRANCH  11  12
ENDBRANCH   9  10
ENDBRANCH   8   9
ENDBRANCH   7   8
ENDBRANCH   4   7
ENDBRANCH   2   3
TORSDOF 12
ENDMDL
MODEL      204
REMARK 921   NORMALIZED FREE ENERGY PREDICTED BY IDOCK:   -4.37 KCAL/MOL
REMARK 922        TOTAL FREE ENERGY PREDICTED BY IDOCK:  -10.27 KCAL/MOL
REMARK 923 INTER-LIGAND FREE ENERGY PREDICTED BY IDOCK:   -8.35 KCAL/MOL
REMARK 924 INTRA-LIGAND FREE ENERGY PREDICTED BY IDOCK:   -1.92 KCAL/MOL
REMARK 927      BINDING AFFINITY PREDICTED BY RF-SCORE:    0.00 PKD
ROOT
HETATM    1  C   UNL     1     -10.220   8.560  72.631  1.00  0.00    -0.237 C  
HETATM    2  C   UNL     1     -11.462   8.373  71.778  1.00  0.00    -0.301 C  
ENDROOT
BRANCH   2   3
HETATM    3  N   UNL     1     -11.150   8.419  70.368  1.00  0.00    -0.253 N  
HETATM    4  C   UNL     1     -10.629   7.321  69.720  1.00  0.00    -0.235 C  
HETATM    5  H   UNL     1     -11.318   9.278  69.844  1.00  0.00     0.000 HD 
HETATM    6  O   UNL     1     -10.390   6.260  70.282  1.00  0.00    -0.188 OA 
BRANCH   4   7
HETATM    7  C   UNL     1     -10.395   7.553  68.240  1.00  0.00    -0.233 C  
BRANCH   7   8
HETATM    8  C   UNL     1      -8.968   7.164  67.842  1.00  0.00    -0.122 C  
BRANCH   8   9
HETATM    9  C   UNL     1      -8.663   7.393  66.362  1.00  0.00    -0.154 C  
BRANCH   9  10
HETATM   10  C   UNL     1      -7.943   8.690  66.125  1.00  0.00    -0.106 C  
HETATM   11  C   UNL     1      -8.492   9.884  65.848  1.00  0.00    -0.137 C  
BRANCH  11  12
HETATM   12  C   UNL     1      -9.955  10.187  65.679  1.00  0.00    -0.348 C  
BRANCH  12  13
HETATM   13  C   UNL     1     -10.251  11.679  65.475  1.00  0.00    -0.302 C  
HETATM   14  C   UNL     1     -10.380  12.122  64.010  1.00  0.00    -0.385 C  
HETATM   15  C   UNL     1     -11.199  13.403  64.099  1.00  0.00    -0.379 C  
HETATM   16  O   UNL     1     -11.111  11.176  63.236  1.00  0.00    -0.771 OA 
HETATM   17  H   UNL     1     -11.191  11.450  62.330  1.00  0.00     0.000 HD 
HETATM   18  C   UNL     1     -12.267  13.068  65.136  1.00  0.00    -0.459 C  
HETATM   19  O   UNL     1     -13.386  12.450  64.496  1.00  0.00    -0.800 OA 
HETATM   20  C   UNL     1     -11.615  12.061  66.111  1.00  0.00    -0.371 C  
HETATM   21  H   UNL     1     -14.051  12.242  65.143  1.00  0.00     0.000 HD 
BRANCH  20  22
HETATM   22  C   UNL     1     -11.447  12.651  67.494  1.00  0.00    -0.397 C  
HETATM   23  C   UNL     1     -12.364  13.443  68.075  1.00  0.00     0.061 C  
BRANCH  23  24
HETATM   24  C   UNL     1     -12.253  14.151  69.401  1.00  0.00    -0.287 C  
HETATM   25  H   UNL     1     -12.221  13.655  71.306  1.00  0.00     0.000 HD 
HETATM   26  O   UNL     1     -12.291  13.209  70.470  1.00  0.00    -0.344 OA 
BRANCH  24  27
HETATM   27  C   UNL     1     -10.959  14.963  69.542  1.00  0.00    -0.289 C  
BRANCH  27  28
HETATM   28  C   UNL     1     -10.627  15.804  68.306  1.00  0.00    -0.271 C  
BRANCH  28  29
HETATM   29  C   UNL     1      -9.154  15.753  67.985  1.00  0.00    -0.187 A  
HETATM   30  C   UNL     1      -8.460  16.926  67.664  1.00  0.00    -0.206 A  
HETATM   31  C   UNL     1      -7.108  16.878  67.323  1.00  0.00    -0.197 A  
HETATM   32  C   UNL     1      -6.439  15.656  67.299  1.00  0.00    -0.093 A  
HETATM   33  C   UNL     1      -7.120  14.483  67.622  1.00  0.00    -0.202 A  
HETATM   34  C   UNL     1      -8.472  14.529  67.963  1.00  0.00    -0.161 A  
ENDBRANCH  28  29
ENDBRANCH  27  28
ENDBRANCH  24  27
ENDBRANCH  23  24
ENDBRANCH  20  22
ENDBRANCH  12  13
ENDBRANCH  11  12
ENDBRANCH   9  10
ENDBRANCH   8   9
ENDBRANCH   7   8
ENDBRANCH   4   7
ENDBRANCH   2   3
TORSDOF 12
ENDMDL
MODEL      205
REMARK 921   NORMALIZED FREE ENERGY PREDICTED BY IDOCK:   -4.35 KCAL/MOL
REMARK 922        TOTAL FREE ENERGY PREDICTED BY IDOCK:  -10.24 KCAL/MOL
REMARK 923 INTER-LIGAND FREE ENERGY PREDICTED BY IDOCK:   -8.43 KCAL/MOL
REMARK 924 INTRA-LIGAND FREE ENERGY PREDICTED BY IDOCK:   -1.81 KCAL/MOL
REMARK 927      BINDING AFFINITY PREDICTED BY RF-SCORE:    0.00 PKD
ROOT
HETATM    1  C   UNL     1      -9.778   2.368  62.700  1.00  0.00    -0.088 C  
HETATM    2  C   UNL     1     -10.622   3.362  63.476  1.00  0.00    -0.260 C  
ENDROOT
BRANCH   2   3
HETATM    3  N   UNL     1     -10.373   3.276  64.897  1.00  0.00    -0.393 N  
HETATM    4  C   UNL     1      -9.461   4.107  65.510  1.00  0.00    -0.176 C  
HETATM    5  H   UNL     1     -10.880   2.589  65.456  1.00  0.00     0.000 HD 
HETATM    6  O   UNL     1      -8.806   4.947  64.906  1.00  0.00    -0.150 OA 
BRANCH   4   7
HETATM    7  C   UNL     1      -9.357   3.885  67.005  1.00  0.00    -0.212 C  
BRANCH   7   8
HETATM    8  C   UNL     1      -9.158   5.211  67.746  1.00  0.00    -0.119 C  
BRANCH   8   9
HETATM    9  C   UNL     1     -10.464   5.854  68.209  1.00  0.00    -0.293 C  
BRANCH   9  10
HETATM   10  C   UNL     1     -11.078   6.720  67.146  1.00  0.00    -0.404 C  
HETATM   11  C   UNL     1     -10.647   7.921  66.728  1.00  0.00    -0.234 C  
BRANCH  11  12
HETATM   12  C   UNL     1      -9.466   8.689  67.255  1.00  0.00    -0.198 C  
BRANCH  12  13
HETATM   13  C   UNL     1      -8.770   9.547  66.189  1.00  0.00    -0.162 C  
HETATM   14  C   UNL     1      -7.478   8.948  65.613  1.00  0.00    -0.086 C  
HETATM   15  C   UNL     1      -7.333   9.648  64.269  1.00  0.00    -0.122 C  
HETATM   16  O   UNL     1      -7.605   7.550  65.379  1.00  0.00    -0.084 OA 
HETATM   17  H   UNL     1      -6.806   7.179  65.023  1.00  0.00     0.000 HD 
HETATM   18  C   UNL     1      -8.757   9.659  63.720  1.00  0.00    -0.223 C  
HETATM   19  O   UNL     1      -9.011   8.445  63.010  1.00  0.00    -0.363 OA 
HETATM   20  C   UNL     1      -9.688   9.735  64.952  1.00  0.00    -0.262 C  
HETATM   21  H   UNL     1      -9.897   8.452  62.669  1.00  0.00     0.000 HD 
BRANCH  20  22
HETATM   22  C   UNL     1     -10.441  11.047  65.002  1.00  0.00    -0.344 C  
HETATM   23  C   UNL     1     -10.865  11.698  63.905  1.00  0.00    -0.471 C  
BRANCH  23  24
HETATM   24  C   UNL     1     -11.537  13.046  63.843  1.00  0.00    -0.449 C  
HETATM   25  H   UNL     1     -13.268  13.823  64.367  1.00  0.00     0.000 HD 
HETATM   26  O   UNL     1     -12.844  12.973  64.406  1.00  0.00    -0.679 OA 
BRANCH  24  27
HETATM   27  C   UNL     1     -10.765  14.137  64.597  1.00  0.00    -0.408 C  
BRANCH  27  28
HETATM   28  C   UNL     1     -11.309  14.412  66.002  1.00  0.00    -0.335 C  
BRANCH  28  29
HETATM   29  C   UNL     1     -10.541  15.517  66.682  1.00  0.00    -0.307 A  
HETATM   30  C   UNL     1     -11.023  16.084  67.869  1.00  0.00    -0.327 A  
HETATM   31  C   UNL     1     -10.340  17.137  68.479  1.00  0.00    -0.364 A  
HETATM   32  C   UNL     1      -9.170  17.632  67.906  1.00  0.00    -0.267 A  
HETATM   33  C   UNL     1      -8.681  17.072  66.727  1.00  0.00    -0.272 A  
HETATM   34  C   UNL     1      -9.362  16.020  66.116  1.00  0.00    -0.377 A  
ENDBRANCH  28  29
ENDBRANCH  27  28
ENDBRANCH  24  27
ENDBRANCH  23  24
ENDBRANCH  20  22
ENDBRANCH  12  13
ENDBRANCH  11  12
ENDBRANCH   9  10
ENDBRANCH   8   9
ENDBRANCH   7   8
ENDBRANCH   4   7
ENDBRANCH   2   3
TORSDOF 12
ENDMDL
MODEL      206
REMARK 921   NORMALIZED FREE ENERGY PREDICTED BY IDOCK:   -4.35 KCAL/MOL
REMARK 922        TOTAL FREE ENERGY PREDICTED BY IDOCK:  -10.23 KCAL/MOL
REMARK 923 INTER-LIGAND FREE ENERGY PREDICTED BY IDOCK:   -7.83 KCAL/MOL
REMARK 924 INTRA-LIGAND FREE ENERGY PREDICTED BY IDOCK:   -2.40 KCAL/MOL
REMARK 927      BINDING AFFINITY PREDICTED BY RF-SCORE:    0.00 PKD
ROOT
HETATM    1  C   UNL     1     -14.406   7.994  71.769  1.00  0.00    -0.583 C  
HETATM    2  C   UNL     1     -13.682   9.318  71.925  1.00  0.00    -0.398 C  
ENDROOT
BRANCH   2   3
HETATM    3  N   UNL     1     -13.114   9.764  70.672  1.00  0.00    -0.586 N  
HETATM    4  C   UNL     1     -12.594  11.032  70.540  1.00  0.00    -0.304 C  
HETATM    5  H   UNL     1     -13.100   9.130  69.873  1.00  0.00     0.000 HD 
HETATM    6  O   UNL     1     -12.585  11.853  71.449  1.00  0.00    -0.326 OA 
BRANCH   4   7
HETATM    7  C   UNL     1     -12.021  11.306  69.164  1.00  0.00    -0.405 C  
BRANCH   7   8
HETATM    8  C   UNL     1     -10.491  11.254  69.183  1.00  0.00    -0.191 C  
BRANCH   8   9
HETATM    9  C   UNL     1      -9.929   9.840  69.329  1.00  0.00    -0.201 C  
BRANCH   9  10
HETATM   10  C   UNL     1      -8.459   9.843  69.637  1.00  0.00    -0.198 C  
HETATM   11  C   UNL     1      -7.705   8.795  70.005  1.00  0.00    -0.082 C  
BRANCH  11  12
HETATM   12  C   UNL     1      -8.170   7.382  70.226  1.00  0.00    -0.132 C  
BRANCH  12  13
HETATM   13  C   UNL     1      -7.631   6.392  69.184  1.00  0.00    -0.100 C  
HETATM   14  C   UNL     1      -7.608   4.923  69.634  1.00  0.00    -0.056 C  
HETATM   15  C   UNL     1      -7.601   4.152  68.321  1.00  0.00    -0.067 C  
HETATM   16  O   UNL     1      -8.785   4.574  70.352  1.00  0.00    -0.080 OA 
HETATM   17  H   UNL     1      -8.771   3.666  70.630  1.00  0.00     0.000 HD 
HETATM   18  C   UNL     1      -8.603   4.914  67.458  1.00  0.00    -0.104 C  
HETATM   19  O   UNL     1      -9.921   4.414  67.693  1.00  0.00    -0.141 OA 
HETATM   20  C   UNL     1      -8.525   6.389  67.916  1.00  0.00    -0.118 C  
HETATM   21  H   UNL     1     -10.545   4.889  67.156  1.00  0.00     0.000 HD 
BRANCH  20  22
HETATM   22  C   UNL     1      -7.967   7.282  66.829  1.00  0.00    -0.118 C  
HETATM   23  C   UNL     1      -8.695   8.220  66.198  1.00  0.00    -0.174 C  
BRANCH  23  24
HETATM   24  C   UNL     1      -8.263   9.092  65.048  1.00  0.00    -0.149 C  
HETATM   25  H   UNL     1      -7.518   8.841  63.243  1.00  0.00     0.000 HD 
HETATM   26  O   UNL     1      -7.791   8.291  63.968  1.00  0.00    -0.132 OA 
BRANCH  24  27
HETATM   27  C   UNL     1      -9.392   9.980  64.509  1.00  0.00    -0.345 C  
BRANCH  27  28
HETATM   28  C   UNL     1     -10.328  10.509  65.600  1.00  0.00    -0.274 C  
BRANCH  28  29
HETATM   29  C   UNL     1     -10.970  11.811  65.190  1.00  0.00    -0.351 A  
HETATM   30  C   UNL     1     -11.596  11.927  63.942  1.00  0.00    -0.515 A  
HETATM   31  C   UNL     1     -12.153  13.142  63.540  1.00  0.00    -0.585 A  
HETATM   32  C   UNL     1     -12.086  14.250  64.381  1.00  0.00    -0.490 A  
HETATM   33  C   UNL     1     -11.469  14.144  65.626  1.00  0.00    -0.325 A  
HETATM   34  C   UNL     1     -10.912  12.930  66.030  1.00  0.00    -0.301 A  
ENDBRANCH  28  29
ENDBRANCH  27  28
ENDBRANCH  24  27
ENDBRANCH  23  24
ENDBRANCH  20  22
ENDBRANCH  12  13
ENDBRANCH  11  12
ENDBRANCH   9  10
ENDBRANCH   8   9
ENDBRANCH   7   8
ENDBRANCH   4   7
ENDBRANCH   2   3
TORSDOF 12
ENDMDL
MODEL      207
REMARK 921   NORMALIZED FREE ENERGY PREDICTED BY IDOCK:   -4.34 KCAL/MOL
REMARK 922        TOTAL FREE ENERGY PREDICTED BY IDOCK:  -10.22 KCAL/MOL
REMARK 923 INTER-LIGAND FREE ENERGY PREDICTED BY IDOCK:   -7.45 KCAL/MOL
REMARK 924 INTRA-LIGAND FREE ENERGY PREDICTED BY IDOCK:   -2.78 KCAL/MOL
REMARK 927      BINDING AFFINITY PREDICTED BY RF-SCORE:    0.00 PKD
ROOT
HETATM    1  C   UNL     1     -12.353  14.045  70.616  1.00  0.00    -0.446 C  
HETATM    2  C   UNL     1     -11.675  15.093  69.755  1.00  0.00    -0.319 C  
ENDROOT
BRANCH   2   3
HETATM    3  N   UNL     1     -10.702  14.502  68.864  1.00  0.00    -0.249 N  
HETATM    4  C   UNL     1     -11.015  14.229  67.551  1.00  0.00    -0.289 C  
HETATM    5  H   UNL     1      -9.769  14.284  69.213  1.00  0.00     0.000 HD 
HETATM    6  O   UNL     1     -12.115  14.452  67.062  1.00  0.00    -0.418 OA 
BRANCH   4   7
HETATM    7  C   UNL     1      -9.859  13.637  66.770  1.00  0.00    -0.271 C  
BRANCH   7   8
HETATM    8  C   UNL     1      -8.785  13.084  67.709  1.00  0.00    -0.188 C  
BRANCH   8   9
HETATM    9  C   UNL     1      -8.626  11.566  67.631  1.00  0.00    -0.135 C  
BRANCH   9  10
HETATM   10  C   UNL     1      -9.839  10.898  67.050  1.00  0.00    -0.214 C  
HETATM   11  C   UNL     1     -10.937  10.494  67.708  1.00  0.00    -0.372 C  
BRANCH  11  12
HETATM   12  C   UNL     1     -11.188  10.589  69.188  1.00  0.00    -0.314 C  
BRANCH  12  13
HETATM   13  C   UNL     1     -10.641   9.392  69.979  1.00  0.00    -0.267 C  
HETATM   14  C   UNL     1     -10.951   9.409  71.483  1.00  0.00    -0.359 C  
HETATM   15  C   UNL     1     -10.833   7.946  71.885  1.00  0.00    -0.295 C  
HETATM   16  O   UNL     1     -12.283   9.839  71.741  1.00  0.00    -0.382 OA 
HETATM   17  H   UNL     1     -12.475   9.850  72.672  1.00  0.00     0.000 HD 
HETATM   18  C   UNL     1     -11.514   7.207  70.736  1.00  0.00    -0.305 C  
HETATM   19  O   UNL     1     -12.919   7.116  70.986  1.00  0.00    -0.541 OA 
HETATM   20  C   UNL     1     -11.273   8.067  69.474  1.00  0.00     0.140 C  
HETATM   21  H   UNL     1     -13.343   6.656  70.271  1.00  0.00     0.000 HD 
BRANCH  20  22
HETATM   22  C   UNL     1     -10.381   7.359  68.478  1.00  0.00    -0.221 C  
HETATM   23  C   UNL     1     -10.830   6.436  67.610  1.00  0.00    -0.425 C  
BRANCH  23  24
HETATM   24  C   UNL     1     -10.014   5.612  66.648  1.00  0.00    -0.181 C  
HETATM   25  H   UNL     1      -8.275   5.755  65.737  1.00  0.00     0.000 HD 
HETATM   26  O   UNL     1      -8.789   6.274  66.344  1.00  0.00    -0.133 OA 
BRANCH  24  27
HETATM   27  C   UNL     1      -9.667   4.220  67.192  1.00  0.00    -0.232 C  
BRANCH  27  28
HETATM   28  C   UNL     1      -8.368   4.185  68.002  1.00  0.00    -0.098 C  
BRANCH  28  29
HETATM   29  C   UNL     1      -8.629   4.408  69.470  1.00  0.00    -0.104 A  
HETATM   30  C   UNL     1      -7.826   5.291  70.204  1.00  0.00    -0.080 A  
HETATM   31  C   UNL     1      -8.035   5.466  71.572  1.00  0.00    -0.115 A  
HETATM   32  C   UNL     1      -9.048   4.761  72.218  1.00  0.00    -0.144 A  
HETATM   33  C   UNL     1      -9.856   3.884  71.496  1.00  0.00    -0.247 A  
HETATM   34  C   UNL     1      -9.648   3.707  70.128  1.00  0.00    -0.242 A  
ENDBRANCH  28  29
ENDBRANCH  27  28
ENDBRANCH  24  27
ENDBRANCH  23  24
ENDBRANCH  20  22
ENDBRANCH  12  13
ENDBRANCH  11  12
ENDBRANCH   9  10
ENDBRANCH   8   9
ENDBRANCH   7   8
ENDBRANCH   4   7
ENDBRANCH   2   3
TORSDOF 12
ENDMDL
MODEL      208
REMARK 921   NORMALIZED FREE ENERGY PREDICTED BY IDOCK:   -4.33 KCAL/MOL
REMARK 922        TOTAL FREE ENERGY PREDICTED BY IDOCK:  -10.21 KCAL/MOL
REMARK 923 INTER-LIGAND FREE ENERGY PREDICTED BY IDOCK:   -7.44 KCAL/MOL
REMARK 924 INTRA-LIGAND FREE ENERGY PREDICTED BY IDOCK:   -2.77 KCAL/MOL
REMARK 927      BINDING AFFINITY PREDICTED BY RF-SCORE:    0.00 PKD
ROOT
HETATM    1  C   UNL     1     -12.230  13.906  66.225  1.00  0.00    -0.498 C  
HETATM    2  C   UNL     1     -11.123  14.227  65.238  1.00  0.00    -0.335 C  
ENDROOT
BRANCH   2   3
HETATM    3  N   UNL     1     -10.094  13.212  65.246  1.00  0.00    -0.434 N  
HETATM    4  C   UNL     1     -10.134  12.153  64.367  1.00  0.00    -0.274 C  
HETATM    5  H   UNL     1      -9.325  13.281  65.913  1.00  0.00     0.000 HD 
HETATM    6  O   UNL     1     -11.028  11.995  63.545  1.00  0.00    -0.403 OA 
BRANCH   4   7
HETATM    7  C   UNL     1      -8.956  11.210  64.509  1.00  0.00     0.004 C  
BRANCH   7   8
HETATM    8  C   UNL     1      -9.411   9.749  64.462  1.00  0.00    -0.298 C  
BRANCH   8   9
HETATM    9  C   UNL     1     -10.074   9.273  65.753  1.00  0.00    -0.092 C  
BRANCH   9  10
HETATM   10  C   UNL     1      -9.294   9.673  66.973  1.00  0.00    -0.180 C  
HETATM   11  C   UNL     1      -9.508   9.280  68.239  1.00  0.00    -0.148 C  
BRANCH  11  12
HETATM   12  C   UNL     1     -10.603   8.372  68.728  1.00  0.00    -0.154 C  
BRANCH  12  13
HETATM   13  C   UNL     1     -10.884   8.509  70.231  1.00  0.00    -0.249 C  
HETATM   14  C   UNL     1     -11.548   9.829  70.652  1.00  0.00    -0.313 C  
HETATM   15  C   UNL     1     -12.207   9.485  71.981  1.00  0.00    -0.370 C  
HETATM   16  O   UNL     1     -12.564  10.223  69.736  1.00  0.00    -0.555 OA 
HETATM   17  H   UNL     1     -12.974  11.039  69.996  1.00  0.00     0.000 HD 
HETATM   18  C   UNL     1     -12.806   8.103  71.731  1.00  0.00    -0.333 C  
HETATM   19  O   UNL     1     -14.113   8.239  71.168  1.00  0.00    -0.613 OA 
HETATM   20  C   UNL     1     -11.877   7.414  70.706  1.00  0.00    -0.288 C  
HETATM   21  H   UNL     1     -14.486   7.378  71.012  1.00  0.00     0.000 HD 
BRANCH  20  22
HETATM   22  C   UNL     1     -11.160   6.227  71.312  1.00  0.00    -0.345 C  
HETATM   23  C   UNL     1     -11.343   5.824  72.581  1.00  0.00    -0.349 C  
BRANCH  23  24
HETATM   24  C   UNL     1     -10.615   4.719  73.304  1.00  0.00    -0.226 C  
HETATM   25  H   UNL     1     -11.026   2.914  73.974  1.00  0.00     0.000 HD 
HETATM   26  O   UNL     1     -11.485   3.611  73.518  1.00  0.00    -0.212 OA 
BRANCH  24  27
HETATM   27  C   UNL     1      -9.389   4.206  72.537  1.00  0.00    -0.158 C  
BRANCH  27  28
HETATM   28  C   UNL     1      -8.081   4.887  72.950  1.00  0.00    -0.101 C  
BRANCH  28  29
HETATM   29  C   UNL     1      -7.772   6.069  72.065  1.00  0.00    -0.098 A  
HETATM   30  C   UNL     1      -7.523   5.881  70.699  1.00  0.00    -0.087 A  
HETATM   31  C   UNL     1      -7.194   6.965  69.885  1.00  0.00    -0.076 A  
HETATM   32  C   UNL     1      -7.109   8.245  70.429  1.00  0.00    -0.037 A  
HETATM   33  C   UNL     1      -7.359   8.442  71.786  1.00  0.00    -0.117 A  
HETATM   34  C   UNL     1      -7.689   7.360  72.602  1.00  0.00    -0.100 A  
ENDBRANCH  28  29
ENDBRANCH  27  28
ENDBRANCH  24  27
ENDBRANCH  23  24
ENDBRANCH  20  22
ENDBRANCH  12  13
ENDBRANCH  11  12
ENDBRANCH   9  10
ENDBRANCH   8   9
ENDBRANCH   7   8
ENDBRANCH   4   7
ENDBRANCH   2   3
TORSDOF 12
ENDMDL
MODEL      209
REMARK 921   NORMALIZED FREE ENERGY PREDICTED BY IDOCK:   -4.33 KCAL/MOL
REMARK 922        TOTAL FREE ENERGY PREDICTED BY IDOCK:  -10.20 KCAL/MOL
REMARK 923 INTER-LIGAND FREE ENERGY PREDICTED BY IDOCK:   -8.00 KCAL/MOL
REMARK 924 INTRA-LIGAND FREE ENERGY PREDICTED BY IDOCK:   -2.19 KCAL/MOL
REMARK 927      BINDING AFFINITY PREDICTED BY RF-SCORE:    0.00 PKD
ROOT
HETATM    1  C   UNL     1      -7.197  14.147  68.652  1.00  0.00    -0.116 C  
HETATM    2  C   UNL     1      -6.320  13.092  68.004  1.00  0.00    -0.127 C  
ENDROOT
BRANCH   2   3
HETATM    3  N   UNL     1      -7.029  12.371  66.971  1.00  0.00    -0.359 N  
HETATM    4  C   UNL     1      -7.252  11.017  67.076  1.00  0.00    -0.123 C  
HETATM    5  H   UNL     1      -7.370  12.874  66.152  1.00  0.00     0.000 HD 
HETATM    6  O   UNL     1      -6.865  10.343  68.023  1.00  0.00    -0.068 OA 
BRANCH   4   7
HETATM    7  C   UNL     1      -8.034  10.445  65.910  1.00  0.00    -0.151 C  
BRANCH   7   8
HETATM    8  C   UNL     1      -9.352   9.825  66.383  1.00  0.00    -0.218 C  
BRANCH   8   9
HETATM    9  C   UNL     1     -10.199  10.766  67.238  1.00  0.00    -0.245 C  
BRANCH   9  10
HETATM   10  C   UNL     1     -10.408  12.099  66.577  1.00  0.00    -0.239 C  
HETATM   11  C   UNL     1     -11.280  13.055  66.937  1.00  0.00    -0.331 C  
BRANCH  11  12
HETATM   12  C   UNL     1     -12.271  12.993  68.067  1.00  0.00    -0.057 C  
BRANCH  12  13
HETATM   13  C   UNL     1     -11.720  13.537  69.393  1.00  0.00    -0.381 C  
HETATM   14  C   UNL     1     -11.400  15.039  69.397  1.00  0.00    -0.297 C  
HETATM   15  C   UNL     1     -11.441  15.405  70.875  1.00  0.00    -0.396 C  
HETATM   16  O   UNL     1     -12.401  15.793  68.721  1.00  0.00    -0.537 OA 
HETATM   17  H   UNL     1     -12.203  16.722  68.724  1.00  0.00     0.000 HD 
HETATM   18  C   UNL     1     -12.659  14.644  71.393  1.00  0.00    -0.335 C  
HETATM   19  O   UNL     1     -13.836  15.434  71.211  1.00  0.00    -0.529 OA 
HETATM   20  C   UNL     1     -12.762  13.365  70.531  1.00  0.00    -0.194 C  
HETATM   21  H   UNL     1     -14.594  14.960  71.534  1.00  0.00     0.000 HD 
BRANCH  20  22
HETATM   22  C   UNL     1     -12.504  12.118  71.348  1.00  0.00    -0.222 C  
HETATM   23  C   UNL     1     -13.036  10.919  71.053  1.00  0.00    -0.396 C  
BRANCH  23  24
HETATM   24  C   UNL     1     -12.917   9.645  71.850  1.00  0.00    -0.435 C  
HETATM   25  H   UNL     1     -13.925   7.967  72.052  1.00  0.00     0.000 HD 
HETATM   26  O   UNL     1     -14.001   8.770  71.550  1.00  0.00    -0.388 OA 
BRANCH  24  27
HETATM   27  C   UNL     1     -11.614   8.884  71.574  1.00  0.00    -0.388 C  
BRANCH  27  28
HETATM   28  C   UNL     1     -11.246   8.817  70.089  1.00  0.00    -0.162 C  
BRANCH  28  29
HETATM   29  C   UNL     1     -10.475   7.560  69.770  1.00  0.00    -0.232 A  
HETATM   30  C   UNL     1      -9.086   7.611  69.593  1.00  0.00    -0.147 A  
HETATM   31  C   UNL     1      -8.374   6.461  69.253  1.00  0.00    -0.122 A  
HETATM   32  C   UNL     1      -9.044   5.250  69.087  1.00  0.00    -0.136 A  
HETATM   33  C   UNL     1     -10.425   5.189  69.266  1.00  0.00    -0.193 A  
HETATM   34  C   UNL     1     -11.139   6.338  69.605  1.00  0.00    -0.479 A  
ENDBRANCH  28  29
ENDBRANCH  27  28
ENDBRANCH  24  27
ENDBRANCH  23  24
ENDBRANCH  20  22
ENDBRANCH  12  13
ENDBRANCH  11  12
ENDBRANCH   9  10
ENDBRANCH   8   9
ENDBRANCH   7   8
ENDBRANCH   4   7
ENDBRANCH   2   3
TORSDOF 12
ENDMDL
MODEL      210
REMARK 921   NORMALIZED FREE ENERGY PREDICTED BY IDOCK:   -4.29 KCAL/MOL
REMARK 922        TOTAL FREE ENERGY PREDICTED BY IDOCK:  -10.13 KCAL/MOL
REMARK 923 INTER-LIGAND FREE ENERGY PREDICTED BY IDOCK:   -8.01 KCAL/MOL
REMARK 924 INTRA-LIGAND FREE ENERGY PREDICTED BY IDOCK:   -2.12 KCAL/MOL
REMARK 927      BINDING AFFINITY PREDICTED BY RF-SCORE:    0.00 PKD
ROOT
HETATM    1  C   UNL     1      -6.796  14.455  67.829  1.00  0.00    -0.194 C  
HETATM    2  C   UNL     1      -6.665  12.989  67.460  1.00  0.00    -0.152 C  
ENDROOT
BRANCH   2   3
HETATM    3  N   UNL     1      -7.880  12.481  66.864  1.00  0.00    -0.386 N  
HETATM    4  C   UNL     1      -7.932  11.214  66.327  1.00  0.00    -0.125 C  
HETATM    5  H   UNL     1      -8.713  13.070  66.840  1.00  0.00     0.000 HD 
HETATM    6  O   UNL     1      -6.973  10.452  66.308  1.00  0.00    -0.104 OA 
BRANCH   4   7
HETATM    7  C   UNL     1      -9.296  10.851  65.774  1.00  0.00    -0.232 C  
BRANCH   7   8
HETATM    8  C   UNL     1     -10.346  10.803  66.887  1.00  0.00    -0.290 C  
BRANCH   8   9
HETATM    9  C   UNL     1     -10.659   9.388  67.372  1.00  0.00    -0.326 C  
BRANCH   9  10
HETATM   10  C   UNL     1      -9.903   8.344  66.600  1.00  0.00    -0.343 C  
HETATM   11  C   UNL     1     -10.047   7.011  66.683  1.00  0.00    -0.219 C  
BRANCH  11  12
HETATM   12  C   UNL     1     -10.977   6.259  67.593  1.00  0.00    -0.438 C  
BRANCH  12  13
HETATM   13  C   UNL     1     -10.249   5.401  68.638  1.00  0.00    -0.246 C  
HETATM   14  C   UNL     1      -9.850   3.996  68.162  1.00  0.00     0.008 C  
HETATM   15  C   UNL     1      -8.713   3.615  69.101  1.00  0.00    -0.137 C  
HETATM   16  O   UNL     1      -9.346   4.014  66.832  1.00  0.00    -0.154 OA 
HETATM   17  H   UNL     1      -9.099   3.145  66.538  1.00  0.00     0.000 HD 
HETATM   18  C   UNL     1      -7.896   4.901  69.207  1.00  0.00    -0.075 C  
HETATM   19  O   UNL     1      -6.942   4.955  68.144  1.00  0.00    -0.058 OA 
HETATM   20  C   UNL     1      -8.905   6.061  69.049  1.00  0.00    -0.121 C  
HETATM   21  H   UNL     1      -6.433   5.755  68.211  1.00  0.00     0.000 HD 
BRANCH  20  22
HETATM   22  C   UNL     1      -9.037   6.864  70.325  1.00  0.00    -0.153 C  
HETATM   23  C   UNL     1     -10.216   7.297  70.805  1.00  0.00    -0.204 C  
BRANCH  23  24
HETATM   24  C   UNL     1     -10.445   8.176  72.008  1.00  0.00    -0.263 C  
HETATM   25  H   UNL     1      -9.585   9.737  72.843  1.00  0.00     0.000 HD 
HETATM   26  O   UNL     1      -9.440   9.184  72.085  1.00  0.00    -0.291 OA 
BRANCH  24  27
HETATM   27  C   UNL     1     -11.808   8.878  71.988  1.00  0.00    -0.438 C  
BRANCH  27  28
HETATM   28  C   UNL     1     -12.111   9.590  70.666  1.00  0.00    -0.230 C  
BRANCH  28  29
HETATM   29  C   UNL     1     -12.410  11.052  70.884  1.00  0.00    -0.503 A  
HETATM   30  C   UNL     1     -11.834  12.021  70.053  1.00  0.00    -0.392 A  
HETATM   31  C   UNL     1     -12.071  13.378  70.278  1.00  0.00    -0.419 A  
HETATM   32  C   UNL     1     -12.886  13.776  71.335  1.00  0.00    -0.449 A  
HETATM   33  C   UNL     1     -13.468  12.818  72.165  1.00  0.00    -0.591 A  
HETATM   34  C   UNL     1     -13.231  11.462  71.942  1.00  0.00    -0.485 A  
ENDBRANCH  28  29
ENDBRANCH  27  28
ENDBRANCH  24  27
ENDBRANCH  23  24
ENDBRANCH  20  22
ENDBRANCH  12  13
ENDBRANCH  11  12
ENDBRANCH   9  10
ENDBRANCH   8   9
ENDBRANCH   7   8
ENDBRANCH   4   7
ENDBRANCH   2   3
TORSDOF 12
ENDMDL
MODEL      211
REMARK 921   NORMALIZED FREE ENERGY PREDICTED BY IDOCK:   -4.27 KCAL/MOL
REMARK 922        TOTAL FREE ENERGY PREDICTED BY IDOCK:  -10.11 KCAL/MOL
REMARK 923 INTER-LIGAND FREE ENERGY PREDICTED BY IDOCK:   -7.69 KCAL/MOL
REMARK 924 INTRA-LIGAND FREE ENERGY PREDICTED BY IDOCK:   -2.42 KCAL/MOL
REMARK 927      BINDING AFFINITY PREDICTED BY RF-SCORE:    0.00 PKD
ROOT
HETATM    1  C   UNL     1     -14.348   7.633  71.822  1.00  0.00    -0.586 C  
HETATM    2  C   UNL     1     -13.327   8.735  72.039  1.00  0.00    -0.413 C  
ENDROOT
BRANCH   2   3
HETATM    3  N   UNL     1     -13.010   9.417  70.805  1.00  0.00    -0.534 N  
HETATM    4  C   UNL     1     -12.873  10.786  70.765  1.00  0.00    -0.320 C  
HETATM    5  H   UNL     1     -12.886   8.875  69.949  1.00  0.00     0.000 HD 
HETATM    6  O   UNL     1     -13.017  11.505  71.746  1.00  0.00    -0.446 OA 
BRANCH   4   7
HETATM    7  C   UNL     1     -12.514  11.313  69.390  1.00  0.00    -0.075 C  
BRANCH   7   8
HETATM    8  C   UNL     1     -11.048  11.751  69.334  1.00  0.00    -0.245 C  
BRANCH   8   9
HETATM    9  C   UNL     1     -10.866  13.259  69.165  1.00  0.00    -0.148 C  
BRANCH   9  10
HETATM   10  C   UNL     1     -12.077  13.912  68.560  1.00  0.00    -0.331 C  
HETATM   11  C   UNL     1     -12.253  14.262  67.276  1.00  0.00    -0.287 C  
BRANCH  11  12
HETATM   12  C   UNL     1     -11.263  14.109  66.155  1.00  0.00    -0.326 C  
BRANCH  12  13
HETATM   13  C   UNL     1     -11.225  12.693  65.563  1.00  0.00    -0.337 C  
HETATM   14  C   UNL     1     -12.157  12.463  64.364  1.00  0.00    -0.426 C  
HETATM   15  C   UNL     1     -11.533  11.269  63.655  1.00  0.00    -0.042 C  
HETATM   16  O   UNL     1     -12.147  13.570  63.469  1.00  0.00    -0.725 OA 
HETATM   17  H   UNL     1     -12.723  13.429  62.728  1.00  0.00     0.000 HD 
HETATM   18  C   UNL     1     -10.037  11.566  63.711  1.00  0.00    -0.366 C  
HETATM   19  O   UNL     1      -9.662  12.370  62.590  1.00  0.00    -0.066 OA 
HETATM   20  C   UNL     1      -9.810  12.366  65.014  1.00  0.00    -0.136 C  
HETATM   21  H   UNL     1      -8.731  12.555  62.625  1.00  0.00     0.000 HD 
BRANCH  20  22
HETATM   22  C   UNL     1      -8.984  11.584  66.012  1.00  0.00    -0.181 C  
HETATM   23  C   UNL     1      -8.236  12.164  66.967  1.00  0.00    -0.164 C  
BRANCH  23  24
HETATM   24  C   UNL     1      -7.312  11.483  67.944  1.00  0.00    -0.094 C  
HETATM   25  H   UNL     1      -6.202  12.001  69.485  1.00  0.00     0.000 HD 
HETATM   26  O   UNL     1      -6.784  12.430  68.869  1.00  0.00    -0.087 OA 
BRANCH  24  27
HETATM   27  C   UNL     1      -8.002  10.378  68.753  1.00  0.00    -0.122 C  
BRANCH  27  28
HETATM   28  C   UNL     1      -7.195   9.915  69.970  1.00  0.00    -0.146 C  
BRANCH  28  29
HETATM   29  C   UNL     1      -8.019   9.032  70.873  1.00  0.00    -0.194 A  
HETATM   30  C   UNL     1      -7.439   8.442  72.003  1.00  0.00    -0.135 A  
HETATM   31  C   UNL     1      -8.185   7.589  72.818  1.00  0.00    -0.145 A  
HETATM   32  C   UNL     1      -9.517   7.319  72.508  1.00  0.00    -0.180 A  
HETATM   33  C   UNL     1     -10.104   7.906  71.388  1.00  0.00    -0.212 A  
HETATM   34  C   UNL     1      -9.360   8.758  70.573  1.00  0.00    -0.219 A  
ENDBRANCH  28  29
ENDBRANCH  27  28
ENDBRANCH  24  27
ENDBRANCH  23  24
ENDBRANCH  20  22
ENDBRANCH  12  13
ENDBRANCH  11  12
ENDBRANCH   9  10
ENDBRANCH   8   9
ENDBRANCH   7   8
ENDBRANCH   4   7
ENDBRANCH   2   3
TORSDOF 12
ENDMDL
MODEL      212
REMARK 921   NORMALIZED FREE ENERGY PREDICTED BY IDOCK:   -4.27 KCAL/MOL
REMARK 922        TOTAL FREE ENERGY PREDICTED BY IDOCK:  -10.10 KCAL/MOL
REMARK 923 INTER-LIGAND FREE ENERGY PREDICTED BY IDOCK:   -7.06 KCAL/MOL
REMARK 924 INTRA-LIGAND FREE ENERGY PREDICTED BY IDOCK:   -3.04 KCAL/MOL
REMARK 927      BINDING AFFINITY PREDICTED BY RF-SCORE:    0.00 PKD
ROOT
HETATM    1  C   UNL     1      -9.898   8.500  67.245  1.00  0.00    -0.259 C  
HETATM    2  C   UNL     1      -9.838   9.973  67.604  1.00  0.00    -0.162 C  
ENDROOT
BRANCH   2   3
HETATM    3  N   UNL     1     -10.700  10.763  66.754  1.00  0.00    -0.251 N  
HETATM    4  C   UNL     1     -11.139  12.007  67.148  1.00  0.00    -0.290 C  
HETATM    5  H   UNL     1     -10.987  10.393  65.848  1.00  0.00     0.000 HD 
HETATM    6  O   UNL     1     -10.846  12.514  68.224  1.00  0.00    -0.216 OA 
BRANCH   4   7
HETATM    7  C   UNL     1     -12.009  12.692  66.113  1.00  0.00    -0.458 C  
BRANCH   7   8
HETATM    8  C   UNL     1     -11.172  13.189  64.931  1.00  0.00    -0.333 C  
BRANCH   8   9
HETATM    9  C   UNL     1     -11.279  14.695  64.696  1.00  0.00    -0.353 C  
BRANCH   9  10
HETATM   10  C   UNL     1     -10.256  15.466  65.480  1.00  0.00    -0.411 C  
HETATM   11  C   UNL     1     -10.396  15.977  66.714  1.00  0.00    -0.300 C  
BRANCH  11  12
HETATM   12  C   UNL     1     -11.624  15.922  67.579  1.00  0.00     0.097 C  
BRANCH  12  13
HETATM   13  C   UNL     1     -11.334  16.159  69.068  1.00  0.00    -0.340 C  
HETATM   14  C   UNL     1     -12.557  16.068  69.992  1.00  0.00     0.335 C  
HETATM   15  C   UNL     1     -11.949  15.768  71.355  1.00  0.00    -0.499 C  
HETATM   16  O   UNL     1     -13.409  14.986  69.634  1.00  0.00    -0.049 OA 
HETATM   17  H   UNL     1     -14.166  14.930  70.205  1.00  0.00     0.000 HD 
HETATM   18  C   UNL     1     -10.861  14.744  71.039  1.00  0.00     0.261 C  
HETATM   19  O   UNL     1     -11.419  13.428  71.048  1.00  0.00    -0.089 OA 
HETATM   20  C   UNL     1     -10.361  15.080  69.615  1.00  0.00    -0.201 C  
HETATM   21  H   UNL     1     -10.741  12.792  70.851  1.00  0.00     0.000 HD 
BRANCH  20  22
HETATM   22  C   UNL     1      -8.928  15.565  69.627  1.00  0.00    -0.158 C  
HETATM   23  C   UNL     1      -8.034  15.248  68.674  1.00  0.00    -0.149 C  
BRANCH  23  24
HETATM   24  C   UNL     1      -6.569  15.602  68.640  1.00  0.00    -0.110 C  
HETATM   25  H   UNL     1      -5.075  15.456  67.367  1.00  0.00     0.000 HD 
HETATM   26  O   UNL     1      -5.999  15.233  67.388  1.00  0.00    -0.325 OA 
BRANCH  24  27
HETATM   27  C   UNL     1      -6.307  17.099  68.848  1.00  0.00    -0.186 C  
BRANCH  27  28
HETATM   28  C   UNL     1      -6.480  17.933  67.575  1.00  0.00    -0.179 C  
BRANCH  28  29
HETATM   29  C   UNL     1      -7.814  18.637  67.555  1.00  0.00    -0.242 A  
HETATM   30  C   UNL     1      -8.470  18.939  68.755  1.00  0.00    -0.340 A  
HETATM   31  C   UNL     1      -9.725  19.550  68.741  1.00  0.00    -0.513 A  
HETATM   32  C   UNL     1     -10.333  19.862  67.527  1.00  0.00    -0.557 A  
HETATM   33  C   UNL     1      -9.686  19.569  66.328  1.00  0.00    -0.481 A  
HETATM   34  C   UNL     1      -8.432  18.958  66.340  1.00  0.00    -0.302 A  
ENDBRANCH  28  29
ENDBRANCH  27  28
ENDBRANCH  24  27
ENDBRANCH  23  24
ENDBRANCH  20  22
ENDBRANCH  12  13
ENDBRANCH  11  12
ENDBRANCH   9  10
ENDBRANCH   8   9
ENDBRANCH   7   8
ENDBRANCH   4   7
ENDBRANCH   2   3
TORSDOF 12
ENDMDL
MODEL      213
REMARK 921   NORMALIZED FREE ENERGY PREDICTED BY IDOCK:   -4.26 KCAL/MOL
REMARK 922        TOTAL FREE ENERGY PREDICTED BY IDOCK:  -10.08 KCAL/MOL
REMARK 923 INTER-LIGAND FREE ENERGY PREDICTED BY IDOCK:   -8.39 KCAL/MOL
REMARK 924 INTRA-LIGAND FREE ENERGY PREDICTED BY IDOCK:   -1.68 KCAL/MOL
REMARK 927      BINDING AFFINITY PREDICTED BY RF-SCORE:    0.00 PKD
ROOT
HETATM    1  C   UNL     1      -9.280  18.483  68.330  1.00  0.00    -0.347 C  
HETATM    2  C   UNL     1      -7.800  18.819  68.365  1.00  0.00    -0.322 C  
ENDROOT
BRANCH   2   3
HETATM    3  N   UNL     1      -7.000  17.663  68.700  1.00  0.00    -0.228 N  
HETATM    4  C   UNL     1      -6.161  17.087  67.773  1.00  0.00    -0.136 C  
HETATM    5  H   UNL     1      -7.059  17.267  69.638  1.00  0.00     0.000 HD 
HETATM    6  O   UNL     1      -6.044  17.498  66.625  1.00  0.00    -0.160 OA 
BRANCH   4   7
HETATM    7  C   UNL     1      -5.387  15.903  68.318  1.00  0.00    -0.106 C  
BRANCH   7   8
HETATM    8  C   UNL     1      -6.054  14.582  67.928  1.00  0.00    -0.161 C  
BRANCH   8   9
HETATM    9  C   UNL     1      -7.062  14.078  68.961  1.00  0.00    -0.106 C  
BRANCH   9  10
HETATM   10  C   UNL     1      -7.240  12.588  68.900  1.00  0.00    -0.050 C  
HETATM   11  C   UNL     1      -7.886  11.885  67.956  1.00  0.00    -0.140 C  
BRANCH  11  12
HETATM   12  C   UNL     1      -8.610  12.437  66.759  1.00  0.00    -0.129 C  
BRANCH  12  13
HETATM   13  C   UNL     1      -9.988  13.025  67.095  1.00  0.00    -0.235 C  
HETATM   14  C   UNL     1     -10.377  14.273  66.288  1.00  0.00    -0.294 C  
HETATM   15  C   UNL     1     -11.897  14.292  66.378  1.00  0.00    -0.427 C  
HETATM   16  O   UNL     1     -10.011  14.149  64.918  1.00  0.00    -0.577 OA 
HETATM   17  H   UNL     1     -10.252  14.921  64.419  1.00  0.00     0.000 HD 
HETATM   18  C   UNL     1     -12.280  12.826  66.194  1.00  0.00    -0.271 C  
HETATM   19  O   UNL     1     -12.411  12.533  64.801  1.00  0.00    -0.476 OA 
HETATM   20  C   UNL     1     -11.112  12.002  66.782  1.00  0.00    -0.353 C  
HETATM   21  H   UNL     1     -12.650  11.620  64.686  1.00  0.00     0.000 HD 
BRANCH  20  22
HETATM   22  C   UNL     1     -11.536  11.235  68.016  1.00  0.00    -0.343 C  
HETATM   23  C   UNL     1     -11.486  11.748  69.258  1.00  0.00    -0.369 C  
BRANCH  23  24
HETATM   24  C   UNL     1     -11.796  11.040  70.552  1.00  0.00    -0.367 C  
HETATM   25  H   UNL     1     -13.397  10.408  71.507  1.00  0.00     0.000 HD 
HETATM   26  O   UNL     1     -13.202  10.854  70.691  1.00  0.00    -0.168 OA 
BRANCH  24  27
HETATM   27  C   UNL     1     -11.131   9.662  70.658  1.00  0.00    -0.384 C  
BRANCH  27  28
HETATM   28  C   UNL     1     -12.079   8.561  71.142  1.00  0.00    -0.283 C  
BRANCH  28  29
HETATM   29  C   UNL     1     -11.415   7.207  71.104  1.00  0.00    -0.322 A  
HETATM   30  C   UNL     1     -11.045   6.569  72.295  1.00  0.00    -0.297 A  
HETATM   31  C   UNL     1     -10.390   5.337  72.264  1.00  0.00    -0.265 A  
HETATM   32  C   UNL     1     -10.100   4.733  71.042  1.00  0.00    -0.269 A  
HETATM   33  C   UNL     1     -10.469   5.359  69.852  1.00  0.00    -0.378 A  
HETATM   34  C   UNL     1     -11.123   6.590  69.881  1.00  0.00    -0.430 A  
ENDBRANCH  28  29
ENDBRANCH  27  28
ENDBRANCH  24  27
ENDBRANCH  23  24
ENDBRANCH  20  22
ENDBRANCH  12  13
ENDBRANCH  11  12
ENDBRANCH   9  10
ENDBRANCH   8   9
ENDBRANCH   7   8
ENDBRANCH   4   7
ENDBRANCH   2   3
TORSDOF 12
ENDMDL
MODEL      214
REMARK 921   NORMALIZED FREE ENERGY PREDICTED BY IDOCK:   -4.25 KCAL/MOL
REMARK 922        TOTAL FREE ENERGY PREDICTED BY IDOCK:  -10.06 KCAL/MOL
REMARK 923 INTER-LIGAND FREE ENERGY PREDICTED BY IDOCK:   -7.37 KCAL/MOL
REMARK 924 INTRA-LIGAND FREE ENERGY PREDICTED BY IDOCK:   -2.69 KCAL/MOL
REMARK 927      BINDING AFFINITY PREDICTED BY RF-SCORE:    0.00 PKD
ROOT
HETATM    1  C   UNL     1     -13.428  12.739  72.163  1.00  0.00    -0.591 C  
HETATM    2  C   UNL     1     -12.899  11.653  71.244  1.00  0.00    -0.328 C  
ENDROOT
BRANCH   2   3
HETATM    3  N   UNL     1     -11.836  12.144  70.397  1.00  0.00    -0.525 N  
HETATM    4  C   UNL     1     -11.707  11.711  69.096  1.00  0.00    -0.326 C  
HETATM    5  H   UNL     1     -11.170  12.822  70.768  1.00  0.00     0.000 HD 
HETATM    6  O   UNL     1     -12.460  10.893  68.582  1.00  0.00    -0.418 OA 
BRANCH   4   7
HETATM    7  C   UNL     1     -10.551  12.358  68.359  1.00  0.00    -0.251 C  
BRANCH   7   8
HETATM    8  C   UNL     1      -9.574  11.304  67.834  1.00  0.00    -0.182 C  
BRANCH   8   9
HETATM    9  C   UNL     1      -9.294  10.179  68.830  1.00  0.00    -0.179 C  
BRANCH   9  10
HETATM   10  C   UNL     1      -8.319   9.172  68.290  1.00  0.00    -0.120 C  
HETATM   11  C   UNL     1      -8.572   8.188  67.412  1.00  0.00    -0.125 C  
BRANCH  11  12
HETATM   12  C   UNL     1      -9.901   7.850  66.794  1.00  0.00    -0.318 C  
BRANCH  12  13
HETATM   13  C   UNL     1     -10.328   6.393  67.022  1.00  0.00    -0.307 C  
HETATM   14  C   UNL     1      -9.806   5.391  65.982  1.00  0.00    -0.094 C  
HETATM   15  C   UNL     1      -9.865   4.058  66.715  1.00  0.00    -0.163 C  
HETATM   16  O   UNL     1      -8.451   5.651  65.633  1.00  0.00    -0.135 OA 
HETATM   17  H   UNL     1      -8.128   5.032  64.990  1.00  0.00     0.000 HD 
HETATM   18  C   UNL     1      -9.354   4.399  68.112  1.00  0.00    -0.146 C  
HETATM   19  O   UNL     1      -7.929   4.302  68.142  1.00  0.00    -0.078 OA 
HETATM   20  C   UNL     1      -9.774   5.864  68.373  1.00  0.00    -0.151 C  
HETATM   21  H   UNL     1      -7.611   4.516  69.012  1.00  0.00     0.000 HD 
BRANCH  20  22
HETATM   22  C   UNL     1     -10.799   5.963  69.481  1.00  0.00    -0.442 C  
HETATM   23  C   UNL     1     -11.114   7.117  70.095  1.00  0.00    -0.301 C  
BRANCH  23  24
HETATM   24  C   UNL     1     -12.047   7.306  71.263  1.00  0.00    -0.338 C  
HETATM   25  H   UNL     1     -12.789   6.202  72.714  1.00  0.00     0.000 HD 
HETATM   26  O   UNL     1     -12.201   6.082  71.977  1.00  0.00    -0.257 OA 
BRANCH  24  27
HETATM   27  C   UNL     1     -11.557   8.366  72.258  1.00  0.00    -0.453 C  
BRANCH  27  28
HETATM   28  C   UNL     1     -10.590   7.818  73.311  1.00  0.00    -0.350 C  
BRANCH  28  29
HETATM   29  C   UNL     1      -9.236   7.525  72.716  1.00  0.00    -0.208 A  
HETATM   30  C   UNL     1      -8.745   6.213  72.688  1.00  0.00    -0.124 A  
HETATM   31  C   UNL     1      -7.474   5.944  72.179  1.00  0.00    -0.096 A  
HETATM   32  C   UNL     1      -6.684   6.984  71.694  1.00  0.00    -0.056 A  
HETATM   33  C   UNL     1      -7.165   8.292  71.714  1.00  0.00    -0.095 A  
HETATM   34  C   UNL     1      -8.435   8.563  72.222  1.00  0.00    -0.216 A  
ENDBRANCH  28  29
ENDBRANCH  27  28
ENDBRANCH  24  27
ENDBRANCH  23  24
ENDBRANCH  20  22
ENDBRANCH  12  13
ENDBRANCH  11  12
ENDBRANCH   9  10
ENDBRANCH   8   9
ENDBRANCH   7   8
ENDBRANCH   4   7
ENDBRANCH   2   3
TORSDOF 12
ENDMDL
MODEL      215
REMARK 921   NORMALIZED FREE ENERGY PREDICTED BY IDOCK:   -4.24 KCAL/MOL
REMARK 922        TOTAL FREE ENERGY PREDICTED BY IDOCK:  -10.06 KCAL/MOL
REMARK 923 INTER-LIGAND FREE ENERGY PREDICTED BY IDOCK:   -8.40 KCAL/MOL
REMARK 924 INTRA-LIGAND FREE ENERGY PREDICTED BY IDOCK:   -1.66 KCAL/MOL
REMARK 927      BINDING AFFINITY PREDICTED BY RF-SCORE:    0.00 PKD
ROOT
HETATM    1  C   UNL     1     -12.562  12.123  63.782  1.00  0.00    -0.585 C  
HETATM    2  C   UNL     1     -12.039  13.479  63.347  1.00  0.00    -0.289 C  
ENDROOT
BRANCH   2   3
HETATM    3  N   UNL     1     -11.206  14.079  64.364  1.00  0.00    -0.556 N  
HETATM    4  C   UNL     1     -11.185  15.443  64.552  1.00  0.00    -0.299 C  
HETATM    5  H   UNL     1     -10.623  13.482  64.952  1.00  0.00     0.000 HD 
HETATM    6  O   UNL     1     -11.847  16.224  63.881  1.00  0.00    -0.994 OA 
BRANCH   4   7
HETATM    7  C   UNL     1     -10.272  15.879  65.681  1.00  0.00    -0.406 C  
BRANCH   7   8
HETATM    8  C   UNL     1      -9.716  14.671  66.438  1.00  0.00    -0.315 C  
BRANCH   8   9
HETATM    9  C   UNL     1      -8.281  14.862  66.927  1.00  0.00    -0.178 C  
BRANCH   9  10
HETATM   10  C   UNL     1      -8.031  14.173  68.238  1.00  0.00    -0.140 C  
HETATM   11  C   UNL     1      -7.692  12.888  68.428  1.00  0.00    -0.133 C  
BRANCH  11  12
HETATM   12  C   UNL     1      -7.518  11.835  67.369  1.00  0.00    -0.143 C  
BRANCH  12  13
HETATM   13  C   UNL     1      -8.802  11.046  67.074  1.00  0.00    -0.143 C  
HETATM   14  C   UNL     1      -9.293  11.122  65.621  1.00  0.00    -0.219 C  
HETATM   15  C   UNL     1     -10.158   9.877  65.475  1.00  0.00    -0.297 C  
HETATM   16  O   UNL     1      -8.215  11.029  64.696  1.00  0.00    -0.373 OA 
HETATM   17  H   UNL     1      -8.519  11.076  63.797  1.00  0.00     0.000 HD 
HETATM   18  C   UNL     1      -9.354   8.801  66.201  1.00  0.00    -0.234 C  
HETATM   19  O   UNL     1      -8.421   8.204  65.298  1.00  0.00    -0.157 OA 
HETATM   20  C   UNL     1      -8.584   9.530  67.325  1.00  0.00    -0.128 C  
HETATM   21  H   UNL     1      -7.921   7.534  65.750  1.00  0.00     0.000 HD 
BRANCH  20  22
HETATM   22  C   UNL     1      -9.067   9.110  68.697  1.00  0.00    -0.136 C  
HETATM   23  C   UNL     1      -8.255   8.997  69.762  1.00  0.00    -0.122 C  
BRANCH  23  24
HETATM   24  C   UNL     1      -8.617   8.500  71.139  1.00  0.00    -0.169 C  
HETATM   25  H   UNL     1      -8.099   8.888  72.998  1.00  0.00     0.000 HD 
HETATM   26  O   UNL     1      -7.871   9.201  72.130  1.00  0.00    -0.311 OA 
BRANCH  24  27
HETATM   27  C   UNL     1     -10.105   8.675  71.468  1.00  0.00    -0.345 C  
BRANCH  27  28
HETATM   28  C   UNL     1     -10.679   7.544  72.327  1.00  0.00    -0.294 C  
BRANCH  28  29
HETATM   29  C   UNL     1     -10.360   6.191  71.741  1.00  0.00    -0.250 A  
HETATM   30  C   UNL     1     -10.291   6.023  70.352  1.00  0.00    -0.282 A  
HETATM   31  C   UNL     1     -10.041   4.764  69.804  1.00  0.00    -0.289 A  
HETATM   32  C   UNL     1      -9.858   3.664  70.640  1.00  0.00    -0.128 A  
HETATM   33  C   UNL     1      -9.921   3.823  72.023  1.00  0.00    -0.238 A  
HETATM   34  C   UNL     1     -10.172   5.080  72.573  1.00  0.00    -0.247 A  
ENDBRANCH  28  29
ENDBRANCH  27  28
ENDBRANCH  24  27
ENDBRANCH  23  24
ENDBRANCH  20  22
ENDBRANCH  12  13
ENDBRANCH  11  12
ENDBRANCH   9  10
ENDBRANCH   8   9
ENDBRANCH   7   8
ENDBRANCH   4   7
ENDBRANCH   2   3
TORSDOF 12
ENDMDL
MODEL      216
REMARK 921   NORMALIZED FREE ENERGY PREDICTED BY IDOCK:   -4.23 KCAL/MOL
REMARK 922        TOTAL FREE ENERGY PREDICTED BY IDOCK:  -10.03 KCAL/MOL
REMARK 923 INTER-LIGAND FREE ENERGY PREDICTED BY IDOCK:   -8.08 KCAL/MOL
REMARK 924 INTRA-LIGAND FREE ENERGY PREDICTED BY IDOCK:   -1.95 KCAL/MOL
REMARK 927      BINDING AFFINITY PREDICTED BY RF-SCORE:    0.00 PKD
ROOT
HETATM    1  C   UNL     1      -7.890   2.988  63.846  1.00  0.00    -0.081 C  
HETATM    2  C   UNL     1      -6.904   4.089  63.503  1.00  0.00    -0.044 C  
ENDROOT
BRANCH   2   3
HETATM    3  N   UNL     1      -7.194   5.307  64.225  1.00  0.00    -0.053 N  
HETATM    4  C   UNL     1      -7.732   6.401  63.584  1.00  0.00    -0.114 C  
HETATM    5  H   UNL     1      -6.998   5.357  65.224  1.00  0.00     0.000 HD 
HETATM    6  O   UNL     1      -7.985   6.422  62.387  1.00  0.00    -0.095 OA 
BRANCH   4   7
HETATM    7  C   UNL     1      -7.991   7.572  64.512  1.00  0.00    -0.122 C  
BRANCH   7   8
HETATM    8  C   UNL     1      -8.315   7.091  65.928  1.00  0.00    -0.141 C  
BRANCH   8   9
HETATM    9  C   UNL     1      -8.896   8.183  66.826  1.00  0.00    -0.156 C  
BRANCH   9  10
HETATM   10  C   UNL     1      -9.888   9.046  66.100  1.00  0.00    -0.349 C  
HETATM   11  C   UNL     1      -9.859  10.382  65.970  1.00  0.00    -0.289 C  
BRANCH  11  12
HETATM   12  C   UNL     1      -8.840  11.323  66.551  1.00  0.00    -0.180 C  
BRANCH  12  13
HETATM   13  C   UNL     1      -9.458  12.453  67.386  1.00  0.00    -0.186 C  
HETATM   14  C   UNL     1      -9.428  13.840  66.727  1.00  0.00    -0.275 C  
HETATM   15  C   UNL     1     -10.544  14.593  67.438  1.00  0.00    -0.265 C  
HETATM   16  O   UNL     1      -9.746  13.772  65.341  1.00  0.00    -0.527 OA 
HETATM   17  H   UNL     1      -9.727  14.630  64.934  1.00  0.00     0.000 HD 
HETATM   18  C   UNL     1     -11.663  13.560  67.534  1.00  0.00    -0.367 C  
HETATM   19  O   UNL     1     -12.457  13.596  66.346  1.00  0.00    -0.399 OA 
HETATM   20  C   UNL     1     -10.965  12.185  67.642  1.00  0.00    -0.289 C  
HETATM   21  H   UNL     1     -13.153  12.952  66.406  1.00  0.00     0.000 HD 
BRANCH  20  22
HETATM   22  C   UNL     1     -11.203  11.542  68.991  1.00  0.00    -0.324 C  
HETATM   23  C   UNL     1     -12.161  11.947  69.843  1.00  0.00    -0.269 C  
BRANCH  23  24
HETATM   24  C   UNL     1     -12.419  11.438  71.238  1.00  0.00    -0.318 C  
HETATM   25  H   UNL     1     -13.324  12.076  72.865  1.00  0.00     0.000 HD 
HETATM   26  O   UNL     1     -13.162  12.397  71.986  1.00  0.00    -0.481 OA 
BRANCH  24  27
HETATM   27  C   UNL     1     -13.203  10.120  71.262  1.00  0.00    -0.453 C  
BRANCH  27  28
HETATM   28  C   UNL     1     -12.700   9.127  72.314  1.00  0.00    -0.447 C  
BRANCH  28  29
HETATM   29  C   UNL     1     -11.753   8.120  71.713  1.00  0.00    -0.343 A  
HETATM   30  C   UNL     1     -10.381   8.186  71.992  1.00  0.00    -0.320 A  
HETATM   31  C   UNL     1      -9.495   7.284  71.404  1.00  0.00    -0.165 A  
HETATM   32  C   UNL     1      -9.972   6.309  70.530  1.00  0.00    -0.221 A  
HETATM   33  C   UNL     1     -11.335   6.232  70.250  1.00  0.00    -0.457 A  
HETATM   34  C   UNL     1     -12.223   7.133  70.837  1.00  0.00    -0.354 A  
ENDBRANCH  28  29
ENDBRANCH  27  28
ENDBRANCH  24  27
ENDBRANCH  23  24
ENDBRANCH  20  22
ENDBRANCH  12  13
ENDBRANCH  11  12
ENDBRANCH   9  10
ENDBRANCH   8   9
ENDBRANCH   7   8
ENDBRANCH   4   7
ENDBRANCH   2   3
TORSDOF 12
ENDMDL
MODEL      217
REMARK 921   NORMALIZED FREE ENERGY PREDICTED BY IDOCK:   -4.23 KCAL/MOL
REMARK 922        TOTAL FREE ENERGY PREDICTED BY IDOCK:  -10.03 KCAL/MOL
REMARK 923 INTER-LIGAND FREE ENERGY PREDICTED BY IDOCK:   -7.57 KCAL/MOL
REMARK 924 INTRA-LIGAND FREE ENERGY PREDICTED BY IDOCK:   -2.46 KCAL/MOL
REMARK 927      BINDING AFFINITY PREDICTED BY RF-SCORE:    0.00 PKD
ROOT
HETATM    1  C   UNL     1     -10.689  12.698  67.071  1.00  0.00    -0.268 C  
HETATM    2  C   UNL     1     -10.214  12.502  65.644  1.00  0.00    -0.267 C  
ENDROOT
BRANCH   2   3
HETATM    3  N   UNL     1      -8.854  12.013  65.598  1.00  0.00    -0.397 N  
HETATM    4  C   UNL     1      -8.570  10.745  65.142  1.00  0.00    -0.128 C  
HETATM    5  H   UNL     1      -8.093  12.617  65.910  1.00  0.00     0.000 HD 
HETATM    6  O   UNL     1      -9.429   9.959  64.762  1.00  0.00    -0.271 OA 
BRANCH   4   7
HETATM    7  C   UNL     1      -7.089  10.425  65.145  1.00  0.00    -0.080 C  
BRANCH   7   8
HETATM    8  C   UNL     1      -6.726   9.503  66.312  1.00  0.00    -0.075 C  
BRANCH   8   9
HETATM    9  C   UNL     1      -6.232  10.250  67.550  1.00  0.00    -0.057 C  
BRANCH   9  10
HETATM   10  C   UNL     1      -7.249  10.252  68.656  1.00  0.00    -0.081 C  
HETATM   11  C   UNL     1      -7.986   9.214  69.083  1.00  0.00    -0.097 C  
BRANCH  11  12
HETATM   12  C   UNL     1      -7.982   7.816  68.527  1.00  0.00    -0.122 C  
BRANCH  12  13
HETATM   13  C   UNL     1      -9.382   7.193  68.432  1.00  0.00    -0.135 C  
HETATM   14  C   UNL     1     -10.117   7.443  67.107  1.00  0.00    -0.244 C  
HETATM   15  C   UNL     1     -11.135   6.312  67.049  1.00  0.00    -0.379 C  
HETATM   16  O   UNL     1      -9.245   7.318  65.989  1.00  0.00    -0.321 OA 
HETATM   17  H   UNL     1      -9.699   7.473  65.169  1.00  0.00     0.000 HD 
HETATM   18  C   UNL     1     -10.345   5.100  67.537  1.00  0.00    -0.128 C  
HETATM   19  O   UNL     1      -9.669   4.489  66.436  1.00  0.00    -0.170 OA 
HETATM   20  C   UNL     1      -9.302   5.647  68.539  1.00  0.00    -0.139 C  
HETATM   21  H   UNL     1      -9.178   3.735  66.741  1.00  0.00     0.000 HD 
BRANCH  20  22
HETATM   22  C   UNL     1      -9.574   5.163  69.947  1.00  0.00    -0.241 C  
HETATM   23  C   UNL     1     -10.551   5.663  70.723  1.00  0.00    -0.335 C  
BRANCH  23  24
HETATM   24  C   UNL     1     -10.843   5.317  72.161  1.00  0.00    -0.188 C  
HETATM   25  H   UNL     1     -10.090   4.139  73.546  1.00  0.00     0.000 HD 
HETATM   26  O   UNL     1      -9.906   4.356  72.640  1.00  0.00    -0.143 OA 
BRANCH  24  27
HETATM   27  C   UNL     1     -10.782   6.533  73.095  1.00  0.00    -0.297 C  
BRANCH  27  28
HETATM   28  C   UNL     1     -10.101   7.753  72.469  1.00  0.00    -0.301 C  
BRANCH  28  29
HETATM   29  C   UNL     1     -11.113   8.732  71.930  1.00  0.00    -0.434 A  
HETATM   30  C   UNL     1     -10.748   9.649  70.935  1.00  0.00    -0.402 A  
HETATM   31  C   UNL     1     -11.669  10.586  70.466  1.00  0.00    -0.443 A  
HETATM   32  C   UNL     1     -12.961  10.616  70.987  1.00  0.00    -0.456 A  
HETATM   33  C   UNL     1     -13.334   9.705  71.974  1.00  0.00    -0.547 A  
HETATM   34  C   UNL     1     -12.415   8.768  72.445  1.00  0.00    -0.421 A  
ENDBRANCH  28  29
ENDBRANCH  27  28
ENDBRANCH  24  27
ENDBRANCH  23  24
ENDBRANCH  20  22
ENDBRANCH  12  13
ENDBRANCH  11  12
ENDBRANCH   9  10
ENDBRANCH   8   9
ENDBRANCH   7   8
ENDBRANCH   4   7
ENDBRANCH   2   3
TORSDOF 12
ENDMDL
MODEL      218
REMARK 921   NORMALIZED FREE ENERGY PREDICTED BY IDOCK:   -4.22 KCAL/MOL
REMARK 922        TOTAL FREE ENERGY PREDICTED BY IDOCK:  -10.02 KCAL/MOL
REMARK 923 INTER-LIGAND FREE ENERGY PREDICTED BY IDOCK:   -8.46 KCAL/MOL
REMARK 924 INTRA-LIGAND FREE ENERGY PREDICTED BY IDOCK:   -1.55 KCAL/MOL
REMARK 927      BINDING AFFINITY PREDICTED BY RF-SCORE:    0.00 PKD
ROOT
HETATM    1  C   UNL     1      -8.228   7.706  71.112  1.00  0.00    -0.100 C  
HETATM    2  C   UNL     1      -9.562   7.888  70.413  1.00  0.00    -0.171 C  
ENDROOT
BRANCH   2   3
HETATM    3  N   UNL     1      -9.394   8.104  68.993  1.00  0.00    -0.148 N  
HETATM    4  C   UNL     1      -9.992   7.272  68.073  1.00  0.00    -0.157 C  
HETATM    5  H   UNL     1      -8.823   8.884  68.668  1.00  0.00     0.000 HD 
HETATM    6  O   UNL     1     -10.682   6.310  68.384  1.00  0.00    -0.230 OA 
BRANCH   4   7
HETATM    7  C   UNL     1      -9.722   7.675  66.636  1.00  0.00    -0.283 C  
BRANCH   7   8
HETATM    8  C   UNL     1      -8.243   8.009  66.427  1.00  0.00    -0.113 C  
BRANCH   8   9
HETATM    9  C   UNL     1      -8.008   9.395  65.828  1.00  0.00    -0.110 C  
BRANCH   9  10
HETATM   10  C   UNL     1      -8.564   9.513  64.437  1.00  0.00    -0.213 C  
HETATM   11  C   UNL     1      -9.661  10.186  64.056  1.00  0.00    -0.273 C  
BRANCH  11  12
HETATM   12  C   UNL     1     -10.605  10.949  64.945  1.00  0.00    -0.304 C  
BRANCH  12  13
HETATM   13  C   UNL     1     -10.797  12.411  64.519  1.00  0.00    -0.358 C  
HETATM   14  C   UNL     1     -11.935  12.654  63.517  1.00  0.00    -0.548 C  
HETATM   15  C   UNL     1     -12.270  14.126  63.712  1.00  0.00    -0.183 C  
HETATM   16  O   UNL     1     -13.090  11.885  63.836  1.00  0.00    -0.628 OA 
HETATM   17  H   UNL     1     -13.794  12.035  63.216  1.00  0.00     0.000 HD 
HETATM   18  C   UNL     1     -12.223  14.302  65.228  1.00  0.00    -0.414 C  
HETATM   19  O   UNL     1     -13.498  13.983  65.791  1.00  0.00    -0.669 OA 
HETATM   20  C   UNL     1     -11.170  13.293  65.741  1.00  0.00    -0.313 C  
HETATM   21  H   UNL     1     -13.468  14.092  66.734  1.00  0.00     0.000 HD 
BRANCH  20  22
HETATM   22  C   UNL     1      -9.961  13.995  66.322  1.00  0.00    -0.317 C  
HETATM   23  C   UNL     1      -9.781  14.186  67.640  1.00  0.00    -0.228 C  
BRANCH  23  24
HETATM   24  C   UNL     1      -8.666  14.948  68.309  1.00  0.00    -0.166 C  
HETATM   25  H   UNL     1      -6.912  15.685  67.803  1.00  0.00     0.000 HD 
HETATM   26  O   UNL     1      -7.615  15.205  67.381  1.00  0.00    -0.172 OA 
BRANCH  24  27
HETATM   27  C   UNL     1      -9.120  16.297  68.883  1.00  0.00    -0.250 C  
BRANCH  27  28
HETATM   28  C   UNL     1      -9.455  17.337  67.810  1.00  0.00    -0.255 C  
BRANCH  28  29
HETATM   29  C   UNL     1      -8.550  18.540  67.908  1.00  0.00    -0.304 A  
HETATM   30  C   UNL     1      -8.887  19.731  67.252  1.00  0.00    -0.394 A  
HETATM   31  C   UNL     1      -8.032  20.833  67.303  1.00  0.00    -0.270 A  
HETATM   32  C   UNL     1      -6.834  20.752  68.009  1.00  0.00    -0.276 A  
HETATM   33  C   UNL     1      -6.492  19.572  68.669  1.00  0.00    -0.303 A  
HETATM   34  C   UNL     1      -7.345  18.470  68.619  1.00  0.00    -0.313 A  
ENDBRANCH  28  29
ENDBRANCH  27  28
ENDBRANCH  24  27
ENDBRANCH  23  24
ENDBRANCH  20  22
ENDBRANCH  12  13
ENDBRANCH  11  12
ENDBRANCH   9  10
ENDBRANCH   8   9
ENDBRANCH   7   8
ENDBRANCH   4   7
ENDBRANCH   2   3
TORSDOF 12
ENDMDL
MODEL      219
REMARK 921   NORMALIZED FREE ENERGY PREDICTED BY IDOCK:   -4.22 KCAL/MOL
REMARK 922        TOTAL FREE ENERGY PREDICTED BY IDOCK:  -10.01 KCAL/MOL
REMARK 923 INTER-LIGAND FREE ENERGY PREDICTED BY IDOCK:   -7.91 KCAL/MOL
REMARK 924 INTRA-LIGAND FREE ENERGY PREDICTED BY IDOCK:   -2.11 KCAL/MOL
REMARK 927      BINDING AFFINITY PREDICTED BY RF-SCORE:    0.00 PKD
ROOT
HETATM    1  C   UNL     1      -9.608   8.120  73.225  1.00  0.00    -0.261 C  
HETATM    2  C   UNL     1     -11.009   7.908  72.681  1.00  0.00    -0.378 C  
ENDROOT
BRANCH   2   3
HETATM    3  N   UNL     1     -10.984   7.462  71.306  1.00  0.00    -0.240 N  
HETATM    4  C   UNL     1     -10.913   6.123  70.995  1.00  0.00    -0.293 C  
HETATM    5  H   UNL     1     -11.019   8.151  70.555  1.00  0.00     0.000 HD 
HETATM    6  O   UNL     1     -10.857   5.238  71.840  1.00  0.00    -0.218 OA 
BRANCH   4   7
HETATM    7  C   UNL     1     -10.924   5.852  69.504  1.00  0.00    -0.438 C  
BRANCH   7   8
HETATM    8  C   UNL     1      -9.924   4.752  69.136  1.00  0.00    -0.233 C  
BRANCH   8   9
HETATM    9  C   UNL     1      -9.702   4.607  67.631  1.00  0.00    -0.207 C  
BRANCH   9  10
HETATM   10  C   UNL     1      -8.424   5.256  67.181  1.00  0.00    -0.106 C  
HETATM   11  C   UNL     1      -8.291   6.427  66.539  1.00  0.00    -0.115 C  
BRANCH  11  12
HETATM   12  C   UNL     1      -9.398   7.343  66.094  1.00  0.00    -0.111 C  
BRANCH  12  13
HETATM   13  C   UNL     1      -8.926   8.773  65.799  1.00  0.00    -0.253 C  
HETATM   14  C   UNL     1      -8.246   8.966  64.435  1.00  0.00    -0.164 C  
HETATM   15  C   UNL     1      -8.408  10.456  64.167  1.00  0.00    -0.139 C  
HETATM   16  O   UNL     1      -8.919   8.250  63.405  1.00  0.00    -0.202 OA 
HETATM   17  H   UNL     1      -8.499   8.369  62.562  1.00  0.00     0.000 HD 
HETATM   18  C   UNL     1      -9.838  10.743  64.617  1.00  0.00    -0.307 C  
HETATM   19  O   UNL     1     -10.742  10.496  63.537  1.00  0.00    -0.363 OA 
HETATM   20  C   UNL     1     -10.131   9.752  65.766  1.00  0.00    -0.308 C  
HETATM   21  H   UNL     1     -11.633  10.675  63.817  1.00  0.00     0.000 HD 
BRANCH  20  22
HETATM   22  C   UNL     1     -10.313  10.468  67.087  1.00  0.00    -0.285 C  
HETATM   23  C   UNL     1     -11.478  10.495  67.758  1.00  0.00    -0.143 C  
BRANCH  23  24
HETATM   24  C   UNL     1     -11.786  11.250  69.025  1.00  0.00    -0.342 C  
HETATM   25  H   UNL     1     -11.762  10.896  70.961  1.00  0.00     0.000 HD 
HETATM   26  O   UNL     1     -11.567  10.419  70.162  1.00  0.00    -0.267 OA 
BRANCH  24  27
HETATM   27  C   UNL     1     -10.928  12.510  69.197  1.00  0.00    -0.198 C  
BRANCH  27  28
HETATM   28  C   UNL     1     -11.712  13.814  69.024  1.00  0.00    -0.372 C  
BRANCH  28  29
HETATM   29  C   UNL     1     -11.197  14.615  67.854  1.00  0.00    -0.318 A  
HETATM   30  C   UNL     1     -11.015  15.999  67.972  1.00  0.00    -0.341 A  
HETATM   31  C   UNL     1     -10.580  16.751  66.880  1.00  0.00    -0.219 A  
HETATM   32  C   UNL     1     -10.325  16.125  65.662  1.00  0.00    -0.405 A  
HETATM   33  C   UNL     1     -10.500  14.748  65.536  1.00  0.00    -0.378 A  
HETATM   34  C   UNL     1     -10.934  13.995  66.626  1.00  0.00    -0.300 A  
ENDBRANCH  28  29
ENDBRANCH  27  28
ENDBRANCH  24  27
ENDBRANCH  23  24
ENDBRANCH  20  22
ENDBRANCH  12  13
ENDBRANCH  11  12
ENDBRANCH   9  10
ENDBRANCH   8   9
ENDBRANCH   7   8
ENDBRANCH   4   7
ENDBRANCH   2   3
TORSDOF 12
ENDMDL
MODEL      220
REMARK 921   NORMALIZED FREE ENERGY PREDICTED BY IDOCK:   -4.21 KCAL/MOL
REMARK 922        TOTAL FREE ENERGY PREDICTED BY IDOCK:  -10.01 KCAL/MOL
REMARK 923 INTER-LIGAND FREE ENERGY PREDICTED BY IDOCK:   -8.09 KCAL/MOL
REMARK 924 INTRA-LIGAND FREE ENERGY PREDICTED BY IDOCK:   -1.91 KCAL/MOL
REMARK 927      BINDING AFFINITY PREDICTED BY RF-SCORE:    0.00 PKD
ROOT
HETATM    1  C   UNL     1     -13.066  10.194  70.885  1.00  0.00    -0.412 C  
HETATM    2  C   UNL     1     -13.145  11.282  71.940  1.00  0.00    -0.405 C  
ENDROOT
BRANCH   2   3
HETATM    3  N   UNL     1     -12.795  12.576  71.398  1.00  0.00    -0.329 N  
HETATM    4  C   UNL     1     -13.398  13.725  71.857  1.00  0.00    -0.414 C  
HETATM    5  H   UNL     1     -12.091  12.638  70.662  1.00  0.00     0.000 HD 
HETATM    6  O   UNL     1     -14.259  13.731  72.728  1.00  0.00    -0.650 OA 
BRANCH   4   7
HETATM    7  C   UNL     1     -12.881  14.983  71.187  1.00  0.00    -0.441 C  
BRANCH   7   8
HETATM    8  C   UNL     1     -11.903  14.644  70.059  1.00  0.00    -0.363 C  
BRANCH   8   9
HETATM    9  C   UNL     1     -11.481  15.856  69.231  1.00  0.00    -0.374 C  
BRANCH   9  10
HETATM   10  C   UNL     1     -11.314  15.520  67.776  1.00  0.00    -0.286 C  
HETATM   11  C   UNL     1     -10.831  16.316  66.809  1.00  0.00    -0.125 C  
BRANCH  11  12
HETATM   12  C   UNL     1     -10.376  17.742  66.958  1.00  0.00    -0.344 C  
BRANCH  12  13
HETATM   13  C   UNL     1      -8.894  17.949  66.617  1.00  0.00    -0.285 C  
HETATM   14  C   UNL     1      -8.465  19.414  66.446  1.00  0.00    -0.346 C  
HETATM   15  C   UNL     1      -6.962  19.373  66.691  1.00  0.00    -0.210 C  
HETATM   16  O   UNL     1      -9.056  20.255  67.430  1.00  0.00    -0.345 OA 
HETATM   17  H   UNL     1      -8.791  21.161  67.324  1.00  0.00     0.000 HD 
HETATM   18  C   UNL     1      -6.824  18.427  67.882  1.00  0.00    -0.217 C  
HETATM   19  O   UNL     1      -6.958  19.162  69.100  1.00  0.00    -0.321 OA 
HETATM   20  C   UNL     1      -7.989  17.418  67.762  1.00  0.00    -0.208 C  
HETATM   21  H   UNL     1      -6.873  18.573  69.841  1.00  0.00     0.000 HD 
BRANCH  20  22
HETATM   22  C   UNL     1      -7.488  16.018  67.481  1.00  0.00    -0.186 C  
HETATM   23  C   UNL     1      -7.108  15.162  68.446  1.00  0.00    -0.107 C  
BRANCH  23  24
HETATM   24  C   UNL     1      -6.512  13.789  68.268  1.00  0.00    -0.110 C  
HETATM   25  H   UNL     1      -4.960  12.788  68.948  1.00  0.00     0.000 HD 
HETATM   26  O   UNL     1      -5.335  13.654  69.060  1.00  0.00    -0.070 OA 
BRANCH  24  27
HETATM   27  C   UNL     1      -7.473  12.661  68.665  1.00  0.00    -0.094 C  
BRANCH  27  28
HETATM   28  C   UNL     1      -8.750  12.620  67.822  1.00  0.00    -0.179 C  
BRANCH  28  29
HETATM   29  C   UNL     1      -8.784  11.402  66.933  1.00  0.00    -0.165 A  
HETATM   30  C   UNL     1      -7.596  10.734  66.607  1.00  0.00    -0.134 A  
HETATM   31  C   UNL     1      -7.616   9.633  65.749  1.00  0.00    -0.103 A  
HETATM   32  C   UNL     1      -8.824   9.192  65.210  1.00  0.00    -0.240 A  
HETATM   33  C   UNL     1     -10.011   9.848  65.533  1.00  0.00    -0.363 A  
HETATM   34  C   UNL     1      -9.992  10.948  66.390  1.00  0.00    -0.266 A  
ENDBRANCH  28  29
ENDBRANCH  27  28
ENDBRANCH  24  27
ENDBRANCH  23  24
ENDBRANCH  20  22
ENDBRANCH  12  13
ENDBRANCH  11  12
ENDBRANCH   9  10
ENDBRANCH   8   9
ENDBRANCH   7   8
ENDBRANCH   4   7
ENDBRANCH   2   3
TORSDOF 12
ENDMDL
MODEL      221
REMARK 921   NORMALIZED FREE ENERGY PREDICTED BY IDOCK:   -4.21 KCAL/MOL
REMARK 922        TOTAL FREE ENERGY PREDICTED BY IDOCK:  -10.00 KCAL/MOL
REMARK 923 INTER-LIGAND FREE ENERGY PREDICTED BY IDOCK:   -7.91 KCAL/MOL
REMARK 924 INTRA-LIGAND FREE ENERGY PREDICTED BY IDOCK:   -2.09 KCAL/MOL
REMARK 927      BINDING AFFINITY PREDICTED BY RF-SCORE:    0.00 PKD
ROOT
HETATM    1  C   UNL     1     -12.067  12.708  64.391  1.00  0.00    -0.487 C  
HETATM    2  C   UNL     1     -12.407  14.167  64.630  1.00  0.00    -0.410 C  
ENDROOT
BRANCH   2   3
HETATM    3  N   UNL     1     -11.849  14.646  65.875  1.00  0.00    -0.317 N  
HETATM    4  C   UNL     1     -10.682  15.376  65.896  1.00  0.00    -0.336 C  
HETATM    5  H   UNL     1     -12.328  14.440  66.752  1.00  0.00     0.000 HD 
HETATM    6  O   UNL     1     -10.045  15.654  64.888  1.00  0.00    -0.384 OA 
BRANCH   4   7
HETATM    7  C   UNL     1     -10.271  15.811  67.288  1.00  0.00    -0.268 C  
BRANCH   7   8
HETATM    8  C   UNL     1      -9.637  14.653  68.063  1.00  0.00    -0.212 C  
BRANCH   8   9
HETATM    9  C   UNL     1      -8.227  14.301  67.591  1.00  0.00    -0.193 C  
BRANCH   9  10
HETATM   10  C   UNL     1      -7.514  13.399  68.558  1.00  0.00    -0.118 C  
HETATM   11  C   UNL     1      -7.074  12.151  68.331  1.00  0.00    -0.089 C  
BRANCH  11  12
HETATM   12  C   UNL     1      -7.227  11.358  67.062  1.00  0.00    -0.141 C  
BRANCH  12  13
HETATM   13  C   UNL     1      -8.605  10.697  66.917  1.00  0.00    -0.126 C  
HETATM   14  C   UNL     1      -9.338  11.002  65.603  1.00  0.00    -0.214 C  
HETATM   15  C   UNL     1     -10.317   9.845  65.467  1.00  0.00    -0.060 C  
HETATM   16  O   UNL     1      -8.454  10.974  64.487  1.00  0.00    -0.373 OA 
HETATM   17  H   UNL     1      -8.907  11.163  63.674  1.00  0.00     0.000 HD 
HETATM   18  C   UNL     1      -9.492   8.632  65.888  1.00  0.00    -0.173 C  
HETATM   19  O   UNL     1      -8.788   8.110  64.759  1.00  0.00    -0.397 OA 
HETATM   20  C   UNL     1      -8.475   9.150  66.931  1.00  0.00    -0.124 C  
HETATM   21  H   UNL     1      -8.274   7.355  65.022  1.00  0.00     0.000 HD 
BRANCH  20  22
HETATM   22  C   UNL     1      -8.740   8.573  68.305  1.00  0.00    -0.143 C  
HETATM   23  C   UNL     1      -7.771   8.331  69.204  1.00  0.00    -0.097 C  
BRANCH  23  24
HETATM   24  C   UNL     1      -7.918   7.678  70.554  1.00  0.00    -0.100 C  
HETATM   25  H   UNL     1      -6.767   6.716  71.828  1.00  0.00     0.000 HD 
HETATM   26  O   UNL     1      -6.673   7.127  70.977  1.00  0.00    -0.047 OA 
BRANCH  24  27
HETATM   27  C   UNL     1      -8.390   8.650  71.643  1.00  0.00    -0.216 C  
BRANCH  27  28
HETATM   28  C   UNL     1      -9.627   8.163  72.404  1.00  0.00    -0.335 C  
BRANCH  28  29
HETATM   29  C   UNL     1     -10.870   8.891  71.958  1.00  0.00    -0.404 A  
HETATM   30  C   UNL     1     -10.788   9.898  70.988  1.00  0.00    -0.300 A  
HETATM   31  C   UNL     1     -11.928  10.605  70.605  1.00  0.00    -0.466 A  
HETATM   32  C   UNL     1     -13.159  10.312  71.188  1.00  0.00    -0.481 A  
HETATM   33  C   UNL     1     -13.251   9.308  72.151  1.00  0.00    -0.535 A  
HETATM   34  C   UNL     1     -12.112   8.601  72.536  1.00  0.00    -0.368 A  
ENDBRANCH  28  29
ENDBRANCH  27  28
ENDBRANCH  24  27
ENDBRANCH  23  24
ENDBRANCH  20  22
ENDBRANCH  12  13
ENDBRANCH  11  12
ENDBRANCH   9  10
ENDBRANCH   8   9
ENDBRANCH   7   8
ENDBRANCH   4   7
ENDBRANCH   2   3
TORSDOF 12
ENDMDL
MODEL      222
REMARK 921   NORMALIZED FREE ENERGY PREDICTED BY IDOCK:   -4.21 KCAL/MOL
REMARK 922        TOTAL FREE ENERGY PREDICTED BY IDOCK:   -9.99 KCAL/MOL
REMARK 923 INTER-LIGAND FREE ENERGY PREDICTED BY IDOCK:   -7.65 KCAL/MOL
REMARK 924 INTRA-LIGAND FREE ENERGY PREDICTED BY IDOCK:   -2.34 KCAL/MOL
REMARK 927      BINDING AFFINITY PREDICTED BY RF-SCORE:    0.00 PKD
ROOT
HETATM    1  C   UNL     1     -11.148   8.678  70.707  1.00  0.00    -0.295 C  
HETATM    2  C   UNL     1     -10.977  10.176  70.531  1.00  0.00    -0.310 C  
ENDROOT
BRANCH   2   3
HETATM    3  N   UNL     1     -11.925  10.917  71.332  1.00  0.00    -0.134 N  
HETATM    4  C   UNL     1     -12.529  12.055  70.846  1.00  0.00    -0.288 C  
HETATM    5  H   UNL     1     -12.150  10.592  72.273  1.00  0.00     0.000 HD 
HETATM    6  O   UNL     1     -12.303  12.512  69.733  1.00  0.00    -0.161 OA 
BRANCH   4   7
HETATM    7  C   UNL     1     -13.510  12.676  71.820  1.00  0.00    -0.313 C  
BRANCH   7   8
HETATM    8  C   UNL     1     -12.956  13.978  72.405  1.00  0.00    -0.471 C  
BRANCH   8   9
HETATM    9  C   UNL     1     -12.875  15.119  71.392  1.00  0.00    -0.457 C  
BRANCH   9  10
HETATM   10  C   UNL     1     -11.462  15.576  71.164  1.00  0.00    -0.442 C  
HETATM   11  C   UNL     1     -10.957  16.126  70.048  1.00  0.00    -0.364 C  
BRANCH  11  12
HETATM   12  C   UNL     1     -11.686  16.379  68.757  1.00  0.00    -0.037 C  
BRANCH  12  13
HETATM   13  C   UNL     1     -10.817  16.161  67.511  1.00  0.00    -0.284 C  
HETATM   14  C   UNL     1     -10.012  17.388  67.057  1.00  0.00    -0.295 C  
HETATM   15  C   UNL     1      -8.877  16.784  66.241  1.00  0.00    -0.334 C  
HETATM   16  O   UNL     1      -9.448  18.087  68.161  1.00  0.00    -0.271 OA 
HETATM   17  H   UNL     1      -8.951  18.845  67.880  1.00  0.00     0.000 HD 
HETATM   18  C   UNL     1      -8.459  15.567  67.064  1.00  0.00    -0.235 C  
HETATM   19  O   UNL     1      -7.491  15.955  68.042  1.00  0.00    -0.120 OA 
HETATM   20  C   UNL     1      -9.739  15.075  67.777  1.00  0.00    -0.215 C  
HETATM   21  H   UNL     1      -7.232  15.197  68.554  1.00  0.00     0.000 HD 
BRANCH  20  22
HETATM   22  C   UNL     1     -10.172  13.715  67.274  1.00  0.00    -0.246 C  
HETATM   23  C   UNL     1     -11.116  13.543  66.332  1.00  0.00    -0.311 C  
BRANCH  23  24
HETATM   24  C   UNL     1     -11.680  12.238  65.831  1.00  0.00    -0.389 C  
HETATM   25  H   UNL     1     -11.649  11.195  64.162  1.00  0.00     0.000 HD 
HETATM   26  O   UNL     1     -11.293  12.018  64.477  1.00  0.00    -0.319 OA 
BRANCH  24  27
HETATM   27  C   UNL     1     -11.213  11.028  66.651  1.00  0.00    -0.124 C  
BRANCH  27  28
HETATM   28  C   UNL     1     -10.101  10.222  65.974  1.00  0.00    -0.311 C  
BRANCH  28  29
HETATM   29  C   UNL     1      -9.382   9.338  66.962  1.00  0.00    -0.183 A  
HETATM   30  C   UNL     1      -9.703   7.978  67.057  1.00  0.00    -0.275 A  
HETATM   31  C   UNL     1      -9.072   7.166  68.000  1.00  0.00    -0.132 A  
HETATM   32  C   UNL     1      -8.116   7.708  68.856  1.00  0.00    -0.127 A  
HETATM   33  C   UNL     1      -7.786   9.059  68.767  1.00  0.00    -0.096 A  
HETATM   34  C   UNL     1      -8.416   9.872  67.825  1.00  0.00    -0.118 A  
ENDBRANCH  28  29
ENDBRANCH  27  28
ENDBRANCH  24  27
ENDBRANCH  23  24
ENDBRANCH  20  22
ENDBRANCH  12  13
ENDBRANCH  11  12
ENDBRANCH   9  10
ENDBRANCH   8   9
ENDBRANCH   7   8
ENDBRANCH   4   7
ENDBRANCH   2   3
TORSDOF 12
ENDMDL
MODEL      223
REMARK 921   NORMALIZED FREE ENERGY PREDICTED BY IDOCK:   -4.19 KCAL/MOL
REMARK 922        TOTAL FREE ENERGY PREDICTED BY IDOCK:   -9.97 KCAL/MOL
REMARK 923 INTER-LIGAND FREE ENERGY PREDICTED BY IDOCK:   -7.18 KCAL/MOL
REMARK 924 INTRA-LIGAND FREE ENERGY PREDICTED BY IDOCK:   -2.79 KCAL/MOL
REMARK 927      BINDING AFFINITY PREDICTED BY RF-SCORE:    0.00 PKD
ROOT
HETATM    1  C   UNL     1     -12.230  15.609  72.091  1.00  0.00    -0.528 C  
HETATM    2  C   UNL     1     -13.125  15.384  70.886  1.00  0.00    -0.468 C  
ENDROOT
BRANCH   2   3
HETATM    3  N   UNL     1     -12.558  14.416  69.975  1.00  0.00    -0.494 N  
HETATM    4  C   UNL     1     -11.879  14.816  68.846  1.00  0.00    -0.296 C  
HETATM    5  H   UNL     1     -12.662  13.421  70.172  1.00  0.00     0.000 HD 
HETATM    6  O   UNL     1     -11.723  15.991  68.537  1.00  0.00    -0.375 OA 
BRANCH   4   7
HETATM    7  C   UNL     1     -11.335  13.660  68.031  1.00  0.00    -0.316 C  
BRANCH   7   8
HETATM    8  C   UNL     1     -11.892  12.324  68.530  1.00  0.00    -0.359 C  
BRANCH   8   9
HETATM    9  C   UNL     1     -10.814  11.277  68.805  1.00  0.00    -0.252 C  
BRANCH   9  10
HETATM   10  C   UNL     1     -11.146  10.419  69.993  1.00  0.00    -0.379 C  
HETATM   11  C   UNL     1     -10.296   9.681  70.724  1.00  0.00    -0.356 C  
BRANCH  11  12
HETATM   12  C   UNL     1      -8.818   9.519  70.498  1.00  0.00    -0.253 C  
BRANCH  12  13
HETATM   13  C   UNL     1      -8.456   8.254  69.705  1.00  0.00    -0.128 C  
HETATM   14  C   UNL     1      -8.502   8.409  68.178  1.00  0.00    -0.132 C  
HETATM   15  C   UNL     1      -7.596   7.290  67.682  1.00  0.00    -0.110 C  
HETATM   16  O   UNL     1      -7.950   9.651  67.757  1.00  0.00    -0.104 OA 
HETATM   17  H   UNL     1      -7.978   9.747  66.812  1.00  0.00     0.000 HD 
HETATM   18  C   UNL     1      -6.419   7.331  68.653  1.00  0.00    -0.040 C  
HETATM   19  O   UNL     1      -5.443   8.267  68.188  1.00  0.00    -0.033 OA 
HETATM   20  C   UNL     1      -6.995   7.821  70.001  1.00  0.00    -0.050 C  
HETATM   21  H   UNL     1      -4.710   8.293  68.793  1.00  0.00     0.000 HD 
BRANCH  20  22
HETATM   22  C   UNL     1      -6.931   6.742  71.061  1.00  0.00    -0.067 C  
HETATM   23  C   UNL     1      -6.645   5.456  70.789  1.00  0.00    -0.039 C  
BRANCH  23  24
HETATM   24  C   UNL     1      -6.646   4.296  71.751  1.00  0.00    -0.026 C  
HETATM   25  H   UNL     1      -6.233   3.994  73.652  1.00  0.00     0.000 HD 
HETATM   26  O   UNL     1      -6.232   4.726  73.045  1.00  0.00    -0.033 OA 
BRANCH  24  27
HETATM   27  C   UNL     1      -8.025   3.639  71.898  1.00  0.00    -0.063 C  
BRANCH  27  28
HETATM   28  C   UNL     1      -8.911   3.791  70.658  1.00  0.00    -0.135 C  
BRANCH  28  29
HETATM   29  C   UNL     1      -9.999   4.812  70.881  1.00  0.00    -0.283 A  
HETATM   30  C   UNL     1     -10.469   5.071  72.175  1.00  0.00    -0.274 A  
HETATM   31  C   UNL     1     -11.506   5.981  72.382  1.00  0.00    -0.357 A  
HETATM   32  C   UNL     1     -12.081   6.640  71.297  1.00  0.00    -0.395 A  
HETATM   33  C   UNL     1     -11.617   6.392  70.006  1.00  0.00    -0.446 A  
HETATM   34  C   UNL     1     -10.581   5.482  69.797  1.00  0.00    -0.388 A  
ENDBRANCH  28  29
ENDBRANCH  27  28
ENDBRANCH  24  27
ENDBRANCH  23  24
ENDBRANCH  20  22
ENDBRANCH  12  13
ENDBRANCH  11  12
ENDBRANCH   9  10
ENDBRANCH   8   9
ENDBRANCH   7   8
ENDBRANCH   4   7
ENDBRANCH   2   3
TORSDOF 12
ENDMDL
MODEL      224
REMARK 921   NORMALIZED FREE ENERGY PREDICTED BY IDOCK:   -4.19 KCAL/MOL
REMARK 922        TOTAL FREE ENERGY PREDICTED BY IDOCK:   -9.96 KCAL/MOL
REMARK 923 INTER-LIGAND FREE ENERGY PREDICTED BY IDOCK:   -9.45 KCAL/MOL
REMARK 924 INTRA-LIGAND FREE ENERGY PREDICTED BY IDOCK:   -0.51 KCAL/MOL
REMARK 927      BINDING AFFINITY PREDICTED BY RF-SCORE:    0.00 PKD
ROOT
HETATM    1  C   UNL     1      -8.023  11.169  69.063  1.00  0.00    -0.087 C  
HETATM    2  C   UNL     1      -7.281   9.949  69.576  1.00  0.00    -0.095 C  
ENDROOT
BRANCH   2   3
HETATM    3  N   UNL     1      -8.103   9.163  70.467  1.00  0.00    -0.144 N  
HETATM    4  C   UNL     1      -9.044   8.285  69.977  1.00  0.00    -0.150 C  
HETATM    5  H   UNL     1      -7.985   9.260  71.476  1.00  0.00     0.000 HD 
HETATM    6  O   UNL     1      -9.252   8.121  68.781  1.00  0.00    -0.144 OA 
BRANCH   4   7
HETATM    7  C   UNL     1      -9.787   7.533  71.063  1.00  0.00    -0.182 C  
BRANCH   7   8
HETATM    8  C   UNL     1     -11.191   8.108  71.270  1.00  0.00    -0.297 C  
BRANCH   8   9
HETATM    9  C   UNL     1     -11.243   9.634  71.194  1.00  0.00    -0.454 C  
BRANCH   9  10
HETATM   10  C   UNL     1     -12.605  10.172  71.531  1.00  0.00    -0.537 C  
HETATM   11  C   UNL     1     -13.063  11.415  71.313  1.00  0.00    -0.297 C  
BRANCH  11  12
HETATM   12  C   UNL     1     -12.301  12.564  70.711  1.00  0.00    -0.376 C  
BRANCH  12  13
HETATM   13  C   UNL     1     -13.011  13.916  70.870  1.00  0.00    -0.316 C  
HETATM   14  C   UNL     1     -13.909  14.039  72.109  1.00  0.00    -0.532 C  
HETATM   15  C   UNL     1     -14.003  15.542  72.330  1.00  0.00    -0.653 C  
HETATM   16  O   UNL     1     -13.306  13.454  73.257  1.00  0.00    -0.342 OA 
HETATM   17  H   UNL     1     -13.861  13.529  74.024  1.00  0.00     0.000 HD 
HETATM   18  C   UNL     1     -12.577  16.026  72.082  1.00  0.00    -0.422 C  
HETATM   19  O   UNL     1     -11.821  15.940  73.292  1.00  0.00    -0.426 OA 
HETATM   20  C   UNL     1     -11.976  15.062  71.034  1.00  0.00    -0.376 C  
HETATM   21  H   UNL     1     -10.933  16.241  73.138  1.00  0.00     0.000 HD 
BRANCH  20  22
HETATM   22  C   UNL     1     -11.700  15.765  69.722  1.00  0.00    -0.355 C  
HETATM   23  C   UNL     1     -10.468  16.133  69.327  1.00  0.00    -0.267 C  
BRANCH  23  24
HETATM   24  C   UNL     1     -10.100  16.914  68.092  1.00  0.00    -0.299 C  
HETATM   25  H   UNL     1     -10.150  16.645  66.143  1.00  0.00     0.000 HD 
HETATM   26  O   UNL     1     -10.382  16.152  66.921  1.00  0.00    -0.287 OA 
BRANCH  24  27
HETATM   27  C   UNL     1     -10.856  18.244  67.975  1.00  0.00    -0.178 C  
BRANCH  27  28
HETATM   28  C   UNL     1      -9.979  19.471  68.237  1.00  0.00    -0.533 C  
BRANCH  28  29
HETATM   29  C   UNL     1      -8.559  19.241  67.783  1.00  0.00    -0.341 A  
HETATM   30  C   UNL     1      -7.544  19.023  68.724  1.00  0.00    -0.375 A  
HETATM   31  C   UNL     1      -6.222  18.854  68.312  1.00  0.00    -0.228 A  
HETATM   32  C   UNL     1      -5.903  18.901  66.956  1.00  0.00    -0.161 A  
HETATM   33  C   UNL     1      -6.907  19.113  66.012  1.00  0.00    -0.270 A  
HETATM   34  C   UNL     1      -8.229  19.283  66.423  1.00  0.00    -0.329 A  
ENDBRANCH  28  29
ENDBRANCH  27  28
ENDBRANCH  24  27
ENDBRANCH  23  24
ENDBRANCH  20  22
ENDBRANCH  12  13
ENDBRANCH  11  12
ENDBRANCH   9  10
ENDBRANCH   8   9
ENDBRANCH   7   8
ENDBRANCH   4   7
ENDBRANCH   2   3
TORSDOF 12
ENDMDL
MODEL      225
REMARK 921   NORMALIZED FREE ENERGY PREDICTED BY IDOCK:   -4.18 KCAL/MOL
REMARK 922        TOTAL FREE ENERGY PREDICTED BY IDOCK:   -9.95 KCAL/MOL
REMARK 923 INTER-LIGAND FREE ENERGY PREDICTED BY IDOCK:   -8.17 KCAL/MOL
REMARK 924 INTRA-LIGAND FREE ENERGY PREDICTED BY IDOCK:   -1.79 KCAL/MOL
REMARK 927      BINDING AFFINITY PREDICTED BY RF-SCORE:    0.00 PKD
ROOT
HETATM    1  C   UNL     1     -12.252  13.312  64.521  1.00  0.00    -0.456 C  
HETATM    2  C   UNL     1     -10.821  13.778  64.324  1.00  0.00    -0.223 C  
ENDROOT
BRANCH   2   3
HETATM    3  N   UNL     1     -10.506  14.903  65.176  1.00  0.00    -0.401 N  
HETATM    4  C   UNL     1     -10.917  16.176  64.851  1.00  0.00    -0.349 C  
HETATM    5  H   UNL     1      -9.971  14.751  66.031  1.00  0.00     0.000 HD 
HETATM    6  O   UNL     1     -11.553  16.439  63.838  1.00  0.00    -1.100 OA 
BRANCH   4   7
HETATM    7  C   UNL     1     -10.516  17.216  65.878  1.00  0.00    -0.265 C  
BRANCH   7   8
HETATM    8  C   UNL     1      -9.135  16.908  66.464  1.00  0.00    -0.302 C  
BRANCH   8   9
HETATM    9  C   UNL     1      -9.094  16.957  67.990  1.00  0.00    -0.234 C  
BRANCH   9  10
HETATM   10  C   UNL     1      -7.922  16.202  68.550  1.00  0.00    -0.175 C  
HETATM   11  C   UNL     1      -7.695  14.881  68.471  1.00  0.00    -0.123 C  
BRANCH  11  12
HETATM   12  C   UNL     1      -8.582  13.850  67.830  1.00  0.00    -0.182 C  
BRANCH  12  13
HETATM   13  C   UNL     1      -9.550  13.179  68.814  1.00  0.00     0.073 C  
HETATM   14  C   UNL     1     -10.851  13.953  69.078  1.00  0.00    -0.225 C  
HETATM   15  C   UNL     1     -11.808  12.877  69.572  1.00  0.00    -0.383 C  
HETATM   16  O   UNL     1     -11.383  14.511  67.882  1.00  0.00    -0.281 OA 
HETATM   17  H   UNL     1     -12.187  14.990  68.044  1.00  0.00     0.000 HD 
HETATM   18  C   UNL     1     -11.521  11.696  68.647  1.00  0.00    -0.290 C  
HETATM   19  O   UNL     1     -12.320  11.802  67.466  1.00  0.00    -0.290 OA 
HETATM   20  C   UNL     1     -10.027  11.807  68.266  1.00  0.00    -0.200 C  
HETATM   21  H   UNL     1     -12.140  11.067  66.891  1.00  0.00     0.000 HD 
BRANCH  20  22
HETATM   22  C   UNL     1      -9.219  10.660  68.835  1.00  0.00    -0.189 C  
HETATM   23  C   UNL     1      -9.772   9.521  69.288  1.00  0.00    -0.180 C  
BRANCH  23  24
HETATM   24  C   UNL     1      -9.069   8.366  69.953  1.00  0.00    -0.146 C  
HETATM   25  H   UNL     1      -7.443   7.297  69.654  1.00  0.00     0.000 HD 
HETATM   26  O   UNL     1      -7.886   8.025  69.234  1.00  0.00    -0.109 OA 
BRANCH  24  27
HETATM   27  C   UNL     1      -8.664   8.663  71.402  1.00  0.00    -0.262 C  
BRANCH  27  28
HETATM   28  C   UNL     1      -9.842   8.660  72.380  1.00  0.00    -0.315 C  
BRANCH  28  29
HETATM   29  C   UNL     1     -10.213   7.257  72.792  1.00  0.00    -0.266 A  
HETATM   30  C   UNL     1     -11.347   6.639  72.249  1.00  0.00    -0.311 A  
HETATM   31  C   UNL     1     -11.719   5.359  72.660  1.00  0.00    -0.214 A  
HETATM   32  C   UNL     1     -10.961   4.687  73.617  1.00  0.00    -0.392 A  
HETATM   33  C   UNL     1      -9.829   5.292  74.159  1.00  0.00    -0.195 A  
HETATM   34  C   UNL     1      -9.455   6.572  73.750  1.00  0.00    -0.180 A  
ENDBRANCH  28  29
ENDBRANCH  27  28
ENDBRANCH  24  27
ENDBRANCH  23  24
ENDBRANCH  20  22
ENDBRANCH  12  13
ENDBRANCH  11  12
ENDBRANCH   9  10
ENDBRANCH   8   9
ENDBRANCH   7   8
ENDBRANCH   4   7
ENDBRANCH   2   3
TORSDOF 12
ENDMDL
MODEL      226
REMARK 921   NORMALIZED FREE ENERGY PREDICTED BY IDOCK:   -4.18 KCAL/MOL
REMARK 922        TOTAL FREE ENERGY PREDICTED BY IDOCK:   -9.95 KCAL/MOL
REMARK 923 INTER-LIGAND FREE ENERGY PREDICTED BY IDOCK:   -8.10 KCAL/MOL
REMARK 924 INTRA-LIGAND FREE ENERGY PREDICTED BY IDOCK:   -1.85 KCAL/MOL
REMARK 927      BINDING AFFINITY PREDICTED BY RF-SCORE:    0.00 PKD
ROOT
HETATM    1  C   UNL     1      -7.458   2.179  65.947  1.00  0.00    -0.067 C  
HETATM    2  C   UNL     1      -8.347   3.341  65.544  1.00  0.00    -0.099 C  
ENDROOT
BRANCH   2   3
HETATM    3  N   UNL     1      -8.712   4.152  66.684  1.00  0.00    -0.112 N  
HETATM    4  C   UNL     1      -9.912   4.826  66.721  1.00  0.00    -0.228 C  
HETATM    5  H   UNL     1      -8.071   4.225  67.474  1.00  0.00     0.000 HD 
HETATM    6  O   UNL     1     -10.729   4.795  65.809  1.00  0.00    -0.305 OA 
BRANCH   4   7
HETATM    7  C   UNL     1     -10.127   5.598  68.007  1.00  0.00    -0.211 C  
BRANCH   7   8
HETATM    8  C   UNL     1      -8.845   6.312  68.442  1.00  0.00    -0.114 C  
BRANCH   8   9
HETATM    9  C   UNL     1      -8.311   5.841  69.794  1.00  0.00    -0.112 C  
BRANCH   9  10
HETATM   10  C   UNL     1      -7.736   6.970  70.602  1.00  0.00    -0.095 C  
HETATM   11  C   UNL     1      -8.277   7.553  71.683  1.00  0.00    -0.108 C  
BRANCH  11  12
HETATM   12  C   UNL     1      -9.603   7.228  72.314  1.00  0.00    -0.173 C  
BRANCH  12  13
HETATM   13  C   UNL     1     -10.802   7.528  71.404  1.00  0.00    -0.251 C  
HETATM   14  C   UNL     1     -11.966   6.532  71.511  1.00  0.00    -0.329 C  
HETATM   15  C   UNL     1     -13.160   7.327  71.001  1.00  0.00    -0.203 C  
HETATM   16  O   UNL     1     -12.219   6.160  72.861  1.00  0.00    -0.425 OA 
HETATM   17  H   UNL     1     -12.939   5.544  72.928  1.00  0.00     0.000 HD 
HETATM   18  C   UNL     1     -12.965   8.703  71.634  1.00  0.00    -0.344 C  
HETATM   19  O   UNL     1     -13.561   8.726  72.933  1.00  0.00    -0.781 OA 
HETATM   20  C   UNL     1     -11.438   8.898  71.768  1.00  0.00    -0.423 C  
HETATM   21  H   UNL     1     -13.439   9.582  73.326  1.00  0.00     0.000 HD 
BRANCH  20  22
HETATM   22  C   UNL     1     -10.936  10.009  70.871  1.00  0.00    -0.337 C  
HETATM   23  C   UNL     1     -10.285   9.788  69.716  1.00  0.00    -0.271 C  
BRANCH  23  24
HETATM   24  C   UNL     1      -9.668  10.816  68.803  1.00  0.00    -0.192 C  
HETATM   25  H   UNL     1      -8.065  10.968  67.670  1.00  0.00     0.000 HD 
HETATM   26  O   UNL     1      -8.454  10.320  68.245  1.00  0.00    -0.116 OA 
BRANCH  24  27
HETATM   27  C   UNL     1     -10.585  11.215  67.640  1.00  0.00    -0.250 C  
BRANCH  27  28
HETATM   28  C   UNL     1      -9.827  11.593  66.364  1.00  0.00    -0.233 C  
BRANCH  28  29
HETATM   29  C   UNL     1     -10.717  12.325  65.391  1.00  0.00    -0.320 A  
HETATM   30  C   UNL     1     -11.259  11.652  64.287  1.00  0.00    -0.392 A  
HETATM   31  C   UNL     1     -12.046  12.335  63.360  1.00  0.00    -0.615 A  
HETATM   32  C   UNL     1     -12.299  13.695  63.528  1.00  0.00    -0.265 A  
HETATM   33  C   UNL     1     -11.769  14.371  64.626  1.00  0.00    -0.438 A  
HETATM   34  C   UNL     1     -10.981  13.691  65.553  1.00  0.00    -0.297 A  
ENDBRANCH  28  29
ENDBRANCH  27  28
ENDBRANCH  24  27
ENDBRANCH  23  24
ENDBRANCH  20  22
ENDBRANCH  12  13
ENDBRANCH  11  12
ENDBRANCH   9  10
ENDBRANCH   8   9
ENDBRANCH   7   8
ENDBRANCH   4   7
ENDBRANCH   2   3
TORSDOF 12
ENDMDL
MODEL      227
REMARK 921   NORMALIZED FREE ENERGY PREDICTED BY IDOCK:   -4.18 KCAL/MOL
REMARK 922        TOTAL FREE ENERGY PREDICTED BY IDOCK:   -9.94 KCAL/MOL
REMARK 923 INTER-LIGAND FREE ENERGY PREDICTED BY IDOCK:   -8.29 KCAL/MOL
REMARK 924 INTRA-LIGAND FREE ENERGY PREDICTED BY IDOCK:   -1.65 KCAL/MOL
REMARK 927      BINDING AFFINITY PREDICTED BY RF-SCORE:    0.00 PKD
ROOT
HETATM    1  C   UNL     1      -6.793  10.538  66.161  1.00  0.00    -0.131 C  
HETATM    2  C   UNL     1      -6.950   9.068  65.822  1.00  0.00    -0.080 C  
ENDROOT
BRANCH   2   3
HETATM    3  N   UNL     1      -8.299   8.608  66.060  1.00  0.00    -0.125 N  
HETATM    4  C   UNL     1      -8.763   8.399  67.340  1.00  0.00    -0.135 C  
HETATM    5  H   UNL     1      -8.918   8.435  65.268  1.00  0.00     0.000 HD 
HETATM    6  O   UNL     1      -8.077   8.574  68.340  1.00  0.00    -0.119 OA 
BRANCH   4   7
HETATM    7  C   UNL     1     -10.208   7.944  67.388  1.00  0.00    -0.320 C  
BRANCH   7   8
HETATM    8  C   UNL     1     -10.318   6.436  67.152  1.00  0.00    -0.293 C  
BRANCH   8   9
HETATM    9  C   UNL     1     -10.456   5.623  68.438  1.00  0.00    -0.263 C  
BRANCH   9  10
HETATM   10  C   UNL     1      -9.168   5.557  69.208  1.00  0.00    -0.140 C  
HETATM   11  C   UNL     1      -8.944   4.909  70.363  1.00  0.00    -0.151 C  
BRANCH  11  12
HETATM   12  C   UNL     1      -9.947   4.127  71.166  1.00  0.00    -0.211 C  
BRANCH  12  13
HETATM   13  C   UNL     1     -10.508   4.904  72.365  1.00  0.00    -0.269 C  
HETATM   14  C   UNL     1      -9.781   4.662  73.696  1.00  0.00    -0.135 C  
HETATM   15  C   UNL     1     -10.122   5.900  74.515  1.00  0.00    -0.312 C  
HETATM   16  O   UNL     1      -8.369   4.614  73.524  1.00  0.00    -0.102 OA 
HETATM   17  H   UNL     1      -7.919   4.464  74.347  1.00  0.00     0.000 HD 
HETATM   18  C   UNL     1      -9.999   7.038  73.505  1.00  0.00    -0.284 C  
HETATM   19  O   UNL     1      -8.645   7.496  73.457  1.00  0.00    -0.144 OA 
HETATM   20  C   UNL     1     -10.383   6.434  72.134  1.00  0.00    -0.213 C  
HETATM   21  H   UNL     1      -8.569   8.204  72.828  1.00  0.00     0.000 HD 
BRANCH  20  22
HETATM   22  C   UNL     1     -11.668   7.032  71.602  1.00  0.00    -0.332 C  
HETATM   23  C   UNL     1     -12.227   8.146  72.104  1.00  0.00    -0.398 C  
BRANCH  23  24
HETATM   24  C   UNL     1     -13.542   8.767  71.709  1.00  0.00    -0.410 C  
HETATM   25  H   UNL     1     -15.231   9.262  72.592  1.00  0.00     0.000 HD 
HETATM   26  O   UNL     1     -14.401   8.871  72.841  1.00  0.00    -0.548 OA 
BRANCH  24  27
HETATM   27  C   UNL     1     -13.389  10.171  71.111  1.00  0.00    -0.372 C  
BRANCH  27  28
HETATM   28  C   UNL     1     -11.936  10.555  70.815  1.00  0.00    -0.472 C  
BRANCH  28  29
HETATM   29  C   UNL     1     -11.852  11.582  69.713  1.00  0.00    -0.429 A  
HETATM   30  C   UNL     1     -11.530  11.190  68.407  1.00  0.00    -0.377 A  
HETATM   31  C   UNL     1     -11.407  12.141  67.394  1.00  0.00    -0.393 A  
HETATM   32  C   UNL     1     -11.604  13.491  67.678  1.00  0.00    -0.374 A  
HETATM   33  C   UNL     1     -11.929  13.890  68.974  1.00  0.00    -0.402 A  
HETATM   34  C   UNL     1     -12.052  12.941  69.988  1.00  0.00    -0.357 A  
ENDBRANCH  28  29
ENDBRANCH  27  28
ENDBRANCH  24  27
ENDBRANCH  23  24
ENDBRANCH  20  22
ENDBRANCH  12  13
ENDBRANCH  11  12
ENDBRANCH   9  10
ENDBRANCH   8   9
ENDBRANCH   7   8
ENDBRANCH   4   7
ENDBRANCH   2   3
TORSDOF 12
ENDMDL
MODEL      228
REMARK 921   NORMALIZED FREE ENERGY PREDICTED BY IDOCK:   -4.16 KCAL/MOL
REMARK 922        TOTAL FREE ENERGY PREDICTED BY IDOCK:   -9.91 KCAL/MOL
REMARK 923 INTER-LIGAND FREE ENERGY PREDICTED BY IDOCK:   -7.42 KCAL/MOL
REMARK 924 INTRA-LIGAND FREE ENERGY PREDICTED BY IDOCK:   -2.49 KCAL/MOL
REMARK 927      BINDING AFFINITY PREDICTED BY RF-SCORE:    0.00 PKD
ROOT
HETATM    1  C   UNL     1     -12.196  15.361  71.593  1.00  0.00    -0.445 C  
HETATM    2  C   UNL     1     -13.127  15.382  70.395  1.00  0.00    -0.180 C  
ENDROOT
BRANCH   2   3
HETATM    3  N   UNL     1     -12.522  14.756  69.241  1.00  0.00    -0.579 N  
HETATM    4  C   UNL     1     -11.798  15.493  68.331  1.00  0.00    -0.224 C  
HETATM    5  H   UNL     1     -12.634  13.752  69.098  1.00  0.00     0.000 HD 
HETATM    6  O   UNL     1     -11.628  16.701  68.429  1.00  0.00    -0.170 OA 
BRANCH   4   7
HETATM    7  C   UNL     1     -11.220  14.657  67.206  1.00  0.00    -0.344 C  
BRANCH   7   8
HETATM    8  C   UNL     1     -12.018  13.365  67.015  1.00  0.00    -0.429 C  
BRANCH   8   9
HETATM    9  C   UNL     1     -11.173  12.099  67.149  1.00  0.00    -0.372 C  
BRANCH   9  10
HETATM   10  C   UNL     1     -11.226  11.526  68.537  1.00  0.00    -0.315 C  
HETATM   11  C   UNL     1     -10.305  10.749  69.130  1.00  0.00    -0.238 C  
BRANCH  11  12
HETATM   12  C   UNL     1      -9.024  10.246  68.524  1.00  0.00    -0.134 C  
BRANCH  12  13
HETATM   13  C   UNL     1      -9.116   8.803  68.010  1.00  0.00    -0.144 C  
HETATM   14  C   UNL     1      -9.433   8.664  66.514  1.00  0.00    -0.216 C  
HETATM   15  C   UNL     1      -8.914   7.274  66.170  1.00  0.00    -0.179 C  
HETATM   16  O   UNL     1      -8.717   9.615  65.733  1.00  0.00    -0.137 OA 
HETATM   17  H   UNL     1      -8.913   9.530  64.808  1.00  0.00     0.000 HD 
HETATM   18  C   UNL     1      -7.585   7.198  66.918  1.00  0.00    -0.101 C  
HETATM   19  O   UNL     1      -6.542   7.740  66.106  1.00  0.00    -0.048 OA 
HETATM   20  C   UNL     1      -7.757   8.072  68.182  1.00  0.00    -0.118 C  
HETATM   21  H   UNL     1      -5.715   7.693  66.572  1.00  0.00     0.000 HD 
BRANCH  20  22
HETATM   22  C   UNL     1      -7.719   7.240  69.446  1.00  0.00    -0.107 C  
HETATM   23  C   UNL     1      -8.178   5.978  69.512  1.00  0.00    -0.115 C  
BRANCH  23  24
HETATM   24  C   UNL     1      -8.270   5.102  70.736  1.00  0.00    -0.105 C  
HETATM   25  H   UNL     1      -7.567   5.109  72.575  1.00  0.00     0.000 HD 
HETATM   26  O   UNL     1      -7.509   5.661  71.804  1.00  0.00    -0.089 OA 
BRANCH  24  27
HETATM   27  C   UNL     1      -9.708   4.918  71.236  1.00  0.00    -0.241 C  
BRANCH  27  28
HETATM   28  C   UNL     1     -10.761   5.548  70.319  1.00  0.00    -0.333 C  
BRANCH  28  29
HETATM   29  C   UNL     1     -11.364   6.783  70.941  1.00  0.00    -0.363 A  
HETATM   30  C   UNL     1     -12.755   6.949  70.974  1.00  0.00    -0.269 A  
HETATM   31  C   UNL     1     -13.316   8.109  71.508  1.00  0.00    -0.313 A  
HETATM   32  C   UNL     1     -12.492   9.113  72.012  1.00  0.00    -0.452 A  
HETATM   33  C   UNL     1     -11.107   8.955  71.987  1.00  0.00    -0.421 A  
HETATM   34  C   UNL     1     -10.544   7.796  71.454  1.00  0.00    -0.242 A  
ENDBRANCH  28  29
ENDBRANCH  27  28
ENDBRANCH  24  27
ENDBRANCH  23  24
ENDBRANCH  20  22
ENDBRANCH  12  13
ENDBRANCH  11  12
ENDBRANCH   9  10
ENDBRANCH   8   9
ENDBRANCH   7   8
ENDBRANCH   4   7
ENDBRANCH   2   3
TORSDOF 12
ENDMDL
MODEL      229
REMARK 921   NORMALIZED FREE ENERGY PREDICTED BY IDOCK:   -4.15 KCAL/MOL
REMARK 922        TOTAL FREE ENERGY PREDICTED BY IDOCK:   -9.90 KCAL/MOL
REMARK 923 INTER-LIGAND FREE ENERGY PREDICTED BY IDOCK:   -7.58 KCAL/MOL
REMARK 924 INTRA-LIGAND FREE ENERGY PREDICTED BY IDOCK:   -2.32 KCAL/MOL
REMARK 927      BINDING AFFINITY PREDICTED BY RF-SCORE:    0.00 PKD
ROOT
HETATM    1  C   UNL     1     -12.462  13.219  64.620  1.00  0.00    -0.408 C  
HETATM    2  C   UNL     1     -12.660  14.237  65.728  1.00  0.00    -0.384 C  
ENDROOT
BRANCH   2   3
HETATM    3  N   UNL     1     -12.651  13.613  67.032  1.00  0.00    -0.288 N  
HETATM    4  C   UNL     1     -11.933  14.156  68.074  1.00  0.00    -0.337 C  
HETATM    5  H   UNL     1     -13.184  12.756  67.182  1.00  0.00     0.000 HD 
HETATM    6  O   UNL     1     -11.261  15.175  67.969  1.00  0.00    -0.298 OA 
BRANCH   4   7
HETATM    7  C   UNL     1     -12.068  13.376  69.366  1.00  0.00    -0.321 C  
BRANCH   7   8
HETATM    8  C   UNL     1     -11.450  11.982  69.235  1.00  0.00    -0.361 C  
BRANCH   8   9
HETATM    9  C   UNL     1     -12.380  10.856  69.686  1.00  0.00    -0.290 C  
BRANCH   9  10
HETATM   10  C   UNL     1     -12.586  10.853  71.174  1.00  0.00    -0.532 C  
HETATM   11  C   UNL     1     -12.293   9.863  72.032  1.00  0.00    -0.286 C  
BRANCH  11  12
HETATM   12  C   UNL     1     -11.718   8.515  71.692  1.00  0.00    -0.369 C  
BRANCH  12  13
HETATM   13  C   UNL     1     -10.386   8.223  72.397  1.00  0.00    -0.402 C  
HETATM   14  C   UNL     1     -10.439   7.107  73.451  1.00  0.00    -0.368 C  
HETATM   15  C   UNL     1      -8.991   6.648  73.553  1.00  0.00    -0.143 C  
HETATM   16  O   UNL     1     -11.228   6.006  73.014  1.00  0.00    -0.359 OA 
HETATM   17  H   UNL     1     -11.261   5.316  73.666  1.00  0.00     0.000 HD 
HETATM   18  C   UNL     1      -8.524   6.625  72.100  1.00  0.00    -0.112 C  
HETATM   19  O   UNL     1      -8.837   5.359  71.513  1.00  0.00    -0.133 OA 
HETATM   20  C   UNL     1      -9.322   7.735  71.378  1.00  0.00    -0.165 C  
HETATM   21  H   UNL     1      -8.547   5.345  70.608  1.00  0.00     0.000 HD 
BRANCH  20  22
HETATM   22  C   UNL     1      -8.421   8.861  70.920  1.00  0.00    -0.226 C  
HETATM   23  C   UNL     1      -8.703   9.651  69.869  1.00  0.00    -0.236 C  
BRANCH  23  24
HETATM   24  C   UNL     1      -7.834  10.732  69.279  1.00  0.00    -0.122 C  
HETATM   25  H   UNL     1      -6.376  11.907  69.886  1.00  0.00     0.000 HD 
HETATM   26  O   UNL     1      -6.923  11.225  70.258  1.00  0.00    -0.068 OA 
BRANCH  24  27
HETATM   27  C   UNL     1      -7.011  10.253  68.076  1.00  0.00    -0.082 C  
BRANCH  27  28
HETATM   28  C   UNL     1      -7.696   9.148  67.267  1.00  0.00    -0.095 C  
BRANCH  28  29
HETATM   29  C   UNL     1      -8.428   9.712  66.075  1.00  0.00    -0.131 A  
HETATM   30  C   UNL     1      -7.725  10.060  64.914  1.00  0.00    -0.138 A  
HETATM   31  C   UNL     1      -8.391  10.623  63.826  1.00  0.00    -0.033 A  
HETATM   32  C   UNL     1      -9.765  10.845  63.889  1.00  0.00    -0.352 A  
HETATM   33  C   UNL     1     -10.474  10.498  65.038  1.00  0.00    -0.221 A  
HETATM   34  C   UNL     1      -9.810   9.935  66.127  1.00  0.00    -0.324 A  
ENDBRANCH  28  29
ENDBRANCH  27  28
ENDBRANCH  24  27
ENDBRANCH  23  24
ENDBRANCH  20  22
ENDBRANCH  12  13
ENDBRANCH  11  12
ENDBRANCH   9  10
ENDBRANCH   8   9
ENDBRANCH   7   8
ENDBRANCH   4   7
ENDBRANCH   2   3
TORSDOF 12
ENDMDL
MODEL      230
REMARK 921   NORMALIZED FREE ENERGY PREDICTED BY IDOCK:   -4.15 KCAL/MOL
REMARK 922        TOTAL FREE ENERGY PREDICTED BY IDOCK:   -9.90 KCAL/MOL
REMARK 923 INTER-LIGAND FREE ENERGY PREDICTED BY IDOCK:   -7.10 KCAL/MOL
REMARK 924 INTRA-LIGAND FREE ENERGY PREDICTED BY IDOCK:   -2.80 KCAL/MOL
REMARK 927      BINDING AFFINITY PREDICTED BY RF-SCORE:    0.00 PKD
ROOT
HETATM    1  C   UNL     1      -9.785  18.223  67.781  1.00  0.00    -0.305 C  
HETATM    2  C   UNL     1      -8.349  18.637  68.043  1.00  0.00    -0.277 C  
ENDROOT
BRANCH   2   3
HETATM    3  N   UNL     1      -7.549  17.522  68.499  1.00  0.00    -0.257 N  
HETATM    4  C   UNL     1      -6.757  16.812  67.625  1.00  0.00    -0.142 C  
HETATM    5  H   UNL     1      -7.572  17.258  69.484  1.00  0.00     0.000 HD 
HETATM    6  O   UNL     1      -6.685  17.061  66.428  1.00  0.00    -0.228 OA 
BRANCH   4   7
HETATM    7  C   UNL     1      -5.974  15.699  68.293  1.00  0.00    -0.117 C  
BRANCH   7   8
HETATM    8  C   UNL     1      -6.364  14.333  67.724  1.00  0.00    -0.168 C  
BRANCH   8   9
HETATM    9  C   UNL     1      -7.589  13.716  68.397  1.00  0.00    -0.132 C  
BRANCH   9  10
HETATM   10  C   UNL     1      -7.610  12.219  68.277  1.00  0.00    -0.133 C  
HETATM   11  C   UNL     1      -8.150  11.491  67.287  1.00  0.00    -0.153 C  
BRANCH  11  12
HETATM   12  C   UNL     1      -8.890  12.012  66.085  1.00  0.00    -0.018 C  
BRANCH  12  13
HETATM   13  C   UNL     1     -10.114  12.866  66.444  1.00  0.00    -0.272 C  
HETATM   14  C   UNL     1     -10.335  14.095  65.550  1.00  0.00    -0.351 C  
HETATM   15  C   UNL     1     -11.817  14.397  65.724  1.00  0.00    -0.365 C  
HETATM   16  O   UNL     1     -10.095  13.800  64.179  1.00  0.00    -0.729 OA 
HETATM   17  H   UNL     1     -10.231  14.561  63.626  1.00  0.00     0.000 HD 
HETATM   18  C   UNL     1     -12.465  13.015  65.694  1.00  0.00    -0.390 C  
HETATM   19  O   UNL     1     -12.744  12.642  64.343  1.00  0.00    -0.656 OA 
HETATM   20  C   UNL     1     -11.421  12.042  66.288  1.00  0.00    -0.408 C  
HETATM   21  H   UNL     1     -13.147  11.781  64.324  1.00  0.00     0.000 HD 
BRANCH  20  22
HETATM   22  C   UNL     1     -11.885  11.464  67.608  1.00  0.00    -0.157 C  
HETATM   23  C   UNL     1     -11.449  11.906  68.801  1.00  0.00    -0.347 C  
BRANCH  23  24
HETATM   24  C   UNL     1     -11.775  11.341  70.160  1.00  0.00    -0.343 C  
HETATM   25  H   UNL     1     -13.264  10.364  70.999  1.00  0.00     0.000 HD 
HETATM   26  O   UNL     1     -13.058  10.720  70.143  1.00  0.00    -0.147 OA 
BRANCH  24  27
HETATM   27  C   UNL     1     -10.759  10.296  70.636  1.00  0.00    -0.125 C  
BRANCH  27  28
HETATM   28  C   UNL     1     -10.494   9.188  69.613  1.00  0.00    -0.230 C  
BRANCH  28  29
HETATM   29  C   UNL     1      -9.021   8.887  69.496  1.00  0.00    -0.145 A  
HETATM   30  C   UNL     1      -8.118   9.410  70.430  1.00  0.00    -0.197 A  
HETATM   31  C   UNL     1      -6.749   9.172  70.301  1.00  0.00    -0.055 A  
HETATM   32  C   UNL     1      -6.272   8.409  69.237  1.00  0.00    -0.038 A  
HETATM   33  C   UNL     1      -7.164   7.880  68.305  1.00  0.00    -0.090 A  
HETATM   34  C   UNL     1      -8.532   8.118  68.432  1.00  0.00    -0.126 A  
ENDBRANCH  28  29
ENDBRANCH  27  28
ENDBRANCH  24  27
ENDBRANCH  23  24
ENDBRANCH  20  22
ENDBRANCH  12  13
ENDBRANCH  11  12
ENDBRANCH   9  10
ENDBRANCH   8   9
ENDBRANCH   7   8
ENDBRANCH   4   7
ENDBRANCH   2   3
TORSDOF 12
ENDMDL
MODEL      231
REMARK 921   NORMALIZED FREE ENERGY PREDICTED BY IDOCK:   -4.14 KCAL/MOL
REMARK 922        TOTAL FREE ENERGY PREDICTED BY IDOCK:   -9.89 KCAL/MOL
REMARK 923 INTER-LIGAND FREE ENERGY PREDICTED BY IDOCK:   -6.99 KCAL/MOL
REMARK 924 INTRA-LIGAND FREE ENERGY PREDICTED BY IDOCK:   -2.90 KCAL/MOL
REMARK 927      BINDING AFFINITY PREDICTED BY RF-SCORE:    0.00 PKD
ROOT
HETATM    1  C   UNL     1     -13.144  11.744  71.936  1.00  0.00    -0.482 C  
HETATM    2  C   UNL     1     -12.383  11.102  70.790  1.00  0.00    -0.406 C  
ENDROOT
BRANCH   2   3
HETATM    3  N   UNL     1     -11.467  12.034  70.172  1.00  0.00    -0.526 N  
HETATM    4  C   UNL     1     -11.432  12.194  68.804  1.00  0.00    -0.307 C  
HETATM    5  H   UNL     1     -10.836  12.581  70.757  1.00  0.00     0.000 HD 
HETATM    6  O   UNL     1     -12.149  11.566  68.036  1.00  0.00    -0.617 OA 
BRANCH   4   7
HETATM    7  C   UNL     1     -10.427  13.232  68.347  1.00  0.00    -0.261 C  
BRANCH   7   8
HETATM    8  C   UNL     1      -9.628  12.733  67.141  1.00  0.00    -0.219 C  
BRANCH   8   9
HETATM    9  C   UNL     1      -8.702  11.560  67.464  1.00  0.00    -0.145 C  
BRANCH   9  10
HETATM   10  C   UNL     1      -8.087  10.967  66.229  1.00  0.00    -0.165 C  
HETATM   11  C   UNL     1      -8.331   9.756  65.702  1.00  0.00    -0.138 C  
BRANCH  11  12
HETATM   12  C   UNL     1      -9.255   8.704  66.250  1.00  0.00    -0.257 C  
BRANCH  12  13
HETATM   13  C   UNL     1      -8.543   7.392  66.610  1.00  0.00    -0.128 C  
HETATM   14  C   UNL     1      -8.738   6.249  65.603  1.00  0.00    -0.114 C  
HETATM   15  C   UNL     1      -7.544   5.341  65.863  1.00  0.00    -0.083 C  
HETATM   16  O   UNL     1      -8.664   6.712  64.259  1.00  0.00    -0.313 OA 
HETATM   17  H   UNL     1      -8.785   6.005  63.636  1.00  0.00     0.000 HD 
HETATM   18  C   UNL     1      -6.388   6.321  66.045  1.00  0.00    -0.039 C  
HETATM   19  O   UNL     1      -5.815   6.635  64.774  1.00  0.00    -0.029 OA 
HETATM   20  C   UNL     1      -7.005   7.599  66.659  1.00  0.00    -0.078 C  
HETATM   21  H   UNL     1      -5.096   7.246  64.888  1.00  0.00     0.000 HD 
BRANCH  20  22
HETATM   22  C   UNL     1      -6.512   7.835  68.070  1.00  0.00    -0.055 C  
HETATM   23  C   UNL     1      -7.226   7.518  69.164  1.00  0.00    -0.084 C  
BRANCH  23  24
HETATM   24  C   UNL     1      -6.867   7.795  70.601  1.00  0.00    -0.042 C  
HETATM   25  H   UNL     1      -5.250   8.256  71.625  1.00  0.00     0.000 HD 
HETATM   26  O   UNL     1      -5.476   8.082  70.719  1.00  0.00    -0.029 OA 
BRANCH  24  27
HETATM   27  C   UNL     1      -7.639   8.980  71.196  1.00  0.00    -0.130 C  
BRANCH  27  28
HETATM   28  C   UNL     1      -8.922   9.320  70.432  1.00  0.00    -0.278 C  
BRANCH  28  29
HETATM   29  C   UNL     1     -10.092   8.514  70.937  1.00  0.00    -0.246 A  
HETATM   30  C   UNL     1     -10.413   8.514  72.301  1.00  0.00    -0.402 A  
HETATM   31  C   UNL     1     -11.468   7.736  72.779  1.00  0.00    -0.415 A  
HETATM   32  C   UNL     1     -12.209   6.951  71.899  1.00  0.00    -0.370 A  
HETATM   33  C   UNL     1     -11.900   6.947  70.539  1.00  0.00    -0.385 A  
HETATM   34  C   UNL     1     -10.846   7.725  70.059  1.00  0.00    -0.243 A  
ENDBRANCH  28  29
ENDBRANCH  27  28
ENDBRANCH  24  27
ENDBRANCH  23  24
ENDBRANCH  20  22
ENDBRANCH  12  13
ENDBRANCH  11  12
ENDBRANCH   9  10
ENDBRANCH   8   9
ENDBRANCH   7   8
ENDBRANCH   4   7
ENDBRANCH   2   3
TORSDOF 12
ENDMDL
MODEL      232
REMARK 921   NORMALIZED FREE ENERGY PREDICTED BY IDOCK:   -4.14 KCAL/MOL
REMARK 922        TOTAL FREE ENERGY PREDICTED BY IDOCK:   -9.88 KCAL/MOL
REMARK 923 INTER-LIGAND FREE ENERGY PREDICTED BY IDOCK:   -7.40 KCAL/MOL
REMARK 924 INTRA-LIGAND FREE ENERGY PREDICTED BY IDOCK:   -2.47 KCAL/MOL
REMARK 927      BINDING AFFINITY PREDICTED BY RF-SCORE:    0.00 PKD
ROOT
HETATM    1  C   UNL     1     -11.978  11.472  69.961  1.00  0.00    -0.435 C  
HETATM    2  C   UNL     1     -11.087  12.288  69.044  1.00  0.00    -0.236 C  
ENDROOT
BRANCH   2   3
HETATM    3  N   UNL     1      -9.779  11.689  68.901  1.00  0.00    -0.400 N  
HETATM    4  C   UNL     1      -8.715  12.415  68.416  1.00  0.00    -0.132 C  
HETATM    5  H   UNL     1      -9.643  10.713  69.164  1.00  0.00     0.000 HD 
HETATM    6  O   UNL     1      -8.802  13.587  68.070  1.00  0.00    -0.166 OA 
BRANCH   4   7
HETATM    7  C   UNL     1      -7.423  11.624  68.365  1.00  0.00    -0.107 C  
BRANCH   7   8
HETATM    8  C   UNL     1      -6.645  11.922  67.080  1.00  0.00    -0.128 C  
BRANCH   8   9
HETATM    9  C   UNL     1      -6.136  10.668  66.369  1.00  0.00    -0.100 C  
BRANCH   9  10
HETATM   10  C   UNL     1      -6.191   9.454  67.252  1.00  0.00    -0.057 C  
HETATM   11  C   UNL     1      -6.693   8.248  66.943  1.00  0.00    -0.062 C  
BRANCH  11  12
HETATM   12  C   UNL     1      -7.348   7.848  65.649  1.00  0.00    -0.079 C  
BRANCH  12  13
HETATM   13  C   UNL     1      -8.880   7.793  65.731  1.00  0.00    -0.141 C  
HETATM   14  C   UNL     1      -9.444   6.663  66.604  1.00  0.00    -0.164 C  
HETATM   15  C   UNL     1     -10.836   7.160  66.969  1.00  0.00    -0.382 C  
HETATM   16  O   UNL     1      -8.697   6.501  67.805  1.00  0.00    -0.117 OA 
HETATM   17  H   UNL     1      -9.046   5.802  68.345  1.00  0.00     0.000 HD 
HETATM   18  C   UNL     1     -10.615   8.639  67.275  1.00  0.00    -0.238 C  
HETATM   19  O   UNL     1     -10.246   8.799  68.647  1.00  0.00    -0.186 OA 
HETATM   20  C   UNL     1      -9.442   9.089  66.374  1.00  0.00    -0.288 C  
HETATM   21  H   UNL     1     -10.108   9.720  68.836  1.00  0.00     0.000 HD 
BRANCH  20  22
HETATM   22  C   UNL     1      -9.891  10.088  65.330  1.00  0.00    -0.388 C  
HETATM   23  C   UNL     1     -10.712  11.119  65.599  1.00  0.00    -0.250 C  
BRANCH  23  24
HETATM   24  C   UNL     1     -11.288  12.108  64.619  1.00  0.00    -0.326 C  
HETATM   25  H   UNL     1     -13.031  12.957  64.278  1.00  0.00     0.000 HD 
HETATM   26  O   UNL     1     -12.668  12.333  64.896  1.00  0.00    -0.575 OA 
BRANCH  24  27
HETATM   27  C   UNL     1     -10.579  13.469  64.652  1.00  0.00    -0.441 C  
BRANCH  27  28
HETATM   28  C   UNL     1     -11.499  14.629  65.044  1.00  0.00    -0.386 C  
BRANCH  28  29
HETATM   29  C   UNL     1     -10.865  15.502  66.098  1.00  0.00    -0.295 A  
HETATM   30  C   UNL     1     -11.434  15.592  67.375  1.00  0.00    -0.140 A  
HETATM   31  C   UNL     1     -10.877  16.432  68.340  1.00  0.00    -0.342 A  
HETATM   32  C   UNL     1      -9.748  17.189  68.036  1.00  0.00    -0.274 A  
HETATM   33  C   UNL     1      -9.172  17.102  66.769  1.00  0.00    -0.270 A  
HETATM   34  C   UNL     1      -9.727  16.264  65.803  1.00  0.00    -0.299 A  
ENDBRANCH  28  29
ENDBRANCH  27  28
ENDBRANCH  24  27
ENDBRANCH  23  24
ENDBRANCH  20  22
ENDBRANCH  12  13
ENDBRANCH  11  12
ENDBRANCH   9  10
ENDBRANCH   8   9
ENDBRANCH   7   8
ENDBRANCH   4   7
ENDBRANCH   2   3
TORSDOF 12
ENDMDL
MODEL      233
REMARK 921   NORMALIZED FREE ENERGY PREDICTED BY IDOCK:   -4.13 KCAL/MOL
REMARK 922        TOTAL FREE ENERGY PREDICTED BY IDOCK:   -9.86 KCAL/MOL
REMARK 923 INTER-LIGAND FREE ENERGY PREDICTED BY IDOCK:   -6.23 KCAL/MOL
REMARK 924 INTRA-LIGAND FREE ENERGY PREDICTED BY IDOCK:   -3.63 KCAL/MOL
REMARK 927      BINDING AFFINITY PREDICTED BY RF-SCORE:    0.00 PKD
ROOT
HETATM    1  C   UNL     1     -14.050   8.773  71.955  1.00  0.00    -0.488 C  
HETATM    2  C   UNL     1     -12.567   9.082  71.874  1.00  0.00    -0.382 C  
ENDROOT
BRANCH   2   3
HETATM    3  N   UNL     1     -11.954   8.451  70.727  1.00  0.00    -0.469 N  
HETATM    4  C   UNL     1     -10.830   8.986  70.138  1.00  0.00    -0.237 C  
HETATM    5  H   UNL     1     -12.361   7.596  70.347  1.00  0.00     0.000 HD 
HETATM    6  O   UNL     1     -10.291  10.014  70.529  1.00  0.00    -0.272 OA 
BRANCH   4   7
HETATM    7  C   UNL     1     -10.319   8.170  68.967  1.00  0.00    -0.229 C  
BRANCH   7   8
HETATM    8  C   UNL     1      -8.790   8.111  68.962  1.00  0.00    -0.144 C  
BRANCH   8   9
HETATM    9  C   UNL     1      -8.210   7.166  70.013  1.00  0.00    -0.136 C  
BRANCH   9  10
HETATM   10  C   UNL     1      -6.991   6.443  69.516  1.00  0.00    -0.071 C  
HETATM   11  C   UNL     1      -6.957   5.337  68.756  1.00  0.00    -0.060 C  
BRANCH  11  12
HETATM   12  C   UNL     1      -8.137   4.550  68.256  1.00  0.00    -0.083 C  
BRANCH  12  13
HETATM   13  C   UNL     1      -8.179   4.418  66.727  1.00  0.00    -0.102 C  
HETATM   14  C   UNL     1      -8.665   3.058  66.205  1.00  0.00    -0.132 C  
HETATM   15  C   UNL     1      -9.146   3.372  64.795  1.00  0.00    -0.136 C  
HETATM   16  O   UNL     1      -9.771   2.569  66.956  1.00  0.00    -0.396 OA 
HETATM   17  H   UNL     1     -10.071   1.728  66.633  1.00  0.00     0.000 HD 
HETATM   18  C   UNL     1      -9.885   4.697  64.960  1.00  0.00    -0.049 C  
HETATM   19  O   UNL     1     -11.246   4.450  65.321  1.00  0.00    -0.869 OA 
HETATM   20  C   UNL     1      -9.176   5.439  66.116  1.00  0.00    -0.162 C  
HETATM   21  H   UNL     1     -11.705   5.275  65.424  1.00  0.00     0.000 HD 
BRANCH  20  22
HETATM   22  C   UNL     1      -8.475   6.690  65.630  1.00  0.00    -0.147 C  
HETATM   23  C   UNL     1      -7.155   6.747  65.383  1.00  0.00    -0.064 C  
BRANCH  23  24
HETATM   24  C   UNL     1      -6.351   7.959  64.988  1.00  0.00    -0.041 C  
HETATM   25  H   UNL     1      -6.297   9.233  63.487  1.00  0.00     0.000 HD 
HETATM   26  O   UNL     1      -6.804   8.469  63.736  1.00  0.00    -0.082 OA 
BRANCH  24  27
HETATM   27  C   UNL     1      -6.437   9.098  66.012  1.00  0.00    -0.068 C  
BRANCH  27  28
HETATM   28  C   UNL     1      -6.960  10.412  65.424  1.00  0.00    -0.118 C  
BRANCH  28  29
HETATM   29  C   UNL     1      -8.269  10.815  66.056  1.00  0.00    -0.164 A  
HETATM   30  C   UNL     1      -8.302  11.827  67.025  1.00  0.00    -0.172 A  
HETATM   31  C   UNL     1      -9.504  12.173  67.645  1.00  0.00    -0.187 A  
HETATM   32  C   UNL     1     -10.681  11.510  67.302  1.00  0.00    -0.286 A  
HETATM   33  C   UNL     1     -10.658  10.506  66.336  1.00  0.00    -0.218 A  
HETATM   34  C   UNL     1      -9.458  10.158  65.715  1.00  0.00    -0.262 A  
ENDBRANCH  28  29
ENDBRANCH  27  28
ENDBRANCH  24  27
ENDBRANCH  23  24
ENDBRANCH  20  22
ENDBRANCH  12  13
ENDBRANCH  11  12
ENDBRANCH   9  10
ENDBRANCH   8   9
ENDBRANCH   7   8
ENDBRANCH   4   7
ENDBRANCH   2   3
TORSDOF 12
ENDMDL
MODEL      234
REMARK 921   NORMALIZED FREE ENERGY PREDICTED BY IDOCK:   -4.13 KCAL/MOL
REMARK 922        TOTAL FREE ENERGY PREDICTED BY IDOCK:   -9.85 KCAL/MOL
REMARK 923 INTER-LIGAND FREE ENERGY PREDICTED BY IDOCK:   -7.08 KCAL/MOL
REMARK 924 INTRA-LIGAND FREE ENERGY PREDICTED BY IDOCK:   -2.77 KCAL/MOL
REMARK 927      BINDING AFFINITY PREDICTED BY RF-SCORE:    0.00 PKD
ROOT
HETATM    1  C   UNL     1     -12.482   9.907  71.510  1.00  0.00    -0.506 C  
HETATM    2  C   UNL     1     -12.282  10.751  70.266  1.00  0.00    -0.348 C  
ENDROOT
BRANCH   2   3
HETATM    3  N   UNL     1     -10.882  10.886  69.934  1.00  0.00    -0.446 N  
HETATM    4  C   UNL     1     -10.475  11.662  68.871  1.00  0.00    -0.175 C  
HETATM    5  H   UNL     1     -10.184  10.398  70.495  1.00  0.00     0.000 HD 
HETATM    6  O   UNL     1     -11.253  12.268  68.145  1.00  0.00    -0.232 OA 
BRANCH   4   7
HETATM    7  C   UNL     1      -8.970  11.701  68.698  1.00  0.00    -0.087 C  
BRANCH   7   8
HETATM    8  C   UNL     1      -8.535  12.958  67.940  1.00  0.00    -0.181 C  
BRANCH   8   9
HETATM    9  C   UNL     1      -7.104  12.888  67.410  1.00  0.00    -0.130 C  
BRANCH   9  10
HETATM   10  C   UNL     1      -6.418  11.607  67.794  1.00  0.00    -0.067 C  
HETATM   11  C   UNL     1      -5.902  10.684  66.968  1.00  0.00    -0.054 C  
BRANCH  11  12
HETATM   12  C   UNL     1      -5.923  10.707  65.464  1.00  0.00    -0.117 C  
BRANCH  12  13
HETATM   13  C   UNL     1      -7.012   9.813  64.855  1.00  0.00    -0.124 C  
HETATM   14  C   UNL     1      -6.789   8.304  65.030  1.00  0.00    -0.067 C  
HETATM   15  C   UNL     1      -8.188   7.720  64.882  1.00  0.00    -0.111 C  
HETATM   16  O   UNL     1      -6.308   7.990  66.332  1.00  0.00    -0.045 OA 
HETATM   17  H   UNL     1      -6.170   7.056  66.440  1.00  0.00     0.000 HD 
HETATM   18  C   UNL     1      -9.062   8.696  65.666  1.00  0.00    -0.164 C  
HETATM   19  O   UNL     1      -9.097   8.314  67.043  1.00  0.00    -0.137 OA 
HETATM   20  C   UNL     1      -8.383  10.078  65.535  1.00  0.00    -0.151 C  
HETATM   21  H   UNL     1      -9.641   8.921  67.531  1.00  0.00     0.000 HD 
BRANCH  20  22
HETATM   22  C   UNL     1      -9.231  11.044  64.737  1.00  0.00    -0.198 C  
HETATM   23  C   UNL     1     -10.420  11.507  65.162  1.00  0.00    -0.340 C  
BRANCH  23  24
HETATM   24  C   UNL     1     -11.378  12.394  64.409  1.00  0.00    -0.340 C  
HETATM   25  H   UNL     1     -13.300  12.814  64.456  1.00  0.00     0.000 HD 
HETATM   26  O   UNL     1     -12.697  12.255  64.931  1.00  0.00    -0.575 OA 
BRANCH  24  27
HETATM   27  C   UNL     1     -11.004  13.880  64.479  1.00  0.00    -0.379 C  
BRANCH  27  28
HETATM   28  C   UNL     1     -11.656  14.621  65.650  1.00  0.00    -0.328 C  
BRANCH  28  29
HETATM   29  C   UNL     1     -10.645  15.436  66.417  1.00  0.00    -0.307 A  
HETATM   30  C   UNL     1      -9.396  15.725  65.852  1.00  0.00    -0.356 A  
HETATM   31  C   UNL     1      -8.441  16.440  66.575  1.00  0.00    -0.336 A  
HETATM   32  C   UNL     1      -8.727  16.871  67.869  1.00  0.00    -0.213 A  
HETATM   33  C   UNL     1      -9.968  16.592  68.438  1.00  0.00    -0.255 A  
HETATM   34  C   UNL     1     -10.924  15.877  67.717  1.00  0.00    -0.315 A  
ENDBRANCH  28  29
ENDBRANCH  27  28
ENDBRANCH  24  27
ENDBRANCH  23  24
ENDBRANCH  20  22
ENDBRANCH  12  13
ENDBRANCH  11  12
ENDBRANCH   9  10
ENDBRANCH   8   9
ENDBRANCH   7   8
ENDBRANCH   4   7
ENDBRANCH   2   3
TORSDOF 12
ENDMDL
MODEL      235
REMARK 921   NORMALIZED FREE ENERGY PREDICTED BY IDOCK:   -4.12 KCAL/MOL
REMARK 922        TOTAL FREE ENERGY PREDICTED BY IDOCK:   -9.84 KCAL/MOL
REMARK 923 INTER-LIGAND FREE ENERGY PREDICTED BY IDOCK:   -8.64 KCAL/MOL
REMARK 924 INTRA-LIGAND FREE ENERGY PREDICTED BY IDOCK:   -1.20 KCAL/MOL
REMARK 927      BINDING AFFINITY PREDICTED BY RF-SCORE:    0.00 PKD
ROOT
HETATM    1  C   UNL     1     -11.386  13.762  65.367  1.00  0.00    -0.314 C  
HETATM    2  C   UNL     1     -10.155  14.555  64.970  1.00  0.00    -0.290 C  
ENDROOT
BRANCH   2   3
HETATM    3  N   UNL     1     -10.147  15.865  65.580  1.00  0.00    -0.350 N  
HETATM    4  C   UNL     1     -10.865  16.906  65.036  1.00  0.00    -0.064 C  
HETATM    5  H   UNL     1      -9.601  16.021  66.427  1.00  0.00     0.000 HD 
HETATM    6  O   UNL     1     -11.535  16.800  64.016  1.00  0.00    -1.198 OA 
BRANCH   4   7
HETATM    7  C   UNL     1     -10.754  18.192  65.830  1.00  0.00    -0.140 C  
BRANCH   7   8
HETATM    8  C   UNL     1      -9.300  18.476  66.218  1.00  0.00    -0.243 C  
BRANCH   8   9
HETATM    9  C   UNL     1      -9.155  19.215  67.548  1.00  0.00    -0.336 C  
BRANCH   9  10
HETATM   10  C   UNL     1      -8.070  18.629  68.406  1.00  0.00    -0.360 C  
HETATM   11  C   UNL     1      -7.843  17.329  68.653  1.00  0.00    -0.272 C  
BRANCH  11  12
HETATM   12  C   UNL     1      -8.647  16.162  68.151  1.00  0.00    -0.177 C  
BRANCH  12  13
HETATM   13  C   UNL     1      -9.498  15.493  69.239  1.00  0.00    -0.263 C  
HETATM   14  C   UNL     1     -10.680  16.331  69.748  1.00  0.00    -0.345 C  
HETATM   15  C   UNL     1     -11.628  15.290  70.329  1.00  0.00    -0.332 C  
HETATM   16  O   UNL     1     -11.348  17.001  68.685  1.00  0.00    -0.143 OA 
HETATM   17  H   UNL     1     -12.079  17.519  69.000  1.00  0.00     0.000 HD 
HETATM   18  C   UNL     1     -11.577  14.157  69.307  1.00  0.00    -0.304 C  
HETATM   19  O   UNL     1     -12.539  14.393  68.276  1.00  0.00    -0.519 OA 
HETATM   20  C   UNL     1     -10.156  14.194  68.699  1.00  0.00    -0.229 C  
HETATM   21  H   UNL     1     -12.507  13.687  67.640  1.00  0.00     0.000 HD 
BRANCH  20  22
HETATM   22  C   UNL     1      -9.359  12.962  69.068  1.00  0.00     0.453 C  
HETATM   23  C   UNL     1      -8.855  12.109  68.159  1.00  0.00    -0.187 C  
BRANCH  23  24
HETATM   24  C   UNL     1      -8.131  10.814  68.423  1.00  0.00    -0.127 C  
HETATM   25  H   UNL     1      -6.475  10.240  69.320  1.00  0.00     0.000 HD 
HETATM   26  O   UNL     1      -6.932  11.057  69.153  1.00  0.00    -0.083 OA 
BRANCH  24  27
HETATM   27  C   UNL     1      -8.969   9.810  69.226  1.00  0.00    -0.177 C  
BRANCH  27  28
HETATM   28  C   UNL     1     -10.463   9.857  68.894  1.00  0.00    -0.229 C  
BRANCH  28  29
HETATM   29  C   UNL     1     -11.307   9.617  70.121  1.00  0.00    -0.275 A  
HETATM   30  C   UNL     1     -12.275  10.554  70.507  1.00  0.00    -0.435 A  
HETATM   31  C   UNL     1     -13.027  10.358  71.665  1.00  0.00    -0.581 A  
HETATM   32  C   UNL     1     -12.818   9.225  72.448  1.00  0.00    -0.418 A  
HETATM   33  C   UNL     1     -11.860   8.285  72.070  1.00  0.00    -0.408 A  
HETATM   34  C   UNL     1     -11.107   8.478  70.913  1.00  0.00    -0.295 A  
ENDBRANCH  28  29
ENDBRANCH  27  28
ENDBRANCH  24  27
ENDBRANCH  23  24
ENDBRANCH  20  22
ENDBRANCH  12  13
ENDBRANCH  11  12
ENDBRANCH   9  10
ENDBRANCH   8   9
ENDBRANCH   7   8
ENDBRANCH   4   7
ENDBRANCH   2   3
TORSDOF 12
ENDMDL
MODEL      236
REMARK 921   NORMALIZED FREE ENERGY PREDICTED BY IDOCK:   -4.11 KCAL/MOL
REMARK 922        TOTAL FREE ENERGY PREDICTED BY IDOCK:   -9.83 KCAL/MOL
REMARK 923 INTER-LIGAND FREE ENERGY PREDICTED BY IDOCK:   -7.60 KCAL/MOL
REMARK 924 INTRA-LIGAND FREE ENERGY PREDICTED BY IDOCK:   -2.22 KCAL/MOL
REMARK 927      BINDING AFFINITY PREDICTED BY RF-SCORE:    0.00 PKD
ROOT
HETATM    1  C   UNL     1     -14.328  15.163  71.974  1.00  0.00    -0.682 C  
HETATM    2  C   UNL     1     -13.522  13.971  72.453  1.00  0.00    -0.539 C  
ENDROOT
BRANCH   2   3
HETATM    3  N   UNL     1     -12.691  13.432  71.399  1.00  0.00    -0.347 N  
HETATM    4  C   UNL     1     -12.668  12.082  71.132  1.00  0.00    -0.266 C  
HETATM    5  H   UNL     1     -12.113  14.063  70.844  1.00  0.00     0.000 HD 
HETATM    6  O   UNL     1     -13.326  11.262  71.761  1.00  0.00    -0.391 OA 
BRANCH   4   7
HETATM    7  C   UNL     1     -11.760  11.713  69.977  1.00  0.00    -0.402 C  
BRANCH   7   8
HETATM    8  C   UNL     1     -11.478  12.928  69.088  1.00  0.00    -0.360 C  
BRANCH   8   9
HETATM    9  C   UNL     1     -10.020  13.037  68.645  1.00  0.00    -0.114 C  
BRANCH   9  10
HETATM   10  C   UNL     1      -9.894  13.375  67.187  1.00  0.00    -0.237 C  
HETATM   11  C   UNL     1     -10.208  12.592  66.142  1.00  0.00    -0.272 C  
BRANCH  11  12
HETATM   12  C   UNL     1     -10.728  11.182  66.196  1.00  0.00    -0.285 C  
BRANCH  12  13
HETATM   13  C   UNL     1      -9.657  10.124  65.893  1.00  0.00    -0.274 C  
HETATM   14  C   UNL     1      -9.190  10.071  64.431  1.00  0.00    -0.266 C  
HETATM   15  C   UNL     1      -7.819   9.414  64.522  1.00  0.00    -0.121 C  
HETATM   16  O   UNL     1      -9.026  11.374  63.883  1.00  0.00    -0.408 OA 
HETATM   17  H   UNL     1      -8.737  11.342  62.979  1.00  0.00     0.000 HD 
HETATM   18  C   UNL     1      -7.191  10.075  65.746  1.00  0.00    -0.117 C  
HETATM   19  O   UNL     1      -6.535  11.285  65.358  1.00  0.00    -0.323 OA 
HETATM   20  C   UNL     1      -8.361  10.410  66.698  1.00  0.00    -0.127 C  
HETATM   21  H   UNL     1      -6.144  11.696  66.120  1.00  0.00     0.000 HD 
BRANCH  20  22
HETATM   22  C   UNL     1      -8.296   9.594  67.972  1.00  0.00    -0.117 C  
HETATM   23  C   UNL     1      -7.418   9.837  68.960  1.00  0.00    -0.080 C  
BRANCH  23  24
HETATM   24  C   UNL     1      -7.212   9.033  70.218  1.00  0.00    -0.058 C  
HETATM   25  H   UNL     1      -6.901   9.392  72.128  1.00  0.00     0.000 HD 
HETATM   26  O   UNL     1      -7.031   9.899  71.336  1.00  0.00    -0.283 OA 
BRANCH  24  27
HETATM   27  C   UNL     1      -8.389   8.102  70.535  1.00  0.00    -0.123 C  
BRANCH  27  28
HETATM   28  C   UNL     1      -8.160   6.654  70.092  1.00  0.00    -0.124 C  
BRANCH  28  29
HETATM   29  C   UNL     1      -8.933   6.334  68.837  1.00  0.00    -0.126 A  
HETATM   30  C   UNL     1      -8.277   5.792  67.724  1.00  0.00    -0.101 A  
HETATM   31  C   UNL     1      -8.978   5.536  66.545  1.00  0.00    -0.123 A  
HETATM   32  C   UNL     1     -10.340   5.821  66.469  1.00  0.00    -0.265 A  
HETATM   33  C   UNL     1     -11.002   6.357  67.573  1.00  0.00    -0.454 A  
HETATM   34  C   UNL     1     -10.302   6.614  68.752  1.00  0.00    -0.214 A  
ENDBRANCH  28  29
ENDBRANCH  27  28
ENDBRANCH  24  27
ENDBRANCH  23  24
ENDBRANCH  20  22
ENDBRANCH  12  13
ENDBRANCH  11  12
ENDBRANCH   9  10
ENDBRANCH   8   9
ENDBRANCH   7   8
ENDBRANCH   4   7
ENDBRANCH   2   3
TORSDOF 12
ENDMDL
MODEL      237
REMARK 921   NORMALIZED FREE ENERGY PREDICTED BY IDOCK:   -4.08 KCAL/MOL
REMARK 922        TOTAL FREE ENERGY PREDICTED BY IDOCK:   -9.78 KCAL/MOL
REMARK 923 INTER-LIGAND FREE ENERGY PREDICTED BY IDOCK:   -7.77 KCAL/MOL
REMARK 924 INTRA-LIGAND FREE ENERGY PREDICTED BY IDOCK:   -2.01 KCAL/MOL
REMARK 927      BINDING AFFINITY PREDICTED BY RF-SCORE:    0.00 PKD
ROOT
HETATM    1  C   UNL     1     -11.755  11.516  63.697  1.00  0.00    -0.278 C  
HETATM    2  C   UNL     1     -10.456  12.298  63.751  1.00  0.00    -0.444 C  
ENDROOT
BRANCH   2   3
HETATM    3  N   UNL     1      -9.348  11.462  64.157  1.00  0.00    -0.398 N  
HETATM    4  C   UNL     1      -8.957  10.383  63.396  1.00  0.00    -0.229 C  
HETATM    5  H   UNL     1      -8.850  11.674  65.021  1.00  0.00     0.000 HD 
HETATM    6  O   UNL     1      -9.512  10.059  62.353  1.00  0.00    -0.295 OA 
BRANCH   4   7
HETATM    7  C   UNL     1      -7.763   9.646  63.969  1.00  0.00    -0.128 C  
BRANCH   7   8
HETATM    8  C   UNL     1      -8.186   8.715  65.108  1.00  0.00    -0.152 C  
BRANCH   8   9
HETATM    9  C   UNL     1      -7.280   8.800  66.335  1.00  0.00    -0.084 C  
BRANCH   9  10
HETATM   10  C   UNL     1      -8.059   9.003  67.603  1.00  0.00    -0.109 C  
HETATM   11  C   UNL     1      -8.543  10.161  68.081  1.00  0.00    -0.118 C  
BRANCH  11  12
HETATM   12  C   UNL     1      -8.385  11.526  67.469  1.00  0.00    -0.143 C  
BRANCH  12  13
HETATM   13  C   UNL     1      -9.151  12.624  68.220  1.00  0.00    -0.181 C  
HETATM   14  C   UNL     1      -9.094  14.016  67.573  1.00  0.00    -0.196 C  
HETATM   15  C   UNL     1     -10.322  14.718  68.137  1.00  0.00    -0.239 C  
HETATM   16  O   UNL     1      -9.229  13.944  66.158  1.00  0.00    -0.479 OA 
HETATM   17  H   UNL     1      -9.194  14.805  65.757  1.00  0.00     0.000 HD 
HETATM   18  C   UNL     1     -11.401  13.639  68.086  1.00  0.00    -0.288 C  
HETATM   19  O   UNL     1     -12.037  13.652  66.806  1.00  0.00    -0.401 OA 
HETATM   20  C   UNL     1     -10.667  12.293  68.280  1.00  0.00    -0.244 C  
HETATM   21  H   UNL     1     -12.708  12.980  66.775  1.00  0.00     0.000 HD 
BRANCH  20  22
HETATM   22  C   UNL     1     -11.049  11.632  69.587  1.00  0.00    -0.177 C  
HETATM   23  C   UNL     1     -12.251  11.071  69.807  1.00  0.00    -0.388 C  
BRANCH  23  24
HETATM   24  C   UNL     1     -12.759  10.474  71.094  1.00  0.00    -0.418 C  
HETATM   25  H   UNL     1     -14.208   9.265  71.654  1.00  0.00     0.000 HD 
HETATM   26  O   UNL     1     -13.888   9.642  70.842  1.00  0.00    -0.173 OA 
BRANCH  24  27
HETATM   27  C   UNL     1     -11.707   9.624  71.819  1.00  0.00    -0.356 C  
BRANCH  27  28
HETATM   28  C   UNL     1     -12.013   8.124  71.799  1.00  0.00    -0.348 C  
BRANCH  28  29
HETATM   29  C   UNL     1     -10.929   7.350  71.092  1.00  0.00    -0.265 A  
HETATM   30  C   UNL     1      -9.581   7.679  71.292  1.00  0.00    -0.171 A  
HETATM   31  C   UNL     1      -8.577   6.996  70.606  1.00  0.00    -0.147 A  
HETATM   32  C   UNL     1      -8.911   5.979  69.714  1.00  0.00    -0.134 A  
HETATM   33  C   UNL     1     -10.248   5.642  69.511  1.00  0.00    -0.320 A  
HETATM   34  C   UNL     1     -11.254   6.324  70.196  1.00  0.00    -0.470 A  
ENDBRANCH  28  29
ENDBRANCH  27  28
ENDBRANCH  24  27
ENDBRANCH  23  24
ENDBRANCH  20  22
ENDBRANCH  12  13
ENDBRANCH  11  12
ENDBRANCH   9  10
ENDBRANCH   8   9
ENDBRANCH   7   8
ENDBRANCH   4   7
ENDBRANCH   2   3
TORSDOF 12
ENDMDL
MODEL      238
REMARK 921   NORMALIZED FREE ENERGY PREDICTED BY IDOCK:   -4.08 KCAL/MOL
REMARK 922        TOTAL FREE ENERGY PREDICTED BY IDOCK:   -9.78 KCAL/MOL
REMARK 923 INTER-LIGAND FREE ENERGY PREDICTED BY IDOCK:   -7.74 KCAL/MOL
REMARK 924 INTRA-LIGAND FREE ENERGY PREDICTED BY IDOCK:   -2.04 KCAL/MOL
REMARK 927      BINDING AFFINITY PREDICTED BY RF-SCORE:    0.00 PKD
ROOT
HETATM    1  C   UNL     1      -6.329   7.101  67.050  1.00  0.00    -0.053 C  
HETATM    2  C   UNL     1      -6.442   8.500  66.474  1.00  0.00    -0.059 C  
ENDROOT
BRANCH   2   3
HETATM    3  N   UNL     1      -7.580   8.622  65.591  1.00  0.00    -0.085 N  
HETATM    4  C   UNL     1      -7.647   9.628  64.654  1.00  0.00    -0.126 C  
HETATM    5  H   UNL     1      -8.345   7.952  65.664  1.00  0.00     0.000 HD 
HETATM    6  O   UNL     1      -6.774  10.476  64.514  1.00  0.00    -0.059 OA 
BRANCH   4   7
HETATM    7  C   UNL     1      -8.901   9.575  63.805  1.00  0.00    -0.238 C  
BRANCH   7   8
HETATM    8  C   UNL     1     -10.023  10.411  64.427  1.00  0.00    -0.388 C  
BRANCH   8   9
HETATM    9  C   UNL     1      -9.961  11.892  64.055  1.00  0.00    -0.318 C  
BRANCH   9  10
HETATM   10  C   UNL     1     -11.154  12.325  63.252  1.00  0.00    -0.389 C  
HETATM   11  C   UNL     1     -12.140  13.148  63.643  1.00  0.00    -0.583 C  
BRANCH  11  12
HETATM   12  C   UNL     1     -12.291  13.799  64.991  1.00  0.00    -0.456 C  
BRANCH  12  13
HETATM   13  C   UNL     1     -10.955  14.223  65.618  1.00  0.00    -0.309 C  
HETATM   14  C   UNL     1     -10.211  15.340  64.871  1.00  0.00    -0.174 C  
HETATM   15  C   UNL     1      -9.303  15.934  65.938  1.00  0.00    -0.353 C  
HETATM   16  O   UNL     1     -11.101  16.357  64.423  1.00  0.00    -1.052 OA 
HETATM   17  H   UNL     1     -10.641  17.048  63.961  1.00  0.00     0.000 HD 
HETATM   18  C   UNL     1     -10.196  15.986  67.175  1.00  0.00    -0.278 C  
HETATM   19  O   UNL     1     -10.935  17.210  67.186  1.00  0.00    -0.143 OA 
HETATM   20  C   UNL     1     -11.176  14.798  67.043  1.00  0.00    -0.347 C  
HETATM   21  H   UNL     1     -11.491  17.241  67.955  1.00  0.00     0.000 HD 
BRANCH  20  22
HETATM   22  C   UNL     1     -10.938  13.756  68.115  1.00  0.00    -0.265 C  
HETATM   23  C   UNL     1     -11.510  12.539  68.101  1.00  0.00    -0.368 C  
BRANCH  23  24
HETATM   24  C   UNL     1     -11.412  11.472  69.160  1.00  0.00    -0.297 C  
HETATM   25  H   UNL     1     -12.616  10.172  70.019  1.00  0.00     0.000 HD 
HETATM   26  O   UNL     1     -12.678  10.845  69.351  1.00  0.00    -0.284 OA 
BRANCH  24  27
HETATM   27  C   UNL     1     -10.397  10.374  68.815  1.00  0.00    -0.213 C  
BRANCH  27  28
HETATM   28  C   UNL     1      -9.320  10.826  67.825  1.00  0.00    -0.158 C  
BRANCH  28  29
HETATM   29  C   UNL     1      -8.079  11.299  68.540  1.00  0.00    -0.148 A  
HETATM   30  C   UNL     1      -7.591  12.595  68.324  1.00  0.00    -0.133 A  
HETATM   31  C   UNL     1      -6.419  13.022  68.948  1.00  0.00    -0.094 A  
HETATM   32  C   UNL     1      -5.725  12.159  69.794  1.00  0.00    -0.111 A  
HETATM   33  C   UNL     1      -6.206  10.870  70.018  1.00  0.00    -0.133 A  
HETATM   34  C   UNL     1      -7.377  10.440  69.395  1.00  0.00    -0.123 A  
ENDBRANCH  28  29
ENDBRANCH  27  28
ENDBRANCH  24  27
ENDBRANCH  23  24
ENDBRANCH  20  22
ENDBRANCH  12  13
ENDBRANCH  11  12
ENDBRANCH   9  10
ENDBRANCH   8   9
ENDBRANCH   7   8
ENDBRANCH   4   7
ENDBRANCH   2   3
TORSDOF 12
ENDMDL
MODEL      239
REMARK 921   NORMALIZED FREE ENERGY PREDICTED BY IDOCK:   -4.07 KCAL/MOL
REMARK 922        TOTAL FREE ENERGY PREDICTED BY IDOCK:   -9.75 KCAL/MOL
REMARK 923 INTER-LIGAND FREE ENERGY PREDICTED BY IDOCK:   -7.70 KCAL/MOL
REMARK 924 INTRA-LIGAND FREE ENERGY PREDICTED BY IDOCK:   -2.05 KCAL/MOL
REMARK 927      BINDING AFFINITY PREDICTED BY RF-SCORE:    0.00 PKD
ROOT
HETATM    1  C   UNL     1     -10.479   5.078  66.632  1.00  0.00    -0.301 C  
HETATM    2  C   UNL     1      -9.339   4.975  65.636  1.00  0.00    -0.154 C  
ENDROOT
BRANCH   2   3
HETATM    3  N   UNL     1      -8.186   5.732  66.068  1.00  0.00    -0.110 N  
HETATM    4  C   UNL     1      -7.864   6.935  65.479  1.00  0.00    -0.112 C  
HETATM    5  H   UNL     1      -7.600   5.369  66.820  1.00  0.00     0.000 HD 
HETATM    6  O   UNL     1      -8.511   7.430  64.565  1.00  0.00    -0.001 OA 
BRANCH   4   7
HETATM    7  C   UNL     1      -6.639   7.590  66.084  1.00  0.00    -0.046 C  
BRANCH   7   8
HETATM    8  C   UNL     1      -6.686   7.539  67.614  1.00  0.00    -0.067 C  
BRANCH   8   9
HETATM    9  C   UNL     1      -7.665   8.538  68.229  1.00  0.00    -0.102 C  
BRANCH   9  10
HETATM   10  C   UNL     1      -7.646   8.499  69.731  1.00  0.00    -0.083 C  
HETATM   11  C   UNL     1      -8.328   7.664  70.530  1.00  0.00    -0.126 C  
BRANCH  11  12
HETATM   12  C   UNL     1      -9.296   6.596  70.102  1.00  0.00    -0.159 C  
BRANCH  12  13
HETATM   13  C   UNL     1     -10.467   6.406  71.077  1.00  0.00    -0.268 C  
HETATM   14  C   UNL     1     -10.317   5.229  72.052  1.00  0.00    -0.215 C  
HETATM   15  C   UNL     1     -11.245   5.601  73.201  1.00  0.00    -0.285 C  
HETATM   16  O   UNL     1      -8.991   5.131  72.561  1.00  0.00    -0.129 OA 
HETATM   17  H   UNL     1      -8.899   4.403  73.164  1.00  0.00     0.000 HD 
HETATM   18  C   UNL     1     -10.988   7.093  73.393  1.00  0.00    -0.236 C  
HETATM   19  O   UNL     1      -9.885   7.282  74.282  1.00  0.00    -0.430 OA 
HETATM   20  C   UNL     1     -10.621   7.646  71.997  1.00  0.00    -0.264 C  
HETATM   21  H   UNL     1      -9.725   8.212  74.402  1.00  0.00     0.000 HD 
BRANCH  20  22
HETATM   22  C   UNL     1     -11.674   8.604  71.482  1.00  0.00    -0.369 C  
HETATM   23  C   UNL     1     -11.380   9.753  70.848  1.00  0.00    -0.439 C  
BRANCH  23  24
HETATM   24  C   UNL     1     -12.345  10.812  70.381  1.00  0.00    -0.353 C  
HETATM   25  H   UNL     1     -13.356  12.300  71.181  1.00  0.00     0.000 HD 
HETATM   26  O   UNL     1     -12.748  11.632  71.475  1.00  0.00    -0.370 OA 
BRANCH  24  27
HETATM   27  C   UNL     1     -11.754  11.731  69.305  1.00  0.00    -0.398 C  
BRANCH  27  28
HETATM   28  C   UNL     1     -11.269  10.982  68.060  1.00  0.00    -0.372 C  
BRANCH  28  29
HETATM   29  C   UNL     1     -11.345  11.852  66.830  1.00  0.00    -0.393 A  
HETATM   30  C   UNL     1     -11.984  13.097  66.885  1.00  0.00    -0.421 A  
HETATM   31  C   UNL     1     -12.096  13.886  65.739  1.00  0.00    -0.449 A  
HETATM   32  C   UNL     1     -11.571  13.435  64.530  1.00  0.00    -0.405 A  
HETATM   33  C   UNL     1     -10.930  12.199  64.466  1.00  0.00    -0.361 A  
HETATM   34  C   UNL     1     -10.817  11.410  65.610  1.00  0.00    -0.280 A  
ENDBRANCH  28  29
ENDBRANCH  27  28
ENDBRANCH  24  27
ENDBRANCH  23  24
ENDBRANCH  20  22
ENDBRANCH  12  13
ENDBRANCH  11  12
ENDBRANCH   9  10
ENDBRANCH   8   9
ENDBRANCH   7   8
ENDBRANCH   4   7
ENDBRANCH   2   3
TORSDOF 12
ENDMDL
MODEL      240
REMARK 921   NORMALIZED FREE ENERGY PREDICTED BY IDOCK:   -4.04 KCAL/MOL
REMARK 922        TOTAL FREE ENERGY PREDICTED BY IDOCK:   -9.71 KCAL/MOL
REMARK 923 INTER-LIGAND FREE ENERGY PREDICTED BY IDOCK:   -7.91 KCAL/MOL
REMARK 924 INTRA-LIGAND FREE ENERGY PREDICTED BY IDOCK:   -1.80 KCAL/MOL
REMARK 927      BINDING AFFINITY PREDICTED BY RF-SCORE:    0.00 PKD
ROOT
HETATM    1  C   UNL     1     -10.653   5.531  66.694  1.00  0.00    -0.365 C  
HETATM    2  C   UNL     1      -9.532   4.576  67.056  1.00  0.00    -0.169 C  
ENDROOT
BRANCH   2   3
HETATM    3  N   UNL     1      -8.474   5.246  67.778  1.00  0.00    -0.105 N  
HETATM    4  C   UNL     1      -7.401   5.799  67.115  1.00  0.00    -0.077 C  
HETATM    5  H   UNL     1      -8.523   5.311  68.795  1.00  0.00     0.000 HD 
HETATM    6  O   UNL     1      -7.266   5.753  65.899  1.00  0.00    -0.072 OA 
BRANCH   4   7
HETATM    7  C   UNL     1      -6.411   6.481  68.039  1.00  0.00    -0.053 C  
BRANCH   7   8
HETATM    8  C   UNL     1      -7.038   7.707  68.708  1.00  0.00    -0.080 C  
BRANCH   8   9
HETATM    9  C   UNL     1      -8.020   8.459  67.811  1.00  0.00    -0.111 C  
BRANCH   9  10
HETATM   10  C   UNL     1      -8.311   9.841  68.322  1.00  0.00    -0.106 C  
HETATM   11  C   UNL     1      -8.841  10.172  69.510  1.00  0.00    -0.198 C  
BRANCH  11  12
HETATM   12  C   UNL     1      -9.295   9.229  70.589  1.00  0.00    -0.329 C  
BRANCH  12  13
HETATM   13  C   UNL     1     -10.699   8.656  70.349  1.00  0.00    -0.248 C  
HETATM   14  C   UNL     1     -10.735   7.185  69.910  1.00  0.00    -0.239 C  
HETATM   15  C   UNL     1     -12.138   6.736  70.294  1.00  0.00    -0.211 C  
HETATM   16  O   UNL     1      -9.798   6.396  70.633  1.00  0.00    -0.181 OA 
HETATM   17  H   UNL     1      -9.820   5.486  70.362  1.00  0.00     0.000 HD 
HETATM   18  C   UNL     1     -12.350   7.371  71.666  1.00  0.00    -0.341 C  
HETATM   19  O   UNL     1     -11.841   6.504  72.683  1.00  0.00    -0.483 OA 
HETATM   20  C   UNL     1     -11.534   8.684  71.658  1.00  0.00    -0.375 C  
HETATM   21  H   UNL     1     -11.973   6.900  73.537  1.00  0.00     0.000 HD 
BRANCH  20  22
HETATM   22  C   UNL     1     -12.432   9.900  71.729  1.00  0.00    -0.487 C  
HETATM   23  C   UNL     1     -12.254  10.995  70.969  1.00  0.00    -0.456 C  
BRANCH  23  24
HETATM   24  C   UNL     1     -13.030  12.285  71.029  1.00  0.00    -0.064 C  
HETATM   25  H   UNL     1     -13.784  13.456  72.419  1.00  0.00     0.000 HD 
HETATM   26  O   UNL     1     -13.294  12.643  72.383  1.00  0.00    -0.514 OA 
BRANCH  24  27
HETATM   27  C   UNL     1     -12.295  13.460  70.372  1.00  0.00    -0.382 C  
BRANCH  27  28
HETATM   28  C   UNL     1     -11.770  13.146  68.968  1.00  0.00    -0.367 C  
BRANCH  28  29
HETATM   29  C   UNL     1     -11.284  14.392  68.270  1.00  0.00    -0.295 A  
HETATM   30  C   UNL     1     -11.297  15.624  68.937  1.00  0.00    -0.341 A  
HETATM   31  C   UNL     1     -10.890  16.787  68.282  1.00  0.00    -0.366 A  
HETATM   32  C   UNL     1     -10.468  16.727  66.955  1.00  0.00    -0.285 A  
HETATM   33  C   UNL     1     -10.447  15.505  66.285  1.00  0.00    -0.313 A  
HETATM   34  C   UNL     1     -10.854  14.342  66.938  1.00  0.00    -0.298 A  
ENDBRANCH  28  29
ENDBRANCH  27  28
ENDBRANCH  24  27
ENDBRANCH  23  24
ENDBRANCH  20  22
ENDBRANCH  12  13
ENDBRANCH  11  12
ENDBRANCH   9  10
ENDBRANCH   8   9
ENDBRANCH   7   8
ENDBRANCH   4   7
ENDBRANCH   2   3
TORSDOF 12
ENDMDL
MODEL      241
REMARK 921   NORMALIZED FREE ENERGY PREDICTED BY IDOCK:   -4.04 KCAL/MOL
REMARK 922        TOTAL FREE ENERGY PREDICTED BY IDOCK:   -9.71 KCAL/MOL
REMARK 923 INTER-LIGAND FREE ENERGY PREDICTED BY IDOCK:   -7.78 KCAL/MOL
REMARK 924 INTRA-LIGAND FREE ENERGY PREDICTED BY IDOCK:   -1.92 KCAL/MOL
REMARK 927      BINDING AFFINITY PREDICTED BY RF-SCORE:    0.00 PKD
ROOT
HETATM    1  C   UNL     1     -12.106  15.642  69.899  1.00  0.00    -0.360 C  
HETATM    2  C   UNL     1     -12.128  14.654  71.051  1.00  0.00    -0.329 C  
ENDROOT
BRANCH   2   3
HETATM    3  N   UNL     1     -11.883  13.303  70.597  1.00  0.00    -0.525 N  
HETATM    4  C   UNL     1     -12.317  12.219  71.328  1.00  0.00    -0.056 C  
HETATM    5  H   UNL     1     -11.381  13.150  69.723  1.00  0.00     0.000 HD 
HETATM    6  O   UNL     1     -12.916  12.321  72.391  1.00  0.00    -0.222 OA 
BRANCH   4   7
HETATM    7  C   UNL     1     -11.990  10.889  70.679  1.00  0.00    -0.467 C  
BRANCH   7   8
HETATM    8  C   UNL     1     -13.118   9.877  70.900  1.00  0.00    -0.344 C  
BRANCH   8   9
HETATM    9  C   UNL     1     -12.793   8.820  71.955  1.00  0.00    -0.423 C  
BRANCH   9  10
HETATM   10  C   UNL     1     -12.565   7.465  71.348  1.00  0.00    -0.405 C  
HETATM   11  C   UNL     1     -11.419   6.986  70.838  1.00  0.00    -0.349 C  
BRANCH  11  12
HETATM   12  C   UNL     1     -10.108   7.714  70.728  1.00  0.00    -0.189 C  
BRANCH  12  13
HETATM   13  C   UNL     1      -9.498   7.664  69.319  1.00  0.00    -0.158 C  
HETATM   14  C   UNL     1      -8.821   6.336  68.950  1.00  0.00    -0.124 C  
HETATM   15  C   UNL     1      -8.835   6.344  67.427  1.00  0.00    -0.104 C  
HETATM   16  O   UNL     1      -9.577   5.217  69.399  1.00  0.00    -0.135 OA 
HETATM   17  H   UNL     1      -9.159   4.395  69.170  1.00  0.00     0.000 HD 
HETATM   18  C   UNL     1     -10.223   6.883  67.089  1.00  0.00    -0.240 C  
HETATM   19  O   UNL     1     -11.162   5.807  67.048  1.00  0.00    -0.477 OA 
HETATM   20  C   UNL     1     -10.598   7.846  68.239  1.00  0.00    -0.163 C  
HETATM   21  H   UNL     1     -12.026   6.143  66.838  1.00  0.00     0.000 HD 
BRANCH  20  22
HETATM   22  C   UNL     1     -10.688   9.279  67.761  1.00  0.00    -0.270 C  
HETATM   23  C   UNL     1      -9.731   9.874  67.027  1.00  0.00    -0.230 C  
BRANCH  23  24
HETATM   24  C   UNL     1      -9.682  11.313  66.582  1.00  0.00    -0.196 C  
HETATM   25  H   UNL     1     -10.191  12.352  64.989  1.00  0.00     0.000 HD 
HETATM   26  O   UNL     1     -10.221  11.444  65.269  1.00  0.00    -0.245 OA 
BRANCH  24  27
HETATM   27  C   UNL     1     -10.468  12.254  67.504  1.00  0.00    -0.230 C  
BRANCH  27  28
HETATM   28  C   UNL     1     -10.823  13.594  66.853  1.00  0.00    -0.286 C  
BRANCH  28  29
HETATM   29  C   UNL     1      -9.888  14.689  67.303  1.00  0.00    -0.231 A  
HETATM   30  C   UNL     1      -8.610  14.373  67.781  1.00  0.00    -0.171 A  
HETATM   31  C   UNL     1      -7.758  15.378  68.240  1.00  0.00    -0.115 A  
HETATM   32  C   UNL     1      -8.178  16.707  68.226  1.00  0.00    -0.200 A  
HETATM   33  C   UNL     1      -9.447  17.031  67.748  1.00  0.00    -0.245 A  
HETATM   34  C   UNL     1     -10.300  16.028  67.289  1.00  0.00    -0.295 A  
ENDBRANCH  28  29
ENDBRANCH  27  28
ENDBRANCH  24  27
ENDBRANCH  23  24
ENDBRANCH  20  22
ENDBRANCH  12  13
ENDBRANCH  11  12
ENDBRANCH   9  10
ENDBRANCH   8   9
ENDBRANCH   7   8
ENDBRANCH   4   7
ENDBRANCH   2   3
TORSDOF 12
ENDMDL
MODEL      242
REMARK 921   NORMALIZED FREE ENERGY PREDICTED BY IDOCK:   -4.04 KCAL/MOL
REMARK 922        TOTAL FREE ENERGY PREDICTED BY IDOCK:   -9.71 KCAL/MOL
REMARK 923 INTER-LIGAND FREE ENERGY PREDICTED BY IDOCK:   -8.19 KCAL/MOL
REMARK 924 INTRA-LIGAND FREE ENERGY PREDICTED BY IDOCK:   -1.52 KCAL/MOL
REMARK 927      BINDING AFFINITY PREDICTED BY RF-SCORE:    0.00 PKD
ROOT
HETATM    1  C   UNL     1     -13.548   9.669  71.224  1.00  0.00    -0.294 C  
HETATM    2  C   UNL     1     -12.577   8.541  71.522  1.00  0.00    -0.316 C  
ENDROOT
BRANCH   2   3
HETATM    3  N   UNL     1     -11.371   8.656  70.734  1.00  0.00    -0.263 N  
HETATM    4  C   UNL     1     -11.007   7.669  69.846  1.00  0.00    -0.200 C  
HETATM    5  H   UNL     1     -10.779   9.480  70.838  1.00  0.00     0.000 HD 
HETATM    6  O   UNL     1     -11.658   6.646  69.673  1.00  0.00    -0.324 OA 
BRANCH   4   7
HETATM    7  C   UNL     1      -9.728   7.980  69.094  1.00  0.00    -0.163 C  
BRANCH   7   8
HETATM    8  C   UNL     1      -9.746   9.409  68.545  1.00  0.00    -0.160 C  
BRANCH   8   9
HETATM    9  C   UNL     1      -8.419  10.148  68.720  1.00  0.00    -0.131 C  
BRANCH   9  10
HETATM   10  C   UNL     1      -7.843  10.597  67.408  1.00  0.00    -0.110 C  
HETATM   11  C   UNL     1      -8.174  11.695  66.710  1.00  0.00    -0.161 C  
BRANCH  11  12
HETATM   12  C   UNL     1      -9.225  12.709  67.069  1.00  0.00    -0.212 C  
BRANCH  12  13
HETATM   13  C   UNL     1      -9.832  13.417  65.849  1.00  0.00    -0.251 C  
HETATM   14  C   UNL     1     -10.724  12.536  64.962  1.00  0.00    -0.294 C  
HETATM   15  C   UNL     1     -11.604  13.543  64.234  1.00  0.00    -0.433 C  
HETATM   16  O   UNL     1     -11.562  11.686  65.737  1.00  0.00    -0.284 OA 
HETATM   17  H   UNL     1     -12.113  11.141  65.189  1.00  0.00     0.000 HD 
HETATM   18  C   UNL     1     -11.966  14.549  65.324  1.00  0.00    -0.353 C  
HETATM   19  O   UNL     1     -13.131  14.104  66.024  1.00  0.00    -0.461 OA 
HETATM   20  C   UNL     1     -10.764  14.576  66.296  1.00  0.00    -0.309 C  
HETATM   21  H   UNL     1     -13.356  14.730  66.702  1.00  0.00     0.000 HD 
BRANCH  20  22
HETATM   22  C   UNL     1     -10.056  15.913  66.270  1.00  0.00    -0.317 C  
HETATM   23  C   UNL     1     -10.223  16.855  67.214  1.00  0.00    -0.297 C  
BRANCH  23  24
HETATM   24  C   UNL     1      -9.640  18.245  67.231  1.00  0.00    -0.281 C  
HETATM   25  H   UNL     1     -10.298  20.087  67.450  1.00  0.00     0.000 HD 
HETATM   26  O   UNL     1     -10.667  19.211  67.439  1.00  0.00    -0.462 OA 
BRANCH  24  27
HETATM   27  C   UNL     1      -8.588  18.441  68.331  1.00  0.00    -0.345 C  
BRANCH  27  28
HETATM   28  C   UNL     1      -7.186  17.977  67.926  1.00  0.00    -0.222 C  
BRANCH  28  29
HETATM   29  C   UNL     1      -6.662  18.767  66.752  1.00  0.00    -0.208 A  
HETATM   30  C   UNL     1      -6.717  20.167  66.763  1.00  0.00    -0.255 A  
HETATM   31  C   UNL     1      -6.276  20.900  65.661  1.00  0.00    -0.265 A  
HETATM   32  C   UNL     1      -5.777  20.240  64.540  1.00  0.00    -0.261 A  
HETATM   33  C   UNL     1      -5.714  18.848  64.522  1.00  0.00    -0.294 A  
HETATM   34  C   UNL     1      -6.155  18.113  65.622  1.00  0.00    -0.265 A  
ENDBRANCH  28  29
ENDBRANCH  27  28
ENDBRANCH  24  27
ENDBRANCH  23  24
ENDBRANCH  20  22
ENDBRANCH  12  13
ENDBRANCH  11  12
ENDBRANCH   9  10
ENDBRANCH   8   9
ENDBRANCH   7   8
ENDBRANCH   4   7
ENDBRANCH   2   3
TORSDOF 12
ENDMDL
MODEL      243
REMARK 921   NORMALIZED FREE ENERGY PREDICTED BY IDOCK:   -4.04 KCAL/MOL
REMARK 922        TOTAL FREE ENERGY PREDICTED BY IDOCK:   -9.71 KCAL/MOL
REMARK 923 INTER-LIGAND FREE ENERGY PREDICTED BY IDOCK:   -8.23 KCAL/MOL
REMARK 924 INTRA-LIGAND FREE ENERGY PREDICTED BY IDOCK:   -1.47 KCAL/MOL
REMARK 927      BINDING AFFINITY PREDICTED BY RF-SCORE:    0.00 PKD
ROOT
HETATM    1  C   UNL     1      -8.233  19.032  68.600  1.00  0.00    -0.399 C  
HETATM    2  C   UNL     1      -6.742  18.936  68.337  1.00  0.00    -0.248 C  
ENDROOT
BRANCH   2   3
HETATM    3  N   UNL     1      -6.261  17.581  68.488  1.00  0.00    -0.171 N  
HETATM    4  C   UNL     1      -5.729  16.893  67.421  1.00  0.00    -0.154 C  
HETATM    5  H   UNL     1      -6.318  17.128  69.400  1.00  0.00     0.000 HD 
HETATM    6  O   UNL     1      -5.638  17.365  66.295  1.00  0.00    -0.190 OA 
BRANCH   4   7
HETATM    7  C   UNL     1      -5.256  15.499  67.782  1.00  0.00    -0.111 C  
BRANCH   7   8
HETATM    8  C   UNL     1      -6.367  14.467  67.566  1.00  0.00    -0.033 C  
BRANCH   8   9
HETATM    9  C   UNL     1      -7.108  14.089  68.848  1.00  0.00    -0.111 C  
BRANCH   9  10
HETATM   10  C   UNL     1      -7.650  12.689  68.798  1.00  0.00    -0.022 C  
HETATM   11  C   UNL     1      -8.333  12.119  67.792  1.00  0.00    -0.159 C  
BRANCH  11  12
HETATM   12  C   UNL     1      -8.739  12.766  66.496  1.00  0.00     0.015 C  
BRANCH  12  13
HETATM   13  C   UNL     1      -9.911  13.746  66.644  1.00  0.00    -0.279 C  
HETATM   14  C   UNL     1     -10.041  14.781  65.517  1.00  0.00    -0.380 C  
HETATM   15  C   UNL     1     -11.503  15.199  65.587  1.00  0.00    -0.192 C  
HETATM   16  O   UNL     1      -9.802  14.201  64.239  1.00  0.00    -0.538 OA 
HETATM   17  H   UNL     1      -9.881  14.841  63.542  1.00  0.00     0.000 HD 
HETATM   18  C   UNL     1     -12.237  13.880  65.818  1.00  0.00    -0.460 C  
HETATM   19  O   UNL     1     -12.521  13.259  64.563  1.00  0.00    -0.539 OA 
HETATM   20  C   UNL     1     -11.266  12.987  66.623  1.00  0.00    -0.341 C  
HETATM   21  H   UNL     1     -12.978  12.439  64.707  1.00  0.00     0.000 HD 
BRANCH  20  22
HETATM   22  C   UNL     1     -11.783  12.716  68.019  1.00  0.00    -0.402 C  
HETATM   23  C   UNL     1     -11.729  13.619  69.014  1.00  0.00    -0.375 C  
BRANCH  23  24
HETATM   24  C   UNL     1     -12.129  13.418  70.454  1.00  0.00    -0.333 C  
HETATM   25  H   UNL     1     -13.759  13.609  71.541  1.00  0.00     0.000 HD 
HETATM   26  O   UNL     1     -13.507  13.736  70.634  1.00  0.00     0.025 OA 
BRANCH  24  27
HETATM   27  C   UNL     1     -11.916  11.979  70.941  1.00  0.00    -0.025 C  
BRANCH  27  28
HETATM   28  C   UNL     1     -13.191  11.316  71.470  1.00  0.00    -0.354 C  
BRANCH  28  29
HETATM   29  C   UNL     1     -13.008   9.829  71.643  1.00  0.00    -0.517 A  
HETATM   30  C   UNL     1     -11.720   9.283  71.731  1.00  0.00    -0.456 A  
HETATM   31  C   UNL     1     -11.544   7.904  71.847  1.00  0.00    -0.338 A  
HETATM   32  C   UNL     1     -12.652   7.060  71.876  1.00  0.00    -0.331 A  
HETATM   33  C   UNL     1     -13.937   7.595  71.794  1.00  0.00    -0.471 A  
HETATM   34  C   UNL     1     -14.115   8.973  71.678  1.00  0.00    -0.343 A  
ENDBRANCH  28  29
ENDBRANCH  27  28
ENDBRANCH  24  27
ENDBRANCH  23  24
ENDBRANCH  20  22
ENDBRANCH  12  13
ENDBRANCH  11  12
ENDBRANCH   9  10
ENDBRANCH   8   9
ENDBRANCH   7   8
ENDBRANCH   4   7
ENDBRANCH   2   3
TORSDOF 12
ENDMDL
MODEL      244
REMARK 921   NORMALIZED FREE ENERGY PREDICTED BY IDOCK:   -4.03 KCAL/MOL
REMARK 922        TOTAL FREE ENERGY PREDICTED BY IDOCK:   -9.69 KCAL/MOL
REMARK 923 INTER-LIGAND FREE ENERGY PREDICTED BY IDOCK:   -7.11 KCAL/MOL
REMARK 924 INTRA-LIGAND FREE ENERGY PREDICTED BY IDOCK:   -2.58 KCAL/MOL
REMARK 927      BINDING AFFINITY PREDICTED BY RF-SCORE:    0.00 PKD
ROOT
HETATM    1  C   UNL     1      -8.514  16.884  66.159  1.00  0.00    -0.281 C  
HETATM    2  C   UNL     1      -8.006  16.854  67.588  1.00  0.00    -0.174 C  
ENDROOT
BRANCH   2   3
HETATM    3  N   UNL     1      -7.834  15.500  68.064  1.00  0.00    -0.123 N  
HETATM    4  C   UNL     1      -6.719  15.136  68.785  1.00  0.00    -0.099 C  
HETATM    5  H   UNL     1      -8.550  14.802  67.862  1.00  0.00     0.000 HD 
HETATM    6  O   UNL     1      -5.812  15.913  69.057  1.00  0.00    -0.107 OA 
BRANCH   4   7
HETATM    7  C   UNL     1      -6.731  13.684  69.218  1.00  0.00    -0.094 C  
BRANCH   7   8
HETATM    8  C   UNL     1      -8.016  12.985  68.765  1.00  0.00     0.058 C  
BRANCH   8   9
HETATM    9  C   UNL     1      -7.768  11.683  68.004  1.00  0.00    -0.121 C  
BRANCH   9  10
HETATM   10  C   UNL     1      -8.750  10.610  68.381  1.00  0.00    -0.141 C  
HETATM   11  C   UNL     1      -8.894   9.405  67.808  1.00  0.00    -0.124 C  
BRANCH  11  12
HETATM   12  C   UNL     1      -8.125   8.867  66.633  1.00  0.00    -0.107 C  
BRANCH  12  13
HETATM   13  C   UNL     1      -7.955   9.885  65.496  1.00  0.00    -0.128 C  
HETATM   14  C   UNL     1      -6.621   9.799  64.740  1.00  0.00    -0.110 C  
HETATM   15  C   UNL     1      -6.931  10.453  63.401  1.00  0.00    -0.030 C  
HETATM   16  O   UNL     1      -6.237   8.450  64.502  1.00  0.00    -0.064 OA 
HETATM   17  H   UNL     1      -5.411   8.396  64.034  1.00  0.00     0.000 HD 
HETATM   18  C   UNL     1      -8.312   9.905  63.051  1.00  0.00    -0.163 C  
HETATM   19  O   UNL     1      -8.176   8.660  62.361  1.00  0.00    -0.161 OA 
HETATM   20  C   UNL     1      -9.030   9.667  64.398  1.00  0.00    -0.276 C  
HETATM   21  H   UNL     1      -9.036   8.318  62.144  1.00  0.00     0.000 HD 
BRANCH  20  22
HETATM   22  C   UNL     1     -10.211  10.598  64.573  1.00  0.00    -0.399 C  
HETATM   23  C   UNL     1     -10.198  11.887  64.192  1.00  0.00    -0.364 C  
BRANCH  23  24
HETATM   24  C   UNL     1     -11.281  12.914  64.403  1.00  0.00    -0.351 C  
HETATM   25  H   UNL     1     -12.917  13.501  63.479  1.00  0.00     0.000 HD 
HETATM   26  O   UNL     1     -12.234  12.853  63.346  1.00  0.00    -0.582 OA 
BRANCH  24  27
HETATM   27  C   UNL     1     -12.038  12.725  65.724  1.00  0.00    -0.505 C  
BRANCH  27  28
HETATM   28  C   UNL     1     -11.567  13.663  66.839  1.00  0.00    -0.397 C  
BRANCH  28  29
HETATM   29  C   UNL     1     -11.843  13.080  68.202  1.00  0.00    -0.381 A  
HETATM   30  C   UNL     1     -11.970  13.919  69.317  1.00  0.00    -0.402 A  
HETATM   31  C   UNL     1     -12.181  13.382  70.587  1.00  0.00    -0.427 A  
HETATM   32  C   UNL     1     -12.267  12.001  70.753  1.00  0.00    -0.382 A  
HETATM   33  C   UNL     1     -12.147  11.158  69.650  1.00  0.00    -0.406 A  
HETATM   34  C   UNL     1     -11.935  11.693  68.379  1.00  0.00    -0.266 A  
ENDBRANCH  28  29
ENDBRANCH  27  28
ENDBRANCH  24  27
ENDBRANCH  23  24
ENDBRANCH  20  22
ENDBRANCH  12  13
ENDBRANCH  11  12
ENDBRANCH   9  10
ENDBRANCH   8   9
ENDBRANCH   7   8
ENDBRANCH   4   7
ENDBRANCH   2   3
TORSDOF 12
ENDMDL
MODEL      245
REMARK 921   NORMALIZED FREE ENERGY PREDICTED BY IDOCK:   -4.02 KCAL/MOL
REMARK 922        TOTAL FREE ENERGY PREDICTED BY IDOCK:   -9.67 KCAL/MOL
REMARK 923 INTER-LIGAND FREE ENERGY PREDICTED BY IDOCK:   -6.67 KCAL/MOL
REMARK 924 INTRA-LIGAND FREE ENERGY PREDICTED BY IDOCK:   -3.00 KCAL/MOL
REMARK 927      BINDING AFFINITY PREDICTED BY RF-SCORE:    0.00 PKD
ROOT
HETATM    1  C   UNL     1     -11.725  11.410  68.385  1.00  0.00    -0.373 C  
HETATM    2  C   UNL     1     -10.536  11.580  67.458  1.00  0.00    -0.206 C  
ENDROOT
BRANCH   2   3
HETATM    3  N   UNL     1      -9.805  10.344  67.297  1.00  0.00    -0.173 N  
HETATM    4  C   UNL     1      -9.690   9.742  66.064  1.00  0.00    -0.255 C  
HETATM    5  H   UNL     1      -9.367   9.910  68.110  1.00  0.00     0.000 HD 
HETATM    6  O   UNL     1     -10.196  10.195  65.045  1.00  0.00    -0.309 OA 
BRANCH   4   7
HETATM    7  C   UNL     1      -8.865   8.470  66.092  1.00  0.00    -0.200 C  
BRANCH   7   8
HETATM    8  C   UNL     1      -9.206   7.619  67.318  1.00  0.00    -0.154 C  
BRANCH   8   9
HETATM    9  C   UNL     1      -8.569   6.230  67.295  1.00  0.00    -0.107 C  
BRANCH   9  10
HETATM   10  C   UNL     1      -9.540   5.168  66.865  1.00  0.00    -0.157 C  
HETATM   11  C   UNL     1      -9.723   3.961  67.424  1.00  0.00    -0.173 C  
BRANCH  11  12
HETATM   12  C   UNL     1      -8.970   3.385  68.592  1.00  0.00    -0.183 C  
BRANCH  12  13
HETATM   13  C   UNL     1      -9.781   3.375  69.896  1.00  0.00    -0.097 C  
HETATM   14  C   UNL     1      -9.461   2.216  70.851  1.00  0.00    -0.139 C  
HETATM   15  C   UNL     1      -9.924   2.737  72.205  1.00  0.00    -0.240 C  
HETATM   16  O   UNL     1      -8.063   1.962  70.923  1.00  0.00    -0.048 OA 
HETATM   17  H   UNL     1      -7.865   1.245  71.514  1.00  0.00     0.000 HD 
HETATM   18  C   UNL     1      -9.450   4.188  72.207  1.00  0.00    -0.133 C  
HETATM   19  O   UNL     1      -8.106   4.257  72.689  1.00  0.00    -0.093 OA 
HETATM   20  C   UNL     1      -9.489   4.650  70.732  1.00  0.00    -0.235 C  
HETATM   21  H   UNL     1      -7.812   5.160  72.689  1.00  0.00     0.000 HD 
BRANCH  20  22
HETATM   22  C   UNL     1     -10.535   5.722  70.511  1.00  0.00    -0.331 C  
HETATM   23  C   UNL     1     -11.404   6.113  71.459  1.00  0.00    -0.340 C  
BRANCH  23  24
HETATM   24  C   UNL     1     -12.535   7.098  71.313  1.00  0.00    -0.386 C  
HETATM   25  H   UNL     1     -14.487   7.107  71.569  1.00  0.00     0.000 HD 
HETATM   26  O   UNL     1     -13.774   6.485  71.661  1.00  0.00    -0.040 OA 
BRANCH  24  27
HETATM   27  C   UNL     1     -12.367   8.341  72.196  1.00  0.00    -0.410 C  
BRANCH  27  28
HETATM   28  C   UNL     1     -11.506   9.434  71.555  1.00  0.00    -0.467 C  
BRANCH  28  29
HETATM   29  C   UNL     1     -10.041   9.080  71.604  1.00  0.00    -0.405 A  
HETATM   30  C   UNL     1      -9.472   8.590  72.786  1.00  0.00    -0.244 A  
HETATM   31  C   UNL     1      -8.108   8.303  72.849  1.00  0.00    -0.211 A  
HETATM   32  C   UNL     1      -7.302   8.504  71.731  1.00  0.00    -0.118 A  
HETATM   33  C   UNL     1      -7.860   8.988  70.548  1.00  0.00    -0.138 A  
HETATM   34  C   UNL     1      -9.223   9.276  70.484  1.00  0.00    -0.311 A  
ENDBRANCH  28  29
ENDBRANCH  27  28
ENDBRANCH  24  27
ENDBRANCH  23  24
ENDBRANCH  20  22
ENDBRANCH  12  13
ENDBRANCH  11  12
ENDBRANCH   9  10
ENDBRANCH   8   9
ENDBRANCH   7   8
ENDBRANCH   4   7
ENDBRANCH   2   3
TORSDOF 12
ENDMDL
MODEL      246
REMARK 921   NORMALIZED FREE ENERGY PREDICTED BY IDOCK:   -4.01 KCAL/MOL
REMARK 922        TOTAL FREE ENERGY PREDICTED BY IDOCK:   -9.67 KCAL/MOL
REMARK 923 INTER-LIGAND FREE ENERGY PREDICTED BY IDOCK:   -7.71 KCAL/MOL
REMARK 924 INTRA-LIGAND FREE ENERGY PREDICTED BY IDOCK:   -1.95 KCAL/MOL
REMARK 927      BINDING AFFINITY PREDICTED BY RF-SCORE:    0.00 PKD
ROOT
HETATM    1  C   UNL     1      -9.061   1.510  65.097  1.00  0.00    -0.115 C  
HETATM    2  C   UNL     1      -8.442   2.874  64.860  1.00  0.00    -0.097 C  
ENDROOT
BRANCH   2   3
HETATM    3  N   UNL     1      -8.863   3.830  65.860  1.00  0.00    -0.117 N  
HETATM    4  C   UNL     1     -10.100   4.430  65.793  1.00  0.00    -0.245 C  
HETATM    5  H   UNL     1      -8.232   4.064  66.627  1.00  0.00     0.000 HD 
HETATM    6  O   UNL     1     -10.906   4.209  64.898  1.00  0.00    -0.243 OA 
BRANCH   4   7
HETATM    7  C   UNL     1     -10.370   5.380  66.943  1.00  0.00    -0.310 C  
BRANCH   7   8
HETATM    8  C   UNL     1      -9.766   6.760  66.670  1.00  0.00    -0.213 C  
BRANCH   8   9
HETATM    9  C   UNL     1     -10.637   7.916  67.161  1.00  0.00    -0.383 C  
BRANCH   9  10
HETATM   10  C   UNL     1     -10.380   9.184  66.397  1.00  0.00    -0.235 C  
HETATM   11  C   UNL     1      -9.395  10.072  66.605  1.00  0.00    -0.202 C  
BRANCH  11  12
HETATM   12  C   UNL     1      -8.340  10.014  67.676  1.00  0.00    -0.114 C  
BRANCH  12  13
HETATM   13  C   UNL     1      -8.071  11.371  68.342  1.00  0.00    -0.145 C  
HETATM   14  C   UNL     1      -6.833  11.416  69.249  1.00  0.00    -0.119 C  
HETATM   15  C   UNL     1      -6.483  12.897  69.296  1.00  0.00    -0.104 C  
HETATM   16  O   UNL     1      -5.735  10.714  68.677  1.00  0.00    -0.041 OA 
HETATM   17  H   UNL     1      -4.969  10.742  69.238  1.00  0.00     0.000 HD 
HETATM   18  C   UNL     1      -6.677  13.352  67.852  1.00  0.00    -0.150 C  
HETATM   19  O   UNL     1      -5.473  13.137  67.112  1.00  0.00    -0.342 OA 
HETATM   20  C   UNL     1      -7.800  12.463  67.272  1.00  0.00    -0.166 C  
HETATM   21  H   UNL     1      -5.594  13.420  66.213  1.00  0.00     0.000 HD 
BRANCH  20  22
HETATM   22  C   UNL     1      -9.043  13.267  66.959  1.00  0.00    -0.232 C  
HETATM   23  C   UNL     1      -9.413  14.356  67.655  1.00  0.00    -0.214 C  
BRANCH  23  24
HETATM   24  C   UNL     1     -10.672  15.167  67.483  1.00  0.00    -0.284 C  
HETATM   25  H   UNL     1     -11.764  15.843  65.991  1.00  0.00     0.000 HD 
HETATM   26  O   UNL     1     -10.970  15.331  66.099  1.00  0.00    -0.327 OA 
BRANCH  24  27
HETATM   27  C   UNL     1     -11.895  14.525  68.150  1.00  0.00    -0.348 C  
BRANCH  27  28
HETATM   28  C   UNL     1     -11.833  14.533  69.680  1.00  0.00    -0.367 C  
BRANCH  28  29
HETATM   29  C   UNL     1     -12.061  13.154  70.247  1.00  0.00    -0.399 A  
HETATM   30  C   UNL     1     -11.564  12.026  69.581  1.00  0.00    -0.371 A  
HETATM   31  C   UNL     1     -11.809  10.746  70.077  1.00  0.00    -0.424 A  
HETATM   32  C   UNL     1     -12.554  10.582  71.244  1.00  0.00    -0.531 A  
HETATM   33  C   UNL     1     -13.049  11.699  71.916  1.00  0.00    -0.490 A  
HETATM   34  C   UNL     1     -12.805  12.979  71.421  1.00  0.00    -0.385 A  
ENDBRANCH  28  29
ENDBRANCH  27  28
ENDBRANCH  24  27
ENDBRANCH  23  24
ENDBRANCH  20  22
ENDBRANCH  12  13
ENDBRANCH  11  12
ENDBRANCH   9  10
ENDBRANCH   8   9
ENDBRANCH   7   8
ENDBRANCH   4   7
ENDBRANCH   2   3
TORSDOF 12
ENDMDL
MODEL      247
REMARK 921   NORMALIZED FREE ENERGY PREDICTED BY IDOCK:   -4.01 KCAL/MOL
REMARK 922        TOTAL FREE ENERGY PREDICTED BY IDOCK:   -9.65 KCAL/MOL
REMARK 923 INTER-LIGAND FREE ENERGY PREDICTED BY IDOCK:   -7.78 KCAL/MOL
REMARK 924 INTRA-LIGAND FREE ENERGY PREDICTED BY IDOCK:   -1.87 KCAL/MOL
REMARK 927      BINDING AFFINITY PREDICTED BY RF-SCORE:    0.00 PKD
ROOT
HETATM    1  C   UNL     1     -10.316  15.342  66.067  1.00  0.00    -0.327 C  
HETATM    2  C   UNL     1     -11.234  14.855  64.962  1.00  0.00    -0.404 C  
ENDROOT
BRANCH   2   3
HETATM    3  N   UNL     1     -11.035  13.450  64.685  1.00  0.00    -0.356 N  
HETATM    4  C   UNL     1     -11.732  12.818  63.680  1.00  0.00    -0.519 C  
HETATM    5  H   UNL     1     -10.367  12.918  65.244  1.00  0.00     0.000 HD 
HETATM    6  O   UNL     1     -12.557  13.386  62.975  1.00  0.00    -0.669 OA 
BRANCH   4   7
HETATM    7  C   UNL     1     -11.368  11.355  63.525  1.00  0.00    -0.257 C  
BRANCH   7   8
HETATM    8  C   UNL     1      -9.894  11.192  63.144  1.00  0.00    -0.403 C  
BRANCH   8   9
HETATM    9  C   UNL     1      -9.042  10.572  64.251  1.00  0.00    -0.256 C  
BRANCH   9  10
HETATM   10  C   UNL     1      -9.879   9.904  65.305  1.00  0.00    -0.373 C  
HETATM   11  C   UNL     1     -10.083  10.322  66.564  1.00  0.00    -0.290 C  
BRANCH  11  12
HETATM   12  C   UNL     1      -9.492  11.541  67.217  1.00  0.00    -0.176 C  
BRANCH  12  13
HETATM   13  C   UNL     1     -10.043  11.807  68.625  1.00  0.00    -0.198 C  
HETATM   14  C   UNL     1     -11.135  12.884  68.703  1.00  0.00    -0.269 C  
HETATM   15  C   UNL     1     -11.868  12.551  69.996  1.00  0.00    -0.363 C  
HETATM   16  O   UNL     1     -12.059  12.777  67.625  1.00  0.00    -0.330 OA 
HETATM   17  H   UNL     1     -12.734  13.443  67.673  1.00  0.00     0.000 HD 
HETATM   18  C   UNL     1     -11.970  11.029  69.963  1.00  0.00    -0.351 C  
HETATM   19  O   UNL     1     -13.146  10.639  69.249  1.00  0.00    -0.425 OA 
HETATM   20  C   UNL     1     -10.720  10.534  69.199  1.00  0.00    -0.266 C  
HETATM   21  H   UNL     1     -13.209   9.691  69.228  1.00  0.00     0.000 HD 
BRANCH  20  22
HETATM   22  C   UNL     1      -9.787   9.755  70.101  1.00  0.00    -0.306 C  
HETATM   23  C   UNL     1      -8.447   9.822  70.010  1.00  0.00    -0.229 C  
BRANCH  23  24
HETATM   24  C   UNL     1      -7.437   9.024  70.793  1.00  0.00    -0.115 C  
HETATM   25  H   UNL     1      -7.246   8.336  72.628  1.00  0.00     0.000 HD 
HETATM   26  O   UNL     1      -7.883   8.839  72.134  1.00  0.00    -0.325 OA 
BRANCH  24  27
HETATM   27  C   UNL     1      -7.175   7.635  70.195  1.00  0.00    -0.067 C  
BRANCH  27  28
HETATM   28  C   UNL     1      -8.319   6.644  70.425  1.00  0.00    -0.127 C  
BRANCH  28  29
HETATM   29  C   UNL     1      -7.827   5.378  71.081  1.00  0.00    -0.104 A  
HETATM   30  C   UNL     1      -8.728   4.527  71.735  1.00  0.00    -0.131 A  
HETATM   31  C   UNL     1      -8.272   3.378  72.381  1.00  0.00    -0.079 A  
HETATM   32  C   UNL     1      -6.912   3.071  72.381  1.00  0.00    -0.031 A  
HETATM   33  C   UNL     1      -6.010   3.910  71.729  1.00  0.00    -0.013 A  
HETATM   34  C   UNL     1      -6.464   5.059  71.082  1.00  0.00    -0.023 A  
ENDBRANCH  28  29
ENDBRANCH  27  28
ENDBRANCH  24  27
ENDBRANCH  23  24
ENDBRANCH  20  22
ENDBRANCH  12  13
ENDBRANCH  11  12
ENDBRANCH   9  10
ENDBRANCH   8   9
ENDBRANCH   7   8
ENDBRANCH   4   7
ENDBRANCH   2   3
TORSDOF 12
ENDMDL
MODEL      248
REMARK 921   NORMALIZED FREE ENERGY PREDICTED BY IDOCK:   -4.01 KCAL/MOL
REMARK 922        TOTAL FREE ENERGY PREDICTED BY IDOCK:   -9.65 KCAL/MOL
REMARK 923 INTER-LIGAND FREE ENERGY PREDICTED BY IDOCK:   -7.23 KCAL/MOL
REMARK 924 INTRA-LIGAND FREE ENERGY PREDICTED BY IDOCK:   -2.42 KCAL/MOL
REMARK 927      BINDING AFFINITY PREDICTED BY RF-SCORE:    0.00 PKD
ROOT
HETATM    1  C   UNL     1     -10.333   6.201  70.439  1.00  0.00    -0.269 C  
HETATM    2  C   UNL     1     -11.615   6.344  71.236  1.00  0.00    -0.311 C  
ENDROOT
BRANCH   2   3
HETATM    3  N   UNL     1     -12.362   7.516  70.836  1.00  0.00    -0.515 N  
HETATM    4  C   UNL     1     -12.463   8.610  71.666  1.00  0.00    -0.335 C  
HETATM    5  H   UNL     1     -12.821   7.531  69.926  1.00  0.00     0.000 HD 
HETATM    6  O   UNL     1     -11.950   8.662  72.776  1.00  0.00    -0.286 OA 
BRANCH   4   7
HETATM    7  C   UNL     1     -13.262   9.748  71.062  1.00  0.00    -0.341 C  
BRANCH   7   8
HETATM    8  C   UNL     1     -12.381  10.978  70.831  1.00  0.00    -0.503 C  
BRANCH   8   9
HETATM    9  C   UNL     1     -11.725  11.010  69.451  1.00  0.00    -0.394 C  
BRANCH   9  10
HETATM   10  C   UNL     1     -10.259  10.689  69.512  1.00  0.00    -0.190 C  
HETATM   11  C   UNL     1      -9.496  10.189  68.527  1.00  0.00    -0.159 C  
BRANCH  11  12
HETATM   12  C   UNL     1      -9.945   9.804  67.144  1.00  0.00    -0.252 C  
BRANCH  12  13
HETATM   13  C   UNL     1      -8.949  10.201  66.045  1.00  0.00    -0.174 C  
HETATM   14  C   UNL     1      -8.150   9.038  65.440  1.00  0.00    -0.120 C  
HETATM   15  C   UNL     1      -7.718   9.574  64.082  1.00  0.00    -0.124 C  
HETATM   16  O   UNL     1      -8.966   7.891  65.230  1.00  0.00    -0.384 OA 
HETATM   17  H   UNL     1      -8.472   7.171  64.856  1.00  0.00     0.000 HD 
HETATM   18  C   UNL     1      -8.964  10.297  63.575  1.00  0.00    -0.242 C  
HETATM   19  O   UNL     1      -9.813   9.373  62.891  1.00  0.00    -0.264 OA 
HETATM   20  C   UNL     1      -9.691  10.826  64.833  1.00  0.00    -0.330 C  
HETATM   21  H   UNL     1     -10.589   9.823  62.576  1.00  0.00     0.000 HD 
BRANCH  20  22
HETATM   22  C   UNL     1      -9.685  12.339  64.886  1.00  0.00    -0.054 C  
HETATM   23  C   UNL     1     -10.242  13.044  65.886  1.00  0.00    -0.298 C  
BRANCH  23  24
HETATM   24  C   UNL     1     -10.370  14.542  65.986  1.00  0.00    -0.309 C  
HETATM   25  H   UNL     1     -11.756  15.900  65.656  1.00  0.00     0.000 HD 
HETATM   26  O   UNL     1     -11.676  14.956  65.593  1.00  0.00    -0.305 OA 
BRANCH  24  27
HETATM   27  C   UNL     1     -10.121  15.073  67.404  1.00  0.00    -0.228 C  
BRANCH  27  28
HETATM   28  C   UNL     1      -9.692  13.989  68.397  1.00  0.00    -0.223 C  
BRANCH  28  29
HETATM   29  C   UNL     1      -8.189  13.903  68.501  1.00  0.00    -0.131 A  
HETATM   30  C   UNL     1      -7.427  15.064  68.680  1.00  0.00    -0.122 A  
HETATM   31  C   UNL     1      -6.034  14.995  68.733  1.00  0.00    -0.084 A  
HETATM   32  C   UNL     1      -5.393  13.764  68.606  1.00  0.00    -0.087 A  
HETATM   33  C   UNL     1      -6.144  12.603  68.432  1.00  0.00    -0.063 A  
HETATM   34  C   UNL     1      -7.536  12.670  68.379  1.00  0.00    -0.127 A  
ENDBRANCH  28  29
ENDBRANCH  27  28
ENDBRANCH  24  27
ENDBRANCH  23  24
ENDBRANCH  20  22
ENDBRANCH  12  13
ENDBRANCH  11  12
ENDBRANCH   9  10
ENDBRANCH   8   9
ENDBRANCH   7   8
ENDBRANCH   4   7
ENDBRANCH   2   3
TORSDOF 12
ENDMDL
MODEL      249
REMARK 921   NORMALIZED FREE ENERGY PREDICTED BY IDOCK:   -4.00 KCAL/MOL
REMARK 922        TOTAL FREE ENERGY PREDICTED BY IDOCK:   -9.65 KCAL/MOL
REMARK 923 INTER-LIGAND FREE ENERGY PREDICTED BY IDOCK:   -7.23 KCAL/MOL
REMARK 924 INTRA-LIGAND FREE ENERGY PREDICTED BY IDOCK:   -2.42 KCAL/MOL
REMARK 927      BINDING AFFINITY PREDICTED BY RF-SCORE:    0.00 PKD
ROOT
HETATM    1  C   UNL     1     -10.366   5.229  68.297  1.00  0.00    -0.181 C  
HETATM    2  C   UNL     1      -8.855   5.244  68.165  1.00  0.00    -0.105 C  
ENDROOT
BRANCH   2   3
HETATM    3  N   UNL     1      -8.394   6.426  67.472  1.00  0.00    -0.117 N  
HETATM    4  C   UNL     1      -7.481   7.279  68.052  1.00  0.00    -0.102 C  
HETATM    5  H   UNL     1      -8.751   6.632  66.539  1.00  0.00     0.000 HD 
HETATM    6  O   UNL     1      -7.016   7.105  69.172  1.00  0.00    -0.069 OA 
BRANCH   4   7
HETATM    7  C   UNL     1      -7.100   8.445  67.163  1.00  0.00    -0.079 C  
BRANCH   7   8
HETATM    8  C   UNL     1      -6.232   9.454  67.919  1.00  0.00    -0.053 C  
BRANCH   8   9
HETATM    9  C   UNL     1      -6.194  10.837  67.269  1.00  0.00    -0.061 C  
BRANCH   9  10
HETATM   10  C   UNL     1      -6.324  11.942  68.279  1.00  0.00    -0.051 C  
HETATM   11  C   UNL     1      -7.183  12.974  68.246  1.00  0.00    -0.113 C  
BRANCH  11  12
HETATM   12  C   UNL     1      -8.189  13.275  67.170  1.00  0.00    -0.123 C  
BRANCH  12  13
HETATM   13  C   UNL     1      -9.612  13.486  67.706  1.00  0.00    -0.219 C  
HETATM   14  C   UNL     1     -10.449  14.521  66.941  1.00  0.00    -0.269 C  
HETATM   15  C   UNL     1     -11.883  14.130  67.271  1.00  0.00    -0.452 C  
HETATM   16  O   UNL     1     -10.267  14.410  65.534  1.00  0.00    -0.323 OA 
HETATM   17  H   UNL     1     -10.785  15.051  65.060  1.00  0.00     0.000 HD 
HETATM   18  C   UNL     1     -11.862  12.606  67.185  1.00  0.00    -0.330 C  
HETATM   19  O   UNL     1     -12.107  12.194  65.838  1.00  0.00    -0.594 OA 
HETATM   20  C   UNL     1     -10.437  12.175  67.601  1.00  0.00    -0.225 C  
HETATM   21  H   UNL     1     -12.093  11.246  65.785  1.00  0.00     0.000 HD 
BRANCH  20  22
HETATM   22  C   UNL     1     -10.444  11.407  68.905  1.00  0.00    -0.219 C  
HETATM   23  C   UNL     1      -9.743  10.276  69.099  1.00  0.00    -0.229 C  
BRANCH  23  24
HETATM   24  C   UNL     1      -9.754   9.392  70.320  1.00  0.00    -0.246 C  
HETATM   25  H   UNL     1      -8.557   9.000  71.832  1.00  0.00     0.000 HD 
HETATM   26  O   UNL     1      -8.549   9.558  71.063  1.00  0.00    -0.273 OA 
BRANCH  24  27
HETATM   27  C   UNL     1     -10.927   9.686  71.264  1.00  0.00    -0.399 C  
BRANCH  27  28
HETATM   28  C   UNL     1     -11.947   8.546  71.345  1.00  0.00    -0.345 C  
BRANCH  28  29
HETATM   29  C   UNL     1     -11.443   7.417  72.210  1.00  0.00    -0.329 A  
HETATM   30  C   UNL     1     -11.828   6.097  71.941  1.00  0.00    -0.316 A  
HETATM   31  C   UNL     1     -11.401   5.055  72.764  1.00  0.00    -0.271 A  
HETATM   32  C   UNL     1     -10.587   5.324  73.863  1.00  0.00    -0.335 A  
HETATM   33  C   UNL     1     -10.195   6.634  74.135  1.00  0.00    -0.390 A  
HETATM   34  C   UNL     1     -10.621   7.677  73.314  1.00  0.00    -0.411 A  
ENDBRANCH  28  29
ENDBRANCH  27  28
ENDBRANCH  24  27
ENDBRANCH  23  24
ENDBRANCH  20  22
ENDBRANCH  12  13
ENDBRANCH  11  12
ENDBRANCH   9  10
ENDBRANCH   8   9
ENDBRANCH   7   8
ENDBRANCH   4   7
ENDBRANCH   2   3
TORSDOF 12
ENDMDL
MODEL      250
REMARK 921   NORMALIZED FREE ENERGY PREDICTED BY IDOCK:   -4.00 KCAL/MOL
REMARK 922        TOTAL FREE ENERGY PREDICTED BY IDOCK:   -9.64 KCAL/MOL
REMARK 923 INTER-LIGAND FREE ENERGY PREDICTED BY IDOCK:   -7.02 KCAL/MOL
REMARK 924 INTRA-LIGAND FREE ENERGY PREDICTED BY IDOCK:   -2.62 KCAL/MOL
REMARK 927      BINDING AFFINITY PREDICTED BY RF-SCORE:    0.00 PKD
ROOT
HETATM    1  C   UNL     1     -12.101  13.167  63.938  1.00  0.00    -0.536 C  
HETATM    2  C   UNL     1     -11.702  13.586  65.340  1.00  0.00    -0.332 C  
ENDROOT
BRANCH   2   3
HETATM    3  N   UNL     1     -11.896  12.515  66.291  1.00  0.00    -0.406 N  
HETATM    4  C   UNL     1     -10.903  11.594  66.536  1.00  0.00    -0.284 C  
HETATM    5  H   UNL     1     -12.784  12.441  66.789  1.00  0.00     0.000 HD 
HETATM    6  O   UNL     1      -9.817  11.610  65.971  1.00  0.00    -0.216 OA 
BRANCH   4   7
HETATM    7  C   UNL     1     -11.284  10.565  67.582  1.00  0.00    -0.338 C  
BRANCH   7   8
HETATM    8  C   UNL     1     -11.283  11.180  68.984  1.00  0.00    -0.318 C  
BRANCH   8   9
HETATM    9  C   UNL     1     -10.830  10.212  70.076  1.00  0.00    -0.361 C  
BRANCH   9  10
HETATM   10  C   UNL     1     -11.935   9.887  71.041  1.00  0.00    -0.456 C  
HETATM   11  C   UNL     1     -12.381   8.667  71.383  1.00  0.00    -0.344 C  
BRANCH  11  12
HETATM   12  C   UNL     1     -11.895   7.347  70.851  1.00  0.00    -0.320 C  
BRANCH  12  13
HETATM   13  C   UNL     1     -10.601   6.859  71.518  1.00  0.00    -0.239 C  
HETATM   14  C   UNL     1     -10.764   6.346  72.956  1.00  0.00    -0.259 C  
HETATM   15  C   UNL     1      -9.554   5.441  73.148  1.00  0.00    -0.156 C  
HETATM   16  O   UNL     1     -11.940   5.558  73.105  1.00  0.00    -0.526 OA 
HETATM   17  H   UNL     1     -12.041   5.240  73.994  1.00  0.00     0.000 HD 
HETATM   18  C   UNL     1      -9.464   4.685  71.825  1.00  0.00    -0.150 C  
HETATM   19  O   UNL     1     -10.289   3.519  71.878  1.00  0.00    -0.085 OA 
HETATM   20  C   UNL     1     -10.010   5.649  70.746  1.00  0.00    -0.254 C  
HETATM   21  H   UNL     1     -10.233   3.049  71.054  1.00  0.00     0.000 HD 
BRANCH  20  22
HETATM   22  C   UNL     1      -8.927   6.072  69.776  1.00  0.00    -0.135 C  
HETATM   23  C   UNL     1      -8.907   7.272  69.171  1.00  0.00    -0.136 C  
BRANCH  23  24
HETATM   24  C   UNL     1      -7.932   7.753  68.127  1.00  0.00    -0.122 C  
HETATM   25  H   UNL     1      -7.980   8.878  66.512  1.00  0.00     0.000 HD 
HETATM   26  O   UNL     1      -8.595   8.575  67.170  1.00  0.00    -0.120 OA 
BRANCH  24  27
HETATM   27  C   UNL     1      -6.774   8.567  68.717  1.00  0.00    -0.058 C  
BRANCH  27  28
HETATM   28  C   UNL     1      -7.182   9.440  69.907  1.00  0.00    -0.083 C  
BRANCH  28  29
HETATM   29  C   UNL     1      -6.949  10.903  69.623  1.00  0.00    -0.128 A  
HETATM   30  C   UNL     1      -5.993  11.619  70.354  1.00  0.00    -0.131 A  
HETATM   31  C   UNL     1      -5.804  12.983  70.126  1.00  0.00    -0.153 A  
HETATM   32  C   UNL     1      -6.570  13.641  69.166  1.00  0.00    -0.109 A  
HETATM   33  C   UNL     1      -7.521  12.935  68.431  1.00  0.00    -0.124 A  
HETATM   34  C   UNL     1      -7.711  11.572  68.657  1.00  0.00    -0.139 A  
ENDBRANCH  28  29
ENDBRANCH  27  28
ENDBRANCH  24  27
ENDBRANCH  23  24
ENDBRANCH  20  22
ENDBRANCH  12  13
ENDBRANCH  11  12
ENDBRANCH   9  10
ENDBRANCH   8   9
ENDBRANCH   7   8
ENDBRANCH   4   7
ENDBRANCH   2   3
TORSDOF 12
ENDMDL
MODEL      251
REMARK 921   NORMALIZED FREE ENERGY PREDICTED BY IDOCK:   -3.99 KCAL/MOL
REMARK 922        TOTAL FREE ENERGY PREDICTED BY IDOCK:   -9.62 KCAL/MOL
REMARK 923 INTER-LIGAND FREE ENERGY PREDICTED BY IDOCK:   -6.68 KCAL/MOL
REMARK 924 INTRA-LIGAND FREE ENERGY PREDICTED BY IDOCK:   -2.94 KCAL/MOL
REMARK 927      BINDING AFFINITY PREDICTED BY RF-SCORE:    0.00 PKD
ROOT
HETATM    1  C   UNL     1     -10.284   6.105  69.791  1.00  0.00    -0.249 C  
HETATM    2  C   UNL     1     -11.123   6.098  68.526  1.00  0.00    -0.262 C  
ENDROOT
BRANCH   2   3
HETATM    3  N   UNL     1     -10.571   6.975  67.518  1.00  0.00    -0.251 N  
HETATM    4  C   UNL     1      -9.441   6.624  66.813  1.00  0.00    -0.160 C  
HETATM    5  H   UNL     1     -11.026   7.867  67.325  1.00  0.00     0.000 HD 
HETATM    6  O   UNL     1      -8.833   5.576  66.996  1.00  0.00    -0.112 OA 
BRANCH   4   7
HETATM    7  C   UNL     1      -9.031   7.657  65.782  1.00  0.00    -0.095 C  
BRANCH   7   8
HETATM    8  C   UNL     1      -7.911   8.554  66.316  1.00  0.00    -0.102 C  
BRANCH   8   9
HETATM    9  C   UNL     1      -8.004  10.001  65.833  1.00  0.00    -0.124 C  
BRANCH   9  10
HETATM   10  C   UNL     1      -9.419  10.411  65.540  1.00  0.00    -0.267 C  
HETATM   11  C   UNL     1     -10.029  11.546  65.916  1.00  0.00    -0.267 C  
BRANCH  11  12
HETATM   12  C   UNL     1      -9.442  12.653  66.749  1.00  0.00    -0.237 C  
BRANCH  12  13
HETATM   13  C   UNL     1      -9.852  12.588  68.227  1.00  0.00    -0.227 C  
HETATM   14  C   UNL     1     -11.051  13.468  68.609  1.00  0.00    -0.269 C  
HETATM   15  C   UNL     1     -11.579  12.813  69.879  1.00  0.00    -0.243 C  
HETATM   16  O   UNL     1     -12.075  13.421  67.622  1.00  0.00    -0.342 OA 
HETATM   17  H   UNL     1     -12.817  13.965  67.858  1.00  0.00     0.000 HD 
HETATM   18  C   UNL     1     -11.497  11.321  69.568  1.00  0.00    -0.307 C  
HETATM   19  O   UNL     1     -12.692  10.900  68.907  1.00  0.00    -0.600 OA 
HETATM   20  C   UNL     1     -10.295  11.151  68.611  1.00  0.00    -0.219 C  
HETATM   21  H   UNL     1     -12.641   9.971  68.713  1.00  0.00     0.000 HD 
BRANCH  20  22
HETATM   22  C   UNL     1      -9.173  10.367  69.258  1.00  0.00    -0.198 C  
HETATM   23  C   UNL     1      -7.911  10.822  69.346  1.00  0.00    -0.075 C  
BRANCH  23  24
HETATM   24  C   UNL     1      -6.710  10.087  69.884  1.00  0.00    -0.099 C  
HETATM   25  H   UNL     1      -5.403  10.322  71.337  1.00  0.00     0.000 HD 
HETATM   26  O   UNL     1      -6.160  10.785  70.998  1.00  0.00    -0.343 OA 
BRANCH  24  27
HETATM   27  C   UNL     1      -7.036   8.660  70.344  1.00  0.00    -0.043 C  
BRANCH  27  28
HETATM   28  C   UNL     1      -6.897   8.457  71.855  1.00  0.00    -0.092 C  
BRANCH  28  29
HETATM   29  C   UNL     1      -8.133   7.822  72.441  1.00  0.00    -0.150 A  
HETATM   30  C   UNL     1      -9.351   8.516  72.442  1.00  0.00    -0.349 A  
HETATM   31  C   UNL     1     -10.486   7.950  73.022  1.00  0.00    -0.410 A  
HETATM   32  C   UNL     1     -10.415   6.688  73.607  1.00  0.00    -0.353 A  
HETATM   33  C   UNL     1      -9.209   5.988  73.607  1.00  0.00    -0.127 A  
HETATM   34  C   UNL     1      -8.072   6.552  73.028  1.00  0.00    -0.107 A  
ENDBRANCH  28  29
ENDBRANCH  27  28
ENDBRANCH  24  27
ENDBRANCH  23  24
ENDBRANCH  20  22
ENDBRANCH  12  13
ENDBRANCH  11  12
ENDBRANCH   9  10
ENDBRANCH   8   9
ENDBRANCH   7   8
ENDBRANCH   4   7
ENDBRANCH   2   3
TORSDOF 12
ENDMDL
MODEL      252
REMARK 921   NORMALIZED FREE ENERGY PREDICTED BY IDOCK:   -3.98 KCAL/MOL
REMARK 922        TOTAL FREE ENERGY PREDICTED BY IDOCK:   -9.61 KCAL/MOL
REMARK 923 INTER-LIGAND FREE ENERGY PREDICTED BY IDOCK:   -6.66 KCAL/MOL
REMARK 924 INTRA-LIGAND FREE ENERGY PREDICTED BY IDOCK:   -2.96 KCAL/MOL
REMARK 927      BINDING AFFINITY PREDICTED BY RF-SCORE:    0.00 PKD
ROOT
HETATM    1  C   UNL     1     -10.442   5.162  66.390  1.00  0.00    -0.356 C  
HETATM    2  C   UNL     1     -11.140   6.127  67.330  1.00  0.00    -0.225 C  
ENDROOT
BRANCH   2   3
HETATM    3  N   UNL     1     -10.328   7.294  67.593  1.00  0.00    -0.207 N  
HETATM    4  C   UNL     1     -10.144   7.757  68.876  1.00  0.00    -0.195 C  
HETATM    5  H   UNL     1      -9.884   7.782  66.814  1.00  0.00     0.000 HD 
HETATM    6  O   UNL     1     -10.651   7.232  69.859  1.00  0.00    -0.220 OA 
BRANCH   4   7
HETATM    7  C   UNL     1      -9.241   8.973  68.952  1.00  0.00    -0.140 C  
BRANCH   7   8
HETATM    8  C   UNL     1      -9.935  10.130  69.675  1.00  0.00    -0.262 C  
BRANCH   8   9
HETATM    9  C   UNL     1     -10.192  11.343  68.782  1.00  0.00    -0.209 C  
BRANCH   9  10
HETATM   10  C   UNL     1      -8.917  11.956  68.277  1.00  0.00    -0.178 C  
HETATM   11  C   UNL     1      -8.562  13.250  68.330  1.00  0.00    -0.169 C  
BRANCH  11  12
HETATM   12  C   UNL     1      -9.378  14.387  68.878  1.00  0.00    -0.096 C  
BRANCH  12  13
HETATM   13  C   UNL     1     -10.229  15.097  67.815  1.00  0.00    -0.236 C  
HETATM   14  C   UNL     1     -10.567  16.562  68.125  1.00  0.00    -0.329 C  
HETATM   15  C   UNL     1     -10.874  17.151  66.754  1.00  0.00     0.022 C  
HETATM   16  O   UNL     1      -9.451  17.257  68.670  1.00  0.00    -0.267 OA 
HETATM   17  H   UNL     1      -9.660  18.163  68.862  1.00  0.00     0.000 HD 
HETATM   18  C   UNL     1      -9.797  16.544  65.859  1.00  0.00    -0.295 C  
HETATM   19  O   UNL     1      -8.623  17.360  65.897  1.00  0.00    -0.525 OA 
HETATM   20  C   UNL     1      -9.475  15.157  66.459  1.00  0.00    -0.308 C  
HETATM   21  H   UNL     1      -7.952  16.982  65.340  1.00  0.00     0.000 HD 
BRANCH  20  22
HETATM   22  C   UNL     1      -9.893  14.037  65.531  1.00  0.00    -0.229 C  
HETATM   23  C   UNL     1     -11.090  13.427  65.601  1.00  0.00    -0.298 C  
BRANCH  23  24
HETATM   24  C   UNL     1     -11.564  12.249  64.790  1.00  0.00    -0.337 C  
HETATM   25  H   UNL     1     -11.623  11.730  62.893  1.00  0.00     0.000 HD 
HETATM   26  O   UNL     1     -11.324  12.473  63.403  1.00  0.00    -0.466 OA 
BRANCH  24  27
HETATM   27  C   UNL     1     -10.872  10.936  65.176  1.00  0.00    -0.133 C  
BRANCH  27  28
HETATM   28  C   UNL     1      -9.770  10.514  64.200  1.00  0.00    -0.388 C  
BRANCH  28  29
HETATM   29  C   UNL     1      -8.616   9.862  64.919  1.00  0.00    -0.183 A  
HETATM   30  C   UNL     1      -7.565  10.641  65.419  1.00  0.00    -0.038 A  
HETATM   31  C   UNL     1      -6.474  10.038  66.047  1.00  0.00    -0.093 A  
HETATM   32  C   UNL     1      -6.425   8.652  66.178  1.00  0.00    -0.057 A  
HETATM   33  C   UNL     1      -7.469   7.869  65.688  1.00  0.00    -0.081 A  
HETATM   34  C   UNL     1      -8.560   8.469  65.060  1.00  0.00    -0.162 A  
ENDBRANCH  28  29
ENDBRANCH  27  28
ENDBRANCH  24  27
ENDBRANCH  23  24
ENDBRANCH  20  22
ENDBRANCH  12  13
ENDBRANCH  11  12
ENDBRANCH   9  10
ENDBRANCH   8   9
ENDBRANCH   7   8
ENDBRANCH   4   7
ENDBRANCH   2   3
TORSDOF 12
ENDMDL
MODEL      253
REMARK 921   NORMALIZED FREE ENERGY PREDICTED BY IDOCK:   -3.98 KCAL/MOL
REMARK 922        TOTAL FREE ENERGY PREDICTED BY IDOCK:   -9.60 KCAL/MOL
REMARK 923 INTER-LIGAND FREE ENERGY PREDICTED BY IDOCK:   -7.19 KCAL/MOL
REMARK 924 INTRA-LIGAND FREE ENERGY PREDICTED BY IDOCK:   -2.41 KCAL/MOL
REMARK 927      BINDING AFFINITY PREDICTED BY RF-SCORE:    0.00 PKD
ROOT
HETATM    1  C   UNL     1     -13.200  12.715  72.134  1.00  0.00    -0.527 C  
HETATM    2  C   UNL     1     -12.576  13.567  71.045  1.00  0.00    -0.359 C  
ENDROOT
BRANCH   2   3
HETATM    3  N   UNL     1     -11.845  12.761  70.093  1.00  0.00    -0.513 N  
HETATM    4  C   UNL     1     -11.495  13.263  68.859  1.00  0.00    -0.298 C  
HETATM    5  H   UNL     1     -11.584  11.806  70.339  1.00  0.00     0.000 HD 
HETATM    6  O   UNL     1     -11.781  14.394  68.487  1.00  0.00    -0.302 OA 
BRANCH   4   7
HETATM    7  C   UNL     1     -10.711  12.280  68.012  1.00  0.00    -0.245 C  
BRANCH   7   8
HETATM    8  C   UNL     1     -11.504  10.990  67.789  1.00  0.00    -0.339 C  
BRANCH   8   9
HETATM    9  C   UNL     1     -10.623   9.751  67.625  1.00  0.00    -0.333 C  
BRANCH   9  10
HETATM   10  C   UNL     1      -9.541   9.683  68.665  1.00  0.00    -0.154 C  
HETATM   11  C   UNL     1      -9.541   8.950  69.790  1.00  0.00    -0.175 C  
BRANCH  11  12
HETATM   12  C   UNL     1     -10.643   8.052  70.281  1.00  0.00    -0.231 C  
BRANCH  12  13
HETATM   13  C   UNL     1     -10.218   7.140  71.440  1.00  0.00    -0.203 C  
HETATM   14  C   UNL     1     -10.629   7.629  72.837  1.00  0.00    -0.354 C  
HETATM   15  C   UNL     1     -10.618   6.357  73.674  1.00  0.00    -0.288 C  
HETATM   16  O   UNL     1     -11.951   8.156  72.842  1.00  0.00    -0.581 OA 
HETATM   17  H   UNL     1     -12.206   8.458  73.706  1.00  0.00     0.000 HD 
HETATM   18  C   UNL     1     -11.257   5.321  72.752  1.00  0.00    -0.284 C  
HETATM   19  O   UNL     1     -12.678   5.353  72.902  1.00  0.00    -0.414 OA 
HETATM   20  C   UNL     1     -10.884   5.744  71.313  1.00  0.00    -0.313 C  
HETATM   21  H   UNL     1     -13.076   4.709  72.328  1.00  0.00     0.000 HD 
BRANCH  20  22
HETATM   22  C   UNL     1      -9.964   4.737  70.656  1.00  0.00    -0.300 C  
HETATM   23  C   UNL     1      -8.625   4.861  70.642  1.00  0.00    -0.123 C  
BRANCH  23  24
HETATM   24  C   UNL     1      -7.632   3.969  69.941  1.00  0.00    -0.052 C  
HETATM   25  H   UNL     1      -7.679   2.331  68.851  1.00  0.00     0.000 HD 
HETATM   26  O   UNL     1      -8.305   2.892  69.292  1.00  0.00    -0.057 OA 
BRANCH  24  27
HETATM   27  C   UNL     1      -6.806   4.707  68.880  1.00  0.00    -0.051 C  
BRANCH  27  28
HETATM   28  C   UNL     1      -7.419   6.042  68.445  1.00  0.00    -0.086 C  
BRANCH  28  29
HETATM   29  C   UNL     1      -7.599   6.103  66.949  1.00  0.00    -0.099 A  
HETATM   30  C   UNL     1      -7.634   7.341  66.293  1.00  0.00    -0.092 A  
HETATM   31  C   UNL     1      -7.845   7.405  64.916  1.00  0.00    -0.125 A  
HETATM   32  C   UNL     1      -8.023   6.234  64.183  1.00  0.00    -0.103 A  
HETATM   33  C   UNL     1      -7.985   4.998  64.826  1.00  0.00    -0.100 A  
HETATM   34  C   UNL     1      -7.775   4.931  66.203  1.00  0.00    -0.091 A  
ENDBRANCH  28  29
ENDBRANCH  27  28
ENDBRANCH  24  27
ENDBRANCH  23  24
ENDBRANCH  20  22
ENDBRANCH  12  13
ENDBRANCH  11  12
ENDBRANCH   9  10
ENDBRANCH   8   9
ENDBRANCH   7   8
ENDBRANCH   4   7
ENDBRANCH   2   3
TORSDOF 12
ENDMDL
MODEL      254
REMARK 921   NORMALIZED FREE ENERGY PREDICTED BY IDOCK:   -3.97 KCAL/MOL
REMARK 922        TOTAL FREE ENERGY PREDICTED BY IDOCK:   -9.60 KCAL/MOL
REMARK 923 INTER-LIGAND FREE ENERGY PREDICTED BY IDOCK:   -8.25 KCAL/MOL
REMARK 924 INTRA-LIGAND FREE ENERGY PREDICTED BY IDOCK:   -1.34 KCAL/MOL
REMARK 927      BINDING AFFINITY PREDICTED BY RF-SCORE:    0.00 PKD
ROOT
HETATM    1  C   UNL     1     -12.370  13.795  63.659  1.00  0.00    -0.256 C  
HETATM    2  C   UNL     1     -12.192  14.215  65.106  1.00  0.00    -0.433 C  
ENDROOT
BRANCH   2   3
HETATM    3  N   UNL     1     -12.295  13.086  66.004  1.00  0.00    -0.391 N  
HETATM    4  C   UNL     1     -11.172  12.520  66.565  1.00  0.00    -0.307 C  
HETATM    5  H   UNL     1     -13.214  12.703  66.226  1.00  0.00     0.000 HD 
HETATM    6  O   UNL     1     -10.035  12.916  66.339  1.00  0.00    -0.255 OA 
BRANCH   4   7
HETATM    7  C   UNL     1     -11.484  11.367  67.498  1.00  0.00    -0.336 C  
BRANCH   7   8
HETATM    8  C   UNL     1     -11.785  11.869  68.913  1.00  0.00    -0.381 C  
BRANCH   8   9
HETATM    9  C   UNL     1     -11.466  10.849  70.005  1.00  0.00    -0.411 C  
BRANCH   9  10
HETATM   10  C   UNL     1     -12.440  10.917  71.146  1.00  0.00    -0.511 C  
HETATM   11  C   UNL     1     -13.062   9.888  71.745  1.00  0.00    -0.553 C  
BRANCH  11  12
HETATM   12  C   UNL     1     -12.949   8.433  71.385  1.00  0.00    -0.248 C  
BRANCH  12  13
HETATM   13  C   UNL     1     -11.499   7.938  71.290  1.00  0.00    -0.293 C  
HETATM   14  C   UNL     1     -10.723   7.941  72.615  1.00  0.00    -0.347 C  
HETATM   15  C   UNL     1      -9.612   6.927  72.376  1.00  0.00    -0.167 C  
HETATM   16  O   UNL     1     -11.525   7.481  73.697  1.00  0.00    -0.515 OA 
HETATM   17  H   UNL     1     -11.045   7.483  74.516  1.00  0.00     0.000 HD 
HETATM   18  C   UNL     1     -10.321   5.793  71.640  1.00  0.00    -0.214 C  
HETATM   19  O   UNL     1     -10.888   4.883  72.585  1.00  0.00    -0.213 OA 
HETATM   20  C   UNL     1     -11.454   6.457  70.825  1.00  0.00    -0.415 C  
HETATM   21  H   UNL     1     -11.329   4.178  72.126  1.00  0.00     0.000 HD 
BRANCH  20  22
HETATM   22  C   UNL     1     -11.214   6.340  69.335  1.00  0.00    -0.489 C  
HETATM   23  C   UNL     1     -10.418   5.405  68.788  1.00  0.00    -0.219 C  
BRANCH  23  24
HETATM   24  C   UNL     1     -10.042   5.262  67.335  1.00  0.00    -0.187 C  
HETATM   25  H   UNL     1     -10.706   5.911  65.599  1.00  0.00     0.000 HD 
HETATM   26  O   UNL     1     -10.943   6.002  66.515  1.00  0.00    -0.245 OA 
BRANCH  24  27
HETATM   27  C   UNL     1      -8.622   5.757  67.030  1.00  0.00    -0.110 C  
BRANCH  27  28
HETATM   28  C   UNL     1      -8.568   7.218  66.572  1.00  0.00    -0.134 C  
BRANCH  28  29
HETATM   29  C   UNL     1      -8.099   7.329  65.143  1.00  0.00    -0.128 A  
HETATM   30  C   UNL     1      -7.694   8.568  64.628  1.00  0.00    -0.116 A  
HETATM   31  C   UNL     1      -7.302   8.685  63.295  1.00  0.00    -0.101 A  
HETATM   32  C   UNL     1      -7.312   7.566  62.465  1.00  0.00    -0.093 A  
HETATM   33  C   UNL     1      -7.709   6.329  62.969  1.00  0.00    -0.093 A  
HETATM   34  C   UNL     1      -8.102   6.209  64.302  1.00  0.00    -0.093 A  
ENDBRANCH  28  29
ENDBRANCH  27  28
ENDBRANCH  24  27
ENDBRANCH  23  24
ENDBRANCH  20  22
ENDBRANCH  12  13
ENDBRANCH  11  12
ENDBRANCH   9  10
ENDBRANCH   8   9
ENDBRANCH   7   8
ENDBRANCH   4   7
ENDBRANCH   2   3
TORSDOF 12
ENDMDL
MODEL      255
REMARK 921   NORMALIZED FREE ENERGY PREDICTED BY IDOCK:   -3.97 KCAL/MOL
REMARK 922        TOTAL FREE ENERGY PREDICTED BY IDOCK:   -9.59 KCAL/MOL
REMARK 923 INTER-LIGAND FREE ENERGY PREDICTED BY IDOCK:   -7.92 KCAL/MOL
REMARK 924 INTRA-LIGAND FREE ENERGY PREDICTED BY IDOCK:   -1.67 KCAL/MOL
REMARK 927      BINDING AFFINITY PREDICTED BY RF-SCORE:    0.00 PKD
ROOT
HETATM    1  C   UNL     1      -6.096  14.544  71.110  1.00  0.00    -0.020 C  
HETATM    2  C   UNL     1      -5.138  13.725  70.266  1.00  0.00    -0.094 C  
ENDROOT
BRANCH   2   3
HETATM    3  N   UNL     1      -5.842  12.905  69.305  1.00  0.00    -0.081 N  
HETATM    4  C   UNL     1      -6.270  11.638  69.632  1.00  0.00    -0.127 C  
HETATM    5  H   UNL     1      -6.024  13.271  68.371  1.00  0.00     0.000 HD 
HETATM    6  O   UNL     1      -6.080  11.126  70.728  1.00  0.00    -0.336 OA 
BRANCH   4   7
HETATM    7  C   UNL     1      -7.011  10.946  68.505  1.00  0.00    -0.072 C  
BRANCH   7   8
HETATM    8  C   UNL     1      -8.503  10.816  68.826  1.00  0.00    -0.148 C  
BRANCH   8   9
HETATM    9  C   UNL     1      -9.290  12.108  68.611  1.00  0.00    -0.031 C  
BRANCH   9  10
HETATM   10  C   UNL     1      -8.805  12.875  67.414  1.00  0.00    -0.199 C  
HETATM   11  C   UNL     1      -9.552  13.549  66.525  1.00  0.00    -0.284 C  
BRANCH  11  12
HETATM   12  C   UNL     1     -11.051  13.661  66.508  1.00  0.00    -0.310 C  
BRANCH  12  13
HETATM   13  C   UNL     1     -11.735  12.584  65.655  1.00  0.00    -0.473 C  
HETATM   14  C   UNL     1     -12.441  13.103  64.393  1.00  0.00    -0.310 C  
HETATM   15  C   UNL     1     -12.507  11.875  63.495  1.00  0.00    -0.609 C  
HETATM   16  O   UNL     1     -11.670  14.100  63.732  1.00  0.00    -0.647 OA 
HETATM   17  H   UNL     1     -12.106  14.421  62.951  1.00  0.00     0.000 HD 
HETATM   18  C   UNL     1     -11.136  11.230  63.676  1.00  0.00    -0.215 C  
HETATM   19  O   UNL     1     -10.208  11.801  62.750  1.00  0.00    -0.595 OA 
HETATM   20  C   UNL     1     -10.693  11.566  65.118  1.00  0.00    -0.348 C  
HETATM   21  H   UNL     1      -9.354  11.399  62.863  1.00  0.00     0.000 HD 
BRANCH  20  22
HETATM   22  C   UNL     1     -10.617  10.326  65.983  1.00  0.00    -0.111 C  
HETATM   23  C   UNL     1      -9.747   9.325  65.764  1.00  0.00    -0.339 C  
BRANCH  23  24
HETATM   24  C   UNL     1      -9.653   8.016  66.505  1.00  0.00    -0.226 C  
HETATM   25  H   UNL     1      -8.288   6.638  66.839  1.00  0.00     0.000 HD 
HETATM   26  O   UNL     1      -8.346   7.464  66.371  1.00  0.00    -0.116 OA 
BRANCH  24  27
HETATM   27  C   UNL     1      -9.951   8.152  68.003  1.00  0.00    -0.222 C  
BRANCH  27  28
HETATM   28  C   UNL     1     -10.750   6.979  68.577  1.00  0.00    -0.219 C  
BRANCH  28  29
HETATM   29  C   UNL     1     -10.810   7.038  70.083  1.00  0.00    -0.285 A  
HETATM   30  C   UNL     1     -11.417   6.003  70.807  1.00  0.00    -0.227 A  
HETATM   31  C   UNL     1     -11.514   6.074  72.197  1.00  0.00    -0.356 A  
HETATM   32  C   UNL     1     -11.005   7.180  72.875  1.00  0.00    -0.359 A  
HETATM   33  C   UNL     1     -10.395   8.212  72.164  1.00  0.00    -0.342 A  
HETATM   34  C   UNL     1     -10.297   8.143  70.775  1.00  0.00    -0.217 A  
ENDBRANCH  28  29
ENDBRANCH  27  28
ENDBRANCH  24  27
ENDBRANCH  23  24
ENDBRANCH  20  22
ENDBRANCH  12  13
ENDBRANCH  11  12
ENDBRANCH   9  10
ENDBRANCH   8   9
ENDBRANCH   7   8
ENDBRANCH   4   7
ENDBRANCH   2   3
TORSDOF 12
ENDMDL
MODEL      256
REMARK 921   NORMALIZED FREE ENERGY PREDICTED BY IDOCK:   -3.97 KCAL/MOL
REMARK 922        TOTAL FREE ENERGY PREDICTED BY IDOCK:   -9.59 KCAL/MOL
REMARK 923 INTER-LIGAND FREE ENERGY PREDICTED BY IDOCK:   -8.24 KCAL/MOL
REMARK 924 INTRA-LIGAND FREE ENERGY PREDICTED BY IDOCK:   -1.35 KCAL/MOL
REMARK 927      BINDING AFFINITY PREDICTED BY RF-SCORE:    0.00 PKD
ROOT
HETATM    1  C   UNL     1      -7.929  18.979  68.678  1.00  0.00    -0.387 C  
HETATM    2  C   UNL     1      -8.010  19.116  67.170  1.00  0.00    -0.259 C  
ENDROOT
BRANCH   2   3
HETATM    3  N   UNL     1      -8.723  18.009  66.573  1.00  0.00    -0.266 N  
HETATM    4  C   UNL     1     -10.082  18.068  66.365  1.00  0.00    -0.384 C  
HETATM    5  H   UNL     1      -8.210  17.169  66.302  1.00  0.00     0.000 HD 
HETATM    6  O   UNL     1     -10.768  19.036  66.672  1.00  0.00    -0.405 OA 
BRANCH   4   7
HETATM    7  C   UNL     1     -10.644  16.824  65.705  1.00  0.00    -0.259 C  
BRANCH   7   8
HETATM    8  C   UNL     1     -10.679  15.649  66.686  1.00  0.00    -0.296 C  
BRANCH   8   9
HETATM    9  C   UNL     1     -10.469  14.290  66.020  1.00  0.00    -0.306 C  
BRANCH   9  10
HETATM   10  C   UNL     1     -11.243  13.198  66.702  1.00  0.00    -0.335 C  
HETATM   11  C   UNL     1     -11.286  11.900  66.362  1.00  0.00    -0.400 C  
BRANCH  11  12
HETATM   12  C   UNL     1     -10.593  11.249  65.197  1.00  0.00    -0.343 C  
BRANCH  12  13
HETATM   13  C   UNL     1      -9.588  10.166  65.611  1.00  0.00    -0.302 C  
HETATM   14  C   UNL     1      -8.112  10.580  65.523  1.00  0.00    -0.155 C  
HETATM   15  C   UNL     1      -7.418   9.619  66.479  1.00  0.00    -0.094 C  
HETATM   16  O   UNL     1      -7.908  11.907  65.996  1.00  0.00    -0.312 OA 
HETATM   17  H   UNL     1      -6.995  12.163  65.942  1.00  0.00     0.000 HD 
HETATM   18  C   UNL     1      -8.367   9.561  67.673  1.00  0.00    -0.125 C  
HETATM   19  O   UNL     1      -8.061  10.618  68.585  1.00  0.00    -0.116 OA 
HETATM   20  C   UNL     1      -9.787   9.774  67.100  1.00  0.00    -0.238 C  
HETATM   21  H   UNL     1      -8.653  10.582  69.328  1.00  0.00     0.000 HD 
BRANCH  20  22
HETATM   22  C   UNL     1     -10.641   8.533  67.248  1.00  0.00    -0.315 C  
HETATM   23  C   UNL     1     -10.152   7.342  67.636  1.00  0.00    -0.240 C  
BRANCH  23  24
HETATM   24  C   UNL     1     -10.895   6.034  67.725  1.00  0.00    -0.290 C  
HETATM   25  H   UNL     1     -11.228   4.479  66.565  1.00  0.00     0.000 HD 
HETATM   26  O   UNL     1     -10.760   5.304  66.508  1.00  0.00    -0.301 OA 
BRANCH  24  27
HETATM   27  C   UNL     1     -10.397   5.136  68.864  1.00  0.00    -0.186 C  
BRANCH  27  28
HETATM   28  C   UNL     1     -10.076   5.902  70.151  1.00  0.00    -0.261 C  
BRANCH  28  29
HETATM   29  C   UNL     1     -10.223   5.021  71.367  1.00  0.00    -0.270 A  
HETATM   30  C   UNL     1      -9.904   3.659  71.294  1.00  0.00    -0.211 A  
HETATM   31  C   UNL     1     -10.081   2.831  72.403  1.00  0.00    -0.234 A  
HETATM   32  C   UNL     1     -10.578   3.357  73.593  1.00  0.00    -0.281 A  
HETATM   33  C   UNL     1     -10.894   4.713  73.676  1.00  0.00    -0.375 A  
HETATM   34  C   UNL     1     -10.719   5.542  72.569  1.00  0.00    -0.289 A  
ENDBRANCH  28  29
ENDBRANCH  27  28
ENDBRANCH  24  27
ENDBRANCH  23  24
ENDBRANCH  20  22
ENDBRANCH  12  13
ENDBRANCH  11  12
ENDBRANCH   9  10
ENDBRANCH   8   9
ENDBRANCH   7   8
ENDBRANCH   4   7
ENDBRANCH   2   3
TORSDOF 12
ENDMDL
MODEL      257
REMARK 921   NORMALIZED FREE ENERGY PREDICTED BY IDOCK:   -3.95 KCAL/MOL
REMARK 922        TOTAL FREE ENERGY PREDICTED BY IDOCK:   -9.56 KCAL/MOL
REMARK 923 INTER-LIGAND FREE ENERGY PREDICTED BY IDOCK:   -6.75 KCAL/MOL
REMARK 924 INTRA-LIGAND FREE ENERGY PREDICTED BY IDOCK:   -2.80 KCAL/MOL
REMARK 927      BINDING AFFINITY PREDICTED BY RF-SCORE:    0.00 PKD
ROOT
HETATM    1  C   UNL     1     -14.361  14.344  71.953  1.00  0.00    -0.627 C  
HETATM    2  C   UNL     1     -13.441  15.181  71.084  1.00  0.00    -0.465 C  
ENDROOT
BRANCH   2   3
HETATM    3  N   UNL     1     -12.597  14.353  70.252  1.00  0.00    -0.418 N  
HETATM    4  C   UNL     1     -11.882  14.893  69.206  1.00  0.00    -0.318 C  
HETATM    5  H   UNL     1     -12.529  13.353  70.443  1.00  0.00     0.000 HD 
HETATM    6  O   UNL     1     -11.920  16.080  68.908  1.00  0.00    -0.348 OA 
BRANCH   4   7
HETATM    7  C   UNL     1     -11.036  13.874  68.468  1.00  0.00    -0.289 C  
BRANCH   7   8
HETATM    8  C   UNL     1     -11.902  12.747  67.900  1.00  0.00    -0.392 C  
BRANCH   8   9
HETATM    9  C   UNL     1     -11.093  11.595  67.304  1.00  0.00    -0.346 C  
BRANCH   9  10
HETATM   10  C   UNL     1      -9.849  11.307  68.096  1.00  0.00    -0.190 C  
HETATM   11  C   UNL     1      -9.726  10.469  69.137  1.00  0.00    -0.226 C  
BRANCH  11  12
HETATM   12  C   UNL     1     -10.818   9.651  69.771  1.00  0.00    -0.274 C  
BRANCH  12  13
HETATM   13  C   UNL     1     -10.345   8.834  70.982  1.00  0.00    -0.297 C  
HETATM   14  C   UNL     1     -11.294   8.851  72.189  1.00  0.00    -0.299 C  
HETATM   15  C   UNL     1     -10.915   7.590  72.953  1.00  0.00    -0.434 C  
HETATM   16  O   UNL     1     -12.656   8.742  71.790  1.00  0.00    -0.317 OA 
HETATM   17  H   UNL     1     -13.243   8.752  72.537  1.00  0.00     0.000 HD 
HETATM   18  C   UNL     1     -10.725   6.552  71.851  1.00  0.00    -0.219 C  
HETATM   19  O   UNL     1     -11.979   5.937  71.544  1.00  0.00    -0.060 OA 
HETATM   20  C   UNL     1     -10.221   7.331  70.614  1.00  0.00    -0.202 C  
HETATM   21  H   UNL     1     -11.860   5.291  70.858  1.00  0.00     0.000 HD 
BRANCH  20  22
HETATM   22  C   UNL     1      -8.801   6.952  70.256  1.00  0.00    -0.148 C  
HETATM   23  C   UNL     1      -7.721   7.540  70.798  1.00  0.00    -0.083 C  
BRANCH  23  24
HETATM   24  C   UNL     1      -6.275   7.302  70.444  1.00  0.00    -0.034 C  
HETATM   25  H   UNL     1      -5.236   5.978  69.424  1.00  0.00     0.000 HD 
HETATM   26  O   UNL     1      -6.147   6.128  69.647  1.00  0.00    -0.024 OA 
BRANCH  24  27
HETATM   27  C   UNL     1      -5.648   8.465  69.664  1.00  0.00    -0.030 C  
BRANCH  27  28
HETATM   28  C   UNL     1      -5.826   9.825  70.344  1.00  0.00    -0.060 C  
BRANCH  28  29
HETATM   29  C   UNL     1      -6.046  10.922  69.332  1.00  0.00    -0.056 A  
HETATM   30  C   UNL     1      -6.156  12.255  69.749  1.00  0.00    -0.141 A  
HETATM   31  C   UNL     1      -6.404  13.267  68.822  1.00  0.00    -0.094 A  
HETATM   32  C   UNL     1      -6.545  12.956  67.471  1.00  0.00    -0.160 A  
HETATM   33  C   UNL     1      -6.433  11.633  67.047  1.00  0.00    -0.148 A  
HETATM   34  C   UNL     1      -6.185  10.619  67.972  1.00  0.00    -0.053 A  
ENDBRANCH  28  29
ENDBRANCH  27  28
ENDBRANCH  24  27
ENDBRANCH  23  24
ENDBRANCH  20  22
ENDBRANCH  12  13
ENDBRANCH  11  12
ENDBRANCH   9  10
ENDBRANCH   8   9
ENDBRANCH   7   8
ENDBRANCH   4   7
ENDBRANCH   2   3
TORSDOF 12
ENDMDL
MODEL      258
REMARK 921   NORMALIZED FREE ENERGY PREDICTED BY IDOCK:   -3.92 KCAL/MOL
REMARK 922        TOTAL FREE ENERGY PREDICTED BY IDOCK:   -9.50 KCAL/MOL
REMARK 923 INTER-LIGAND FREE ENERGY PREDICTED BY IDOCK:   -7.68 KCAL/MOL
REMARK 924 INTRA-LIGAND FREE ENERGY PREDICTED BY IDOCK:   -1.82 KCAL/MOL
REMARK 927      BINDING AFFINITY PREDICTED BY RF-SCORE:    0.00 PKD
ROOT
HETATM    1  C   UNL     1     -10.223   2.431  62.917  1.00  0.00    -0.116 C  
HETATM    2  C   UNL     1     -10.724   3.561  63.796  1.00  0.00    -0.256 C  
ENDROOT
BRANCH   2   3
HETATM    3  N   UNL     1      -9.774   3.890  64.834  1.00  0.00    -0.178 N  
HETATM    4  C   UNL     1      -8.835   4.880  64.650  1.00  0.00    -0.139 C  
HETATM    5  H   UNL     1      -9.798   3.379  65.717  1.00  0.00     0.000 HD 
HETATM    6  O   UNL     1      -8.736   5.528  63.616  1.00  0.00    -0.023 OA 
BRANCH   4   7
HETATM    7  C   UNL     1      -7.947   5.097  65.859  1.00  0.00    -0.108 C  
BRANCH   7   8
HETATM    8  C   UNL     1      -8.164   6.489  66.459  1.00  0.00    -0.113 C  
BRANCH   8   9
HETATM    9  C   UNL     1      -9.431   6.599  67.305  1.00  0.00    -0.151 C  
BRANCH   9  10
HETATM   10  C   UNL     1     -10.370   7.652  66.788  1.00  0.00    -0.343 C  
HETATM   11  C   UNL     1     -10.713   8.801  67.392  1.00  0.00    -0.216 C  
BRANCH  11  12
HETATM   12  C   UNL     1     -10.259   9.280  68.743  1.00  0.00    -0.223 C  
BRANCH  12  13
HETATM   13  C   UNL     1      -9.518  10.624  68.698  1.00  0.00    -0.176 C  
HETATM   14  C   UNL     1      -8.013  10.547  68.989  1.00  0.00    -0.136 C  
HETATM   15  C   UNL     1      -7.463  11.811  68.342  1.00  0.00    -0.105 C  
HETATM   16  O   UNL     1      -7.410   9.422  68.359  1.00  0.00    -0.076 OA 
HETATM   17  H   UNL     1      -6.479   9.374  68.539  1.00  0.00     0.000 HD 
HETATM   18  C   UNL     1      -8.218  11.887  67.018  1.00  0.00    -0.170 C  
HETATM   19  O   UNL     1      -7.527  11.130  66.022  1.00  0.00    -0.320 OA 
HETATM   20  C   UNL     1      -9.601  11.248  67.279  1.00  0.00    -0.188 C  
HETATM   21  H   UNL     1      -7.997  11.178  65.198  1.00  0.00     0.000 HD 
BRANCH  20  22
HETATM   22  C   UNL     1     -10.716  12.266  67.174  1.00  0.00    -0.265 C  
HETATM   23  C   UNL     1     -10.507  13.561  66.881  1.00  0.00    -0.271 C  
BRANCH  23  24
HETATM   24  C   UNL     1     -11.531  14.667  66.844  1.00  0.00    -0.363 C  
HETATM   25  H   UNL     1     -13.398  14.889  66.259  1.00  0.00     0.000 HD 
HETATM   26  O   UNL     1     -12.752  14.192  66.282  1.00  0.00    -0.401 OA 
BRANCH  24  27
HETATM   27  C   UNL     1     -11.849  15.239  68.231  1.00  0.00    -0.251 C  
BRANCH  27  28
HETATM   28  C   UNL     1     -11.092  14.544  69.367  1.00  0.00    -0.297 C  
BRANCH  28  29
HETATM   29  C   UNL     1     -12.016  14.183  70.503  1.00  0.00    -0.393 A  
HETATM   30  C   UNL     1     -12.373  12.847  70.726  1.00  0.00    -0.385 A  
HETATM   31  C   UNL     1     -13.262  12.512  71.747  1.00  0.00    -0.444 A  
HETATM   32  C   UNL     1     -13.802  13.511  72.555  1.00  0.00    -0.624 A  
HETATM   33  C   UNL     1     -13.451  14.843  72.344  1.00  0.00    -0.528 A  
HETATM   34  C   UNL     1     -12.562  15.179  71.323  1.00  0.00    -0.421 A  
ENDBRANCH  28  29
ENDBRANCH  27  28
ENDBRANCH  24  27
ENDBRANCH  23  24
ENDBRANCH  20  22
ENDBRANCH  12  13
ENDBRANCH  11  12
ENDBRANCH   9  10
ENDBRANCH   8   9
ENDBRANCH   7   8
ENDBRANCH   4   7
ENDBRANCH   2   3
TORSDOF 12
ENDMDL
MODEL      259
REMARK 921   NORMALIZED FREE ENERGY PREDICTED BY IDOCK:   -3.92 KCAL/MOL
REMARK 922        TOTAL FREE ENERGY PREDICTED BY IDOCK:   -9.50 KCAL/MOL
REMARK 923 INTER-LIGAND FREE ENERGY PREDICTED BY IDOCK:   -7.29 KCAL/MOL
REMARK 924 INTRA-LIGAND FREE ENERGY PREDICTED BY IDOCK:   -2.21 KCAL/MOL
REMARK 927      BINDING AFFINITY PREDICTED BY RF-SCORE:    0.00 PKD
ROOT
HETATM    1  C   UNL     1     -13.406  12.306  72.061  1.00  0.00    -0.491 C  
HETATM    2  C   UNL     1     -12.570  11.660  70.972  1.00  0.00    -0.331 C  
ENDROOT
BRANCH   2   3
HETATM    3  N   UNL     1     -11.929  12.650  70.136  1.00  0.00    -0.463 N  
HETATM    4  C   UNL     1     -11.798  12.456  68.779  1.00  0.00    -0.311 C  
HETATM    5  H   UNL     1     -11.568  13.506  70.557  1.00  0.00     0.000 HD 
HETATM    6  O   UNL     1     -12.196  11.452  68.202  1.00  0.00    -0.602 OA 
BRANCH   4   7
HETATM    7  C   UNL     1     -11.125  13.614  68.069  1.00  0.00    -0.285 C  
BRANCH   7   8
HETATM    8  C   UNL     1     -10.105  13.113  67.043  1.00  0.00    -0.241 C  
BRANCH   8   9
HETATM    9  C   UNL     1      -8.862  12.487  67.672  1.00  0.00    -0.179 C  
BRANCH   9  10
HETATM   10  C   UNL     1      -8.070  11.680  66.683  1.00  0.00    -0.121 C  
HETATM   11  C   UNL     1      -8.221  10.377  66.394  1.00  0.00    -0.141 C  
BRANCH  11  12
HETATM   12  C   UNL     1      -9.197   9.421  67.021  1.00  0.00    -0.171 C  
BRANCH  12  13
HETATM   13  C   UNL     1      -8.555   8.477  68.047  1.00  0.00    -0.134 C  
HETATM   14  C   UNL     1      -7.248   7.811  67.590  1.00  0.00    -0.091 C  
HETATM   15  C   UNL     1      -6.566   7.437  68.899  1.00  0.00    -0.048 C  
HETATM   16  O   UNL     1      -6.408   8.724  66.893  1.00  0.00    -0.058 OA 
HETATM   17  H   UNL     1      -5.600   8.312  66.610  1.00  0.00     0.000 HD 
HETATM   18  C   UNL     1      -6.806   8.657  69.785  1.00  0.00    -0.042 C  
HETATM   19  O   UNL     1      -5.771   9.619  69.572  1.00  0.00    -0.034 OA 
HETATM   20  C   UNL     1      -8.159   9.253  69.332  1.00  0.00    -0.108 C  
HETATM   21  H   UNL     1      -5.920  10.379  70.123  1.00  0.00     0.000 HD 
BRANCH  20  22
HETATM   22  C   UNL     1      -9.212   9.130  70.412  1.00  0.00    -0.271 C  
HETATM   23  C   UNL     1      -8.958   8.641  71.639  1.00  0.00    -0.305 C  
BRANCH  23  24
HETATM   24  C   UNL     1      -9.949   8.393  72.747  1.00  0.00    -0.215 C  
HETATM   25  H   UNL     1     -11.875   8.665  73.052  1.00  0.00     0.000 HD 
HETATM   26  O   UNL     1     -11.250   8.822  72.354  1.00  0.00    -0.329 OA 
BRANCH  24  27
HETATM   27  C   UNL     1     -10.047   6.916  73.147  1.00  0.00    -0.241 C  
BRANCH  27  28
HETATM   28  C   UNL     1     -11.160   6.157  72.419  1.00  0.00    -0.316 C  
BRANCH  28  29
HETATM   29  C   UNL     1     -10.761   5.816  71.005  1.00  0.00    -0.326 A  
HETATM   30  C   UNL     1     -11.479   6.341  69.923  1.00  0.00    -0.459 A  
HETATM   31  C   UNL     1     -11.142   5.993  68.615  1.00  0.00    -0.293 A  
HETATM   32  C   UNL     1     -10.084   5.118  68.377  1.00  0.00    -0.205 A  
HETATM   33  C   UNL     1      -9.360   4.594  69.448  1.00  0.00    -0.208 A  
HETATM   34  C   UNL     1      -9.697   4.940  70.756  1.00  0.00    -0.268 A  
ENDBRANCH  28  29
ENDBRANCH  27  28
ENDBRANCH  24  27
ENDBRANCH  23  24
ENDBRANCH  20  22
ENDBRANCH  12  13
ENDBRANCH  11  12
ENDBRANCH   9  10
ENDBRANCH   8   9
ENDBRANCH   7   8
ENDBRANCH   4   7
ENDBRANCH   2   3
TORSDOF 12
ENDMDL
MODEL      260
REMARK 921   NORMALIZED FREE ENERGY PREDICTED BY IDOCK:   -3.91 KCAL/MOL
REMARK 922        TOTAL FREE ENERGY PREDICTED BY IDOCK:   -9.48 KCAL/MOL
REMARK 923 INTER-LIGAND FREE ENERGY PREDICTED BY IDOCK:   -7.86 KCAL/MOL
REMARK 924 INTRA-LIGAND FREE ENERGY PREDICTED BY IDOCK:   -1.63 KCAL/MOL
REMARK 927      BINDING AFFINITY PREDICTED BY RF-SCORE:    0.00 PKD
ROOT
HETATM    1  C   UNL     1     -11.248   2.150  62.884  1.00  0.00    -0.223 C  
HETATM    2  C   UNL     1     -10.616   3.506  62.627  1.00  0.00    -0.199 C  
ENDROOT
BRANCH   2   3
HETATM    3  N   UNL     1     -10.197   4.139  63.858  1.00  0.00    -0.373 N  
HETATM    4  C   UNL     1      -8.917   3.981  64.338  1.00  0.00    -0.137 C  
HETATM    5  H   UNL     1     -10.861   4.712  64.378  1.00  0.00     0.000 HD 
HETATM    6  O   UNL     1      -8.068   3.300  63.777  1.00  0.00    -0.083 OA 
BRANCH   4   7
HETATM    7  C   UNL     1      -8.660   4.742  65.624  1.00  0.00    -0.127 C  
BRANCH   7   8
HETATM    8  C   UNL     1      -9.917   5.483  66.086  1.00  0.00    -0.133 C  
BRANCH   8   9
HETATM    9  C   UNL     1      -9.621   6.777  66.843  1.00  0.00    -0.200 C  
BRANCH   9  10
HETATM   10  C   UNL     1      -9.046   6.518  68.206  1.00  0.00    -0.119 C  
HETATM   11  C   UNL     1      -9.722   6.235  69.331  1.00  0.00    -0.162 C  
BRANCH  11  12
HETATM   12  C   UNL     1     -11.216   6.147  69.489  1.00  0.00    -0.482 C  
BRANCH  12  13
HETATM   13  C   UNL     1     -11.784   7.153  70.500  1.00  0.00    -0.314 C  
HETATM   14  C   UNL     1     -11.976   6.607  71.922  1.00  0.00    -0.341 C  
HETATM   15  C   UNL     1     -11.978   7.862  72.785  1.00  0.00    -0.223 C  
HETATM   16  O   UNL     1     -10.883   5.789  72.325  1.00  0.00    -0.226 OA 
HETATM   17  H   UNL     1     -11.001   5.451  73.204  1.00  0.00     0.000 HD 
HETATM   18  C   UNL     1     -10.856   8.705  72.184  1.00  0.00    -0.354 C  
HETATM   19  O   UNL     1      -9.609   8.349  72.784  1.00  0.00    -0.275 OA 
HETATM   20  C   UNL     1     -10.819   8.355  70.679  1.00  0.00    -0.256 C  
HETATM   21  H   UNL     1      -8.911   8.874  72.410  1.00  0.00     0.000 HD 
BRANCH  20  22
HETATM   22  C   UNL     1     -11.222   9.535  69.821  1.00  0.00    -0.173 C  
HETATM   23  C   UNL     1     -10.513   9.949  68.756  1.00  0.00    -0.234 C  
BRANCH  23  24
HETATM   24  C   UNL     1     -10.777  11.160  67.898  1.00  0.00    -0.216 C  
HETATM   25  H   UNL     1     -12.344  12.155  67.244  1.00  0.00     0.000 HD 
HETATM   26  O   UNL     1     -12.178  11.392  67.785  1.00  0.00    -0.537 OA 
BRANCH  24  27
HETATM   27  C   UNL     1     -10.136  12.439  68.451  1.00  0.00    -0.217 C  
BRANCH  27  28
HETATM   28  C   UNL     1     -11.132  13.586  68.647  1.00  0.00    -0.299 C  
BRANCH  28  29
HETATM   29  C   UNL     1     -10.804  14.758  67.756  1.00  0.00    -0.278 A  
HETATM   30  C   UNL     1     -10.654  14.574  66.375  1.00  0.00    -0.302 A  
HETATM   31  C   UNL     1     -10.307  15.647  65.553  1.00  0.00    -0.421 A  
HETATM   32  C   UNL     1     -10.107  16.911  66.104  1.00  0.00    -0.347 A  
HETATM   33  C   UNL     1     -10.258  17.104  67.476  1.00  0.00    -0.323 A  
HETATM   34  C   UNL     1     -10.605  16.034  68.300  1.00  0.00    -0.283 A  
ENDBRANCH  28  29
ENDBRANCH  27  28
ENDBRANCH  24  27
ENDBRANCH  23  24
ENDBRANCH  20  22
ENDBRANCH  12  13
ENDBRANCH  11  12
ENDBRANCH   9  10
ENDBRANCH   8   9
ENDBRANCH   7   8
ENDBRANCH   4   7
ENDBRANCH   2   3
TORSDOF 12
ENDMDL
MODEL      261
REMARK 921   NORMALIZED FREE ENERGY PREDICTED BY IDOCK:   -3.90 KCAL/MOL
REMARK 922        TOTAL FREE ENERGY PREDICTED BY IDOCK:   -9.47 KCAL/MOL
REMARK 923 INTER-LIGAND FREE ENERGY PREDICTED BY IDOCK:   -7.62 KCAL/MOL
REMARK 924 INTRA-LIGAND FREE ENERGY PREDICTED BY IDOCK:   -1.85 KCAL/MOL
REMARK 927      BINDING AFFINITY PREDICTED BY RF-SCORE:    0.00 PKD
ROOT
HETATM    1  C   UNL     1      -8.782   3.603  68.830  1.00  0.00    -0.137 C  
HETATM    2  C   UNL     1      -8.950   4.161  67.429  1.00  0.00    -0.125 C  
ENDROOT
BRANCH   2   3
HETATM    3  N   UNL     1      -8.751   5.593  67.400  1.00  0.00    -0.109 N  
HETATM    4  C   UNL     1      -8.684   6.276  66.207  1.00  0.00    -0.142 C  
HETATM    5  H   UNL     1      -8.659   6.105  68.277  1.00  0.00     0.000 HD 
HETATM    6  O   UNL     1      -8.775   5.731  65.114  1.00  0.00    -0.142 OA 
BRANCH   4   7
HETATM    7  C   UNL     1      -8.500   7.770  66.380  1.00  0.00    -0.136 C  
BRANCH   7   8
HETATM    8  C   UNL     1      -8.898   8.526  65.110  1.00  0.00    -0.116 C  
BRANCH   8   9
HETATM    9  C   UNL     1      -9.565   9.874  65.383  1.00  0.00    -0.350 C  
BRANCH   9  10
HETATM   10  C   UNL     1      -9.131  10.465  66.694  1.00  0.00    -0.169 C  
HETATM   11  C   UNL     1      -9.117  11.764  67.033  1.00  0.00    -0.187 C  
BRANCH  11  12
HETATM   12  C   UNL     1      -9.502  12.928  66.162  1.00  0.00    -0.161 C  
BRANCH  12  13
HETATM   13  C   UNL     1     -10.036  14.132  66.952  1.00  0.00    -0.261 C  
HETATM   14  C   UNL     1     -11.566  14.229  67.035  1.00  0.00    -0.386 C  
HETATM   15  C   UNL     1     -11.799  15.090  68.269  1.00  0.00    -0.295 C  
HETATM   16  O   UNL     1     -12.164  12.957  67.258  1.00  0.00    -0.353 OA 
HETATM   17  H   UNL     1     -13.110  13.017  67.309  1.00  0.00     0.000 HD 
HETATM   18  C   UNL     1     -10.779  14.556  69.271  1.00  0.00    -0.226 C  
HETATM   19  O   UNL     1     -11.339  13.454  69.989  1.00  0.00    -0.490 OA 
HETATM   20  C   UNL     1      -9.576  14.063  68.433  1.00  0.00    -0.222 C  
HETATM   21  H   UNL     1     -10.703  13.121  70.612  1.00  0.00     0.000 HD 
BRANCH  20  22
HETATM   22  C   UNL     1      -8.342  14.902  68.681  1.00  0.00    -0.164 C  
HETATM   23  C   UNL     1      -7.430  15.173  67.730  1.00  0.00    -0.179 C  
BRANCH  23  24
HETATM   24  C   UNL     1      -6.130  15.916  67.896  1.00  0.00    -0.134 C  
HETATM   25  H   UNL     1      -4.755  16.704  66.728  1.00  0.00     0.000 HD 
HETATM   26  O   UNL     1      -5.575  16.235  66.623  1.00  0.00    -0.292 OA 
BRANCH  24  27
HETATM   27  C   UNL     1      -6.282  17.227  68.679  1.00  0.00    -0.169 C  
BRANCH  27  28
HETATM   28  C   UNL     1      -6.477  18.455  67.785  1.00  0.00    -0.205 C  
BRANCH  28  29
HETATM   29  C   UNL     1      -7.938  18.791  67.623  1.00  0.00    -0.269 A  
HETATM   30  C   UNL     1      -8.410  19.324  66.416  1.00  0.00    -0.330 A  
HETATM   31  C   UNL     1      -9.752  19.679  66.276  1.00  0.00    -0.511 A  
HETATM   32  C   UNL     1     -10.633  19.504  67.342  1.00  0.00    -0.607 A  
HETATM   33  C   UNL     1     -10.174  18.970  68.545  1.00  0.00    -0.422 A  
HETATM   34  C   UNL     1      -8.832  18.616  68.687  1.00  0.00    -0.333 A  
ENDBRANCH  28  29
ENDBRANCH  27  28
ENDBRANCH  24  27
ENDBRANCH  23  24
ENDBRANCH  20  22
ENDBRANCH  12  13
ENDBRANCH  11  12
ENDBRANCH   9  10
ENDBRANCH   8   9
ENDBRANCH   7   8
ENDBRANCH   4   7
ENDBRANCH   2   3
TORSDOF 12
ENDMDL
MODEL      262
REMARK 921   NORMALIZED FREE ENERGY PREDICTED BY IDOCK:   -3.90 KCAL/MOL
REMARK 922        TOTAL FREE ENERGY PREDICTED BY IDOCK:   -9.47 KCAL/MOL
REMARK 923 INTER-LIGAND FREE ENERGY PREDICTED BY IDOCK:   -6.77 KCAL/MOL
REMARK 924 INTRA-LIGAND FREE ENERGY PREDICTED BY IDOCK:   -2.69 KCAL/MOL
REMARK 927      BINDING AFFINITY PREDICTED BY RF-SCORE:    0.00 PKD
ROOT
HETATM    1  C   UNL     1      -9.997  17.557  66.953  1.00  0.00    -0.313 C  
HETATM    2  C   UNL     1     -10.732  16.635  67.908  1.00  0.00    -0.344 C  
ENDROOT
BRANCH   2   3
HETATM    3  N   UNL     1      -9.948  15.462  68.224  1.00  0.00    -0.212 N  
HETATM    4  C   UNL     1     -10.288  14.225  67.722  1.00  0.00    -0.238 C  
HETATM    5  H   UNL     1      -9.131  15.552  68.828  1.00  0.00     0.000 HD 
HETATM    6  O   UNL     1     -11.259  14.036  67.001  1.00  0.00    -0.297 OA 
BRANCH   4   7
HETATM    7  C   UNL     1      -9.333  13.125  68.142  1.00  0.00    -0.217 C  
BRANCH   7   8
HETATM    8  C   UNL     1     -10.092  11.846  68.503  1.00  0.00    -0.211 C  
BRANCH   8   9
HETATM    9  C   UNL     1      -9.662  10.628  67.686  1.00  0.00    -0.186 C  
BRANCH   9  10
HETATM   10  C   UNL     1     -10.746   9.592  67.598  1.00  0.00    -0.314 C  
HETATM   11  C   UNL     1     -10.628   8.330  67.155  1.00  0.00    -0.340 C  
BRANCH  11  12
HETATM   12  C   UNL     1      -9.386   7.675  66.615  1.00  0.00    -0.239 C  
BRANCH  12  13
HETATM   13  C   UNL     1      -9.191   6.234  67.107  1.00  0.00    -0.125 C  
HETATM   14  C   UNL     1      -9.589   5.144  66.101  1.00  0.00    -0.164 C  
HETATM   15  C   UNL     1      -8.799   3.929  66.567  1.00  0.00    -0.125 C  
HETATM   16  O   UNL     1      -9.172   5.469  64.780  1.00  0.00    -0.363 OA 
HETATM   17  H   UNL     1      -9.418   4.795  64.157  1.00  0.00     0.000 HD 
HETATM   18  C   UNL     1      -7.431   4.509  66.919  1.00  0.00    -0.082 C  
HETATM   19  O   UNL     1      -6.607   4.542  65.752  1.00  0.00    -0.042 OA 
HETATM   20  C   UNL     1      -7.693   5.954  67.402  1.00  0.00    -0.097 C  
HETATM   21  H   UNL     1      -5.755   4.903  65.971  1.00  0.00     0.000 HD 
BRANCH  20  22
HETATM   22  C   UNL     1      -7.366   6.120  68.870  1.00  0.00    -0.085 C  
HETATM   23  C   UNL     1      -7.373   7.308  69.498  1.00  0.00    -0.086 C  
BRANCH  23  24
HETATM   24  C   UNL     1      -6.976   7.591  70.924  1.00  0.00    -0.054 C  
HETATM   25  H   UNL     1      -5.441   8.384  71.867  1.00  0.00     0.000 HD 
HETATM   26  O   UNL     1      -5.691   8.206  70.968  1.00  0.00    -0.033 OA 
BRANCH  24  27
HETATM   27  C   UNL     1      -7.960   8.517  71.650  1.00  0.00    -0.183 C  
BRANCH  27  28
HETATM   28  C   UNL     1      -9.064   9.069  70.743  1.00  0.00    -0.297 C  
BRANCH  28  29
HETATM   29  C   UNL     1     -10.409   8.486  71.096  1.00  0.00    -0.273 A  
HETATM   30  C   UNL     1     -10.777   7.220  70.621  1.00  0.00    -0.252 A  
HETATM   31  C   UNL     1     -12.037   6.696  70.909  1.00  0.00    -0.379 A  
HETATM   32  C   UNL     1     -12.941   7.433  71.672  1.00  0.00    -0.409 A  
HETATM   33  C   UNL     1     -12.582   8.691  72.152  1.00  0.00    -0.451 A  
HETATM   34  C   UNL     1     -11.323   9.217  71.866  1.00  0.00    -0.359 A  
ENDBRANCH  28  29
ENDBRANCH  27  28
ENDBRANCH  24  27
ENDBRANCH  23  24
ENDBRANCH  20  22
ENDBRANCH  12  13
ENDBRANCH  11  12
ENDBRANCH   9  10
ENDBRANCH   8   9
ENDBRANCH   7   8
ENDBRANCH   4   7
ENDBRANCH   2   3
TORSDOF 12
ENDMDL
MODEL      263
REMARK 921   NORMALIZED FREE ENERGY PREDICTED BY IDOCK:   -3.89 KCAL/MOL
REMARK 922        TOTAL FREE ENERGY PREDICTED BY IDOCK:   -9.46 KCAL/MOL
REMARK 923 INTER-LIGAND FREE ENERGY PREDICTED BY IDOCK:   -8.26 KCAL/MOL
REMARK 924 INTRA-LIGAND FREE ENERGY PREDICTED BY IDOCK:   -1.20 KCAL/MOL
REMARK 927      BINDING AFFINITY PREDICTED BY RF-SCORE:    0.00 PKD
ROOT
HETATM    1  C   UNL     1     -12.997  11.561  71.247  1.00  0.00    -0.397 C  
HETATM    2  C   UNL     1     -13.058  10.052  71.101  1.00  0.00    -0.386 C  
ENDROOT
BRANCH   2   3
HETATM    3  N   UNL     1     -12.197   9.389  72.055  1.00  0.00    -0.352 N  
HETATM    4  C   UNL     1     -11.931   8.042  71.956  1.00  0.00    -0.327 C  
HETATM    5  H   UNL     1     -11.779   9.929  72.813  1.00  0.00     0.000 HD 
HETATM    6  O   UNL     1     -12.403   7.327  71.081  1.00  0.00    -0.341 OA 
BRANCH   4   7
HETATM    7  C   UNL     1     -10.987   7.536  73.028  1.00  0.00    -0.443 C  
BRANCH   7   8
HETATM    8  C   UNL     1      -9.590   8.140  72.862  1.00  0.00    -0.345 C  
BRANCH   8   9
HETATM    9  C   UNL     1      -8.550   7.545  73.811  1.00  0.00    -0.253 C  
BRANCH   9  10
HETATM   10  C   UNL     1      -7.676   6.530  73.131  1.00  0.00    -0.096 C  
HETATM   11  C   UNL     1      -7.494   6.371  71.810  1.00  0.00    -0.093 C  
BRANCH  11  12
HETATM   12  C   UNL     1      -8.152   7.155  70.708  1.00  0.00    -0.109 C  
BRANCH  12  13
HETATM   13  C   UNL     1      -8.456   6.315  69.459  1.00  0.00    -0.129 C  
HETATM   14  C   UNL     1      -9.242   5.022  69.720  1.00  0.00    -0.118 C  
HETATM   15  C   UNL     1      -9.878   4.716  68.371  1.00  0.00    -0.169 C  
HETATM   16  O   UNL     1     -10.282   5.220  70.672  1.00  0.00    -0.226 OA 
HETATM   17  H   UNL     1     -10.767   4.420  70.834  1.00  0.00     0.000 HD 
HETATM   18  C   UNL     1     -10.347   6.084  67.883  1.00  0.00    -0.206 C  
HETATM   19  O   UNL     1     -11.656   6.356  68.389  1.00  0.00    -0.498 OA 
HETATM   20  C   UNL     1      -9.349   7.110  68.468  1.00  0.00    -0.136 C  
HETATM   21  H   UNL     1     -11.947   7.208  68.085  1.00  0.00     0.000 HD 
BRANCH  20  22
HETATM   22  C   UNL     1      -8.532   7.776  67.382  1.00  0.00    -0.119 C  
HETATM   23  C   UNL     1      -9.078   8.466  66.366  1.00  0.00    -0.231 C  
BRANCH  23  24
HETATM   24  C   UNL     1      -8.363   9.085  65.192  1.00  0.00    -0.158 C  
HETATM   25  H   UNL     1      -7.744   8.515  63.413  1.00  0.00     0.000 HD 
HETATM   26  O   UNL     1      -8.195   8.124  64.152  1.00  0.00    -0.150 OA 
BRANCH  24  27
HETATM   27  C   UNL     1      -9.109  10.287  64.599  1.00  0.00    -0.265 C  
BRANCH  27  28
HETATM   28  C   UNL     1      -9.608  11.279  65.654  1.00  0.00    -0.260 C  
BRANCH  28  29
HETATM   29  C   UNL     1     -10.485  12.341  65.039  1.00  0.00    -0.322 A  
HETATM   30  C   UNL     1     -10.511  13.634  65.579  1.00  0.00    -0.314 A  
HETATM   31  C   UNL     1     -11.353  14.607  65.042  1.00  0.00    -0.390 A  
HETATM   32  C   UNL     1     -12.176  14.297  63.961  1.00  0.00    -0.336 A  
HETATM   33  C   UNL     1     -12.154  13.015  63.414  1.00  0.00    -0.591 A  
HETATM   34  C   UNL     1     -11.313  12.040  63.950  1.00  0.00    -0.503 A  
ENDBRANCH  28  29
ENDBRANCH  27  28
ENDBRANCH  24  27
ENDBRANCH  23  24
ENDBRANCH  20  22
ENDBRANCH  12  13
ENDBRANCH  11  12
ENDBRANCH   9  10
ENDBRANCH   8   9
ENDBRANCH   7   8
ENDBRANCH   4   7
ENDBRANCH   2   3
TORSDOF 12
ENDMDL
MODEL      264
REMARK 921   NORMALIZED FREE ENERGY PREDICTED BY IDOCK:   -3.88 KCAL/MOL
REMARK 922        TOTAL FREE ENERGY PREDICTED BY IDOCK:   -9.44 KCAL/MOL
REMARK 923 INTER-LIGAND FREE ENERGY PREDICTED BY IDOCK:   -7.59 KCAL/MOL
REMARK 924 INTRA-LIGAND FREE ENERGY PREDICTED BY IDOCK:   -1.86 KCAL/MOL
REMARK 927      BINDING AFFINITY PREDICTED BY RF-SCORE:    0.00 PKD
ROOT
HETATM    1  C   UNL     1     -10.842   7.725  71.411  1.00  0.00    -0.257 C  
HETATM    2  C   UNL     1     -10.569   9.182  71.087  1.00  0.00    -0.309 C  
ENDROOT
BRANCH   2   3
HETATM    3  N   UNL     1     -11.549  10.054  71.693  1.00  0.00    -0.234 N  
HETATM    4  C   UNL     1     -12.584  10.581  70.955  1.00  0.00    -0.398 C  
HETATM    5  H   UNL     1     -11.471  10.284  72.684  1.00  0.00     0.000 HD 
HETATM    6  O   UNL     1     -12.738  10.362  69.760  1.00  0.00    -0.103 OA 
BRANCH   4   7
HETATM    7  C   UNL     1     -13.522  11.449  71.770  1.00  0.00    -0.218 C  
BRANCH   7   8
HETATM    8  C   UNL     1     -13.025  12.896  71.825  1.00  0.00    -0.416 C  
BRANCH   8   9
HETATM    9  C   UNL     1     -12.815  13.523  70.447  1.00  0.00    -0.064 C  
BRANCH   9  10
HETATM   10  C   UNL     1     -12.086  14.834  70.525  1.00  0.00    -0.378 C  
HETATM   11  C   UNL     1     -11.693  15.607  69.500  1.00  0.00    -0.382 C  
BRANCH  11  12
HETATM   12  C   UNL     1     -11.866  15.317  68.034  1.00  0.00    -0.176 C  
BRANCH  12  13
HETATM   13  C   UNL     1     -10.544  15.297  67.255  1.00  0.00    -0.290 C  
HETATM   14  C   UNL     1     -10.210  16.596  66.506  1.00  0.00    -0.310 C  
HETATM   15  C   UNL     1      -8.699  16.525  66.333  1.00  0.00    -0.357 C  
HETATM   16  O   UNL     1     -10.518  17.747  67.285  1.00  0.00    -0.356 OA 
HETATM   17  H   UNL     1     -10.312  18.550  66.822  1.00  0.00     0.000 HD 
HETATM   18  C   UNL     1      -8.212  15.999  67.681  1.00  0.00    -0.148 C  
HETATM   19  O   UNL     1      -8.014  17.091  68.582  1.00  0.00    -0.238 OA 
HETATM   20  C   UNL     1      -9.343  15.092  68.218  1.00  0.00    -0.192 C  
HETATM   21  H   UNL     1      -7.711  16.763  69.422  1.00  0.00     0.000 HD 
BRANCH  20  22
HETATM   22  C   UNL     1      -8.913  13.642  68.283  1.00  0.00    -0.187 C  
HETATM   23  C   UNL     1      -8.949  12.814  67.225  1.00  0.00    -0.199 C  
BRANCH  23  24
HETATM   24  C   UNL     1      -8.632  11.340  67.207  1.00  0.00    -0.143 C  
HETATM   25  H   UNL     1      -8.480   9.878  68.516  1.00  0.00     0.000 HD 
HETATM   26  O   UNL     1      -8.680  10.807  68.528  1.00  0.00    -0.134 OA 
BRANCH  24  27
HETATM   27  C   UNL     1      -9.604  10.527  66.342  1.00  0.00    -0.220 C  
BRANCH  27  28
HETATM   28  C   UNL     1     -10.483   9.566  67.147  1.00  0.00    -0.322 C  
BRANCH  28  29
HETATM   29  C   UNL     1     -10.094   8.130  66.905  1.00  0.00    -0.367 A  
HETATM   30  C   UNL     1      -8.997   7.824  66.088  1.00  0.00    -0.201 A  
HETATM   31  C   UNL     1      -8.659   6.496  65.825  1.00  0.00    -0.149 A  
HETATM   32  C   UNL     1      -9.416   5.463  66.375  1.00  0.00    -0.164 A  
HETATM   33  C   UNL     1     -10.506   5.758  67.192  1.00  0.00    -0.337 A  
HETATM   34  C   UNL     1     -10.845   7.084  67.456  1.00  0.00    -0.338 A  
ENDBRANCH  28  29
ENDBRANCH  27  28
ENDBRANCH  24  27
ENDBRANCH  23  24
ENDBRANCH  20  22
ENDBRANCH  12  13
ENDBRANCH  11  12
ENDBRANCH   9  10
ENDBRANCH   8   9
ENDBRANCH   7   8
ENDBRANCH   4   7
ENDBRANCH   2   3
TORSDOF 12
ENDMDL
MODEL      265
REMARK 921   NORMALIZED FREE ENERGY PREDICTED BY IDOCK:   -3.88 KCAL/MOL
REMARK 922        TOTAL FREE ENERGY PREDICTED BY IDOCK:   -9.44 KCAL/MOL
REMARK 923 INTER-LIGAND FREE ENERGY PREDICTED BY IDOCK:   -7.07 KCAL/MOL
REMARK 924 INTRA-LIGAND FREE ENERGY PREDICTED BY IDOCK:   -2.37 KCAL/MOL
REMARK 927      BINDING AFFINITY PREDICTED BY RF-SCORE:    0.00 PKD
ROOT
HETATM    1  C   UNL     1     -12.781  14.418  65.238  1.00  0.00    -0.277 C  
HETATM    2  C   UNL     1     -11.301  14.519  64.919  1.00  0.00    -0.394 C  
ENDROOT
BRANCH   2   3
HETATM    3  N   UNL     1     -10.619  15.401  65.839  1.00  0.00    -0.322 N  
HETATM    4  C   UNL     1     -10.600  16.763  65.635  1.00  0.00    -0.246 C  
HETATM    5  H   UNL     1     -10.143  15.009  66.651  1.00  0.00     0.000 HD 
HETATM    6  O   UNL     1     -11.138  17.307  64.679  1.00  0.00    -1.052 OA 
BRANCH   4   7
HETATM    7  C   UNL     1      -9.859  17.521  66.718  1.00  0.00    -0.306 C  
BRANCH   7   8
HETATM    8  C   UNL     1      -8.569  16.798  67.114  1.00  0.00    -0.217 C  
BRANCH   8   9
HETATM    9  C   UNL     1      -8.577  16.275  68.549  1.00  0.00    -0.211 C  
BRANCH   9  10
HETATM   10  C   UNL     1      -7.514  15.239  68.782  1.00  0.00    -0.135 C  
HETATM   11  C   UNL     1      -7.480  13.988  68.297  1.00  0.00    -0.123 C  
BRANCH  11  12
HETATM   12  C   UNL     1      -8.519  13.326  67.434  1.00  0.00    -0.206 C  
BRANCH  12  13
HETATM   13  C   UNL     1      -9.336  12.258  68.174  1.00  0.00    -0.205 C  
HETATM   14  C   UNL     1     -10.415  12.804  69.121  1.00  0.00     0.123 C  
HETATM   15  C   UNL     1     -11.391  11.643  69.251  1.00  0.00    -0.353 C  
HETATM   16  O   UNL     1     -11.106  13.909  68.551  1.00  0.00    -0.244 OA 
HETATM   17  H   UNL     1     -11.773  14.247  69.136  1.00  0.00     0.000 HD 
HETATM   18  C   UNL     1     -11.496  11.107  67.825  1.00  0.00    -0.272 C  
HETATM   19  O   UNL     1     -12.510  11.822  67.114  1.00  0.00     0.177 OA 
HETATM   20  C   UNL     1     -10.123  11.376  67.167  1.00  0.00    -0.226 C  
HETATM   21  H   UNL     1     -12.574  11.489  66.227  1.00  0.00     0.000 HD 
BRANCH  20  22
HETATM   22  C   UNL     1      -9.393  10.088  66.854  1.00  0.00    -0.188 C  
HETATM   23  C   UNL     1     -10.021   8.932  66.574  1.00  0.00    -0.358 C  
BRANCH  23  24
HETATM   24  C   UNL     1      -9.391   7.583  66.342  1.00  0.00    -0.157 C  
HETATM   25  H   UNL     1      -7.776   6.872  65.468  1.00  0.00     0.000 HD 
HETATM   26  O   UNL     1      -8.173   7.723  65.615  1.00  0.00    -0.120 OA 
BRANCH  24  27
HETATM   27  C   UNL     1      -9.073   6.836  67.643  1.00  0.00    -0.117 C  
BRANCH  27  28
HETATM   28  C   UNL     1     -10.318   6.431  68.437  1.00  0.00    -0.228 C  
BRANCH  28  29
HETATM   29  C   UNL     1     -10.421   7.200  69.730  1.00  0.00    -0.238 A  
HETATM   30  C   UNL     1      -9.263   7.544  70.440  1.00  0.00    -0.157 A  
HETATM   31  C   UNL     1      -9.355   8.217  71.659  1.00  0.00    -0.228 A  
HETATM   32  C   UNL     1     -10.604   8.550  72.178  1.00  0.00    -0.419 A  
HETATM   33  C   UNL     1     -11.761   8.216  71.477  1.00  0.00    -0.325 A  
HETATM   34  C   UNL     1     -11.672   7.543  70.258  1.00  0.00    -0.047 A  
ENDBRANCH  28  29
ENDBRANCH  27  28
ENDBRANCH  24  27
ENDBRANCH  23  24
ENDBRANCH  20  22
ENDBRANCH  12  13
ENDBRANCH  11  12
ENDBRANCH   9  10
ENDBRANCH   8   9
ENDBRANCH   7   8
ENDBRANCH   4   7
ENDBRANCH   2   3
TORSDOF 12
ENDMDL
MODEL      266
REMARK 921   NORMALIZED FREE ENERGY PREDICTED BY IDOCK:   -3.87 KCAL/MOL
REMARK 922        TOTAL FREE ENERGY PREDICTED BY IDOCK:   -9.43 KCAL/MOL
REMARK 923 INTER-LIGAND FREE ENERGY PREDICTED BY IDOCK:   -6.20 KCAL/MOL
REMARK 924 INTRA-LIGAND FREE ENERGY PREDICTED BY IDOCK:   -3.23 KCAL/MOL
REMARK 927      BINDING AFFINITY PREDICTED BY RF-SCORE:    0.00 PKD
ROOT
HETATM    1  C   UNL     1     -10.704   1.946  62.361  1.00  0.00    -0.127 C  
HETATM    2  C   UNL     1     -10.658   3.462  62.339  1.00  0.00    -0.177 C  
ENDROOT
BRANCH   2   3
HETATM    3  N   UNL     1     -10.266   4.000  63.623  1.00  0.00    -0.333 N  
HETATM    4  C   UNL     1      -8.942   4.240  63.918  1.00  0.00    -0.141 C  
HETATM    5  H   UNL     1     -10.981   4.205  64.320  1.00  0.00     0.000 HD 
HETATM    6  O   UNL     1      -8.027   4.011  63.137  1.00  0.00    -0.076 OA 
BRANCH   4   7
HETATM    7  C   UNL     1      -8.733   4.829  65.299  1.00  0.00    -0.142 C  
BRANCH   7   8
HETATM    8  C   UNL     1     -10.034   5.419  65.849  1.00  0.00    -0.056 C  
BRANCH   8   9
HETATM    9  C   UNL     1      -9.823   6.650  66.730  1.00  0.00    -0.227 C  
BRANCH   9  10
HETATM   10  C   UNL     1      -9.184   6.305  68.045  1.00  0.00    -0.116 C  
HETATM   11  C   UNL     1      -9.804   6.084  69.215  1.00  0.00    -0.191 C  
BRANCH  11  12
HETATM   12  C   UNL     1     -11.282   6.165  69.482  1.00  0.00    -0.482 C  
BRANCH  12  13
HETATM   13  C   UNL     1     -11.680   7.365  70.353  1.00  0.00    -0.163 C  
HETATM   14  C   UNL     1     -12.374   7.008  71.675  1.00  0.00    -0.368 C  
HETATM   15  C   UNL     1     -12.136   8.237  72.542  1.00  0.00    -0.400 C  
HETATM   16  O   UNL     1     -11.761   5.889  72.307  1.00  0.00    -0.307 OA 
HETATM   17  H   UNL     1     -12.190   5.668  73.125  1.00  0.00     0.000 HD 
HETATM   18  C   UNL     1     -10.684   8.603  72.246  1.00  0.00    -0.313 C  
HETATM   19  O   UNL     1      -9.815   7.876  73.117  1.00  0.00    -0.268 OA 
HETATM   20  C   UNL     1     -10.425   8.169  70.785  1.00  0.00    -0.223 C  
HETATM   21  H   UNL     1      -8.911   8.104  72.932  1.00  0.00     0.000 HD 
BRANCH  20  22
HETATM   22  C   UNL     1     -10.179   9.361  69.884  1.00  0.00    -0.247 C  
HETATM   23  C   UNL     1     -11.143   9.940  69.148  1.00  0.00    -0.197 C  
BRANCH  23  24
HETATM   24  C   UNL     1     -10.985  11.064  68.156  1.00  0.00    -0.247 C  
HETATM   25  H   UNL     1      -9.736  12.554  67.847  1.00  0.00     0.000 HD 
HETATM   26  O   UNL     1      -9.836  11.845  68.472  1.00  0.00    -0.208 OA 
BRANCH  24  27
HETATM   27  C   UNL     1     -10.831  10.573  66.711  1.00  0.00    -0.209 C  
BRANCH  27  28
HETATM   28  C   UNL     1      -9.613  11.159  65.992  1.00  0.00    -0.248 C  
BRANCH  28  29
HETATM   29  C   UNL     1      -8.600  10.091  65.664  1.00  0.00    -0.166 A  
HETATM   30  C   UNL     1      -8.629   9.449  64.419  1.00  0.00    -0.214 A  
HETATM   31  C   UNL     1      -7.723   8.430  64.127  1.00  0.00    -0.137 A  
HETATM   32  C   UNL     1      -6.781   8.042  65.078  1.00  0.00    -0.051 A  
HETATM   33  C   UNL     1      -6.742   8.677  66.319  1.00  0.00    -0.069 A  
HETATM   34  C   UNL     1      -7.647   9.697  66.612  1.00  0.00    -0.098 A  
ENDBRANCH  28  29
ENDBRANCH  27  28
ENDBRANCH  24  27
ENDBRANCH  23  24
ENDBRANCH  20  22
ENDBRANCH  12  13
ENDBRANCH  11  12
ENDBRANCH   9  10
ENDBRANCH   8   9
ENDBRANCH   7   8
ENDBRANCH   4   7
ENDBRANCH   2   3
TORSDOF 12
ENDMDL
MODEL      267
REMARK 921   NORMALIZED FREE ENERGY PREDICTED BY IDOCK:   -3.85 KCAL/MOL
REMARK 922        TOTAL FREE ENERGY PREDICTED BY IDOCK:   -9.38 KCAL/MOL
REMARK 923 INTER-LIGAND FREE ENERGY PREDICTED BY IDOCK:   -7.35 KCAL/MOL
REMARK 924 INTRA-LIGAND FREE ENERGY PREDICTED BY IDOCK:   -2.03 KCAL/MOL
REMARK 927      BINDING AFFINITY PREDICTED BY RF-SCORE:    0.00 PKD
ROOT
HETATM    1  C   UNL     1     -11.084   6.225  67.099  1.00  0.00    -0.389 C  
HETATM    2  C   UNL     1     -10.080   6.190  65.963  1.00  0.00     0.247 C  
ENDROOT
BRANCH   2   3
HETATM    3  N   UNL     1      -8.763   6.590  66.405  1.00  0.00    -0.135 N  
HETATM    4  C   UNL     1      -8.060   7.573  65.743  1.00  0.00    -0.127 C  
HETATM    5  H   UNL     1      -8.347   6.138  67.219  1.00  0.00     0.000 HD 
HETATM    6  O   UNL     1      -8.486   8.154  64.753  1.00  0.00    -0.138 OA 
BRANCH   4   7
HETATM    7  C   UNL     1      -6.713   7.872  66.370  1.00  0.00    -0.054 C  
BRANCH   7   8
HETATM    8  C   UNL     1      -6.876   8.437  67.783  1.00  0.00    -0.067 C  
BRANCH   8   9
HETATM    9  C   UNL     1      -7.987   9.480  67.900  1.00  0.00    -0.098 C  
BRANCH   9  10
HETATM   10  C   UNL     1      -8.037  10.105  69.265  1.00  0.00    -0.149 C  
HETATM   11  C   UNL     1      -8.519   9.556  70.392  1.00  0.00    -0.238 C  
BRANCH  11  12
HETATM   12  C   UNL     1      -9.150   8.199  70.535  1.00  0.00    -0.150 C  
BRANCH  12  13
HETATM   13  C   UNL     1     -10.674   8.211  70.354  1.00  0.00    -0.234 C  
HETATM   14  C   UNL     1     -11.384   6.899  70.719  1.00  0.00    -0.310 C  
HETATM   15  C   UNL     1     -12.814   7.337  71.002  1.00  0.00    -0.259 C  
HETATM   16  O   UNL     1     -10.849   6.323  71.906  1.00  0.00    -0.225 OA 
HETATM   17  H   UNL     1     -11.287   5.512  72.132  1.00  0.00     0.000 HD 
HETATM   18  C   UNL     1     -12.638   8.629  71.797  1.00  0.00    -0.349 C  
HETATM   19  O   UNL     1     -12.503   8.326  73.187  1.00  0.00    -0.648 OA 
HETATM   20  C   UNL     1     -11.328   9.270  71.283  1.00  0.00    -0.423 C  
HETATM   21  H   UNL     1     -12.393   9.130  73.681  1.00  0.00     0.000 HD 
BRANCH  20  22
HETATM   22  C   UNL     1     -11.591  10.572  70.558  1.00  0.00    -0.441 C  
HETATM   23  C   UNL     1     -11.760  10.654  69.227  1.00  0.00    -0.336 C  
BRANCH  23  24
HETATM   24  C   UNL     1     -11.934  11.905  68.403  1.00  0.00    -0.182 C  
HETATM   25  H   UNL     1     -11.830  13.849  68.688  1.00  0.00     0.000 HD 
HETATM   26  O   UNL     1     -11.720  13.062  69.208  1.00  0.00    -0.286 OA 
BRANCH  24  27
HETATM   27  C   UNL     1     -10.967  11.980  67.214  1.00  0.00    -0.313 C  
BRANCH  27  28
HETATM   28  C   UNL     1     -10.139  13.267  67.178  1.00  0.00    -0.239 C  
BRANCH  28  29
HETATM   29  C   UNL     1     -10.683  14.243  66.165  1.00  0.00    -0.295 A  
HETATM   30  C   UNL     1     -11.673  13.840  65.258  1.00  0.00    -0.349 A  
HETATM   31  C   UNL     1     -12.147  14.726  64.290  1.00  0.00    -0.415 A  
HETATM   32  C   UNL     1     -11.635  16.020  64.219  1.00  0.00    -0.139 A  
HETATM   33  C   UNL     1     -10.653  16.430  65.119  1.00  0.00    -0.287 A  
HETATM   34  C   UNL     1     -10.178  15.547  66.088  1.00  0.00    -0.322 A  
ENDBRANCH  28  29
ENDBRANCH  27  28
ENDBRANCH  24  27
ENDBRANCH  23  24
ENDBRANCH  20  22
ENDBRANCH  12  13
ENDBRANCH  11  12
ENDBRANCH   9  10
ENDBRANCH   8   9
ENDBRANCH   7   8
ENDBRANCH   4   7
ENDBRANCH   2   3
TORSDOF 12
ENDMDL
MODEL      268
REMARK 921   NORMALIZED FREE ENERGY PREDICTED BY IDOCK:   -3.83 KCAL/MOL
REMARK 922        TOTAL FREE ENERGY PREDICTED BY IDOCK:   -9.35 KCAL/MOL
REMARK 923 INTER-LIGAND FREE ENERGY PREDICTED BY IDOCK:   -7.61 KCAL/MOL
REMARK 924 INTRA-LIGAND FREE ENERGY PREDICTED BY IDOCK:   -1.74 KCAL/MOL
REMARK 927      BINDING AFFINITY PREDICTED BY RF-SCORE:    0.00 PKD
ROOT
HETATM    1  C   UNL     1     -13.688  15.323  72.017  1.00  0.00    -0.596 C  
HETATM    2  C   UNL     1     -12.511  14.572  71.424  1.00  0.00    -0.353 C  
ENDROOT
BRANCH   2   3
HETATM    3  N   UNL     1     -12.665  14.380  70.000  1.00  0.00    -0.511 N  
HETATM    4  C   UNL     1     -11.898  15.085  69.100  1.00  0.00    -0.308 C  
HETATM    5  H   UNL     1     -13.354  13.711  69.656  1.00  0.00     0.000 HD 
HETATM    6  O   UNL     1     -11.059  15.912  69.435  1.00  0.00    -0.274 OA 
BRANCH   4   7
HETATM    7  C   UNL     1     -12.185  14.727  67.656  1.00  0.00     0.008 C  
BRANCH   7   8
HETATM    8  C   UNL     1     -12.031  13.222  67.420  1.00  0.00    -0.383 C  
BRANCH   8   9
HETATM    9  C   UNL     1     -10.600  12.719  67.604  1.00  0.00    -0.230 C  
BRANCH   9  10
HETATM   10  C   UNL     1      -9.696  13.154  66.486  1.00  0.00    -0.268 C  
HETATM   11  C   UNL     1      -9.684  12.691  65.225  1.00  0.00    -0.044 C  
BRANCH  11  12
HETATM   12  C   UNL     1     -10.553  11.605  64.655  1.00  0.00    -0.366 C  
BRANCH  12  13
HETATM   13  C   UNL     1      -9.793  10.301  64.370  1.00  0.00    -0.374 C  
HETATM   14  C   UNL     1      -9.318  10.128  62.920  1.00  0.00    -0.292 C  
HETATM   15  C   UNL     1      -8.174   9.131  63.040  1.00  0.00    -0.182 C  
HETATM   16  O   UNL     1      -8.800  11.342  62.387  1.00  0.00    -0.395 OA 
HETATM   17  H   UNL     1      -8.506  11.236  61.491  1.00  0.00     0.000 HD 
HETATM   18  C   UNL     1      -7.425   9.600  64.285  1.00  0.00    -0.125 C  
HETATM   19  O   UNL     1      -6.462  10.594  63.924  1.00  0.00    -0.355 OA 
HETATM   20  C   UNL     1      -8.490  10.232  65.210  1.00  0.00    -0.168 C  
HETATM   21  H   UNL     1      -5.997  10.886  64.699  1.00  0.00     0.000 HD 
BRANCH  20  22
HETATM   22  C   UNL     1      -8.677   9.426  66.478  1.00  0.00    -0.148 C  
HETATM   23  C   UNL     1      -8.044   9.705  67.630  1.00  0.00    -0.113 C  
BRANCH  23  24
HETATM   24  C   UNL     1      -8.090   8.916  68.913  1.00  0.00    -0.112 C  
HETATM   25  H   UNL     1      -8.406   9.277  70.822  1.00  0.00     0.000 HD 
HETATM   26  O   UNL     1      -8.377   9.775  70.014  1.00  0.00    -0.173 OA 
BRANCH  24  27
HETATM   27  C   UNL     1      -9.151   7.808  68.899  1.00  0.00    -0.141 C  
BRANCH  27  28
HETATM   28  C   UNL     1      -8.844   6.653  69.857  1.00  0.00    -0.144 C  
BRANCH  28  29
HETATM   29  C   UNL     1     -10.009   6.373  70.773  1.00  0.00    -0.212 A  
HETATM   30  C   UNL     1     -11.164   7.164  70.707  1.00  0.00    -0.309 A  
HETATM   31  C   UNL     1     -12.227   6.937  71.582  1.00  0.00    -0.403 A  
HETATM   32  C   UNL     1     -12.143   5.919  72.530  1.00  0.00    -0.100 A  
HETATM   33  C   UNL     1     -11.000   5.125  72.600  1.00  0.00    -0.303 A  
HETATM   34  C   UNL     1      -9.936   5.350  71.727  1.00  0.00    -0.235 A  
ENDBRANCH  28  29
ENDBRANCH  27  28
ENDBRANCH  24  27
ENDBRANCH  23  24
ENDBRANCH  20  22
ENDBRANCH  12  13
ENDBRANCH  11  12
ENDBRANCH   9  10
ENDBRANCH   8   9
ENDBRANCH   7   8
ENDBRANCH   4   7
ENDBRANCH   2   3
TORSDOF 12
ENDMDL
MODEL      269
REMARK 921   NORMALIZED FREE ENERGY PREDICTED BY IDOCK:   -3.81 KCAL/MOL
REMARK 922        TOTAL FREE ENERGY PREDICTED BY IDOCK:   -9.32 KCAL/MOL
REMARK 923 INTER-LIGAND FREE ENERGY PREDICTED BY IDOCK:   -7.79 KCAL/MOL
REMARK 924 INTRA-LIGAND FREE ENERGY PREDICTED BY IDOCK:   -1.53 KCAL/MOL
REMARK 927      BINDING AFFINITY PREDICTED BY RF-SCORE:    0.00 PKD
ROOT
HETATM    1  C   UNL     1      -7.376  19.751  68.376  1.00  0.00    -0.348 C  
HETATM    2  C   UNL     1      -8.611  20.229  67.637  1.00  0.00    -0.266 C  
ENDROOT
BRANCH   2   3
HETATM    3  N   UNL     1      -9.061  19.256  66.667  1.00  0.00    -0.323 N  
HETATM    4  C   UNL     1     -10.325  18.714  66.739  1.00  0.00    -0.407 C  
HETATM    5  H   UNL     1      -8.432  18.965  65.919  1.00  0.00     0.000 HD 
HETATM    6  O   UNL     1     -11.132  19.004  67.613  1.00  0.00    -0.340 OA 
BRANCH   4   7
HETATM    7  C   UNL     1     -10.621  17.734  65.621  1.00  0.00    -0.123 C  
BRANCH   7   8
HETATM    8  C   UNL     1      -9.710  16.507  65.708  1.00  0.00    -0.237 C  
BRANCH   8   9
HETATM    9  C   UNL     1     -10.395  15.205  65.296  1.00  0.00    -0.425 C  
BRANCH   9  10
HETATM   10  C   UNL     1     -10.473  14.221  66.428  1.00  0.00    -0.282 C  
HETATM   11  C   UNL     1     -11.046  13.007  66.410  1.00  0.00    -0.313 C  
BRANCH  11  12
HETATM   12  C   UNL     1     -11.770  12.368  65.258  1.00  0.00    -0.437 C  
BRANCH  12  13
HETATM   13  C   UNL     1     -11.079  11.104  64.727  1.00  0.00    -0.136 C  
HETATM   14  C   UNL     1     -10.313  11.287  63.409  1.00  0.00    -0.391 C  
HETATM   15  C   UNL     1      -9.311  10.140  63.421  1.00  0.00    -0.334 C  
HETATM   16  O   UNL     1      -9.590  12.512  63.385  1.00  0.00    -0.622 OA 
HETATM   17  H   UNL     1      -9.116  12.625  62.570  1.00  0.00     0.000 HD 
HETATM   18  C   UNL     1      -8.818  10.116  64.865  1.00  0.00    -0.190 C  
HETATM   19  O   UNL     1      -7.719  11.018  65.015  1.00  0.00    -0.346 OA 
HETATM   20  C   UNL     1     -10.003  10.605  65.728  1.00  0.00    -0.315 C  
HETATM   21  H   UNL     1      -7.413  11.004  65.914  1.00  0.00     0.000 HD 
BRANCH  20  22
HETATM   22  C   UNL     1     -10.532   9.506  66.625  1.00  0.00    -0.241 C  
HETATM   23  C   UNL     1      -9.884   8.347  66.831  1.00  0.00    -0.313 C  
BRANCH  23  24
HETATM   24  C   UNL     1     -10.366   7.160  67.626  1.00  0.00    -0.215 C  
HETATM   25  H   UNL     1     -11.684   5.714  67.410  1.00  0.00     0.000 HD 
HETATM   26  O   UNL     1     -11.381   6.462  66.909  1.00  0.00    -0.304 OA 
BRANCH  24  27
HETATM   27  C   UNL     1      -9.249   6.158  67.945  1.00  0.00    -0.115 C  
BRANCH  27  28
HETATM   28  C   UNL     1      -7.921   6.821  68.320  1.00  0.00    -0.111 C  
BRANCH  28  29
HETATM   29  C   UNL     1      -7.897   7.224  69.773  1.00  0.00    -0.117 A  
HETATM   30  C   UNL     1      -7.392   8.475  70.151  1.00  0.00    -0.051 A  
HETATM   31  C   UNL     1      -7.327   8.835  71.497  1.00  0.00    -0.109 A  
HETATM   32  C   UNL     1      -7.766   7.947  72.477  1.00  0.00    -0.140 A  
HETATM   33  C   UNL     1      -8.275   6.702  72.111  1.00  0.00    -0.105 A  
HETATM   34  C   UNL     1      -8.340   6.340  70.766  1.00  0.00    -0.126 A  
ENDBRANCH  28  29
ENDBRANCH  27  28
ENDBRANCH  24  27
ENDBRANCH  23  24
ENDBRANCH  20  22
ENDBRANCH  12  13
ENDBRANCH  11  12
ENDBRANCH   9  10
ENDBRANCH   8   9
ENDBRANCH   7   8
ENDBRANCH   4   7
ENDBRANCH   2   3
TORSDOF 12
ENDMDL
MODEL      270
REMARK 921   NORMALIZED FREE ENERGY PREDICTED BY IDOCK:   -3.80 KCAL/MOL
REMARK 922        TOTAL FREE ENERGY PREDICTED BY IDOCK:   -9.29 KCAL/MOL
REMARK 923 INTER-LIGAND FREE ENERGY PREDICTED BY IDOCK:   -7.63 KCAL/MOL
REMARK 924 INTRA-LIGAND FREE ENERGY PREDICTED BY IDOCK:   -1.67 KCAL/MOL
REMARK 927      BINDING AFFINITY PREDICTED BY RF-SCORE:    0.00 PKD
ROOT
HETATM    1  C   UNL     1     -10.537   2.097  62.639  1.00  0.00    -0.139 C  
HETATM    2  C   UNL     1     -10.921   3.357  63.391  1.00  0.00    -0.104 C  
ENDROOT
BRANCH   2   3
HETATM    3  N   UNL     1     -10.243   3.444  64.665  1.00  0.00    -0.384 N  
HETATM    4  C   UNL     1      -9.149   4.263  64.833  1.00  0.00    -0.148 C  
HETATM    5  H   UNL     1     -10.580   2.889  65.451  1.00  0.00     0.000 HD 
HETATM    6  O   UNL     1      -8.680   4.950  63.934  1.00  0.00    -0.140 OA 
BRANCH   4   7
HETATM    7  C   UNL     1      -8.593   4.239  66.242  1.00  0.00    -0.113 C  
BRANCH   7   8
HETATM    8  C   UNL     1      -8.620   5.636  66.869  1.00  0.00    -0.110 C  
BRANCH   8   9
HETATM    9  C   UNL     1      -9.919   5.947  67.612  1.00  0.00    -0.159 C  
BRANCH   9  10
HETATM   10  C   UNL     1     -10.759   6.959  66.886  1.00  0.00    -0.386 C  
HETATM   11  C   UNL     1     -10.893   8.263  67.180  1.00  0.00    -0.095 C  
BRANCH  11  12
HETATM   12  C   UNL     1     -10.256   8.999  68.326  1.00  0.00    -0.241 C  
BRANCH  12  13
HETATM   13  C   UNL     1      -9.898  10.455  67.993  1.00  0.00    -0.170 C  
HETATM   14  C   UNL     1      -8.621  10.980  68.664  1.00  0.00    -0.157 C  
HETATM   15  C   UNL     1      -8.204  12.141  67.770  1.00  0.00    -0.154 C  
HETATM   16  O   UNL     1      -7.581  10.009  68.650  1.00  0.00    -0.083 OA 
HETATM   17  H   UNL     1      -6.790  10.334  69.064  1.00  0.00     0.000 HD 
HETATM   18  C   UNL     1      -8.441  11.604  66.360  1.00  0.00    -0.114 C  
HETATM   19  O   UNL     1      -7.282  10.900  65.910  1.00  0.00    -0.272 OA 
HETATM   20  C   UNL     1      -9.627  10.619  66.473  1.00  0.00    -0.218 C  
HETATM   21  H   UNL     1      -7.430  10.566  65.033  1.00  0.00     0.000 HD 
BRANCH  20  22
HETATM   22  C   UNL     1     -10.847  11.126  65.734  1.00  0.00    -0.218 C  
HETATM   23  C   UNL     1     -10.878  12.301  65.080  1.00  0.00    -0.340 C  
BRANCH  23  24
HETATM   24  C   UNL     1     -12.062  12.934  64.396  1.00  0.00    -0.410 C  
HETATM   25  H   UNL     1     -14.022  12.906  64.576  1.00  0.00     0.000 HD 
HETATM   26  O   UNL     1     -13.276  12.506  65.008  1.00  0.00    -0.700 OA 
BRANCH  24  27
HETATM   27  C   UNL     1     -12.033  14.467  64.442  1.00  0.00    -0.467 C  
BRANCH  27  28
HETATM   28  C   UNL     1     -10.654  15.044  64.775  1.00  0.00    -0.319 C  
BRANCH  28  29
HETATM   29  C   UNL     1     -10.675  15.802  66.079  1.00  0.00    -0.311 A  
HETATM   30  C   UNL     1     -10.394  17.175  66.102  1.00  0.00    -0.327 A  
HETATM   31  C   UNL     1     -10.369  17.871  67.310  1.00  0.00    -0.374 A  
HETATM   32  C   UNL     1     -10.623  17.202  68.506  1.00  0.00    -0.361 A  
HETATM   33  C   UNL     1     -10.908  15.838  68.493  1.00  0.00    -0.290 A  
HETATM   34  C   UNL     1     -10.933  15.139  67.286  1.00  0.00    -0.327 A  
ENDBRANCH  28  29
ENDBRANCH  27  28
ENDBRANCH  24  27
ENDBRANCH  23  24
ENDBRANCH  20  22
ENDBRANCH  12  13
ENDBRANCH  11  12
ENDBRANCH   9  10
ENDBRANCH   8   9
ENDBRANCH   7   8
ENDBRANCH   4   7
ENDBRANCH   2   3
TORSDOF 12
ENDMDL
MODEL      271
REMARK 921   NORMALIZED FREE ENERGY PREDICTED BY IDOCK:   -3.78 KCAL/MOL
REMARK 922        TOTAL FREE ENERGY PREDICTED BY IDOCK:   -9.27 KCAL/MOL
REMARK 923 INTER-LIGAND FREE ENERGY PREDICTED BY IDOCK:   -7.12 KCAL/MOL
REMARK 924 INTRA-LIGAND FREE ENERGY PREDICTED BY IDOCK:   -2.15 KCAL/MOL
REMARK 927      BINDING AFFINITY PREDICTED BY RF-SCORE:    0.00 PKD
ROOT
HETATM    1  C   UNL     1      -8.726  16.246  66.327  1.00  0.00    -0.370 C  
HETATM    2  C   UNL     1      -7.563  15.615  67.068  1.00  0.00    -0.210 C  
ENDROOT
BRANCH   2   3
HETATM    3  N   UNL     1      -7.840  14.240  67.420  1.00  0.00    -0.211 N  
HETATM    4  C   UNL     1      -6.828  13.309  67.495  1.00  0.00    -0.146 C  
HETATM    5  H   UNL     1      -8.800  13.955  67.615  1.00  0.00     0.000 HD 
HETATM    6  O   UNL     1      -5.655  13.571  67.265  1.00  0.00    -0.343 OA 
BRANCH   4   7
HETATM    7  C   UNL     1      -7.310  11.931  67.904  1.00  0.00    -0.104 C  
BRANCH   7   8
HETATM    8  C   UNL     1      -8.613  12.018  68.703  1.00  0.00    -0.011 C  
BRANCH   8   9
HETATM    9  C   UNL     1      -9.090  10.670  69.244  1.00  0.00    -0.117 C  
BRANCH   9  10
HETATM   10  C   UNL     1     -10.588  10.569  69.274  1.00  0.00    -0.265 C  
HETATM   11  C   UNL     1     -11.330   9.715  69.996  1.00  0.00    -0.239 C  
BRANCH  11  12
HETATM   12  C   UNL     1     -10.825   8.639  70.918  1.00  0.00    -0.288 C  
BRANCH  12  13
HETATM   13  C   UNL     1      -9.625   7.865  70.354  1.00  0.00    -0.171 C  
HETATM   14  C   UNL     1      -8.902   6.960  71.363  1.00  0.00    -0.133 C  
HETATM   15  C   UNL     1      -8.196   5.941  70.480  1.00  0.00    -0.119 C  
HETATM   16  O   UNL     1      -9.820   6.268  72.202  1.00  0.00    -0.158 OA 
HETATM   17  H   UNL     1      -9.372   5.708  72.826  1.00  0.00     0.000 HD 
HETATM   18  C   UNL     1      -9.239   5.611  69.417  1.00  0.00    -0.121 C  
HETATM   19  O   UNL     1     -10.086   4.556  69.881  1.00  0.00    -0.234 OA 
HETATM   20  C   UNL     1     -10.078   6.896  69.229  1.00  0.00    -0.178 C  
HETATM   21  H   UNL     1     -10.736   4.352  69.218  1.00  0.00     0.000 HD 
BRANCH  20  22
HETATM   22  C   UNL     1      -9.881   7.496  67.854  1.00  0.00    -0.185 C  
HETATM   23  C   UNL     1      -8.671   7.695  67.302  1.00  0.00    -0.124 C  
BRANCH  23  24
HETATM   24  C   UNL     1      -8.365   8.365  65.987  1.00  0.00    -0.126 C  
HETATM   25  H   UNL     1      -7.886   7.813  64.160  1.00  0.00     0.000 HD 
HETATM   26  O   UNL     1      -8.079   7.390  64.988  1.00  0.00    -0.124 OA 
BRANCH  24  27
HETATM   27  C   UNL     1      -9.521   9.233  65.472  1.00  0.00    -0.309 C  
BRANCH  27  28
HETATM   28  C   UNL     1      -9.185  10.726  65.413  1.00  0.00    -0.234 C  
BRANCH  28  29
HETATM   29  C   UNL     1     -10.414  11.555  65.132  1.00  0.00    -0.340 A  
HETATM   30  C   UNL     1     -10.924  12.415  66.114  1.00  0.00    -0.321 A  
HETATM   31  C   UNL     1     -12.085  13.151  65.875  1.00  0.00    -0.501 A  
HETATM   32  C   UNL     1     -12.746  13.033  64.655  1.00  0.00    -0.367 A  
HETATM   33  C   UNL     1     -12.244  12.183  63.671  1.00  0.00    -0.663 A  
HETATM   34  C   UNL     1     -11.083  11.446  63.907  1.00  0.00    -0.410 A  
ENDBRANCH  28  29
ENDBRANCH  27  28
ENDBRANCH  24  27
ENDBRANCH  23  24
ENDBRANCH  20  22
ENDBRANCH  12  13
ENDBRANCH  11  12
ENDBRANCH   9  10
ENDBRANCH   8   9
ENDBRANCH   7   8
ENDBRANCH   4   7
ENDBRANCH   2   3
TORSDOF 12
ENDMDL
MODEL      272
REMARK 921   NORMALIZED FREE ENERGY PREDICTED BY IDOCK:   -3.78 KCAL/MOL
REMARK 922        TOTAL FREE ENERGY PREDICTED BY IDOCK:   -9.26 KCAL/MOL
REMARK 923 INTER-LIGAND FREE ENERGY PREDICTED BY IDOCK:   -7.00 KCAL/MOL
REMARK 924 INTRA-LIGAND FREE ENERGY PREDICTED BY IDOCK:   -2.26 KCAL/MOL
REMARK 927      BINDING AFFINITY PREDICTED BY RF-SCORE:    0.00 PKD
ROOT
HETATM    1  C   UNL     1      -6.139   7.501  68.449  1.00  0.00    -0.035 C  
HETATM    2  C   UNL     1      -5.908   8.312  67.188  1.00  0.00    -0.043 C  
ENDROOT
BRANCH   2   3
HETATM    3  N   UNL     1      -7.044   8.244  66.296  1.00  0.00    -0.069 N  
HETATM    4  C   UNL     1      -7.225   9.181  65.304  1.00  0.00    -0.089 C  
HETATM    5  H   UNL     1      -7.722   7.490  66.404  1.00  0.00     0.000 HD 
HETATM    6  O   UNL     1      -6.461  10.121  65.119  1.00  0.00    -0.108 OA 
BRANCH   4   7
HETATM    7  C   UNL     1      -8.455   8.928  64.456  1.00  0.00    -0.178 C  
BRANCH   7   8
HETATM    8  C   UNL     1      -9.635   9.780  64.928  1.00  0.00    -0.316 C  
BRANCH   8   9
HETATM    9  C   UNL     1      -9.504  11.260  64.568  1.00  0.00    -0.211 C  
BRANCH   9  10
HETATM   10  C   UNL     1     -10.543  11.696  63.575  1.00  0.00    -0.496 C  
HETATM   11  C   UNL     1     -11.753  12.213  63.840  1.00  0.00    -0.546 C  
BRANCH  11  12
HETATM   12  C   UNL     1     -12.358  12.443  65.198  1.00  0.00    -0.403 C  
BRANCH  12  13
HETATM   13  C   UNL     1     -11.341  12.915  66.247  1.00  0.00    -0.364 C  
HETATM   14  C   UNL     1     -11.198  14.439  66.375  1.00  0.00    -0.345 C  
HETATM   15  C   UNL     1     -10.629  14.625  67.775  1.00  0.00    -0.251 C  
HETATM   16  O   UNL     1     -12.461  15.094  66.314  1.00  0.00     0.209 OA 
HETATM   17  H   UNL     1     -12.372  16.036  66.392  1.00  0.00     0.000 HD 
HETATM   18  C   UNL     1     -11.421  13.625  68.614  1.00  0.00    -0.307 C  
HETATM   19  O   UNL     1     -12.631  14.232  69.073  1.00  0.00    -0.527 OA 
HETATM   20  C   UNL     1     -11.764  12.452  67.668  1.00  0.00    -0.412 C  
HETATM   21  H   UNL     1     -13.124  13.609  69.595  1.00  0.00     0.000 HD 
BRANCH  20  22
HETATM   22  C   UNL     1     -11.058  11.178  68.079  1.00  0.00    -0.334 C  
HETATM   23  C   UNL     1      -9.770  11.139  68.463  1.00  0.00    -0.196 C  
BRANCH  23  24
HETATM   24  C   UNL     1      -8.953   9.918  68.801  1.00  0.00    -0.140 C  
HETATM   25  H   UNL     1      -7.542   9.432  70.085  1.00  0.00     0.000 HD 
HETATM   26  O   UNL     1      -8.057  10.202  69.872  1.00  0.00    -0.174 OA 
BRANCH  24  27
HETATM   27  C   UNL     1      -9.812   8.718  69.219  1.00  0.00    -0.180 C  
BRANCH  27  28
HETATM   28  C   UNL     1      -9.822   7.584  68.190  1.00  0.00    -0.179 C  
BRANCH  28  29
HETATM   29  C   UNL     1      -9.783   6.233  68.860  1.00  0.00    -0.144 A  
HETATM   30  C   UNL     1     -10.115   6.107  70.215  1.00  0.00    -0.237 A  
HETATM   31  C   UNL     1     -10.037   4.867  70.850  1.00  0.00    -0.292 A  
HETATM   32  C   UNL     1      -9.626   3.743  70.136  1.00  0.00    -0.258 A  
HETATM   33  C   UNL     1      -9.298   3.858  68.786  1.00  0.00    -0.231 A  
HETATM   34  C   UNL     1      -9.375   5.096  68.149  1.00  0.00    -0.148 A  
ENDBRANCH  28  29
ENDBRANCH  27  28
ENDBRANCH  24  27
ENDBRANCH  23  24
ENDBRANCH  20  22
ENDBRANCH  12  13
ENDBRANCH  11  12
ENDBRANCH   9  10
ENDBRANCH   8   9
ENDBRANCH   7   8
ENDBRANCH   4   7
ENDBRANCH   2   3
TORSDOF 12
ENDMDL
MODEL      273
REMARK 921   NORMALIZED FREE ENERGY PREDICTED BY IDOCK:   -3.77 KCAL/MOL
REMARK 922        TOTAL FREE ENERGY PREDICTED BY IDOCK:   -9.25 KCAL/MOL
REMARK 923 INTER-LIGAND FREE ENERGY PREDICTED BY IDOCK:   -6.36 KCAL/MOL
REMARK 924 INTRA-LIGAND FREE ENERGY PREDICTED BY IDOCK:   -2.89 KCAL/MOL
REMARK 927      BINDING AFFINITY PREDICTED BY RF-SCORE:    0.00 PKD
ROOT
HETATM    1  C   UNL     1      -6.956   9.622  68.407  1.00  0.00    -0.065 C  
HETATM    2  C   UNL     1      -7.226   9.484  69.894  1.00  0.00    -0.093 C  
ENDROOT
BRANCH   2   3
HETATM    3  N   UNL     1      -8.281   8.531  70.156  1.00  0.00    -0.116 N  
HETATM    4  C   UNL     1      -8.293   7.785  71.313  1.00  0.00    -0.104 C  
HETATM    5  H   UNL     1      -9.029   8.409  69.472  1.00  0.00     0.000 HD 
HETATM    6  O   UNL     1      -7.427   7.867  72.175  1.00  0.00    -0.073 OA 
BRANCH   4   7
HETATM    7  C   UNL     1      -9.491   6.863  71.421  1.00  0.00    -0.160 C  
BRANCH   7   8
HETATM    8  C   UNL     1     -10.793   7.617  71.140  1.00  0.00    -0.251 C  
BRANCH   8   9
HETATM    9  C   UNL     1     -10.996   8.841  72.033  1.00  0.00    -0.438 C  
BRANCH   9  10
HETATM   10  C   UNL     1     -12.085   9.741  71.523  1.00  0.00    -0.493 C  
HETATM   11  C   UNL     1     -12.060  10.496  70.413  1.00  0.00    -0.418 C  
BRANCH  11  12
HETATM   12  C   UNL     1     -10.920  10.636  69.443  1.00  0.00    -0.304 C  
BRANCH  12  13
HETATM   13  C   UNL     1     -11.375  10.872  67.996  1.00  0.00    -0.382 C  
HETATM   14  C   UNL     1     -11.876  12.292  67.695  1.00  0.00    -0.264 C  
HETATM   15  C   UNL     1     -11.708  12.415  66.187  1.00  0.00    -0.460 C  
HETATM   16  O   UNL     1     -11.064  13.281  68.318  1.00  0.00    -0.243 OA 
HETATM   17  H   UNL     1     -11.374  14.159  68.133  1.00  0.00     0.000 HD 
HETATM   18  C   UNL     1     -10.353  11.761  65.928  1.00  0.00    -0.241 C  
HETATM   19  O   UNL     1      -9.312  12.730  66.078  1.00  0.00    -0.419 OA 
HETATM   20  C   UNL     1     -10.193  10.668  67.009  1.00  0.00    -0.267 C  
HETATM   21  H   UNL     1      -8.469  12.323  65.917  1.00  0.00     0.000 HD 
BRANCH  20  22
HETATM   22  C   UNL     1     -10.196   9.280  66.405  1.00  0.00    -0.298 C  
HETATM   23  C   UNL     1     -10.428   8.165  67.118  1.00  0.00    -0.396 C  
BRANCH  23  24
HETATM   24  C   UNL     1     -10.363   6.739  66.634  1.00  0.00    -0.149 C  
HETATM   25  H   UNL     1      -9.238   5.676  65.418  1.00  0.00     0.000 HD 
HETATM   26  O   UNL     1      -9.279   6.575  65.723  1.00  0.00    -0.062 OA 
BRANCH  24  27
HETATM   27  C   UNL     1     -10.174   5.726  67.770  1.00  0.00    -0.234 C  
BRANCH  27  28
HETATM   28  C   UNL     1      -9.097   4.677  67.482  1.00  0.00    -0.134 C  
BRANCH  28  29
HETATM   29  C   UNL     1      -8.058   4.640  68.575  1.00  0.00    -0.083 A  
HETATM   30  C   UNL     1      -8.286   3.895  69.740  1.00  0.00    -0.079 A  
HETATM   31  C   UNL     1      -7.348   3.893  70.773  1.00  0.00    -0.041 A  
HETATM   32  C   UNL     1      -6.176   4.636  70.650  1.00  0.00    -0.022 A  
HETATM   33  C   UNL     1      -5.938   5.376  69.493  1.00  0.00    -0.020 A  
HETATM   34  C   UNL     1      -6.875   5.380  68.459  1.00  0.00    -0.056 A  
ENDBRANCH  28  29
ENDBRANCH  27  28
ENDBRANCH  24  27
ENDBRANCH  23  24
ENDBRANCH  20  22
ENDBRANCH  12  13
ENDBRANCH  11  12
ENDBRANCH   9  10
ENDBRANCH   8   9
ENDBRANCH   7   8
ENDBRANCH   4   7
ENDBRANCH   2   3
TORSDOF 12
ENDMDL
MODEL      274
REMARK 921   NORMALIZED FREE ENERGY PREDICTED BY IDOCK:   -3.75 KCAL/MOL
REMARK 922        TOTAL FREE ENERGY PREDICTED BY IDOCK:   -9.22 KCAL/MOL
REMARK 923 INTER-LIGAND FREE ENERGY PREDICTED BY IDOCK:   -6.17 KCAL/MOL
REMARK 924 INTRA-LIGAND FREE ENERGY PREDICTED BY IDOCK:   -3.05 KCAL/MOL
REMARK 927      BINDING AFFINITY PREDICTED BY RF-SCORE:    0.00 PKD
ROOT
HETATM    1  C   UNL     1      -5.726  10.524  65.265  1.00  0.00    -0.141 C  
HETATM    2  C   UNL     1      -7.131  10.760  65.786  1.00  0.00    -0.053 C  
ENDROOT
BRANCH   2   3
HETATM    3  N   UNL     1      -7.678   9.571  66.399  1.00  0.00    -0.097 N  
HETATM    4  C   UNL     1      -8.673   8.846  65.781  1.00  0.00    -0.176 C  
HETATM    5  H   UNL     1      -7.322   9.264  67.304  1.00  0.00     0.000 HD 
HETATM    6  O   UNL     1      -9.159   9.157  64.701  1.00  0.00    -0.179 OA 
BRANCH   4   7
HETATM    7  C   UNL     1      -9.096   7.620  66.564  1.00  0.00    -0.203 C  
BRANCH   7   8
HETATM    8  C   UNL     1     -10.598   7.647  66.861  1.00  0.00    -0.359 C  
BRANCH   8   9
HETATM    9  C   UNL     1     -11.148   6.311  67.359  1.00  0.00    -0.384 C  
BRANCH   9  10
HETATM   10  C   UNL     1     -10.054   5.337  67.692  1.00  0.00    -0.216 C  
HETATM   11  C   UNL     1      -9.774   4.810  68.895  1.00  0.00    -0.244 C  
BRANCH  11  12
HETATM   12  C   UNL     1     -10.475   5.104  70.193  1.00  0.00    -0.305 C  
BRANCH  12  13
HETATM   13  C   UNL     1      -9.576   5.789  71.232  1.00  0.00    -0.198 C  
HETATM   14  C   UNL     1      -9.154   4.902  72.413  1.00  0.00    -0.129 C  
HETATM   15  C   UNL     1      -7.891   5.578  72.929  1.00  0.00    -0.098 C  
HETATM   16  O   UNL     1      -8.817   3.586  71.990  1.00  0.00    -0.091 OA 
HETATM   17  H   UNL     1      -8.557   3.037  72.720  1.00  0.00     0.000 HD 
HETATM   18  C   UNL     1      -7.145   5.956  71.652  1.00  0.00    -0.081 C  
HETATM   19  O   UNL     1      -6.332   4.861  71.225  1.00  0.00    -0.021 OA 
HETATM   20  C   UNL     1      -8.233   6.231  70.589  1.00  0.00    -0.125 C  
HETATM   21  H   UNL     1      -5.868   5.097  70.430  1.00  0.00     0.000 HD 
BRANCH  20  22
HETATM   22  C   UNL     1      -8.257   7.687  70.177  1.00  0.00    -0.124 C  
HETATM   23  C   UNL     1      -9.317   8.491  70.370  1.00  0.00    -0.179 C  
BRANCH  23  24
HETATM   24  C   UNL     1      -9.474   9.920  69.917  1.00  0.00    -0.220 C  
HETATM   25  H   UNL     1      -8.435  11.231  68.880  1.00  0.00     0.000 HD 
HETATM   26  O   UNL     1      -8.335  10.330  69.165  1.00  0.00    -0.132 OA 
BRANCH  24  27
HETATM   27  C   UNL     1     -10.714  10.139  69.040  1.00  0.00    -0.249 C  
BRANCH  27  28
HETATM   28  C   UNL     1     -11.231  11.580  69.060  1.00  0.00    -0.324 C  
BRANCH  28  29
HETATM   29  C   UNL     1     -11.023  12.258  67.729  1.00  0.00    -0.274 A  
HETATM   30  C   UNL     1     -10.925  11.496  66.557  1.00  0.00    -0.346 A  
HETATM   31  C   UNL     1     -10.689  12.115  65.329  1.00  0.00    -0.328 A  
HETATM   32  C   UNL     1     -10.547  13.500  65.263  1.00  0.00    -0.335 A  
HETATM   33  C   UNL     1     -10.647  14.266  66.423  1.00  0.00    -0.286 A  
HETATM   34  C   UNL     1     -10.883  13.650  67.651  1.00  0.00    -0.268 A  
ENDBRANCH  28  29
ENDBRANCH  27  28
ENDBRANCH  24  27
ENDBRANCH  23  24
ENDBRANCH  20  22
ENDBRANCH  12  13
ENDBRANCH  11  12
ENDBRANCH   9  10
ENDBRANCH   8   9
ENDBRANCH   7   8
ENDBRANCH   4   7
ENDBRANCH   2   3
TORSDOF 12
ENDMDL
MODEL      275
REMARK 921   NORMALIZED FREE ENERGY PREDICTED BY IDOCK:   -3.73 KCAL/MOL
REMARK 922        TOTAL FREE ENERGY PREDICTED BY IDOCK:   -9.19 KCAL/MOL
REMARK 923 INTER-LIGAND FREE ENERGY PREDICTED BY IDOCK:   -9.08 KCAL/MOL
REMARK 924 INTRA-LIGAND FREE ENERGY PREDICTED BY IDOCK:   -0.11 KCAL/MOL
REMARK 927      BINDING AFFINITY PREDICTED BY RF-SCORE:    0.00 PKD
ROOT
HETATM    1  C   UNL     1      -6.657   7.987  64.928  1.00  0.00    -0.051 C  
HETATM    2  C   UNL     1      -8.137   7.760  64.679  1.00  0.00    -0.123 C  
ENDROOT
BRANCH   2   3
HETATM    3  N   UNL     1      -8.950   8.707  65.407  1.00  0.00    -0.346 N  
HETATM    4  C   UNL     1      -9.516   9.791  64.774  1.00  0.00    -0.251 C  
HETATM    5  H   UNL     1      -9.108   8.570  66.405  1.00  0.00     0.000 HD 
HETATM    6  O   UNL     1      -9.364  10.028  63.582  1.00  0.00    -0.268 OA 
BRANCH   4   7
HETATM    7  C   UNL     1     -10.355  10.654  65.696  1.00  0.00    -0.285 C  
BRANCH   7   8
HETATM    8  C   UNL     1     -11.052  11.774  64.919  1.00  0.00    -0.345 C  
BRANCH   8   9
HETATM    9  C   UNL     1     -10.394  13.141  65.095  1.00  0.00    -0.326 C  
BRANCH   9  10
HETATM   10  C   UNL     1     -11.328  14.147  65.704  1.00  0.00    -0.319 C  
HETATM   11  C   UNL     1     -11.934  14.071  66.900  1.00  0.00    -0.479 C  
BRANCH  11  12
HETATM   12  C   UNL     1     -11.840  12.941  67.889  1.00  0.00    -0.388 C  
BRANCH  12  13
HETATM   13  C   UNL     1     -11.454  13.398  69.303  1.00  0.00    -0.345 C  
HETATM   14  C   UNL     1     -11.332  14.918  69.485  1.00  0.00    -0.281 C  
HETATM   15  C   UNL     1     -11.520  15.111  70.984  1.00  0.00    -0.372 C  
HETATM   16  O   UNL     1     -12.374  15.615  68.810  1.00  0.00    -0.570 OA 
HETATM   17  H   UNL     1     -12.299  16.555  68.923  1.00  0.00     0.000 HD 
HETATM   18  C   UNL     1     -12.661  14.155  71.323  1.00  0.00    -0.363 C  
HETATM   19  O   UNL     1     -13.915  14.812  71.127  1.00  0.00    -0.516 OA 
HETATM   20  C   UNL     1     -12.539  12.976  70.330  1.00  0.00    -0.165 C  
HETATM   21  H   UNL     1     -14.625  14.216  71.338  1.00  0.00     0.000 HD 
BRANCH  20  22
HETATM   22  C   UNL     1     -12.178  11.687  71.036  1.00  0.00    -0.336 C  
HETATM   23  C   UNL     1     -13.022  10.648  71.153  1.00  0.00    -0.483 C  
BRANCH  23  24
HETATM   24  C   UNL     1     -12.794   9.365  71.910  1.00  0.00    -0.412 C  
HETATM   25  H   UNL     1     -13.585   7.563  71.974  1.00  0.00     0.000 HD 
HETATM   26  O   UNL     1     -13.730   8.372  71.496  1.00  0.00    -0.352 OA 
BRANCH  24  27
HETATM   27  C   UNL     1     -11.386   8.790  71.707  1.00  0.00    -0.409 C  
BRANCH  27  28
HETATM   28  C   UNL     1     -11.292   7.287  71.984  1.00  0.00    -0.295 C  
BRANCH  28  29
HETATM   29  C   UNL     1     -10.038   6.946  72.750  1.00  0.00    -0.199 A  
HETATM   30  C   UNL     1      -9.593   7.782  73.783  1.00  0.00    -0.200 A  
HETATM   31  C   UNL     1      -8.410   7.494  74.464  1.00  0.00    -0.241 A  
HETATM   32  C   UNL     1      -7.663   6.370  74.119  1.00  0.00    -0.090 A  
HETATM   33  C   UNL     1      -8.100   5.531  73.096  1.00  0.00    -0.115 A  
HETATM   34  C   UNL     1      -9.282   5.816  72.413  1.00  0.00    -0.149 A  
ENDBRANCH  28  29
ENDBRANCH  27  28
ENDBRANCH  24  27
ENDBRANCH  23  24
ENDBRANCH  20  22
ENDBRANCH  12  13
ENDBRANCH  11  12
ENDBRANCH   9  10
ENDBRANCH   8   9
ENDBRANCH   7   8
ENDBRANCH   4   7
ENDBRANCH   2   3
TORSDOF 12
ENDMDL
MODEL      276
REMARK 921   NORMALIZED FREE ENERGY PREDICTED BY IDOCK:   -3.73 KCAL/MOL
REMARK 922        TOTAL FREE ENERGY PREDICTED BY IDOCK:   -9.19 KCAL/MOL
REMARK 923 INTER-LIGAND FREE ENERGY PREDICTED BY IDOCK:   -8.16 KCAL/MOL
REMARK 924 INTRA-LIGAND FREE ENERGY PREDICTED BY IDOCK:   -1.03 KCAL/MOL
REMARK 927      BINDING AFFINITY PREDICTED BY RF-SCORE:    0.00 PKD
ROOT
HETATM    1  C   UNL     1     -12.857  11.558  71.543  1.00  0.00    -0.485 C  
HETATM    2  C   UNL     1     -12.551  10.195  70.951  1.00  0.00    -0.360 C  
ENDROOT
BRANCH   2   3
HETATM    3  N   UNL     1     -11.427   9.569  71.611  1.00  0.00    -0.389 N  
HETATM    4  C   UNL     1     -10.853   8.425  71.104  1.00  0.00    -0.237 C  
HETATM    5  H   UNL     1     -11.055   9.980  72.467  1.00  0.00     0.000 HD 
HETATM    6  O   UNL     1     -11.250   7.866  70.089  1.00  0.00    -0.242 OA 
BRANCH   4   7
HETATM    7  C   UNL     1      -9.672   7.934  71.918  1.00  0.00    -0.231 C  
BRANCH   7   8
HETATM    8  C   UNL     1      -8.439   8.811  71.684  1.00  0.00    -0.209 C  
BRANCH   8   9
HETATM    9  C   UNL     1      -7.124   8.033  71.701  1.00  0.00    -0.072 C  
BRANCH   9  10
HETATM   10  C   UNL     1      -6.519   7.911  70.331  1.00  0.00    -0.037 C  
HETATM   11  C   UNL     1      -6.689   8.744  69.292  1.00  0.00    -0.050 C  
BRANCH  11  12
HETATM   12  C   UNL     1      -7.553   9.975  69.254  1.00  0.00    -0.109 C  
BRANCH  12  13
HETATM   13  C   UNL     1      -8.248  10.192  67.902  1.00  0.00    -0.109 C  
HETATM   14  C   UNL     1      -8.738   8.912  67.210  1.00  0.00    -0.121 C  
HETATM   15  C   UNL     1      -9.826   9.413  66.270  1.00  0.00    -0.351 C  
HETATM   16  O   UNL     1      -9.327   8.005  68.134  1.00  0.00    -0.140 OA 
HETATM   17  H   UNL     1      -9.630   7.213  67.706  1.00  0.00     0.000 HD 
HETATM   18  C   UNL     1     -10.578  10.439  67.114  1.00  0.00    -0.261 C  
HETATM   19  O   UNL     1     -11.597   9.785  67.874  1.00  0.00    -0.523 OA 
HETATM   20  C   UNL     1      -9.532  11.047  68.077  1.00  0.00    -0.169 C  
HETATM   21  H   UNL     1     -12.064  10.424  68.400  1.00  0.00     0.000 HD 
BRANCH  20  22
HETATM   22  C   UNL     1      -9.281  12.509  67.778  1.00  0.00    -0.198 C  
HETATM   23  C   UNL     1     -10.250  13.362  67.403  1.00  0.00    -0.237 C  
BRANCH  23  24
HETATM   24  C   UNL     1     -10.091  14.805  66.996  1.00  0.00    -0.245 C  
HETATM   25  H   UNL     1     -10.079  15.842  65.323  1.00  0.00     0.000 HD 
HETATM   26  O   UNL     1     -10.179  14.933  65.579  1.00  0.00    -0.322 OA 
BRANCH  24  27
HETATM   27  C   UNL     1     -11.152  15.724  67.613  1.00  0.00    -0.283 C  
BRANCH  27  28
HETATM   28  C   UNL     1     -10.624  16.582  68.767  1.00  0.00    -0.322 C  
BRANCH  28  29
HETATM   29  C   UNL     1     -10.011  17.865  68.263  1.00  0.00    -0.360 A  
HETATM   30  C   UNL     1     -10.655  18.609  67.265  1.00  0.00    -0.480 A  
HETATM   31  C   UNL     1     -10.071  19.773  66.764  1.00  0.00    -0.564 A  
HETATM   32  C   UNL     1      -8.839  20.202  67.256  1.00  0.00    -0.445 A  
HETATM   33  C   UNL     1      -8.194  19.469  68.251  1.00  0.00    -0.373 A  
HETATM   34  C   UNL     1      -8.776  18.306  68.753  1.00  0.00    -0.238 A  
ENDBRANCH  28  29
ENDBRANCH  27  28
ENDBRANCH  24  27
ENDBRANCH  23  24
ENDBRANCH  20  22
ENDBRANCH  12  13
ENDBRANCH  11  12
ENDBRANCH   9  10
ENDBRANCH   8   9
ENDBRANCH   7   8
ENDBRANCH   4   7
ENDBRANCH   2   3
TORSDOF 12
ENDMDL
MODEL      277
REMARK 921   NORMALIZED FREE ENERGY PREDICTED BY IDOCK:   -3.73 KCAL/MOL
REMARK 922        TOTAL FREE ENERGY PREDICTED BY IDOCK:   -9.18 KCAL/MOL
REMARK 923 INTER-LIGAND FREE ENERGY PREDICTED BY IDOCK:   -6.90 KCAL/MOL
REMARK 924 INTRA-LIGAND FREE ENERGY PREDICTED BY IDOCK:   -2.28 KCAL/MOL
REMARK 927      BINDING AFFINITY PREDICTED BY RF-SCORE:    0.00 PKD
ROOT
HETATM    1  C   UNL     1     -10.448   8.945  69.410  1.00  0.00    -0.228 C  
HETATM    2  C   UNL     1      -9.967  10.288  68.894  1.00  0.00    -0.201 C  
ENDROOT
BRANCH   2   3
HETATM    3  N   UNL     1     -10.670  11.383  69.524  1.00  0.00    -0.440 N  
HETATM    4  C   UNL     1     -11.791  11.935  68.944  1.00  0.00    -0.307 C  
HETATM    5  H   UNL     1     -10.331  11.752  70.412  1.00  0.00     0.000 HD 
HETATM    6  O   UNL     1     -12.251  11.553  67.876  1.00  0.00    -0.586 OA 
BRANCH   4   7
HETATM    7  C   UNL     1     -12.403  13.051  69.766  1.00  0.00    -0.141 C  
BRANCH   7   8
HETATM    8  C   UNL     1     -11.442  14.237  69.887  1.00  0.00    -0.301 C  
BRANCH   8   9
HETATM    9  C   UNL     1     -11.167  14.940  68.558  1.00  0.00    -0.292 C  
BRANCH   9  10
HETATM   10  C   UNL     1     -11.148  16.435  68.700  1.00  0.00    -0.352 C  
HETATM   11  C   UNL     1     -10.614  17.324  67.848  1.00  0.00    -0.384 C  
BRANCH  11  12
HETATM   12  C   UNL     1      -9.883  17.021  66.569  1.00  0.00    -0.305 C  
BRANCH  12  13
HETATM   13  C   UNL     1      -8.363  17.209  66.675  1.00  0.00    -0.286 C  
HETATM   14  C   UNL     1      -7.836  18.555  66.156  1.00  0.00    -0.204 C  
HETATM   15  C   UNL     1      -6.500  18.711  66.871  1.00  0.00    -0.203 C  
HETATM   16  O   UNL     1      -8.679  19.635  66.541  1.00  0.00    -0.328 OA 
HETATM   17  H   UNL     1      -8.353  20.468  66.220  1.00  0.00     0.000 HD 
HETATM   18  C   UNL     1      -6.802  18.241  68.291  1.00  0.00    -0.230 C  
HETATM   19  O   UNL     1      -7.295  19.335  69.068  1.00  0.00    -0.345 OA 
HETATM   20  C   UNL     1      -7.907  17.168  68.159  1.00  0.00    -0.206 C  
HETATM   21  H   UNL     1      -7.483  19.042  69.952  1.00  0.00     0.000 HD 
BRANCH  20  22
HETATM   22  C   UNL     1      -7.405  15.797  68.557  1.00  0.00    -0.124 C  
HETATM   23  C   UNL     1      -7.065  14.849  67.668  1.00  0.00    -0.208 C  
BRANCH  23  24
HETATM   24  C   UNL     1      -6.644  13.431  67.959  1.00  0.00    -0.133 C  
HETATM   25  H   UNL     1      -6.618  12.221  69.511  1.00  0.00     0.000 HD 
HETATM   26  O   UNL     1      -6.883  13.114  69.328  1.00  0.00    -0.098 OA 
BRANCH  24  27
HETATM   27  C   UNL     1      -7.389  12.396  67.106  1.00  0.00    -0.081 C  
BRANCH  27  28
HETATM   28  C   UNL     1      -6.497  11.252  66.614  1.00  0.00    -0.128 C  
BRANCH  28  29
HETATM   29  C   UNL     1      -7.272   9.964  66.490  1.00  0.00    -0.095 A  
HETATM   30  C   UNL     1      -8.380   9.887  65.636  1.00  0.00    -0.140 A  
HETATM   31  C   UNL     1      -9.127   8.712  65.551  1.00  0.00    -0.190 A  
HETATM   32  C   UNL     1      -8.774   7.605  66.320  1.00  0.00    -0.170 A  
HETATM   33  C   UNL     1      -7.670   7.671  67.169  1.00  0.00    -0.112 A  
HETATM   34  C   UNL     1      -6.923   8.845  67.256  1.00  0.00    -0.078 A  
ENDBRANCH  28  29
ENDBRANCH  27  28
ENDBRANCH  24  27
ENDBRANCH  23  24
ENDBRANCH  20  22
ENDBRANCH  12  13
ENDBRANCH  11  12
ENDBRANCH   9  10
ENDBRANCH   8   9
ENDBRANCH   7   8
ENDBRANCH   4   7
ENDBRANCH   2   3
TORSDOF 12
ENDMDL
MODEL      278
REMARK 921   NORMALIZED FREE ENERGY PREDICTED BY IDOCK:   -3.73 KCAL/MOL
REMARK 922        TOTAL FREE ENERGY PREDICTED BY IDOCK:   -9.17 KCAL/MOL
REMARK 923 INTER-LIGAND FREE ENERGY PREDICTED BY IDOCK:   -6.31 KCAL/MOL
REMARK 924 INTRA-LIGAND FREE ENERGY PREDICTED BY IDOCK:   -2.87 KCAL/MOL
REMARK 927      BINDING AFFINITY PREDICTED BY RF-SCORE:    0.00 PKD
ROOT
HETATM    1  C   UNL     1     -12.146  10.850  70.875  1.00  0.00    -0.455 C  
HETATM    2  C   UNL     1     -12.388  12.250  70.341  1.00  0.00    -0.228 C  
ENDROOT
BRANCH   2   3
HETATM    3  N   UNL     1     -11.328  12.671  69.453  1.00  0.00    -0.412 N  
HETATM    4  C   UNL     1     -11.351  12.346  68.115  1.00  0.00    -0.291 C  
HETATM    5  H   UNL     1     -10.550  13.216  69.824  1.00  0.00     0.000 HD 
HETATM    6  O   UNL     1     -12.243  11.685  67.599  1.00  0.00    -0.544 OA 
BRANCH   4   7
HETATM    7  C   UNL     1     -10.169  12.898  67.343  1.00  0.00    -0.230 C  
BRANCH   7   8
HETATM    8  C   UNL     1      -8.853  12.612  68.072  1.00  0.00    -0.195 C  
BRANCH   8   9
HETATM    9  C   UNL     1      -8.733  11.174  68.576  1.00  0.00    -0.161 C  
BRANCH   9  10
HETATM   10  C   UNL     1      -8.445  10.206  67.464  1.00  0.00    -0.118 C  
HETATM   11  C   UNL     1      -9.203   9.167  67.077  1.00  0.00    -0.167 C  
BRANCH  11  12
HETATM   12  C   UNL     1     -10.499   8.717  67.692  1.00  0.00    -0.310 C  
BRANCH  12  13
HETATM   13  C   UNL     1     -10.422   7.323  68.329  1.00  0.00    -0.239 C  
HETATM   14  C   UNL     1     -10.853   6.165  67.416  1.00  0.00    -0.343 C  
HETATM   15  C   UNL     1     -10.166   4.954  68.033  1.00  0.00    -0.105 C  
HETATM   16  O   UNL     1     -10.363   6.330  66.090  1.00  0.00    -0.424 OA 
HETATM   17  H   UNL     1     -10.630   5.614  65.525  1.00  0.00     0.000 HD 
HETATM   18  C   UNL     1      -8.777   5.478  68.389  1.00  0.00    -0.105 C  
HETATM   19  O   UNL     1      -7.907   5.343  67.263  1.00  0.00    -0.099 OA 
HETATM   20  C   UNL     1      -8.959   6.978  68.718  1.00  0.00    -0.131 C  
HETATM   21  H   UNL     1      -7.042   5.670  67.485  1.00  0.00     0.000 HD 
BRANCH  20  22
HETATM   22  C   UNL     1      -8.680   7.268  70.177  1.00  0.00    -0.140 C  
HETATM   23  C   UNL     1      -7.686   8.072  70.592  1.00  0.00    -0.089 C  
BRANCH  23  24
HETATM   24  C   UNL     1      -7.269   8.351  72.014  1.00  0.00    -0.094 C  
HETATM   25  H   UNL     1      -8.142   8.861  73.703  1.00  0.00     0.000 HD 
HETATM   26  O   UNL     1      -8.405   8.685  72.807  1.00  0.00    -0.388 OA 
BRANCH  24  27
HETATM   27  C   UNL     1      -6.572   7.158  72.680  1.00  0.00    -0.056 C  
BRANCH  27  28
HETATM   28  C   UNL     1      -7.462   6.404  73.672  1.00  0.00    -0.089 C  
BRANCH  28  29
HETATM   29  C   UNL     1      -8.271   5.333  72.983  1.00  0.00    -0.112 A  
HETATM   30  C   UNL     1      -7.637   4.383  72.172  1.00  0.00    -0.080 A  
HETATM   31  C   UNL     1      -8.385   3.418  71.497  1.00  0.00    -0.080 A  
HETATM   32  C   UNL     1      -9.772   3.395  71.626  1.00  0.00    -0.234 A  
HETATM   33  C   UNL     1     -10.411   4.334  72.435  1.00  0.00    -0.230 A  
HETATM   34  C   UNL     1      -9.665   5.300  73.110  1.00  0.00    -0.161 A  
ENDBRANCH  28  29
ENDBRANCH  27  28
ENDBRANCH  24  27
ENDBRANCH  23  24
ENDBRANCH  20  22
ENDBRANCH  12  13
ENDBRANCH  11  12
ENDBRANCH   9  10
ENDBRANCH   8   9
ENDBRANCH   7   8
ENDBRANCH   4   7
ENDBRANCH   2   3
TORSDOF 12
ENDMDL
MODEL      279
REMARK 921   NORMALIZED FREE ENERGY PREDICTED BY IDOCK:   -3.72 KCAL/MOL
REMARK 922        TOTAL FREE ENERGY PREDICTED BY IDOCK:   -9.17 KCAL/MOL
REMARK 923 INTER-LIGAND FREE ENERGY PREDICTED BY IDOCK:   -7.26 KCAL/MOL
REMARK 924 INTRA-LIGAND FREE ENERGY PREDICTED BY IDOCK:   -1.91 KCAL/MOL
REMARK 927      BINDING AFFINITY PREDICTED BY RF-SCORE:    0.00 PKD
ROOT
HETATM    1  C   UNL     1     -10.301  15.675  65.934  1.00  0.00    -0.368 C  
HETATM    2  C   UNL     1     -10.667  14.624  64.903  1.00  0.00    -0.427 C  
ENDROOT
BRANCH   2   3
HETATM    3  N   UNL     1     -10.211  13.310  65.298  1.00  0.00    -0.384 N  
HETATM    4  C   UNL     1     -11.106  12.302  65.579  1.00  0.00    -0.307 C  
HETATM    5  H   UNL     1      -9.210  13.127  65.370  1.00  0.00     0.000 HD 
HETATM    6  O   UNL     1     -12.321  12.448  65.525  1.00  0.00    -0.621 OA 
BRANCH   4   7
HETATM    7  C   UNL     1     -10.439  10.992  65.948  1.00  0.00    -0.300 C  
BRANCH   7   8
HETATM    8  C   UNL     1     -10.058  10.967  67.430  1.00  0.00    -0.223 C  
BRANCH   8   9
HETATM    9  C   UNL     1     -10.893   9.992  68.259  1.00  0.00    -0.286 C  
BRANCH   9  10
HETATM   10  C   UNL     1     -10.602   8.559  67.914  1.00  0.00    -0.219 C  
HETATM   11  C   UNL     1      -9.813   7.706  68.586  1.00  0.00    -0.175 C  
BRANCH  11  12
HETATM   12  C   UNL     1      -9.013   8.003  69.825  1.00  0.00    -0.145 C  
BRANCH  12  13
HETATM   13  C   UNL     1      -9.613   7.394  71.100  1.00  0.00    -0.162 C  
HETATM   14  C   UNL     1     -10.179   8.410  72.102  1.00  0.00    -0.320 C  
HETATM   15  C   UNL     1     -11.167   7.588  72.920  1.00  0.00    -0.396 C  
HETATM   16  O   UNL     1     -10.896   9.452  71.449  1.00  0.00    -0.336 OA 
HETATM   17  H   UNL     1     -11.247  10.080  72.068  1.00  0.00     0.000 HD 
HETATM   18  C   UNL     1     -11.866   6.729  71.870  1.00  0.00    -0.326 C  
HETATM   19  O   UNL     1     -12.979   7.443  71.325  1.00  0.00    -0.441 OA 
HETATM   20  C   UNL     1     -10.822   6.483  70.756  1.00  0.00    -0.311 C  
HETATM   21  H   UNL     1     -13.414   6.908  70.671  1.00  0.00     0.000 HD 
BRANCH  20  22
HETATM   22  C   UNL     1     -10.425   5.024  70.676  1.00  0.00    -0.227 C  
HETATM   23  C   UNL     1      -9.184   4.613  70.364  1.00  0.00    -0.187 C  
BRANCH  23  24
HETATM   24  C   UNL     1      -8.712   3.195  70.169  1.00  0.00    -0.070 C  
HETATM   25  H   UNL     1      -9.396   1.383  70.522  1.00  0.00     0.000 HD 
HETATM   26  O   UNL     1      -9.693   2.277  70.645  1.00  0.00    -0.113 OA 
BRANCH  24  27
HETATM   27  C   UNL     1      -8.428   2.853  68.701  1.00  0.00    -0.095 C  
BRANCH  27  28
HETATM   28  C   UNL     1      -9.461   3.428  67.728  1.00  0.00    -0.229 C  
BRANCH  28  29
HETATM   29  C   UNL     1      -8.796   4.154  66.585  1.00  0.00    -0.119 A  
HETATM   30  C   UNL     1      -8.848   3.626  65.288  1.00  0.00    -0.122 A  
HETATM   31  C   UNL     1      -8.197   4.270  64.236  1.00  0.00    -0.098 A  
HETATM   32  C   UNL     1      -7.487   5.446  64.471  1.00  0.00    -0.067 A  
HETATM   33  C   UNL     1      -7.433   5.981  65.757  1.00  0.00    -0.082 A  
HETATM   34  C   UNL     1      -8.083   5.339  66.810  1.00  0.00    -0.105 A  
ENDBRANCH  28  29
ENDBRANCH  27  28
ENDBRANCH  24  27
ENDBRANCH  23  24
ENDBRANCH  20  22
ENDBRANCH  12  13
ENDBRANCH  11  12
ENDBRANCH   9  10
ENDBRANCH   8   9
ENDBRANCH   7   8
ENDBRANCH   4   7
ENDBRANCH   2   3
TORSDOF 12
ENDMDL
MODEL      280
REMARK 921   NORMALIZED FREE ENERGY PREDICTED BY IDOCK:   -3.71 KCAL/MOL
REMARK 922        TOTAL FREE ENERGY PREDICTED BY IDOCK:   -9.15 KCAL/MOL
REMARK 923 INTER-LIGAND FREE ENERGY PREDICTED BY IDOCK:   -7.71 KCAL/MOL
REMARK 924 INTRA-LIGAND FREE ENERGY PREDICTED BY IDOCK:   -1.44 KCAL/MOL
REMARK 927      BINDING AFFINITY PREDICTED BY RF-SCORE:    0.00 PKD
ROOT
HETATM    1  C   UNL     1     -14.371   7.630  71.827  1.00  0.00    -0.586 C  
HETATM    2  C   UNL     1     -13.332   8.716  72.032  1.00  0.00    -0.392 C  
ENDROOT
BRANCH   2   3
HETATM    3  N   UNL     1     -13.035   9.407  70.797  1.00  0.00    -0.534 N  
HETATM    4  C   UNL     1     -12.830  10.768  70.777  1.00  0.00    -0.320 C  
HETATM    5  H   UNL     1     -12.978   8.878  69.927  1.00  0.00     0.000 HD 
HETATM    6  O   UNL     1     -12.893  11.472  71.777  1.00  0.00    -0.399 OA 
BRANCH   4   7
HETATM    7  C   UNL     1     -12.505  11.306  69.398  1.00  0.00    -0.075 C  
BRANCH   7   8
HETATM    8  C   UNL     1     -11.010  11.605  69.261  1.00  0.00    -0.246 C  
BRANCH   8   9
HETATM    9  C   UNL     1     -10.693  13.095  69.136  1.00  0.00    -0.072 C  
BRANCH   9  10
HETATM   10  C   UNL     1     -11.883  13.892  68.684  1.00  0.00    -0.407 C  
HETATM   11  C   UNL     1     -12.157  14.306  67.437  1.00  0.00    -0.371 C  
BRANCH  11  12
HETATM   12  C   UNL     1     -11.314  14.092  66.210  1.00  0.00    -0.336 C  
BRANCH  12  13
HETATM   13  C   UNL     1     -11.539  12.727  65.544  1.00  0.00    -0.400 C  
HETATM   14  C   UNL     1     -12.549  12.726  64.388  1.00  0.00    -0.352 C  
HETATM   15  C   UNL     1     -12.166  11.490  63.585  1.00  0.00    -0.154 C  
HETATM   16  O   UNL     1     -12.395  13.868  63.552  1.00  0.00    -0.976 OA 
HETATM   17  H   UNL     1     -13.020  13.867  62.837  1.00  0.00     0.000 HD 
HETATM   18  C   UNL     1     -10.640  11.533  63.575  1.00  0.00    -0.423 C  
HETATM   19  O   UNL     1     -10.187  12.331  62.479  1.00  0.00    -0.062 OA 
HETATM   20  C   UNL     1     -10.224  12.206  64.903  1.00  0.00    -0.309 C  
HETATM   21  H   UNL     1      -9.237  12.358  62.473  1.00  0.00     0.000 HD 
BRANCH  20  22
HETATM   22  C   UNL     1      -9.497  11.240  65.814  1.00  0.00    -0.252 C  
HETATM   23  C   UNL     1      -8.600  11.630  66.737  1.00  0.00    -0.180 C  
BRANCH  23  24
HETATM   24  C   UNL     1      -7.759  10.748  67.624  1.00  0.00    -0.104 C  
HETATM   25  H   UNL     1      -7.629  10.331  69.543  1.00  0.00     0.000 HD 
HETATM   26  O   UNL     1      -8.159  10.887  68.985  1.00  0.00    -0.142 OA 
BRANCH  24  27
HETATM   27  C   UNL     1      -7.858   9.261  67.260  1.00  0.00    -0.099 C  
BRANCH  27  28
HETATM   28  C   UNL     1      -7.317   8.935  65.865  1.00  0.00    -0.093 C  
BRANCH  28  29
HETATM   29  C   UNL     1      -7.183   7.446  65.660  1.00  0.00    -0.066 A  
HETATM   30  C   UNL     1      -8.225   6.587  66.033  1.00  0.00    -0.127 A  
HETATM   31  C   UNL     1      -8.089   5.206  65.888  1.00  0.00    -0.109 A  
HETATM   32  C   UNL     1      -6.911   4.673  65.368  1.00  0.00    -0.062 A  
HETATM   33  C   UNL     1      -5.871   5.521  64.990  1.00  0.00    -0.021 A  
HETATM   34  C   UNL     1      -6.005   6.901  65.135  1.00  0.00    -0.036 A  
ENDBRANCH  28  29
ENDBRANCH  27  28
ENDBRANCH  24  27
ENDBRANCH  23  24
ENDBRANCH  20  22
ENDBRANCH  12  13
ENDBRANCH  11  12
ENDBRANCH   9  10
ENDBRANCH   8   9
ENDBRANCH   7   8
ENDBRANCH   4   7
ENDBRANCH   2   3
TORSDOF 12
ENDMDL
MODEL      281
REMARK 921   NORMALIZED FREE ENERGY PREDICTED BY IDOCK:   -3.71 KCAL/MOL
REMARK 922        TOTAL FREE ENERGY PREDICTED BY IDOCK:   -9.14 KCAL/MOL
REMARK 923 INTER-LIGAND FREE ENERGY PREDICTED BY IDOCK:   -6.74 KCAL/MOL
REMARK 924 INTRA-LIGAND FREE ENERGY PREDICTED BY IDOCK:   -2.41 KCAL/MOL
REMARK 927      BINDING AFFINITY PREDICTED BY RF-SCORE:    0.00 PKD
ROOT
HETATM    1  C   UNL     1     -11.917  11.776  69.227  1.00  0.00    -0.354 C  
HETATM    2  C   UNL     1     -11.472  13.176  68.846  1.00  0.00    -0.298 C  
ENDROOT
BRANCH   2   3
HETATM    3  N   UNL     1     -10.047  13.236  68.614  1.00  0.00    -0.372 N  
HETATM    4  C   UNL     1      -9.522  13.006  67.362  1.00  0.00    -0.210 C  
HETATM    5  H   UNL     1      -9.421  13.452  69.389  1.00  0.00     0.000 HD 
HETATM    6  O   UNL     1     -10.207  12.730  66.385  1.00  0.00    -0.244 OA 
BRANCH   4   7
HETATM    7  C   UNL     1      -8.013  13.140  67.311  1.00  0.00    -0.140 C  
BRANCH   7   8
HETATM    8  C   UNL     1      -7.352  12.376  68.462  1.00  0.00    -0.105 C  
BRANCH   8   9
HETATM    9  C   UNL     1      -7.912  10.968  68.662  1.00  0.00    -0.143 C  
BRANCH   9  10
HETATM   10  C   UNL     1      -7.392  10.000  67.639  1.00  0.00    -0.089 C  
HETATM   11  C   UNL     1      -8.114   9.193  66.844  1.00  0.00    -0.112 C  
BRANCH  11  12
HETATM   12  C   UNL     1      -9.611   9.053  66.822  1.00  0.00    -0.259 C  
BRANCH  12  13
HETATM   13  C   UNL     1     -10.120   7.813  67.571  1.00  0.00    -0.272 C  
HETATM   14  C   UNL     1     -10.518   6.630  66.676  1.00  0.00    -0.152 C  
HETATM   15  C   UNL     1     -10.419   5.432  67.610  1.00  0.00    -0.217 C  
HETATM   16  O   UNL     1      -9.595   6.444  65.608  1.00  0.00    -0.373 OA 
HETATM   17  H   UNL     1      -9.841   5.713  65.055  1.00  0.00     0.000 HD 
HETATM   18  C   UNL     1      -9.138   5.700  68.395  1.00  0.00    -0.117 C  
HETATM   19  O   UNL     1      -8.015   5.179  67.680  1.00  0.00    -0.098 OA 
HETATM   20  C   UNL     1      -9.013   7.238  68.495  1.00  0.00    -0.130 C  
HETATM   21  H   UNL     1      -7.218   5.347  68.169  1.00  0.00     0.000 HD 
BRANCH  20  22
HETATM   22  C   UNL     1      -9.162   7.719  69.922  1.00  0.00    -0.146 C  
HETATM   23  C   UNL     1     -10.135   8.556  70.321  1.00  0.00    -0.199 C  
BRANCH  23  24
HETATM   24  C   UNL     1     -10.315   9.163  71.689  1.00  0.00    -0.318 C  
HETATM   25  H   UNL     1     -11.805   9.824  72.792  1.00  0.00     0.000 HD 
HETATM   26  O   UNL     1     -11.692   9.441  71.930  1.00  0.00    -0.374 OA 
BRANCH  24  27
HETATM   27  C   UNL     1      -9.819   8.253  72.820  1.00  0.00    -0.333 C  
BRANCH  27  28
HETATM   28  C   UNL     1     -10.862   7.235  73.289  1.00  0.00    -0.404 C  
BRANCH  28  29
HETATM   29  C   UNL     1     -10.358   5.821  73.138  1.00  0.00    -0.227 A  
HETATM   30  C   UNL     1     -11.241   4.741  73.262  1.00  0.00    -0.421 A  
HETATM   31  C   UNL     1     -10.772   3.430  73.168  1.00  0.00    -0.266 A  
HETATM   32  C   UNL     1      -9.417   3.189  72.949  1.00  0.00    -0.137 A  
HETATM   33  C   UNL     1      -8.532   4.258  72.820  1.00  0.00    -0.101 A  
HETATM   34  C   UNL     1      -8.999   5.569  72.914  1.00  0.00    -0.123 A  
ENDBRANCH  28  29
ENDBRANCH  27  28
ENDBRANCH  24  27
ENDBRANCH  23  24
ENDBRANCH  20  22
ENDBRANCH  12  13
ENDBRANCH  11  12
ENDBRANCH   9  10
ENDBRANCH   8   9
ENDBRANCH   7   8
ENDBRANCH   4   7
ENDBRANCH   2   3
TORSDOF 12
ENDMDL
MODEL      282
REMARK 921   NORMALIZED FREE ENERGY PREDICTED BY IDOCK:   -3.71 KCAL/MOL
REMARK 922        TOTAL FREE ENERGY PREDICTED BY IDOCK:   -9.14 KCAL/MOL
REMARK 923 INTER-LIGAND FREE ENERGY PREDICTED BY IDOCK:   -7.51 KCAL/MOL
REMARK 924 INTRA-LIGAND FREE ENERGY PREDICTED BY IDOCK:   -1.63 KCAL/MOL
REMARK 927      BINDING AFFINITY PREDICTED BY RF-SCORE:    0.00 PKD
ROOT
HETATM    1  C   UNL     1     -12.242  10.320  71.464  1.00  0.00    -0.449 C  
HETATM    2  C   UNL     1     -13.085  11.532  71.813  1.00  0.00    -0.398 C  
ENDROOT
BRANCH   2   3
HETATM    3  N   UNL     1     -12.550  12.739  71.226  1.00  0.00    -0.319 N  
HETATM    4  C   UNL     1     -12.560  13.930  71.917  1.00  0.00    -0.222 C  
HETATM    5  H   UNL     1     -12.160  12.709  70.284  1.00  0.00     0.000 HD 
HETATM    6  O   UNL     1     -13.020  14.048  73.046  1.00  0.00    -0.452 OA 
BRANCH   4   7
HETATM    7  C   UNL     1     -11.933  15.076  71.148  1.00  0.00    -0.375 C  
BRANCH   7   8
HETATM    8  C   UNL     1     -12.463  15.130  69.712  1.00  0.00    -0.221 C  
BRANCH   8   9
HETATM    9  C   UNL     1     -11.710  14.214  68.748  1.00  0.00    -0.380 C  
BRANCH   9  10
HETATM   10  C   UNL     1     -10.660  14.952  67.967  1.00  0.00    -0.248 C  
HETATM   11  C   UNL     1     -10.594  15.100  66.634  1.00  0.00    -0.304 C  
BRANCH  11  12
HETATM   12  C   UNL     1     -11.542  14.529  65.615  1.00  0.00    -0.344 C  
BRANCH  12  13
HETATM   13  C   UNL     1     -11.390  13.014  65.421  1.00  0.00    -0.327 C  
HETATM   14  C   UNL     1     -12.071  12.448  64.166  1.00  0.00    -0.453 C  
HETATM   15  C   UNL     1     -11.323  11.146  63.916  1.00  0.00     0.063 C  
HETATM   16  O   UNL     1     -11.886  13.295  63.038  1.00  0.00    -0.794 OA 
HETATM   17  H   UNL     1     -12.307  12.945  62.262  1.00  0.00     0.000 HD 
HETATM   18  C   UNL     1      -9.866  11.519  64.176  1.00  0.00    -0.255 C  
HETATM   19  O   UNL     1      -9.278  12.036  62.979  1.00  0.00    -0.647 OA 
HETATM   20  C   UNL     1      -9.896  12.630  65.251  1.00  0.00    -0.136 C  
HETATM   21  H   UNL     1      -8.371  12.269  63.142  1.00  0.00     0.000 HD 
BRANCH  20  22
HETATM   22  C   UNL     1      -9.281  12.163  66.553  1.00  0.00    -0.216 C  
HETATM   23  C   UNL     1      -7.969  12.261  66.827  1.00  0.00     0.010 C  
BRANCH  23  24
HETATM   24  C   UNL     1      -7.249  11.746  68.047  1.00  0.00    -0.084 C  
HETATM   25  H   UNL     1      -5.520  10.897  68.454  1.00  0.00     0.000 HD 
HETATM   26  O   UNL     1      -5.974  11.222  67.684  1.00  0.00    -0.047 OA 
BRANCH  24  27
HETATM   27  C   UNL     1      -7.022  12.826  69.112  1.00  0.00    -0.015 C  
BRANCH  27  28
HETATM   28  C   UNL     1      -5.756  13.656  68.882  1.00  0.00    -0.078 C  
BRANCH  28  29
HETATM   29  C   UNL     1      -6.084  15.014  68.312  1.00  0.00    -0.122 A  
HETATM   30  C   UNL     1      -7.341  15.589  68.538  1.00  0.00    -0.120 A  
HETATM   31  C   UNL     1      -7.665  16.824  67.975  1.00  0.00    -0.174 A  
HETATM   32  C   UNL     1      -6.736  17.494  67.182  1.00  0.00    -0.197 A  
HETATM   33  C   UNL     1      -5.481  16.931  66.955  1.00  0.00    -0.190 A  
HETATM   34  C   UNL     1      -5.155  15.696  67.516  1.00  0.00    -0.010 A  
ENDBRANCH  28  29
ENDBRANCH  27  28
ENDBRANCH  24  27
ENDBRANCH  23  24
ENDBRANCH  20  22
ENDBRANCH  12  13
ENDBRANCH  11  12
ENDBRANCH   9  10
ENDBRANCH   8   9
ENDBRANCH   7   8
ENDBRANCH   4   7
ENDBRANCH   2   3
TORSDOF 12
ENDMDL
MODEL      283
REMARK 921   NORMALIZED FREE ENERGY PREDICTED BY IDOCK:   -3.70 KCAL/MOL
REMARK 922        TOTAL FREE ENERGY PREDICTED BY IDOCK:   -9.13 KCAL/MOL
REMARK 923 INTER-LIGAND FREE ENERGY PREDICTED BY IDOCK:   -6.08 KCAL/MOL
REMARK 924 INTRA-LIGAND FREE ENERGY PREDICTED BY IDOCK:   -3.04 KCAL/MOL
REMARK 927      BINDING AFFINITY PREDICTED BY RF-SCORE:    0.00 PKD
ROOT
HETATM    1  C   UNL     1     -10.619  15.887  65.620  1.00  0.00    -0.393 C  
HETATM    2  C   UNL     1     -10.689  14.712  64.662  1.00  0.00    -0.286 C  
ENDROOT
BRANCH   2   3
HETATM    3  N   UNL     1     -10.171  13.504  65.264  1.00  0.00    -0.407 N  
HETATM    4  C   UNL     1     -11.017  12.503  65.687  1.00  0.00    -0.288 C  
HETATM    5  H   UNL     1      -9.164  13.391  65.377  1.00  0.00     0.000 HD 
HETATM    6  O   UNL     1     -12.236  12.569  65.594  1.00  0.00    -0.554 OA 
BRANCH   4   7
HETATM    7  C   UNL     1     -10.288  11.306  66.265  1.00  0.00    -0.294 C  
BRANCH   7   8
HETATM    8  C   UNL     1      -9.903  11.549  67.726  1.00  0.00    -0.186 C  
BRANCH   8   9
HETATM    9  C   UNL     1     -10.308  10.412  68.663  1.00  0.00    -0.202 C  
BRANCH   9  10
HETATM   10  C   UNL     1      -9.170   9.469  68.935  1.00  0.00    -0.145 C  
HETATM   11  C   UNL     1      -8.835   8.377  68.230  1.00  0.00    -0.139 C  
BRANCH  11  12
HETATM   12  C   UNL     1      -9.545   7.829  67.023  1.00  0.00    -0.238 C  
BRANCH  12  13
HETATM   13  C   UNL     1      -8.633   7.013  66.096  1.00  0.00    -0.148 C  
HETATM   14  C   UNL     1      -8.153   7.754  64.839  1.00  0.00    -0.136 C  
HETATM   15  C   UNL     1      -6.894   6.996  64.442  1.00  0.00    -0.047 C  
HETATM   16  O   UNL     1      -7.794   9.101  65.126  1.00  0.00    -0.101 OA 
HETATM   17  H   UNL     1      -7.497   9.559  64.349  1.00  0.00     0.000 HD 
HETATM   18  C   UNL     1      -6.197   6.744  65.776  1.00  0.00    -0.039 C  
HETATM   19  O   UNL     1      -5.368   7.860  66.107  1.00  0.00    -0.025 OA 
HETATM   20  C   UNL     1      -7.324   6.614  66.827  1.00  0.00    -0.078 C  
HETATM   21  H   UNL     1      -4.934   7.702  66.938  1.00  0.00     0.000 HD 
BRANCH  20  22
HETATM   22  C   UNL     1      -7.399   5.213  67.395  1.00  0.00    -0.082 C  
HETATM   23  C   UNL     1      -8.554   4.549  67.570  1.00  0.00    -0.105 C  
BRANCH  23  24
HETATM   24  C   UNL     1      -8.744   3.197  68.209  1.00  0.00    -0.106 C  
HETATM   25  H   UNL     1      -7.604   1.701  68.793  1.00  0.00     0.000 HD 
HETATM   26  O   UNL     1      -7.485   2.554  68.390  1.00  0.00    -0.048 OA 
BRANCH  24  27
HETATM   27  C   UNL     1      -9.430   3.270  69.579  1.00  0.00    -0.205 C  
BRANCH  27  28
HETATM   28  C   UNL     1      -8.786   4.279  70.533  1.00  0.00    -0.132 C  
BRANCH  28  29
HETATM   29  C   UNL     1      -9.683   5.470  70.763  1.00  0.00    -0.232 A  
HETATM   30  C   UNL     1      -9.370   6.408  71.755  1.00  0.00    -0.152 A  
HETATM   31  C   UNL     1     -10.219   7.487  72.002  1.00  0.00    -0.234 A  
HETATM   32  C   UNL     1     -11.388   7.637  71.258  1.00  0.00    -0.286 A  
HETATM   33  C   UNL     1     -11.706   6.711  70.266  1.00  0.00    -0.432 A  
HETATM   34  C   UNL     1     -10.858   5.631  70.018  1.00  0.00    -0.366 A  
ENDBRANCH  28  29
ENDBRANCH  27  28
ENDBRANCH  24  27
ENDBRANCH  23  24
ENDBRANCH  20  22
ENDBRANCH  12  13
ENDBRANCH  11  12
ENDBRANCH   9  10
ENDBRANCH   8   9
ENDBRANCH   7   8
ENDBRANCH   4   7
ENDBRANCH   2   3
TORSDOF 12
ENDMDL
MODEL      284
REMARK 921   NORMALIZED FREE ENERGY PREDICTED BY IDOCK:   -3.70 KCAL/MOL
REMARK 922        TOTAL FREE ENERGY PREDICTED BY IDOCK:   -9.13 KCAL/MOL
REMARK 923 INTER-LIGAND FREE ENERGY PREDICTED BY IDOCK:   -7.72 KCAL/MOL
REMARK 924 INTRA-LIGAND FREE ENERGY PREDICTED BY IDOCK:   -1.40 KCAL/MOL
REMARK 927      BINDING AFFINITY PREDICTED BY RF-SCORE:    0.00 PKD
ROOT
HETATM    1  C   UNL     1     -13.085  13.872  65.209  1.00  0.00    -0.205 C  
HETATM    2  C   UNL     1     -12.277  14.700  64.228  1.00  0.00    -0.408 C  
ENDROOT
BRANCH   2   3
HETATM    3  N   UNL     1     -11.264  15.483  64.900  1.00  0.00    -0.443 N  
HETATM    4  C   UNL     1     -10.073  14.915  65.293  1.00  0.00    -0.345 C  
HETATM    5  H   UNL     1     -11.434  16.471  65.085  1.00  0.00     0.000 HD 
HETATM    6  O   UNL     1      -9.800  13.734  65.116  1.00  0.00    -0.226 OA 
BRANCH   4   7
HETATM    7  C   UNL     1      -9.129  15.898  65.956  1.00  0.00    -0.363 C  
BRANCH   7   8
HETATM    8  C   UNL     1      -8.723  15.417  67.352  1.00  0.00    -0.194 C  
BRANCH   8   9
HETATM    9  C   UNL     1      -7.359  14.729  67.388  1.00  0.00    -0.214 C  
BRANCH   9  10
HETATM   10  C   UNL     1      -7.032  14.191  68.752  1.00  0.00    -0.104 C  
HETATM   11  C   UNL     1      -7.000  12.903  69.130  1.00  0.00    -0.015 C  
BRANCH  11  12
HETATM   12  C   UNL     1      -7.317  11.704  68.278  1.00  0.00    -0.093 C  
BRANCH  12  13
HETATM   13  C   UNL     1      -8.818  11.525  68.011  1.00  0.00    -0.158 C  
HETATM   14  C   UNL     1      -9.236  11.651  66.539  1.00  0.00    -0.198 C  
HETATM   15  C   UNL     1     -10.558  10.898  66.481  1.00  0.00    -0.295 C  
HETATM   16  O   UNL     1      -8.313  11.003  65.671  1.00  0.00    -0.274 OA 
HETATM   17  H   UNL     1      -8.572  11.081  64.760  1.00  0.00     0.000 HD 
HETATM   18  C   UNL     1     -10.300   9.664  67.341  1.00  0.00    -0.247 C  
HETATM   19  O   UNL     1      -9.726   8.628  66.539  1.00  0.00    -0.212 OA 
HETATM   20  C   UNL     1      -9.281  10.101  68.418  1.00  0.00    -0.133 C  
HETATM   21  H   UNL     1      -9.565   7.860  67.075  1.00  0.00     0.000 HD 
BRANCH  20  22
HETATM   22  C   UNL     1      -9.890  10.080  69.804  1.00  0.00    -0.270 C  
HETATM   23  C   UNL     1     -11.168   9.736  70.043  1.00  0.00    -0.297 C  
BRANCH  23  24
HETATM   24  C   UNL     1     -11.891   9.772  71.365  1.00  0.00    -0.408 C  
HETATM   25  H   UNL     1     -13.156  10.964  72.289  1.00  0.00     0.000 HD 
HETATM   26  O   UNL     1     -12.700  10.942  71.456  1.00  0.00    -0.408 OA 
BRANCH  24  27
HETATM   27  C   UNL     1     -12.804   8.558  71.583  1.00  0.00    -0.366 C  
BRANCH  27  28
HETATM   28  C   UNL     1     -12.085   7.355  72.201  1.00  0.00    -0.289 C  
BRANCH  28  29
HETATM   29  C   UNL     1     -11.069   6.773  71.249  1.00  0.00    -0.303 A  
HETATM   30  C   UNL     1      -9.712   6.745  71.596  1.00  0.00    -0.166 A  
HETATM   31  C   UNL     1      -8.764   6.248  70.701  1.00  0.00    -0.140 A  
HETATM   32  C   UNL     1      -9.164   5.776  69.453  1.00  0.00    -0.144 A  
HETATM   33  C   UNL     1     -10.513   5.795  69.101  1.00  0.00    -0.346 A  
HETATM   34  C   UNL     1     -11.462   6.292  69.994  1.00  0.00    -0.460 A  
ENDBRANCH  28  29
ENDBRANCH  27  28
ENDBRANCH  24  27
ENDBRANCH  23  24
ENDBRANCH  20  22
ENDBRANCH  12  13
ENDBRANCH  11  12
ENDBRANCH   9  10
ENDBRANCH   8   9
ENDBRANCH   7   8
ENDBRANCH   4   7
ENDBRANCH   2   3
TORSDOF 12
ENDMDL
MODEL      285
REMARK 921   NORMALIZED FREE ENERGY PREDICTED BY IDOCK:   -3.69 KCAL/MOL
REMARK 922        TOTAL FREE ENERGY PREDICTED BY IDOCK:   -9.12 KCAL/MOL
REMARK 923 INTER-LIGAND FREE ENERGY PREDICTED BY IDOCK:   -7.75 KCAL/MOL
REMARK 924 INTRA-LIGAND FREE ENERGY PREDICTED BY IDOCK:   -1.38 KCAL/MOL
REMARK 927      BINDING AFFINITY PREDICTED BY RF-SCORE:    0.00 PKD
ROOT
HETATM    1  C   UNL     1      -7.364  19.712  68.341  1.00  0.00    -0.354 C  
HETATM    2  C   UNL     1      -8.589  20.138  67.555  1.00  0.00    -0.336 C  
ENDROOT
BRANCH   2   3
HETATM    3  N   UNL     1      -9.011  19.112  66.628  1.00  0.00    -0.315 N  
HETATM    4  C   UNL     1     -10.272  18.564  66.701  1.00  0.00    -0.399 C  
HETATM    5  H   UNL     1      -8.363  18.787  65.910  1.00  0.00     0.000 HD 
HETATM    6  O   UNL     1     -11.100  18.893  67.541  1.00  0.00    -0.356 OA 
BRANCH   4   7
HETATM    7  C   UNL     1     -10.537  17.524  65.631  1.00  0.00    -0.144 C  
BRANCH   7   8
HETATM    8  C   UNL     1      -9.629  16.305  65.811  1.00  0.00    -0.266 C  
BRANCH   8   9
HETATM    9  C   UNL     1     -10.302  14.982  65.444  1.00  0.00    -0.410 C  
BRANCH   9  10
HETATM   10  C   UNL     1     -10.386  14.045  66.615  1.00  0.00    -0.278 C  
HETATM   11  C   UNL     1     -10.931  12.818  66.635  1.00  0.00    -0.300 C  
BRANCH  11  12
HETATM   12  C   UNL     1     -11.612  12.115  65.493  1.00  0.00    -0.398 C  
BRANCH  12  13
HETATM   13  C   UNL     1     -10.864  10.863  65.013  1.00  0.00    -0.142 C  
HETATM   14  C   UNL     1     -10.159  11.007  63.656  1.00  0.00    -0.371 C  
HETATM   15  C   UNL     1      -9.088   9.926  63.698  1.00  0.00    -0.294 C  
HETATM   16  O   UNL     1      -9.515  12.270  63.527  1.00  0.00    -0.663 OA 
HETATM   17  H   UNL     1      -9.080  12.359  62.688  1.00  0.00     0.000 HD 
HETATM   18  C   UNL     1      -8.541  10.024  65.119  1.00  0.00    -0.158 C  
HETATM   19  O   UNL     1      -7.496  10.999  65.169  1.00  0.00    -0.352 OA 
HETATM   20  C   UNL     1      -9.722  10.495  65.999  1.00  0.00    -0.257 C  
HETATM   21  H   UNL     1      -7.156  11.060  66.054  1.00  0.00     0.000 HD 
BRANCH  20  22
HETATM   22  C   UNL     1     -10.148   9.426  66.981  1.00  0.00    -0.304 C  
HETATM   23  C   UNL     1      -9.351   8.412  67.360  1.00  0.00    -0.178 C  
BRANCH  23  24
HETATM   24  C   UNL     1      -9.708   7.254  68.255  1.00  0.00    -0.147 C  
HETATM   25  H   UNL     1     -11.347   6.349  68.863  1.00  0.00     0.000 HD 
HETATM   26  O   UNL     1     -11.122   7.079  68.299  1.00  0.00    -0.122 OA 
BRANCH  24  27
HETATM   27  C   UNL     1      -9.090   5.927  67.797  1.00  0.00    -0.109 C  
BRANCH  27  28
HETATM   28  C   UNL     1     -10.127   4.856  67.448  1.00  0.00    -0.196 C  
BRANCH  28  29
HETATM   29  C   UNL     1      -9.810   4.190  66.132  1.00  0.00    -0.207 A  
HETATM   30  C   UNL     1      -8.601   3.503  65.962  1.00  0.00    -0.117 A  
HETATM   31  C   UNL     1      -8.283   2.924  64.734  1.00  0.00    -0.087 A  
HETATM   32  C   UNL     1      -9.171   3.028  63.664  1.00  0.00    -0.097 A  
HETATM   33  C   UNL     1     -10.378   3.706  63.825  1.00  0.00    -0.249 A  
HETATM   34  C   UNL     1     -10.697   4.286  65.052  1.00  0.00    -0.139 A  
ENDBRANCH  28  29
ENDBRANCH  27  28
ENDBRANCH  24  27
ENDBRANCH  23  24
ENDBRANCH  20  22
ENDBRANCH  12  13
ENDBRANCH  11  12
ENDBRANCH   9  10
ENDBRANCH   8   9
ENDBRANCH   7   8
ENDBRANCH   4   7
ENDBRANCH   2   3
TORSDOF 12
ENDMDL
MODEL      286
REMARK 921   NORMALIZED FREE ENERGY PREDICTED BY IDOCK:   -3.68 KCAL/MOL
REMARK 922        TOTAL FREE ENERGY PREDICTED BY IDOCK:   -9.10 KCAL/MOL
REMARK 923 INTER-LIGAND FREE ENERGY PREDICTED BY IDOCK:   -7.00 KCAL/MOL
REMARK 924 INTRA-LIGAND FREE ENERGY PREDICTED BY IDOCK:   -2.10 KCAL/MOL
REMARK 927      BINDING AFFINITY PREDICTED BY RF-SCORE:    0.00 PKD
ROOT
HETATM    1  C   UNL     1     -11.275  10.980  67.695  1.00  0.00    -0.373 C  
HETATM    2  C   UNL     1     -10.425  12.235  67.773  1.00  0.00    -0.209 C  
ENDROOT
BRANCH   2   3
HETATM    3  N   UNL     1     -10.869  13.114  68.831  1.00  0.00    -0.333 N  
HETATM    4  C   UNL     1     -11.723  14.163  68.571  1.00  0.00    -0.345 C  
HETATM    5  H   UNL     1     -10.545  12.955  69.785  1.00  0.00     0.000 HD 
HETATM    6  O   UNL     1     -12.146  14.424  67.452  1.00  0.00    -0.397 OA 
BRANCH   4   7
HETATM    7  C   UNL     1     -12.097  14.953  69.810  1.00  0.00    -0.357 C  
BRANCH   7   8
HETATM    8  C   UNL     1     -10.987  15.936  70.191  1.00  0.00    -0.369 C  
BRANCH   8   9
HETATM    9  C   UNL     1     -10.141  16.394  69.003  1.00  0.00    -0.262 C  
BRANCH   9  10
HETATM   10  C   UNL     1     -10.199  17.882  68.806  1.00  0.00    -0.362 C  
HETATM   11  C   UNL     1      -9.744  18.579  67.752  1.00  0.00    -0.327 C  
BRANCH  11  12
HETATM   12  C   UNL     1      -9.041  18.029  66.542  1.00  0.00    -0.283 C  
BRANCH  12  13
HETATM   13  C   UNL     1      -7.522  18.254  66.563  1.00  0.00    -0.266 C  
HETATM   14  C   UNL     1      -7.027  19.430  65.709  1.00  0.00    -0.284 C  
HETATM   15  C   UNL     1      -5.681  19.775  66.330  1.00  0.00    -0.175 C  
HETATM   16  O   UNL     1      -7.879  20.563  65.828  1.00  0.00    -0.532 OA 
HETATM   17  H   UNL     1      -7.573  21.291  65.300  1.00  0.00     0.000 HD 
HETATM   18  C   UNL     1      -5.947  19.676  67.830  1.00  0.00    -0.208 C  
HETATM   19  O   UNL     1      -6.442  20.926  68.316  1.00  0.00    -0.303 OA 
HETATM   20  C   UNL     1      -7.038  18.593  67.998  1.00  0.00    -0.251 C  
HETATM   21  H   UNL     1      -6.609  20.863  69.250  1.00  0.00     0.000 HD 
BRANCH  20  22
HETATM   22  C   UNL     1      -6.506  17.372  68.718  1.00  0.00    -0.201 C  
HETATM   23  C   UNL     1      -6.314  16.186  68.116  1.00  0.00    -0.130 C  
BRANCH  23  24
HETATM   24  C   UNL     1      -5.880  14.894  68.760  1.00  0.00    -0.085 C  
HETATM   25  H   UNL     1      -5.666  14.189  70.585  1.00  0.00     0.000 HD 
HETATM   26  O   UNL     1      -5.940  15.003  70.180  1.00  0.00    -0.132 OA 
BRANCH  24  27
HETATM   27  C   UNL     1      -6.747  13.697  68.348  1.00  0.00    -0.100 C  
BRANCH  27  28
HETATM   28  C   UNL     1      -5.959  12.392  68.202  1.00  0.00    -0.062 C  
BRANCH  28  29
HETATM   29  C   UNL     1      -6.854  11.188  68.354  1.00  0.00    -0.066 A  
HETATM   30  C   UNL     1      -7.304  10.799  69.622  1.00  0.00    -0.107 A  
HETATM   31  C   UNL     1      -8.096   9.660  69.773  1.00  0.00    -0.160 A  
HETATM   32  C   UNL     1      -8.445   8.901  68.658  1.00  0.00    -0.128 A  
HETATM   33  C   UNL     1      -8.006   9.283  67.391  1.00  0.00    -0.106 A  
HETATM   34  C   UNL     1      -7.213  10.421  67.238  1.00  0.00    -0.089 A  
ENDBRANCH  28  29
ENDBRANCH  27  28
ENDBRANCH  24  27
ENDBRANCH  23  24
ENDBRANCH  20  22
ENDBRANCH  12  13
ENDBRANCH  11  12
ENDBRANCH   9  10
ENDBRANCH   8   9
ENDBRANCH   7   8
ENDBRANCH   4   7
ENDBRANCH   2   3
TORSDOF 12
ENDMDL
MODEL      287
REMARK 921   NORMALIZED FREE ENERGY PREDICTED BY IDOCK:   -3.68 KCAL/MOL
REMARK 922        TOTAL FREE ENERGY PREDICTED BY IDOCK:   -9.09 KCAL/MOL
REMARK 923 INTER-LIGAND FREE ENERGY PREDICTED BY IDOCK:   -7.77 KCAL/MOL
REMARK 924 INTRA-LIGAND FREE ENERGY PREDICTED BY IDOCK:   -1.32 KCAL/MOL
REMARK 927      BINDING AFFINITY PREDICTED BY RF-SCORE:    0.00 PKD
ROOT
HETATM    1  C   UNL     1      -9.312   2.430  63.691  1.00  0.00    -0.100 C  
HETATM    2  C   UNL     1      -9.823   3.858  63.635  1.00  0.00    -0.165 C  
ENDROOT
BRANCH   2   3
HETATM    3  N   UNL     1      -9.085   4.722  64.528  1.00  0.00    -0.258 N  
HETATM    4  C   UNL     1      -9.580   5.049  65.771  1.00  0.00    -0.148 C  
HETATM    5  H   UNL     1      -8.183   5.097  64.233  1.00  0.00     0.000 HD 
HETATM    6  O   UNL     1     -10.658   4.648  66.192  1.00  0.00    -0.295 OA 
BRANCH   4   7
HETATM    7  C   UNL     1      -8.653   5.942  66.571  1.00  0.00    -0.123 C  
BRANCH   7   8
HETATM    8  C   UNL     1      -8.443   7.286  65.869  1.00  0.00    -0.148 C  
BRANCH   8   9
HETATM    9  C   UNL     1      -9.426   8.369  66.314  1.00  0.00    -0.292 C  
BRANCH   9  10
HETATM   10  C   UNL     1      -9.553   9.470  65.301  1.00  0.00    -0.314 C  
HETATM   11  C   UNL     1      -8.701  10.487  65.096  1.00  0.00    -0.197 C  
BRANCH  11  12
HETATM   12  C   UNL     1      -7.437  10.772  65.859  1.00  0.00    -0.099 C  
BRANCH  12  13
HETATM   13  C   UNL     1      -7.675  11.525  67.176  1.00  0.00    -0.160 C  
HETATM   14  C   UNL     1      -6.440  11.665  68.078  1.00  0.00    -0.055 C  
HETATM   15  C   UNL     1      -6.776  12.865  68.953  1.00  0.00    -0.097 C  
HETATM   16  O   UNL     1      -5.271  11.971  67.327  1.00  0.00    -0.092 OA 
HETATM   17  H   UNL     1      -4.507  12.057  67.885  1.00  0.00     0.000 HD 
HETATM   18  C   UNL     1      -7.411  13.850  67.974  1.00  0.00    -0.141 C  
HETATM   19  O   UNL     1      -6.393  14.641  67.356  1.00  0.00    -0.323 OA 
HETATM   20  C   UNL     1      -8.113  12.988  66.899  1.00  0.00     0.047 C  
HETATM   21  H   UNL     1      -6.789  15.253  66.746  1.00  0.00     0.000 HD 
BRANCH  20  22
HETATM   22  C   UNL     1      -9.618  13.147  66.953  1.00  0.00    -0.248 C  
HETATM   23  C   UNL     1     -10.231  14.339  67.054  1.00  0.00    -0.260 C  
BRANCH  23  24
HETATM   24  C   UNL     1     -11.708  14.597  67.206  1.00  0.00    -0.385 C  
HETATM   25  H   UNL     1     -13.360  14.164  66.225  1.00  0.00     0.000 HD 
HETATM   26  O   UNL     1     -12.428  14.002  66.129  1.00  0.00    -0.467 OA 
BRANCH  24  27
HETATM   27  C   UNL     1     -12.284  14.040  68.514  1.00  0.00    -0.210 C  
BRANCH  27  28
HETATM   28  C   UNL     1     -11.386  14.284  69.731  1.00  0.00    -0.279 C  
BRANCH  28  29
HETATM   29  C   UNL     1     -12.183  14.776  70.913  1.00  0.00    -0.384 A  
HETATM   30  C   UNL     1     -13.568  14.959  70.804  1.00  0.00    -0.221 A  
HETATM   31  C   UNL     1     -14.303  15.455  71.881  1.00  0.00    -0.649 A  
HETATM   32  C   UNL     1     -13.660  15.773  73.075  1.00  0.00    -0.638 A  
HETATM   33  C   UNL     1     -12.283  15.590  73.195  1.00  0.00    -0.580 A  
HETATM   34  C   UNL     1     -11.546  15.094  72.119  1.00  0.00    -0.490 A  
ENDBRANCH  28  29
ENDBRANCH  27  28
ENDBRANCH  24  27
ENDBRANCH  23  24
ENDBRANCH  20  22
ENDBRANCH  12  13
ENDBRANCH  11  12
ENDBRANCH   9  10
ENDBRANCH   8   9
ENDBRANCH   7   8
ENDBRANCH   4   7
ENDBRANCH   2   3
TORSDOF 12
ENDMDL
MODEL      288
REMARK 921   NORMALIZED FREE ENERGY PREDICTED BY IDOCK:   -3.67 KCAL/MOL
REMARK 922        TOTAL FREE ENERGY PREDICTED BY IDOCK:   -9.08 KCAL/MOL
REMARK 923 INTER-LIGAND FREE ENERGY PREDICTED BY IDOCK:   -6.43 KCAL/MOL
REMARK 924 INTRA-LIGAND FREE ENERGY PREDICTED BY IDOCK:   -2.65 KCAL/MOL
REMARK 927      BINDING AFFINITY PREDICTED BY RF-SCORE:    0.00 PKD
ROOT
HETATM    1  C   UNL     1     -12.117  13.937  64.315  1.00  0.00    -0.477 C  
HETATM    2  C   UNL     1     -11.595  14.703  65.516  1.00  0.00    -0.335 C  
ENDROOT
BRANCH   2   3
HETATM    3  N   UNL     1     -11.466  13.851  66.676  1.00  0.00    -0.340 N  
HETATM    4  C   UNL     1     -10.228  13.523  67.183  1.00  0.00    -0.247 C  
HETATM    5  H   UNL     1     -12.305  13.485  67.126  1.00  0.00     0.000 HD 
HETATM    6  O   UNL     1      -9.176  13.913  66.692  1.00  0.00    -0.264 OA 
BRANCH   4   7
HETATM    7  C   UNL     1     -10.298  12.644  68.415  1.00  0.00    -0.241 C  
BRANCH   7   8
HETATM    8  C   UNL     1     -10.976  11.308  68.101  1.00  0.00    -0.284 C  
BRANCH   8   9
HETATM    9  C   UNL     1     -12.072  10.929  69.096  1.00  0.00    -0.292 C  
BRANCH   9  10
HETATM   10  C   UNL     1     -11.560  10.868  70.507  1.00  0.00    -0.397 C  
HETATM   11  C   UNL     1     -11.185   9.773  71.188  1.00  0.00    -0.444 C  
BRANCH  11  12
HETATM   12  C   UNL     1     -11.223   8.351  70.700  1.00  0.00    -0.275 C  
BRANCH  12  13
HETATM   13  C   UNL     1      -9.964   7.549  71.057  1.00  0.00    -0.189 C  
HETATM   14  C   UNL     1     -10.187   6.042  71.255  1.00  0.00    -0.205 C  
HETATM   15  C   UNL     1      -8.805   5.447  71.022  1.00  0.00    -0.149 C  
HETATM   16  O   UNL     1     -11.075   5.508  70.278  1.00  0.00    -0.231 OA 
HETATM   17  H   UNL     1     -11.213   4.576  70.400  1.00  0.00     0.000 HD 
HETATM   18  C   UNL     1      -8.282   6.227  69.819  1.00  0.00    -0.125 C  
HETATM   19  O   UNL     1      -8.708   5.595  68.611  1.00  0.00    -0.107 OA 
HETATM   20  C   UNL     1      -8.918   7.633  69.914  1.00  0.00    -0.144 C  
HETATM   21  H   UNL     1      -8.383   6.081  67.862  1.00  0.00     0.000 HD 
BRANCH  20  22
HETATM   22  C   UNL     1      -7.878   8.700  70.178  1.00  0.00    -0.098 C  
HETATM   23  C   UNL     1      -7.839   9.872  69.521  1.00  0.00    -0.140 C  
BRANCH  23  24
HETATM   24  C   UNL     1      -6.798  10.955  69.644  1.00  0.00    -0.137 C  
HETATM   25  H   UNL     1      -5.533  11.597  71.009  1.00  0.00     0.000 HD 
HETATM   26  O   UNL     1      -6.189  10.914  70.932  1.00  0.00    -0.352 OA 
BRANCH  24  27
HETATM   27  C   UNL     1      -5.683  10.837  68.598  1.00  0.00    -0.040 C  
BRANCH  27  28
HETATM   28  C   UNL     1      -5.852  11.791  67.411  1.00  0.00    -0.104 C  
BRANCH  28  29
HETATM   29  C   UNL     1      -6.427  11.080  66.212  1.00  0.00    -0.112 A  
HETATM   30  C   UNL     1      -7.795  10.781  66.157  1.00  0.00    -0.155 A  
HETATM   31  C   UNL     1      -8.324  10.085  65.070  1.00  0.00    -0.158 A  
HETATM   32  C   UNL     1      -7.490   9.680  64.030  1.00  0.00    -0.128 A  
HETATM   33  C   UNL     1      -6.129   9.976  64.073  1.00  0.00    -0.132 A  
HETATM   34  C   UNL     1      -5.598  10.672  65.159  1.00  0.00    -0.128 A  
ENDBRANCH  28  29
ENDBRANCH  27  28
ENDBRANCH  24  27
ENDBRANCH  23  24
ENDBRANCH  20  22
ENDBRANCH  12  13
ENDBRANCH  11  12
ENDBRANCH   9  10
ENDBRANCH   8   9
ENDBRANCH   7   8
ENDBRANCH   4   7
ENDBRANCH   2   3
TORSDOF 12
ENDMDL
MODEL      289
REMARK 921   NORMALIZED FREE ENERGY PREDICTED BY IDOCK:   -3.62 KCAL/MOL
REMARK 922        TOTAL FREE ENERGY PREDICTED BY IDOCK:   -8.99 KCAL/MOL
REMARK 923 INTER-LIGAND FREE ENERGY PREDICTED BY IDOCK:   -7.29 KCAL/MOL
REMARK 924 INTRA-LIGAND FREE ENERGY PREDICTED BY IDOCK:   -1.71 KCAL/MOL
REMARK 927      BINDING AFFINITY PREDICTED BY RF-SCORE:    0.00 PKD
ROOT
HETATM    1  C   UNL     1      -6.739   7.801  72.971  1.00  0.00    -0.080 C  
HETATM    2  C   UNL     1      -6.145   7.173  71.724  1.00  0.00    -0.037 C  
ENDROOT
BRANCH   2   3
HETATM    3  N   UNL     1      -6.859   7.575  70.533  1.00  0.00    -0.047 N  
HETATM    4  C   UNL     1      -7.830   6.770  69.981  1.00  0.00    -0.111 C  
HETATM    5  H   UNL     1      -6.641   8.470  70.095  1.00  0.00     0.000 HD 
HETATM    6  O   UNL     1      -8.140   5.679  70.443  1.00  0.00    -0.100 OA 
BRANCH   4   7
HETATM    7  C   UNL     1      -8.484   7.373  68.754  1.00  0.00    -0.129 C  
BRANCH   7   8
HETATM    8  C   UNL     1      -7.642   8.520  68.189  1.00  0.00    -0.098 C  
BRANCH   8   9
HETATM    9  C   UNL     1      -8.424   9.821  68.008  1.00  0.00    -0.118 C  
BRANCH   9  10
HETATM   10  C   UNL     1      -9.821   9.578  67.512  1.00  0.00    -0.213 C  
HETATM   11  C   UNL     1     -10.312   9.871  66.297  1.00  0.00    -0.233 C  
BRANCH  11  12
HETATM   12  C   UNL     1      -9.582  10.541  65.166  1.00  0.00    -0.316 C  
BRANCH  12  13
HETATM   13  C   UNL     1     -10.097  11.953  64.857  1.00  0.00    -0.296 C  
HETATM   14  C   UNL     1     -10.342  12.246  63.369  1.00  0.00    -0.357 C  
HETATM   15  C   UNL     1     -11.334  13.401  63.394  1.00  0.00     0.187 C  
HETATM   16  O   UNL     1     -10.955  11.143  62.709  1.00  0.00    -0.761 OA 
HETATM   17  H   UNL     1     -11.107  11.324  61.789  1.00  0.00     0.000 HD 
HETATM   18  C   UNL     1     -12.304  13.009  64.506  1.00  0.00    -0.398 C  
HETATM   19  O   UNL     1     -13.344  12.187  63.971  1.00  0.00    -0.706 OA 
HETATM   20  C   UNL     1     -11.478  12.192  65.525  1.00  0.00    -0.394 C  
HETATM   21  H   UNL     1     -13.948  11.943  64.663  1.00  0.00     0.000 HD 
BRANCH  20  22
HETATM   22  C   UNL     1     -11.348  12.917  66.847  1.00  0.00    -0.358 C  
HETATM   23  C   UNL     1     -12.035  12.570  67.949  1.00  0.00    -0.283 C  
BRANCH  23  24
HETATM   24  C   UNL     1     -12.046  13.278  69.280  1.00  0.00    -0.242 C  
HETATM   25  H   UNL     1     -11.966  12.781  71.183  1.00  0.00     0.000 HD 
HETATM   26  O   UNL     1     -11.959  12.334  70.344  1.00  0.00    -0.343 OA 
BRANCH  24  27
HETATM   27  C   UNL     1     -10.887  14.270  69.442  1.00  0.00    -0.197 C  
BRANCH  27  28
HETATM   28  C   UNL     1     -11.126  15.610  68.741  1.00  0.00    -0.307 C  
BRANCH  28  29
HETATM   29  C   UNL     1      -9.863  16.126  68.096  1.00  0.00    -0.227 A  
HETATM   30  C   UNL     1      -8.614  15.834  68.658  1.00  0.00    -0.194 A  
HETATM   31  C   UNL     1      -7.446  16.346  68.092  1.00  0.00    -0.152 A  
HETATM   32  C   UNL     1      -7.518  17.155  66.959  1.00  0.00    -0.223 A  
HETATM   33  C   UNL     1      -8.757  17.447  66.390  1.00  0.00    -0.275 A  
HETATM   34  C   UNL     1      -9.925  16.937  66.955  1.00  0.00    -0.279 A  
ENDBRANCH  28  29
ENDBRANCH  27  28
ENDBRANCH  24  27
ENDBRANCH  23  24
ENDBRANCH  20  22
ENDBRANCH  12  13
ENDBRANCH  11  12
ENDBRANCH   9  10
ENDBRANCH   8   9
ENDBRANCH   7   8
ENDBRANCH   4   7
ENDBRANCH   2   3
TORSDOF 12
ENDMDL
MODEL      290
REMARK 921   NORMALIZED FREE ENERGY PREDICTED BY IDOCK:   -3.60 KCAL/MOL
REMARK 922        TOTAL FREE ENERGY PREDICTED BY IDOCK:   -8.97 KCAL/MOL
REMARK 923 INTER-LIGAND FREE ENERGY PREDICTED BY IDOCK:   -7.03 KCAL/MOL
REMARK 924 INTRA-LIGAND FREE ENERGY PREDICTED BY IDOCK:   -1.93 KCAL/MOL
REMARK 927      BINDING AFFINITY PREDICTED BY RF-SCORE:    0.00 PKD
ROOT
HETATM    1  C   UNL     1      -9.915  15.372  69.714  1.00  0.00    -0.251 C  
HETATM    2  C   UNL     1     -11.011  14.690  68.918  1.00  0.00    -0.253 C  
ENDROOT
BRANCH   2   3
HETATM    3  N   UNL     1     -11.267  13.352  69.403  1.00  0.00    -0.419 N  
HETATM    4  C   UNL     1     -12.196  13.121  70.393  1.00  0.00    -0.316 C  
HETATM    5  H   UNL     1     -10.750  12.567  69.006  1.00  0.00     0.000 HD 
HETATM    6  O   UNL     1     -12.847  14.011  70.925  1.00  0.00    -0.331 OA 
BRANCH   4   7
HETATM    7  C   UNL     1     -12.342  11.655  70.748  1.00  0.00    -0.454 C  
BRANCH   7   8
HETATM    8  C   UNL     1     -11.338  10.798  69.973  1.00  0.00    -0.397 C  
BRANCH   8   9
HETATM    9  C   UNL     1     -11.374   9.318  70.355  1.00  0.00    -0.283 C  
BRANCH   9  10
HETATM   10  C   UNL     1     -11.299   9.114  71.842  1.00  0.00    -0.416 C  
HETATM   11  C   UNL     1     -10.332   8.482  72.526  1.00  0.00    -0.315 C  
BRANCH  11  12
HETATM   12  C   UNL     1      -9.117   7.804  71.954  1.00  0.00    -0.173 C  
BRANCH  12  13
HETATM   13  C   UNL     1      -9.148   6.275  72.092  1.00  0.00    -0.141 C  
HETATM   14  C   UNL     1      -9.091   5.751  73.534  1.00  0.00    -0.131 C  
HETATM   15  C   UNL     1      -9.694   4.357  73.428  1.00  0.00    -0.150 C  
HETATM   16  O   UNL     1      -9.904   6.526  74.409  1.00  0.00    -0.271 OA 
HETATM   17  H   UNL     1      -9.868   6.202  75.301  1.00  0.00     0.000 HD 
HETATM   18  C   UNL     1     -10.880   4.556  72.487  1.00  0.00    -0.070 C  
HETATM   19  O   UNL     1     -12.031   4.949  73.237  1.00  0.00    -0.457 OA 
HETATM   20  C   UNL     1     -10.477   5.701  71.530  1.00  0.00    -0.298 C  
HETATM   21  H   UNL     1     -12.769   5.073  72.651  1.00  0.00     0.000 HD 
BRANCH  20  22
HETATM   22  C   UNL     1     -10.322   5.211  70.106  1.00  0.00    -0.340 C  
HETATM   23  C   UNL     1      -9.253   4.518  69.676  1.00  0.00    -0.195 C  
BRANCH  23  24
HETATM   24  C   UNL     1      -8.962   4.068  68.268  1.00  0.00    -0.118 C  
HETATM   25  H   UNL     1      -9.381   2.516  67.131  1.00  0.00     0.000 HD 
HETATM   26  O   UNL     1      -9.564   2.800  68.019  1.00  0.00    -0.198 OA 
BRANCH  24  27
HETATM   27  C   UNL     1      -9.480   5.045  67.205  1.00  0.00    -0.149 C  
BRANCH  27  28
HETATM   28  C   UNL     1      -8.369   5.682  66.366  1.00  0.00    -0.112 C  
BRANCH  28  29
HETATM   29  C   UNL     1      -8.381   7.186  66.486  1.00  0.00    -0.117 A  
HETATM   30  C   UNL     1      -8.412   7.792  67.748  1.00  0.00    -0.121 A  
HETATM   31  C   UNL     1      -8.469   9.181  67.864  1.00  0.00    -0.117 A  
HETATM   32  C   UNL     1      -8.496   9.975  66.720  1.00  0.00    -0.125 A  
HETATM   33  C   UNL     1      -8.462   9.381  65.459  1.00  0.00    -0.153 A  
HETATM   34  C   UNL     1      -8.405   7.992  65.341  1.00  0.00    -0.161 A  
ENDBRANCH  28  29
ENDBRANCH  27  28
ENDBRANCH  24  27
ENDBRANCH  23  24
ENDBRANCH  20  22
ENDBRANCH  12  13
ENDBRANCH  11  12
ENDBRANCH   9  10
ENDBRANCH   8   9
ENDBRANCH   7   8
ENDBRANCH   4   7
ENDBRANCH   2   3
TORSDOF 12
ENDMDL
MODEL      291
REMARK 921   NORMALIZED FREE ENERGY PREDICTED BY IDOCK:   -3.60 KCAL/MOL
REMARK 922        TOTAL FREE ENERGY PREDICTED BY IDOCK:   -8.96 KCAL/MOL
REMARK 923 INTER-LIGAND FREE ENERGY PREDICTED BY IDOCK:   -7.34 KCAL/MOL
REMARK 924 INTRA-LIGAND FREE ENERGY PREDICTED BY IDOCK:   -1.62 KCAL/MOL
REMARK 927      BINDING AFFINITY PREDICTED BY RF-SCORE:    0.00 PKD
ROOT
HETATM    1  C   UNL     1      -9.855   2.694  62.841  1.00  0.00    -0.094 C  
HETATM    2  C   UNL     1     -10.106   3.937  63.673  1.00  0.00    -0.177 C  
ENDROOT
BRANCH   2   3
HETATM    3  N   UNL     1      -8.900   4.391  64.327  1.00  0.00    -0.144 N  
HETATM    4  C   UNL     1      -8.105   5.361  63.757  1.00  0.00    -0.121 C  
HETATM    5  H   UNL     1      -8.633   3.987  65.225  1.00  0.00     0.000 HD 
HETATM    6  O   UNL     1      -8.352   5.885  62.679  1.00  0.00    -0.111 OA 
BRANCH   4   7
HETATM    7  C   UNL     1      -6.900   5.723  64.604  1.00  0.00    -0.051 C  
BRANCH   7   8
HETATM    8  C   UNL     1      -6.992   7.168  65.102  1.00  0.00    -0.052 C  
BRANCH   8   9
HETATM    9  C   UNL     1      -8.158   7.412  66.058  1.00  0.00    -0.124 C  
BRANCH   9  10
HETATM   10  C   UNL     1      -9.057   8.519  65.586  1.00  0.00    -0.189 C  
HETATM   11  C   UNL     1      -9.688   9.431  66.343  1.00  0.00    -0.315 C  
BRANCH  11  12
HETATM   12  C   UNL     1      -9.664   9.530  67.844  1.00  0.00    -0.171 C  
BRANCH  12  13
HETATM   13  C   UNL     1      -9.083  10.854  68.359  1.00  0.00    -0.164 C  
HETATM   14  C   UNL     1      -7.707  10.742  69.034  1.00  0.00    -0.133 C  
HETATM   15  C   UNL     1      -7.141  12.151  68.919  1.00  0.00    -0.098 C  
HETATM   16  O   UNL     1      -6.846   9.854  68.330  1.00  0.00    -0.062 OA 
HETATM   17  H   UNL     1      -5.996   9.785  68.747  1.00  0.00     0.000 HD 
HETATM   18  C   UNL     1      -7.525  12.571  67.502  1.00  0.00    -0.151 C  
HETATM   19  O   UNL     1      -6.520  12.140  66.582  1.00  0.00    -0.413 OA 
HETATM   20  C   UNL     1      -8.853  11.846  67.187  1.00  0.00    -0.180 C  
HETATM   21  H   UNL     1      -6.759  12.402  65.700  1.00  0.00     0.000 HD 
BRANCH  20  22
HETATM   22  C   UNL     1     -10.001  12.821  67.039  1.00  0.00    -0.231 C  
HETATM   23  C   UNL     1     -10.366  13.358  65.862  1.00  0.00    -0.290 C  
BRANCH  23  24
HETATM   24  C   UNL     1     -11.427  14.402  65.624  1.00  0.00    -0.336 C  
HETATM   25  H   UNL     1     -12.824  15.308  66.672  1.00  0.00     0.000 HD 
HETATM   26  O   UNL     1     -12.155  14.651  66.823  1.00  0.00    -0.353 OA 
BRANCH  24  27
HETATM   27  C   UNL     1     -10.855  15.740  65.140  1.00  0.00    -0.444 C  
BRANCH  27  28
HETATM   28  C   UNL     1      -9.576  16.160  65.870  1.00  0.00    -0.359 C  
BRANCH  28  29
HETATM   29  C   UNL     1      -9.775  17.445  66.634  1.00  0.00    -0.296 A  
HETATM   30  C   UNL     1      -9.372  17.540  67.972  1.00  0.00    -0.272 A  
HETATM   31  C   UNL     1      -9.593  18.711  68.697  1.00  0.00    -0.407 A  
HETATM   32  C   UNL     1     -10.221  19.797  68.089  1.00  0.00    -0.577 A  
HETATM   33  C   UNL     1     -10.622  19.714  66.757  1.00  0.00    -0.602 A  
HETATM   34  C   UNL     1     -10.402  18.543  66.031  1.00  0.00    -0.423 A  
ENDBRANCH  28  29
ENDBRANCH  27  28
ENDBRANCH  24  27
ENDBRANCH  23  24
ENDBRANCH  20  22
ENDBRANCH  12  13
ENDBRANCH  11  12
ENDBRANCH   9  10
ENDBRANCH   8   9
ENDBRANCH   7   8
ENDBRANCH   4   7
ENDBRANCH   2   3
TORSDOF 12
ENDMDL
MODEL      292
REMARK 921   NORMALIZED FREE ENERGY PREDICTED BY IDOCK:   -3.58 KCAL/MOL
REMARK 922        TOTAL FREE ENERGY PREDICTED BY IDOCK:   -8.93 KCAL/MOL
REMARK 923 INTER-LIGAND FREE ENERGY PREDICTED BY IDOCK:   -6.59 KCAL/MOL
REMARK 924 INTRA-LIGAND FREE ENERGY PREDICTED BY IDOCK:   -2.35 KCAL/MOL
REMARK 927      BINDING AFFINITY PREDICTED BY RF-SCORE:    0.00 PKD
ROOT
HETATM    1  C   UNL     1      -9.881   3.113  72.553  1.00  0.00    -0.218 C  
HETATM    2  C   UNL     1     -10.823   4.260  72.871  1.00  0.00    -0.145 C  
ENDROOT
BRANCH   2   3
HETATM    3  N   UNL     1     -10.291   5.526  72.419  1.00  0.00    -0.199 N  
HETATM    4  C   UNL     1      -9.848   6.471  73.316  1.00  0.00    -0.174 C  
HETATM    5  H   UNL     1     -10.243   5.722  71.419  1.00  0.00     0.000 HD 
HETATM    6  O   UNL     1      -9.882   6.314  74.530  1.00  0.00    -0.256 OA 
BRANCH   4   7
HETATM    7  C   UNL     1      -9.301   7.720  72.652  1.00  0.00    -0.246 C  
BRANCH   7   8
HETATM    8  C   UNL     1      -7.811   7.568  72.336  1.00  0.00    -0.112 C  
BRANCH   8   9
HETATM    9  C   UNL     1      -7.411   8.152  70.982  1.00  0.00    -0.058 C  
BRANCH   9  10
HETATM   10  C   UNL     1      -7.891   9.565  70.809  1.00  0.00    -0.093 C  
HETATM   11  C   UNL     1      -7.831  10.312  69.695  1.00  0.00    -0.168 C  
BRANCH  11  12
HETATM   12  C   UNL     1      -7.236   9.913  68.373  1.00  0.00    -0.073 C  
BRANCH  12  13
HETATM   13  C   UNL     1      -8.173  10.159  67.182  1.00  0.00    -0.121 C  
HETATM   14  C   UNL     1      -8.840   8.900  66.608  1.00  0.00    -0.129 C  
HETATM   15  C   UNL     1     -10.071   9.445  65.896  1.00  0.00    -0.243 C  
HETATM   16  O   UNL     1      -9.272   8.017  67.637  1.00  0.00    -0.133 OA 
HETATM   17  H   UNL     1      -9.684   7.238  67.282  1.00  0.00     0.000 HD 
HETATM   18  C   UNL     1     -10.601  10.500  66.864  1.00  0.00    -0.243 C  
HETATM   19  O   UNL     1     -11.476   9.887  67.814  1.00  0.00    -0.553 OA 
HETATM   20  C   UNL     1      -9.363  11.065  67.599  1.00  0.00    -0.162 C  
HETATM   21  H   UNL     1     -11.806  10.544  68.417  1.00  0.00     0.000 HD 
BRANCH  20  22
HETATM   22  C   UNL     1      -9.119  12.516  67.246  1.00  0.00    -0.189 C  
HETATM   23  C   UNL     1      -9.490  13.540  68.035  1.00  0.00    -0.220 C  
BRANCH  23  24
HETATM   24  C   UNL     1      -9.376  15.012  67.734  1.00  0.00    -0.186 C  
HETATM   25  H   UNL     1      -8.367  16.555  68.425  1.00  0.00     0.000 HD 
HETATM   26  O   UNL     1      -8.438  15.627  68.614  1.00  0.00    -0.159 OA 
BRANCH  24  27
HETATM   27  C   UNL     1      -8.923  15.299  66.297  1.00  0.00    -0.314 C  
BRANCH  27  28
HETATM   28  C   UNL     1     -10.063  15.728  65.370  1.00  0.00    -0.337 C  
BRANCH  28  29
HETATM   29  C   UNL     1     -10.952  14.563  65.015  1.00  0.00    -0.408 A  
HETATM   30  C   UNL     1     -10.524  13.606  64.086  1.00  0.00     0.018 A  
HETATM   31  C   UNL     1     -11.361  12.550  63.721  1.00  0.00    -0.534 A  
HETATM   32  C   UNL     1     -12.631  12.443  64.282  1.00  0.00    -0.494 A  
HETATM   33  C   UNL     1     -13.064  13.388  65.211  1.00  0.00    -0.083 A  
HETATM   34  C   UNL     1     -12.230  14.444  65.577  1.00  0.00    -0.352 A  
ENDBRANCH  28  29
ENDBRANCH  27  28
ENDBRANCH  24  27
ENDBRANCH  23  24
ENDBRANCH  20  22
ENDBRANCH  12  13
ENDBRANCH  11  12
ENDBRANCH   9  10
ENDBRANCH   8   9
ENDBRANCH   7   8
ENDBRANCH   4   7
ENDBRANCH   2   3
TORSDOF 12
ENDMDL
MODEL      293
REMARK 921   NORMALIZED FREE ENERGY PREDICTED BY IDOCK:   -3.58 KCAL/MOL
REMARK 922        TOTAL FREE ENERGY PREDICTED BY IDOCK:   -8.92 KCAL/MOL
REMARK 923 INTER-LIGAND FREE ENERGY PREDICTED BY IDOCK:   -7.53 KCAL/MOL
REMARK 924 INTRA-LIGAND FREE ENERGY PREDICTED BY IDOCK:   -1.38 KCAL/MOL
REMARK 927      BINDING AFFINITY PREDICTED BY RF-SCORE:    0.00 PKD
ROOT
HETATM    1  C   UNL     1     -10.761  16.529  65.863  1.00  0.00    -0.194 C  
HETATM    2  C   UNL     1     -10.997  15.864  64.519  1.00  0.00    -0.179 C  
ENDROOT
BRANCH   2   3
HETATM    3  N   UNL     1     -10.621  14.468  64.544  1.00  0.00    -0.593 N  
HETATM    4  C   UNL     1     -11.574  13.479  64.642  1.00  0.00    -0.368 C  
HETATM    5  H   UNL     1      -9.636  14.213  64.488  1.00  0.00     0.000 HD 
HETATM    6  O   UNL     1     -12.774  13.707  64.724  1.00  0.00    -0.642 OA 
BRANCH   4   7
HETATM    7  C   UNL     1     -10.990  12.080  64.625  1.00  0.00    -0.367 C  
BRANCH   7   8
HETATM    8  C   UNL     1     -10.183  11.805  65.897  1.00  0.00    -0.272 C  
BRANCH   8   9
HETATM    9  C   UNL     1     -10.265  10.355  66.372  1.00  0.00    -0.292 C  
BRANCH   9  10
HETATM   10  C   UNL     1      -9.052   9.560  65.979  1.00  0.00    -0.220 C  
HETATM   11  C   UNL     1      -8.915   8.224  66.002  1.00  0.00    -0.224 C  
BRANCH  11  12
HETATM   12  C   UNL     1      -9.937   7.220  66.458  1.00  0.00    -0.182 C  
BRANCH  12  13
HETATM   13  C   UNL     1      -9.342   5.839  66.767  1.00  0.00    -0.140 C  
HETATM   14  C   UNL     1      -9.420   4.824  65.617  1.00  0.00    -0.167 C  
HETATM   15  C   UNL     1      -8.318   3.828  65.950  1.00  0.00    -0.109 C  
HETATM   16  O   UNL     1      -9.118   5.425  64.363  1.00  0.00    -0.362 OA 
HETATM   17  H   UNL     1      -9.167   4.797  63.652  1.00  0.00     0.000 HD 
HETATM   18  C   UNL     1      -7.168   4.716  66.418  1.00  0.00    -0.076 C  
HETATM   19  O   UNL     1      -6.391   5.133  65.293  1.00  0.00    -0.033 OA 
HETATM   20  C   UNL     1      -7.824   5.953  67.073  1.00  0.00    -0.102 C  
HETATM   21  H   UNL     1      -5.675   5.686  65.584  1.00  0.00     0.000 HD 
BRANCH  20  22
HETATM   22  C   UNL     1      -7.551   6.008  68.561  1.00  0.00    -0.091 C  
HETATM   23  C   UNL     1      -8.194   6.838  69.399  1.00  0.00    -0.128 C  
BRANCH  23  24
HETATM   24  C   UNL     1      -7.933   7.035  70.871  1.00  0.00    -0.097 C  
HETATM   25  H   UNL     1      -6.925   8.288  72.006  1.00  0.00     0.000 HD 
HETATM   26  O   UNL     1      -7.090   8.165  71.078  1.00  0.00    -0.051 OA 
BRANCH  24  27
HETATM   27  C   UNL     1      -9.215   7.255  71.684  1.00  0.00    -0.155 C  
BRANCH  27  28
HETATM   28  C   UNL     1      -9.790   8.667  71.550  1.00  0.00    -0.342 C  
BRANCH  28  29
HETATM   29  C   UNL     1     -11.298   8.649  71.540  1.00  0.00    -0.358 A  
HETATM   30  C   UNL     1     -12.015   9.760  71.077  1.00  0.00    -0.440 A  
HETATM   31  C   UNL     1     -13.409   9.765  71.107  1.00  0.00    -0.360 A  
HETATM   32  C   UNL     1     -14.099   8.660  71.600  1.00  0.00    -0.468 A  
HETATM   33  C   UNL     1     -13.395   7.548  72.059  1.00  0.00    -0.192 A  
HETATM   34  C   UNL     1     -12.001   7.541  72.030  1.00  0.00    -0.330 A  
ENDBRANCH  28  29
ENDBRANCH  27  28
ENDBRANCH  24  27
ENDBRANCH  23  24
ENDBRANCH  20  22
ENDBRANCH  12  13
ENDBRANCH  11  12
ENDBRANCH   9  10
ENDBRANCH   8   9
ENDBRANCH   7   8
ENDBRANCH   4   7
ENDBRANCH   2   3
TORSDOF 12
ENDMDL
MODEL      294
REMARK 921   NORMALIZED FREE ENERGY PREDICTED BY IDOCK:   -3.56 KCAL/MOL
REMARK 922        TOTAL FREE ENERGY PREDICTED BY IDOCK:   -8.89 KCAL/MOL
REMARK 923 INTER-LIGAND FREE ENERGY PREDICTED BY IDOCK:   -6.52 KCAL/MOL
REMARK 924 INTRA-LIGAND FREE ENERGY PREDICTED BY IDOCK:   -2.37 KCAL/MOL
REMARK 927      BINDING AFFINITY PREDICTED BY RF-SCORE:    0.00 PKD
ROOT
HETATM    1  C   UNL     1      -9.164  19.049  67.008  1.00  0.00    -0.330 C  
HETATM    2  C   UNL     1      -8.545  18.486  68.274  1.00  0.00    -0.318 C  
ENDROOT
BRANCH   2   3
HETATM    3  N   UNL     1      -8.007  17.162  68.058  1.00  0.00    -0.205 N  
HETATM    4  C   UNL     1      -6.822  16.773  68.643  1.00  0.00    -0.175 C  
HETATM    5  H   UNL     1      -8.513  16.505  67.464  1.00  0.00     0.000 HD 
HETATM    6  O   UNL     1      -6.154  17.506  69.359  1.00  0.00    -0.221 OA 
BRANCH   4   7
HETATM    7  C   UNL     1      -6.436  15.342  68.322  1.00  0.00    -0.120 C  
BRANCH   7   8
HETATM    8  C   UNL     1      -7.547  14.633  67.543  1.00  0.00    -0.215 C  
BRANCH   8   9
HETATM    9  C   UNL     1      -7.717  13.163  67.923  1.00  0.00    -0.147 C  
BRANCH   9  10
HETATM   10  C   UNL     1      -9.126  12.843  68.337  1.00  0.00    -0.126 C  
HETATM   11  C   UNL     1      -9.573  11.697  68.875  1.00  0.00    -0.006 C  
BRANCH  11  12
HETATM   12  C   UNL     1      -8.768  10.457  69.154  1.00  0.00    -0.173 C  
BRANCH  12  13
HETATM   13  C   UNL     1      -7.921   9.997  67.959  1.00  0.00    -0.101 C  
HETATM   14  C   UNL     1      -6.644   9.227  68.326  1.00  0.00    -0.059 C  
HETATM   15  C   UNL     1      -6.335   8.434  67.063  1.00  0.00    -0.057 C  
HETATM   16  O   UNL     1      -6.869   8.307  69.388  1.00  0.00    -0.042 OA 
HETATM   17  H   UNL     1      -6.080   7.831  69.615  1.00  0.00     0.000 HD 
HETATM   18  C   UNL     1      -7.705   7.934  66.615  1.00  0.00    -0.098 C  
HETATM   19  O   UNL     1      -8.004   6.696  67.265  1.00  0.00    -0.113 OA 
HETATM   20  C   UNL     1      -8.720   9.008  67.068  1.00  0.00    -0.124 C  
HETATM   21  H   UNL     1      -8.858   6.386  66.986  1.00  0.00     0.000 HD 
BRANCH  20  22
HETATM   22  C   UNL     1      -9.361   9.705  65.887  1.00  0.00    -0.275 C  
HETATM   23  C   UNL     1      -8.841   9.684  64.647  1.00  0.00    -0.253 C  
BRANCH  23  24
HETATM   24  C   UNL     1      -9.348  10.416  63.431  1.00  0.00    -0.300 C  
HETATM   25  H   UNL     1      -9.816   9.978  61.570  1.00  0.00     0.000 HD 
HETATM   26  O   UNL     1      -9.496   9.516  62.336  1.00  0.00    -0.158 OA 
BRANCH  24  27
HETATM   27  C   UNL     1     -10.704  11.096  63.661  1.00  0.00    -0.381 C  
BRANCH  27  28
HETATM   28  C   UNL     1     -10.631  12.626  63.654  1.00  0.00    -0.378 C  
BRANCH  28  29
HETATM   29  C   UNL     1     -11.098  13.205  64.966  1.00  0.00    -0.322 A  
HETATM   30  C   UNL     1     -10.720  14.501  65.340  1.00  0.00    -0.372 A  
HETATM   31  C   UNL     1     -11.112  15.025  66.572  1.00  0.00    -0.329 A  
HETATM   32  C   UNL     1     -11.884  14.257  67.441  1.00  0.00    -0.441 A  
HETATM   33  C   UNL     1     -12.269  12.968  67.077  1.00  0.00    -0.217 A  
HETATM   34  C   UNL     1     -11.877  12.442  65.845  1.00  0.00    -0.467 A  
ENDBRANCH  28  29
ENDBRANCH  27  28
ENDBRANCH  24  27
ENDBRANCH  23  24
ENDBRANCH  20  22
ENDBRANCH  12  13
ENDBRANCH  11  12
ENDBRANCH   9  10
ENDBRANCH   8   9
ENDBRANCH   7   8
ENDBRANCH   4   7
ENDBRANCH   2   3
TORSDOF 12
ENDMDL
MODEL      295
REMARK 921   NORMALIZED FREE ENERGY PREDICTED BY IDOCK:   -3.56 KCAL/MOL
REMARK 922        TOTAL FREE ENERGY PREDICTED BY IDOCK:   -8.88 KCAL/MOL
REMARK 923 INTER-LIGAND FREE ENERGY PREDICTED BY IDOCK:   -6.82 KCAL/MOL
REMARK 924 INTRA-LIGAND FREE ENERGY PREDICTED BY IDOCK:   -2.06 KCAL/MOL
REMARK 927      BINDING AFFINITY PREDICTED BY RF-SCORE:    0.00 PKD
ROOT
HETATM    1  C   UNL     1     -12.234  16.035  73.044  1.00  0.00    -0.637 C  
HETATM    2  C   UNL     1     -13.114  15.229  72.107  1.00  0.00    -0.381 C  
ENDROOT
BRANCH   2   3
HETATM    3  N   UNL     1     -12.456  14.020  71.667  1.00  0.00    -0.316 N  
HETATM    4  C   UNL     1     -12.907  12.781  72.065  1.00  0.00    -0.164 C  
HETATM    5  H   UNL     1     -11.644  14.085  71.054  1.00  0.00     0.000 HD 
HETATM    6  O   UNL     1     -13.867  12.622  72.808  1.00  0.00    -0.325 OA 
BRANCH   4   7
HETATM    7  C   UNL     1     -12.106  11.635  71.481  1.00  0.00     0.363 C  
BRANCH   7   8
HETATM    8  C   UNL     1     -11.944  11.791  69.966  1.00  0.00    -0.421 C  
BRANCH   8   9
HETATM    9  C   UNL     1     -10.908  10.845  69.361  1.00  0.00    -0.286 C  
BRANCH   9  10
HETATM   10  C   UNL     1     -11.427  10.142  68.139  1.00  0.00    -0.036 C  
HETATM   11  C   UNL     1     -10.753   9.875  67.009  1.00  0.00    -0.237 C  
BRANCH  11  12
HETATM   12  C   UNL     1      -9.330  10.249  66.697  1.00  0.00    -0.192 C  
BRANCH  12  13
HETATM   13  C   UNL     1      -9.206  11.337  65.620  1.00  0.00    -0.231 C  
HETATM   14  C   UNL     1      -8.665  10.853  64.267  1.00  0.00    -0.001 C  
HETATM   15  C   UNL     1      -9.170  11.906  63.289  1.00  0.00     0.175 C  
HETATM   16  O   UNL     1      -9.219   9.596  63.897  1.00  0.00    -0.366 OA 
HETATM   17  H   UNL     1      -8.885   9.297  63.059  1.00  0.00     0.000 HD 
HETATM   18  C   UNL     1     -10.600  12.165  63.755  1.00  0.00    -0.439 C  
HETATM   19  O   UNL     1     -11.486  11.230  63.136  1.00  0.00    -0.850 OA 
HETATM   20  C   UNL     1     -10.598  11.936  65.283  1.00  0.00    -0.320 C  
HETATM   21  H   UNL     1     -12.377  11.392  63.427  1.00  0.00     0.000 HD 
BRANCH  20  22
HETATM   22  C   UNL     1     -10.859  13.219  66.041  1.00  0.00    -0.284 C  
HETATM   23  C   UNL     1     -10.164  13.587  67.131  1.00  0.00    -0.247 C  
BRANCH  23  24
HETATM   24  C   UNL     1     -10.404  14.791  68.006  1.00  0.00    -0.237 C  
HETATM   25  H   UNL     1     -10.295  15.232  69.921  1.00  0.00     0.000 HD 
HETATM   26  O   UNL     1     -10.143  14.472  69.370  1.00  0.00    -0.131 OA 
BRANCH  24  27
HETATM   27  C   UNL     1      -9.524  15.991  67.632  1.00  0.00    -0.216 C  
BRANCH  27  28
HETATM   28  C   UNL     1      -8.056  15.622  67.393  1.00  0.00    -0.195 C  
BRANCH  28  29
HETATM   29  C   UNL     1      -7.128  16.672  67.952  1.00  0.00    -0.153 A  
HETATM   30  C   UNL     1      -7.332  17.180  69.241  1.00  0.00    -0.098 A  
HETATM   31  C   UNL     1      -6.503  18.182  69.746  1.00  0.00    -0.057 A  
HETATM   32  C   UNL     1      -5.464  18.685  68.965  1.00  0.00    -0.203 A  
HETATM   33  C   UNL     1      -5.251  18.183  67.682  1.00  0.00    -0.143 A  
HETATM   34  C   UNL     1      -6.079  17.181  67.176  1.00  0.00    -0.195 A  
ENDBRANCH  28  29
ENDBRANCH  27  28
ENDBRANCH  24  27
ENDBRANCH  23  24
ENDBRANCH  20  22
ENDBRANCH  12  13
ENDBRANCH  11  12
ENDBRANCH   9  10
ENDBRANCH   8   9
ENDBRANCH   7   8
ENDBRANCH   4   7
ENDBRANCH   2   3
TORSDOF 12
ENDMDL
MODEL      296
REMARK 921   NORMALIZED FREE ENERGY PREDICTED BY IDOCK:   -3.55 KCAL/MOL
REMARK 922        TOTAL FREE ENERGY PREDICTED BY IDOCK:   -8.88 KCAL/MOL
REMARK 923 INTER-LIGAND FREE ENERGY PREDICTED BY IDOCK:   -7.59 KCAL/MOL
REMARK 924 INTRA-LIGAND FREE ENERGY PREDICTED BY IDOCK:   -1.29 KCAL/MOL
REMARK 927      BINDING AFFINITY PREDICTED BY RF-SCORE:    0.00 PKD
ROOT
HETATM    1  C   UNL     1     -11.816  12.079  63.363  1.00  0.00    -0.542 C  
HETATM    2  C   UNL     1     -10.732  12.904  64.032  1.00  0.00    -0.399 C  
ENDROOT
BRANCH   2   3
HETATM    3  N   UNL     1      -9.710  12.066  64.616  1.00  0.00    -0.447 N  
HETATM    4  C   UNL     1      -8.950  11.224  63.835  1.00  0.00     0.092 C  
HETATM    5  H   UNL     1      -9.549  12.098  65.622  1.00  0.00     0.000 HD 
HETATM    6  O   UNL     1      -9.092  11.122  62.623  1.00  0.00    -0.319 OA 
BRANCH   4   7
HETATM    7  C   UNL     1      -7.914  10.447  64.622  1.00  0.00    -0.092 C  
BRANCH   7   8
HETATM    8  C   UNL     1      -8.532   9.208  65.274  1.00  0.00    -0.169 C  
BRANCH   8   9
HETATM    9  C   UNL     1      -8.154   9.038  66.745  1.00  0.00    -0.111 C  
BRANCH   9  10
HETATM   10  C   UNL     1      -9.336   8.672  67.597  1.00  0.00    -0.157 C  
HETATM   11  C   UNL     1     -10.060   7.543  67.539  1.00  0.00    -0.261 C  
BRANCH  11  12
HETATM   12  C   UNL     1      -9.869   6.398  66.582  1.00  0.00    -0.203 C  
BRANCH  12  13
HETATM   13  C   UNL     1     -10.083   5.021  67.227  1.00  0.00    -0.226 C  
HETATM   14  C   UNL     1      -9.578   3.830  66.400  1.00  0.00    -0.161 C  
HETATM   15  C   UNL     1      -9.381   2.736  67.441  1.00  0.00    -0.178 C  
HETATM   16  O   UNL     1      -8.320   4.104  65.795  1.00  0.00    -0.108 OA 
HETATM   17  H   UNL     1      -8.008   3.367  65.283  1.00  0.00     0.000 HD 
HETATM   18  C   UNL     1      -8.744   3.475  68.615  1.00  0.00    -0.100 C  
HETATM   19  O   UNL     1      -7.325   3.511  68.449  1.00  0.00    -0.050 OA 
HETATM   20  C   UNL     1      -9.303   4.915  68.565  1.00  0.00    -0.175 C  
HETATM   21  H   UNL     1      -6.929   3.972  69.180  1.00  0.00     0.000 HD 
BRANCH  20  22
HETATM   22  C   UNL     1     -10.185   5.213  69.758  1.00  0.00    -0.357 C  
HETATM   23  C   UNL     1      -9.837   4.923  71.024  1.00  0.00    -0.266 C  
BRANCH  23  24
HETATM   24  C   UNL     1     -10.676   5.093  72.265  1.00  0.00    -0.203 C  
HETATM   25  H   UNL     1     -10.375   5.465  74.174  1.00  0.00     0.000 HD 
HETATM   26  O   UNL     1      -9.846   5.357  73.392  1.00  0.00    -0.155 OA 
BRANCH  24  27
HETATM   27  C   UNL     1     -11.688   6.241  72.153  1.00  0.00    -0.368 C  
BRANCH  27  28
HETATM   28  C   UNL     1     -11.124   7.598  72.586  1.00  0.00    -0.412 C  
BRANCH  28  29
HETATM   29  C   UNL     1     -11.617   8.709  71.693  1.00  0.00    -0.379 A  
HETATM   30  C   UNL     1     -10.753   9.303  70.764  1.00  0.00    -0.350 A  
HETATM   31  C   UNL     1     -11.191  10.361  69.967  1.00  0.00    -0.385 A  
HETATM   32  C   UNL     1     -12.496  10.834  70.092  1.00  0.00    -0.357 A  
HETATM   33  C   UNL     1     -13.364  10.246  71.011  1.00  0.00    -0.299 A  
HETATM   34  C   UNL     1     -12.928   9.189  71.809  1.00  0.00    -0.448 A  
ENDBRANCH  28  29
ENDBRANCH  27  28
ENDBRANCH  24  27
ENDBRANCH  23  24
ENDBRANCH  20  22
ENDBRANCH  12  13
ENDBRANCH  11  12
ENDBRANCH   9  10
ENDBRANCH   8   9
ENDBRANCH   7   8
ENDBRANCH   4   7
ENDBRANCH   2   3
TORSDOF 12
ENDMDL
MODEL      297
REMARK 921   NORMALIZED FREE ENERGY PREDICTED BY IDOCK:   -3.54 KCAL/MOL
REMARK 922        TOTAL FREE ENERGY PREDICTED BY IDOCK:   -8.85 KCAL/MOL
REMARK 923 INTER-LIGAND FREE ENERGY PREDICTED BY IDOCK:   -6.79 KCAL/MOL
REMARK 924 INTRA-LIGAND FREE ENERGY PREDICTED BY IDOCK:   -2.07 KCAL/MOL
REMARK 927      BINDING AFFINITY PREDICTED BY RF-SCORE:    0.00 PKD
ROOT
HETATM    1  C   UNL     1      -9.473   6.995  71.327  1.00  0.00    -0.164 C  
HETATM    2  C   UNL     1     -10.659   7.492  70.521  1.00  0.00    -0.225 C  
ENDROOT
BRANCH   2   3
HETATM    3  N   UNL     1     -10.260   7.932  69.204  1.00  0.00    -0.212 N  
HETATM    4  C   UNL     1     -10.647   7.243  68.077  1.00  0.00    -0.189 C  
HETATM    5  H   UNL     1      -9.682   8.768  69.107  1.00  0.00     0.000 HD 
HETATM    6  O   UNL     1     -11.330   6.227  68.112  1.00  0.00    -0.278 OA 
BRANCH   4   7
HETATM    7  C   UNL     1     -10.154   7.872  66.789  1.00  0.00    -0.352 C  
BRANCH   7   8
HETATM    8  C   UNL     1      -8.637   8.077  66.821  1.00  0.00    -0.133 C  
BRANCH   8   9
HETATM    9  C   UNL     1      -8.202   9.488  66.428  1.00  0.00    -0.115 C  
BRANCH   9  10
HETATM   10  C   UNL     1      -8.218   9.693  64.940  1.00  0.00    -0.143 C  
HETATM   11  C   UNL     1      -9.100  10.413  64.229  1.00  0.00    -0.270 C  
BRANCH  11  12
HETATM   12  C   UNL     1     -10.297  11.154  64.760  1.00  0.00    -0.387 C  
BRANCH  12  13
HETATM   13  C   UNL     1     -10.053  12.659  64.938  1.00  0.00    -0.244 C  
HETATM   14  C   UNL     1     -11.094  13.570  64.270  1.00  0.00    -0.351 C  
HETATM   15  C   UNL     1     -10.968  14.876  65.042  1.00  0.00    -0.432 C  
HETATM   16  O   UNL     1     -12.417  13.074  64.443  1.00  0.00    -0.534 OA 
HETATM   17  H   UNL     1     -13.061  13.637  64.030  1.00  0.00     0.000 HD 
HETATM   18  C   UNL     1     -10.828  14.419  66.492  1.00  0.00    -0.310 C  
HETATM   19  O   UNL     1     -12.124  14.253  67.072  1.00  0.00    -0.434 OA 
HETATM   20  C   UNL     1     -10.112  13.050  66.440  1.00  0.00    -0.279 C  
HETATM   21  H   UNL     1     -12.037  13.968  67.975  1.00  0.00     0.000 HD 
BRANCH  20  22
HETATM   22  C   UNL     1      -8.733  13.118  67.060  1.00  0.00    -0.193 C  
HETATM   23  C   UNL     1      -8.476  12.758  68.329  1.00  0.00    -0.161 C  
BRANCH  23  24
HETATM   24  C   UNL     1      -7.165  12.874  69.065  1.00  0.00     0.017 C  
HETATM   25  H   UNL     1      -5.271  12.471  68.715  1.00  0.00     0.000 HD 
HETATM   26  O   UNL     1      -6.097  12.397  68.251  1.00  0.00    -0.050 OA 
BRANCH  24  27
HETATM   27  C   UNL     1      -6.831  14.314  69.474  1.00  0.00    -0.110 C  
BRANCH  27  28
HETATM   28  C   UNL     1      -5.812  14.992  68.554  1.00  0.00    -0.096 C  
BRANCH  28  29
HETATM   29  C   UNL     1      -5.833  16.491  68.720  1.00  0.00    -0.131 A  
HETATM   30  C   UNL     1      -5.768  17.061  69.998  1.00  0.00    -0.227 A  
HETATM   31  C   UNL     1      -5.831  18.445  70.159  1.00  0.00    -0.189 A  
HETATM   32  C   UNL     1      -5.961  19.271  69.045  1.00  0.00    -0.257 A  
HETATM   33  C   UNL     1      -6.022  18.713  67.769  1.00  0.00    -0.188 A  
HETATM   34  C   UNL     1      -5.959  17.330  67.605  1.00  0.00    -0.151 A  
ENDBRANCH  28  29
ENDBRANCH  27  28
ENDBRANCH  24  27
ENDBRANCH  23  24
ENDBRANCH  20  22
ENDBRANCH  12  13
ENDBRANCH  11  12
ENDBRANCH   9  10
ENDBRANCH   8   9
ENDBRANCH   7   8
ENDBRANCH   4   7
ENDBRANCH   2   3
TORSDOF 12
ENDMDL
MODEL      298
REMARK 921   NORMALIZED FREE ENERGY PREDICTED BY IDOCK:   -3.53 KCAL/MOL
REMARK 922        TOTAL FREE ENERGY PREDICTED BY IDOCK:   -8.85 KCAL/MOL
REMARK 923 INTER-LIGAND FREE ENERGY PREDICTED BY IDOCK:   -7.46 KCAL/MOL
REMARK 924 INTRA-LIGAND FREE ENERGY PREDICTED BY IDOCK:   -1.39 KCAL/MOL
REMARK 927      BINDING AFFINITY PREDICTED BY RF-SCORE:    0.00 PKD
ROOT
HETATM    1  C   UNL     1      -9.378   2.106  63.926  1.00  0.00    -0.114 C  
HETATM    2  C   UNL     1      -9.512   3.458  64.602  1.00  0.00    -0.154 C  
ENDROOT
BRANCH   2   3
HETATM    3  N   UNL     1      -9.702   3.321  66.029  1.00  0.00    -0.401 N  
HETATM    4  C   UNL     1      -8.721   3.706  66.916  1.00  0.00    -0.117 C  
HETATM    5  H   UNL     1     -10.576   2.934  66.385  1.00  0.00     0.000 HD 
HETATM    6  O   UNL     1      -7.642   4.168  66.566  1.00  0.00    -0.086 OA 
BRANCH   4   7
HETATM    7  C   UNL     1      -9.113   3.511  68.367  1.00  0.00    -0.201 C  
BRANCH   7   8
HETATM    8  C   UNL     1      -9.192   4.853  69.100  1.00  0.00    -0.166 C  
BRANCH   8   9
HETATM    9  C   UNL     1     -10.568   5.513  69.022  1.00  0.00    -0.271 C  
BRANCH   9  10
HETATM   10  C   UNL     1     -10.634   6.561  67.947  1.00  0.00    -0.313 C  
HETATM   11  C   UNL     1     -10.563   7.892  68.106  1.00  0.00    -0.179 C  
BRANCH  11  12
HETATM   12  C   UNL     1     -10.433   8.640  69.404  1.00  0.00    -0.224 C  
BRANCH  12  13
HETATM   13  C   UNL     1      -9.484   9.844  69.323  1.00  0.00    -0.218 C  
HETATM   14  C   UNL     1      -8.051   9.576  69.806  1.00  0.00    -0.140 C  
HETATM   15  C   UNL     1      -7.237  10.661  69.115  1.00  0.00    -0.102 C  
HETATM   16  O   UNL     1      -7.575   8.309  69.366  1.00  0.00    -0.091 OA 
HETATM   17  H   UNL     1      -6.688   8.144  69.665  1.00  0.00     0.000 HD 
HETATM   18  C   UNL     1      -7.822  10.699  67.706  1.00  0.00    -0.108 C  
HETATM   19  O   UNL     1      -7.159   9.738  66.881  1.00  0.00    -0.087 OA 
HETATM   20  C   UNL     1      -9.311  10.308  67.852  1.00  0.00    -0.147 C  
HETATM   21  H   UNL     1      -7.524   9.762  66.004  1.00  0.00     0.000 HD 
BRANCH  20  22
HETATM   22  C   UNL     1     -10.228  11.463  67.513  1.00  0.00    -0.210 C  
HETATM   23  C   UNL     1      -9.900  12.435  66.643  1.00  0.00    -0.231 C  
BRANCH  23  24
HETATM   24  C   UNL     1     -10.699  13.668  66.308  1.00  0.00    -0.285 C  
HETATM   25  H   UNL     1     -12.383  14.503  66.891  1.00  0.00     0.000 HD 
HETATM   26  O   UNL     1     -11.881  13.725  67.102  1.00  0.00    -0.363 OA 
BRANCH  24  27
HETATM   27  C   UNL     1      -9.920  14.969  66.540  1.00  0.00    -0.276 C  
BRANCH  27  28
HETATM   28  C   UNL     1     -10.468  16.161  65.750  1.00  0.00    -0.384 C  
BRANCH  28  29
HETATM   29  C   UNL     1     -10.410  17.432  66.559  1.00  0.00    -0.312 A  
HETATM   30  C   UNL     1     -10.364  18.676  65.916  1.00  0.00    -0.358 A  
HETATM   31  C   UNL     1     -10.265  19.853  66.660  1.00  0.00    -0.609 A  
HETATM   32  C   UNL     1     -10.210  19.795  68.051  1.00  0.00    -0.581 A  
HETATM   33  C   UNL     1     -10.260  18.562  68.699  1.00  0.00    -0.363 A  
HETATM   34  C   UNL     1     -10.359  17.385  67.958  1.00  0.00    -0.362 A  
ENDBRANCH  28  29
ENDBRANCH  27  28
ENDBRANCH  24  27
ENDBRANCH  23  24
ENDBRANCH  20  22
ENDBRANCH  12  13
ENDBRANCH  11  12
ENDBRANCH   9  10
ENDBRANCH   8   9
ENDBRANCH   7   8
ENDBRANCH   4   7
ENDBRANCH   2   3
TORSDOF 12
ENDMDL
MODEL      299
REMARK 921   NORMALIZED FREE ENERGY PREDICTED BY IDOCK:   -3.52 KCAL/MOL
REMARK 922        TOTAL FREE ENERGY PREDICTED BY IDOCK:   -8.83 KCAL/MOL
REMARK 923 INTER-LIGAND FREE ENERGY PREDICTED BY IDOCK:   -6.82 KCAL/MOL
REMARK 924 INTRA-LIGAND FREE ENERGY PREDICTED BY IDOCK:   -2.00 KCAL/MOL
REMARK 927      BINDING AFFINITY PREDICTED BY RF-SCORE:    0.00 PKD
ROOT
HETATM    1  C   UNL     1      -8.394   2.340  65.824  1.00  0.00    -0.094 C  
HETATM    2  C   UNL     1      -7.485   3.029  64.823  1.00  0.00    -0.075 C  
ENDROOT
BRANCH   2   3
HETATM    3  N   UNL     1      -7.764   4.445  64.738  1.00  0.00    -0.077 N  
HETATM    4  C   UNL     1      -7.958   5.059  63.521  1.00  0.00    -0.098 C  
HETATM    5  H   UNL     1      -7.817   4.998  65.593  1.00  0.00     0.000 HD 
HETATM    6  O   UNL     1      -7.899   4.465  62.452  1.00  0.00    -0.061 OA 
BRANCH   4   7
HETATM    7  C   UNL     1      -8.264   6.539  63.637  1.00  0.00     0.068 C  
BRANCH   7   8
HETATM    8  C   UNL     1      -7.722   7.310  62.431  1.00  0.00    -0.117 C  
BRANCH   8   9
HETATM    9  C   UNL     1      -8.088   8.793  62.438  1.00  0.00    -0.160 C  
BRANCH   9  10
HETATM   10  C   UNL     1      -7.542   9.506  63.642  1.00  0.00    -0.119 C  
HETATM   11  C   UNL     1      -8.236   9.968  64.696  1.00  0.00    -0.163 C  
BRANCH  11  12
HETATM   12  C   UNL     1      -9.725   9.904  64.893  1.00  0.00    -0.332 C  
BRANCH  12  13
HETATM   13  C   UNL     1     -10.142   9.798  66.367  1.00  0.00    -0.313 C  
HETATM   14  C   UNL     1     -10.637   8.412  66.805  1.00  0.00    -0.156 C  
HETATM   15  C   UNL     1     -10.429   8.424  68.314  1.00  0.00    -0.214 C  
HETATM   16  O   UNL     1      -9.843   7.369  66.251  1.00  0.00    -0.418 OA 
HETATM   17  H   UNL     1     -10.149   6.512  66.522  1.00  0.00     0.000 HD 
HETATM   18  C   UNL     1      -9.067   9.092  68.478  1.00  0.00    -0.132 C  
HETATM   19  O   UNL     1      -8.033   8.110  68.387  1.00  0.00    -0.119 OA 
HETATM   20  C   UNL     1      -8.935  10.085  67.300  1.00  0.00    -0.144 C  
HETATM   21  H   UNL     1      -7.185   8.527  68.489  1.00  0.00     0.000 HD 
BRANCH  20  22
HETATM   22  C   UNL     1      -8.920  11.521  67.779  1.00  0.00    -0.160 C  
HETATM   23  C   UNL     1      -9.622  12.503  67.188  1.00  0.00    -0.208 C  
BRANCH  23  24
HETATM   24  C   UNL     1      -9.604  13.971  67.528  1.00  0.00    -0.228 C  
HETATM   25  H   UNL     1     -10.237  15.650  66.719  1.00  0.00     0.000 HD 
HETATM   26  O   UNL     1     -10.249  14.725  66.504  1.00  0.00    -0.264 OA 
BRANCH  24  27
HETATM   27  C   UNL     1     -10.307  14.290  68.854  1.00  0.00    -0.218 C  
BRANCH  27  28
HETATM   28  C   UNL     1     -11.815  14.022  68.827  1.00  0.00    -0.396 C  
BRANCH  28  29
HETATM   29  C   UNL     1     -12.230  13.101  69.947  1.00  0.00    -0.293 A  
HETATM   30  C   UNL     1     -12.015  11.721  69.843  1.00  0.00    -0.405 A  
HETATM   31  C   UNL     1     -12.437  10.860  70.857  1.00  0.00    -0.507 A  
HETATM   32  C   UNL     1     -13.078  11.373  71.983  1.00  0.00    -0.423 A  
HETATM   33  C   UNL     1     -13.293  12.745  72.097  1.00  0.00    -0.593 A  
HETATM   34  C   UNL     1     -12.872  13.607  71.085  1.00  0.00    -0.399 A  
ENDBRANCH  28  29
ENDBRANCH  27  28
ENDBRANCH  24  27
ENDBRANCH  23  24
ENDBRANCH  20  22
ENDBRANCH  12  13
ENDBRANCH  11  12
ENDBRANCH   9  10
ENDBRANCH   8   9
ENDBRANCH   7   8
ENDBRANCH   4   7
ENDBRANCH   2   3
TORSDOF 12
ENDMDL
MODEL      300
REMARK 921   NORMALIZED FREE ENERGY PREDICTED BY IDOCK:   -3.51 KCAL/MOL
REMARK 922        TOTAL FREE ENERGY PREDICTED BY IDOCK:   -8.81 KCAL/MOL
REMARK 923 INTER-LIGAND FREE ENERGY PREDICTED BY IDOCK:   -7.34 KCAL/MOL
REMARK 924 INTRA-LIGAND FREE ENERGY PREDICTED BY IDOCK:   -1.47 KCAL/MOL
REMARK 927      BINDING AFFINITY PREDICTED BY RF-SCORE:    0.00 PKD
ROOT
HETATM    1  C   UNL     1      -7.816   1.971  67.036  1.00  0.00    -0.066 C  
HETATM    2  C   UNL     1      -6.821   2.813  66.259  1.00  0.00    -0.048 C  
ENDROOT
BRANCH   2   3
HETATM    3  N   UNL     1      -7.339   4.135  65.989  1.00  0.00    -0.078 N  
HETATM    4  C   UNL     1      -7.523   4.575  64.697  1.00  0.00    -0.072 C  
HETATM    5  H   UNL     1      -7.571   4.752  66.767  1.00  0.00     0.000 HD 
HETATM    6  O   UNL     1      -7.258   3.898  63.712  1.00  0.00    -0.049 OA 
BRANCH   4   7
HETATM    7  C   UNL     1      -8.099   5.975  64.617  1.00  0.00    -0.132 C  
BRANCH   7   8
HETATM    8  C   UNL     1      -7.526   6.739  63.420  1.00  0.00    -0.084 C  
BRANCH   8   9
HETATM    9  C   UNL     1      -7.842   8.233  63.440  1.00  0.00    -0.152 C  
BRANCH   9  10
HETATM   10  C   UNL     1      -7.456   8.878  64.742  1.00  0.00    -0.103 C  
HETATM   11  C   UNL     1      -8.281   9.295  65.716  1.00  0.00    -0.117 C  
BRANCH  11  12
HETATM   12  C   UNL     1      -9.784   9.243  65.710  1.00  0.00    -0.339 C  
BRANCH  12  13
HETATM   13  C   UNL     1     -10.431  10.151  66.766  1.00  0.00    -0.270 C  
HETATM   14  C   UNL     1     -10.909   9.433  68.036  1.00  0.00    -0.139 C  
HETATM   15  C   UNL     1     -10.954  10.545  69.075  1.00  0.00    -0.289 C  
HETATM   16  O   UNL     1      -9.975   8.451  68.470  1.00  0.00    -0.176 OA 
HETATM   17  H   UNL     1     -10.271   8.007  69.256  1.00  0.00     0.000 HD 
HETATM   18  C   UNL     1      -9.679  11.337  68.799  1.00  0.00    -0.174 C  
HETATM   19  O   UNL     1      -8.588  10.765  69.524  1.00  0.00    -0.373 OA 
HETATM   20  C   UNL     1      -9.413  11.203  67.283  1.00  0.00    -0.178 C  
HETATM   21  H   UNL     1      -7.794  11.258  69.352  1.00  0.00     0.000 HD 
BRANCH  20  22
HETATM   22  C   UNL     1      -9.561  12.529  66.570  1.00  0.00    -0.242 C  
HETATM   23  C   UNL     1     -10.679  12.897  65.919  1.00  0.00    -0.291 C  
BRANCH  23  24
HETATM   24  C   UNL     1     -10.893  14.148  65.106  1.00  0.00    -0.372 C  
HETATM   25  H   UNL     1     -12.400  15.320  64.628  1.00  0.00     0.000 HD 
HETATM   26  O   UNL     1     -12.265  14.532  65.141  1.00  0.00    -0.386 OA 
BRANCH  24  27
HETATM   27  C   UNL     1     -10.064  15.338  65.604  1.00  0.00    -0.401 C  
BRANCH  27  28
HETATM   28  C   UNL     1     -10.667  16.698  65.241  1.00  0.00    -0.219 C  
BRANCH  28  29
HETATM   29  C   UNL     1     -10.410  17.720  66.321  1.00  0.00    -0.358 A  
HETATM   30  C   UNL     1     -10.623  19.081  66.070  1.00  0.00    -0.499 A  
HETATM   31  C   UNL     1     -10.346  20.034  67.051  1.00  0.00    -0.555 A  
HETATM   32  C   UNL     1      -9.852  19.633  68.291  1.00  0.00    -0.521 A  
HETATM   33  C   UNL     1      -9.641  18.280  68.552  1.00  0.00    -0.358 A  
HETATM   34  C   UNL     1      -9.917  17.326  67.572  1.00  0.00    -0.296 A  
ENDBRANCH  28  29
ENDBRANCH  27  28
ENDBRANCH  24  27
ENDBRANCH  23  24
ENDBRANCH  20  22
ENDBRANCH  12  13
ENDBRANCH  11  12
ENDBRANCH   9  10
ENDBRANCH   8   9
ENDBRANCH   7   8
ENDBRANCH   4   7
ENDBRANCH   2   3
TORSDOF 12
ENDMDL
MODEL      301
REMARK 921   NORMALIZED FREE ENERGY PREDICTED BY IDOCK:   -3.51 KCAL/MOL
REMARK 922        TOTAL FREE ENERGY PREDICTED BY IDOCK:   -8.81 KCAL/MOL
REMARK 923 INTER-LIGAND FREE ENERGY PREDICTED BY IDOCK:   -7.83 KCAL/MOL
REMARK 924 INTRA-LIGAND FREE ENERGY PREDICTED BY IDOCK:   -0.98 KCAL/MOL
REMARK 927      BINDING AFFINITY PREDICTED BY RF-SCORE:    0.00 PKD
ROOT
HETATM    1  C   UNL     1     -12.587  10.693  70.347  1.00  0.00    -0.395 C  
HETATM    2  C   UNL     1     -13.077  11.667  71.402  1.00  0.00    -0.243 C  
ENDROOT
BRANCH   2   3
HETATM    3  N   UNL     1     -12.759  13.034  71.053  1.00  0.00    -0.309 N  
HETATM    4  C   UNL     1     -13.297  14.089  71.755  1.00  0.00    -0.386 C  
HETATM    5  H   UNL     1     -12.127  13.219  70.274  1.00  0.00     0.000 HD 
HETATM    6  O   UNL     1     -14.071  13.948  72.693  1.00  0.00    -0.679 OA 
BRANCH   4   7
HETATM    7  C   UNL     1     -12.826  15.442  71.258  1.00  0.00    -0.519 C  
BRANCH   7   8
HETATM    8  C   UNL     1     -12.196  15.329  69.868  1.00  0.00    -0.357 C  
BRANCH   8   9
HETATM    9  C   UNL     1     -11.126  14.243  69.768  1.00  0.00    -0.175 C  
BRANCH   9  10
HETATM   10  C   UNL     1      -9.793  14.797  69.351  1.00  0.00    -0.072 C  
HETATM   11  C   UNL     1      -8.801  14.141  68.727  1.00  0.00    -0.061 C  
BRANCH  11  12
HETATM   12  C   UNL     1      -8.788  12.690  68.333  1.00  0.00    -0.119 C  
BRANCH  12  13
HETATM   13  C   UNL     1      -8.405  12.459  66.864  1.00  0.00    -0.117 C  
HETATM   14  C   UNL     1      -7.948  11.032  66.527  1.00  0.00    -0.158 C  
HETATM   15  C   UNL     1      -8.189  10.929  65.027  1.00  0.00     0.081 C  
HETATM   16  O   UNL     1      -8.751  10.054  67.178  1.00  0.00    -0.128 OA 
HETATM   17  H   UNL     1      -8.468   9.171  66.969  1.00  0.00     0.000 HD 
HETATM   18  C   UNL     1      -9.540  11.613  64.838  1.00  0.00    -0.150 C  
HETATM   19  O   UNL     1     -10.592  10.663  65.027  1.00  0.00    -0.255 OA 
HETATM   20  C   UNL     1      -9.627  12.698  65.936  1.00  0.00    -0.158 C  
HETATM   21  H   UNL     1     -11.433  11.089  64.910  1.00  0.00     0.000 HD 
BRANCH  20  22
HETATM   22  C   UNL     1      -9.623  14.091  65.345  1.00  0.00     0.027 C  
HETATM   23  C   UNL     1     -10.671  14.929  65.425  1.00  0.00    -0.391 C  
BRANCH  23  24
HETATM   24  C   UNL     1     -10.802  16.292  64.796  1.00  0.00    -0.224 C  
HETATM   25  H   UNL     1     -12.007  17.188  63.523  1.00  0.00     0.000 HD 
HETATM   26  O   UNL     1     -11.925  16.328  63.919  1.00  0.00    -1.003 OA 
BRANCH  24  27
HETATM   27  C   UNL     1     -10.979  17.415  65.826  1.00  0.00     0.163 C  
BRANCH  27  28
HETATM   28  C   UNL     1     -10.252  17.154  67.148  1.00  0.00    -0.316 C  
BRANCH  28  29
HETATM   29  C   UNL     1      -9.140  18.148  67.370  1.00  0.00    -0.253 A  
HETATM   30  C   UNL     1      -8.993  19.246  66.512  1.00  0.00    -0.373 A  
HETATM   31  C   UNL     1      -7.939  20.143  66.687  1.00  0.00    -0.335 A  
HETATM   32  C   UNL     1      -7.023  19.950  67.719  1.00  0.00    -0.298 A  
HETATM   33  C   UNL     1      -7.164  18.862  68.580  1.00  0.00    -0.320 A  
HETATM   34  C   UNL     1      -8.216  17.964  68.407  1.00  0.00    -0.303 A  
ENDBRANCH  28  29
ENDBRANCH  27  28
ENDBRANCH  24  27
ENDBRANCH  23  24
ENDBRANCH  20  22
ENDBRANCH  12  13
ENDBRANCH  11  12
ENDBRANCH   9  10
ENDBRANCH   8   9
ENDBRANCH   7   8
ENDBRANCH   4   7
ENDBRANCH   2   3
TORSDOF 12
ENDMDL
MODEL      302
REMARK 921   NORMALIZED FREE ENERGY PREDICTED BY IDOCK:   -3.50 KCAL/MOL
REMARK 922        TOTAL FREE ENERGY PREDICTED BY IDOCK:   -8.78 KCAL/MOL
REMARK 923 INTER-LIGAND FREE ENERGY PREDICTED BY IDOCK:   -6.80 KCAL/MOL
REMARK 924 INTRA-LIGAND FREE ENERGY PREDICTED BY IDOCK:   -1.98 KCAL/MOL
REMARK 927      BINDING AFFINITY PREDICTED BY RF-SCORE:    0.00 PKD
ROOT
HETATM    1  C   UNL     1     -13.688  15.293  72.016  1.00  0.00    -0.596 C  
HETATM    2  C   UNL     1     -12.511  14.502  71.476  1.00  0.00    -0.355 C  
ENDROOT
BRANCH   2   3
HETATM    3  N   UNL     1     -12.661  14.221  70.066  1.00  0.00    -0.466 N  
HETATM    4  C   UNL     1     -11.915  14.894  69.124  1.00  0.00    -0.278 C  
HETATM    5  H   UNL     1     -13.331  13.514  69.764  1.00  0.00     0.000 HD 
HETATM    6  O   UNL     1     -11.100  15.763  69.408  1.00  0.00    -0.267 OA 
BRANCH   4   7
HETATM    7  C   UNL     1     -12.193  14.443  67.704  1.00  0.00    -0.200 C  
BRANCH   7   8
HETATM    8  C   UNL     1     -11.989  12.933  67.556  1.00  0.00    -0.354 C  
BRANCH   8   9
HETATM    9  C   UNL     1     -10.565  12.475  67.869  1.00  0.00    -0.233 C  
BRANCH   9  10
HETATM   10  C   UNL     1      -9.595  12.859  66.788  1.00  0.00    -0.246 C  
HETATM   11  C   UNL     1      -9.449  12.280  65.585  1.00  0.00    -0.078 C  
BRANCH  11  12
HETATM   12  C   UNL     1     -10.204  11.091  65.059  1.00  0.00    -0.360 C  
BRANCH  12  13
HETATM   13  C   UNL     1      -9.293   9.941  64.604  1.00  0.00    -0.338 C  
HETATM   14  C   UNL     1      -8.921   9.957  63.115  1.00  0.00    -0.258 C  
HETATM   15  C   UNL     1      -7.640   9.135  63.062  1.00  0.00    -0.105 C  
HETATM   16  O   UNL     1      -8.627  11.272  62.658  1.00  0.00    -0.451 OA 
HETATM   17  H   UNL     1      -8.397  11.282  61.737  1.00  0.00     0.000 HD 
HETATM   18  C   UNL     1      -6.864   9.610  64.288  1.00  0.00    -0.112 C  
HETATM   19  O   UNL     1      -6.086  10.761  63.951  1.00  0.00    -0.371 OA 
HETATM   20  C   UNL     1      -7.927  10.001  65.340  1.00  0.00    -0.141 C  
HETATM   21  H   UNL     1      -5.604  11.057  64.714  1.00  0.00     0.000 HD 
BRANCH  20  22
HETATM   22  C   UNL     1      -7.891   9.078  66.539  1.00  0.00    -0.100 C  
HETATM   23  C   UNL     1      -8.339   9.432  67.756  1.00  0.00    -0.115 C  
BRANCH  23  24
HETATM   24  C   UNL     1      -8.264   8.626  69.028  1.00  0.00    -0.122 C  
HETATM   25  H   UNL     1      -9.506   8.017  70.428  1.00  0.00     0.000 HD 
HETATM   26  O   UNL     1      -9.554   8.525  69.627  1.00  0.00    -0.167 OA 
BRANCH  24  27
HETATM   27  C   UNL     1      -7.741   7.202  68.806  1.00  0.00    -0.116 C  
BRANCH  27  28
HETATM   28  C   UNL     1      -8.728   6.113  69.237  1.00  0.00    -0.122 C  
BRANCH  28  29
HETATM   29  C   UNL     1      -8.913   5.079  68.155  1.00  0.00    -0.119 A  
HETATM   30  C   UNL     1      -9.686   5.372  67.023  1.00  0.00    -0.162 A  
HETATM   31  C   UNL     1      -9.897   4.404  66.041  1.00  0.00    -0.241 A  
HETATM   32  C   UNL     1      -9.338   3.135  66.182  1.00  0.00    -0.106 A  
HETATM   33  C   UNL     1      -8.565   2.836  67.302  1.00  0.00    -0.119 A  
HETATM   34  C   UNL     1      -8.353   3.802  68.285  1.00  0.00    -0.102 A  
ENDBRANCH  28  29
ENDBRANCH  27  28
ENDBRANCH  24  27
ENDBRANCH  23  24
ENDBRANCH  20  22
ENDBRANCH  12  13
ENDBRANCH  11  12
ENDBRANCH   9  10
ENDBRANCH   8   9
ENDBRANCH   7   8
ENDBRANCH   4   7
ENDBRANCH   2   3
TORSDOF 12
ENDMDL
MODEL      303
REMARK 921   NORMALIZED FREE ENERGY PREDICTED BY IDOCK:   -3.46 KCAL/MOL
REMARK 922        TOTAL FREE ENERGY PREDICTED BY IDOCK:   -8.73 KCAL/MOL
REMARK 923 INTER-LIGAND FREE ENERGY PREDICTED BY IDOCK:   -7.14 KCAL/MOL
REMARK 924 INTRA-LIGAND FREE ENERGY PREDICTED BY IDOCK:   -1.59 KCAL/MOL
REMARK 927      BINDING AFFINITY PREDICTED BY RF-SCORE:    0.00 PKD
ROOT
HETATM    1  C   UNL     1     -13.737   8.954  71.850  1.00  0.00    -0.488 C  
HETATM    2  C   UNL     1     -12.995  10.205  71.417  1.00  0.00    -0.429 C  
ENDROOT
BRANCH   2   3
HETATM    3  N   UNL     1     -11.664   9.897  70.944  1.00  0.00    -0.334 N  
HETATM    4  C   UNL     1     -11.260  10.257  69.678  1.00  0.00    -0.269 C  
HETATM    5  H   UNL     1     -11.015   9.406  71.557  1.00  0.00     0.000 HD 
HETATM    6  O   UNL     1     -11.985  10.839  68.881  1.00  0.00    -0.373 OA 
BRANCH   4   7
HETATM    7  C   UNL     1      -9.826   9.873  69.374  1.00  0.00    -0.231 C  
BRANCH   7   8
HETATM    8  C   UNL     1      -8.925  11.110  69.314  1.00  0.00     0.162 C  
BRANCH   8   9
HETATM    9  C   UNL     1      -7.433  10.783  69.348  1.00  0.00    -0.124 C  
BRANCH   9  10
HETATM   10  C   UNL     1      -7.094   9.592  68.496  1.00  0.00    -0.069 C  
HETATM   11  C   UNL     1      -6.629   9.602  67.237  1.00  0.00    -0.070 C  
BRANCH  11  12
HETATM   12  C   UNL     1      -6.373  10.810  66.379  1.00  0.00    -0.122 C  
BRANCH  12  13
HETATM   13  C   UNL     1      -7.357  10.948  65.208  1.00  0.00     0.222 C  
HETATM   14  C   UNL     1      -7.298   9.816  64.172  1.00  0.00    -0.128 C  
HETATM   15  C   UNL     1      -8.665   9.877  63.504  1.00  0.00    -0.223 C  
HETATM   16  O   UNL     1      -7.159   8.542  64.791  1.00  0.00    -0.078 OA 
HETATM   17  H   UNL     1      -7.122   7.842  64.150  1.00  0.00     0.000 HD 
HETATM   18  C   UNL     1      -9.619  10.110  64.672  1.00  0.00    -0.315 C  
HETATM   19  O   UNL     1     -10.003   8.855  65.240  1.00  0.00    -0.296 OA 
HETATM   20  C   UNL     1      -8.823  10.923  65.718  1.00  0.00    -0.202 C  
HETATM   21  H   UNL     1     -10.596   9.001  65.968  1.00  0.00     0.000 HD 
BRANCH  20  22
HETATM   22  C   UNL     1      -9.385  12.318  65.888  1.00  0.00    -0.098 C  
HETATM   23  C   UNL     1     -10.696  12.571  66.049  1.00  0.00    -0.292 C  
BRANCH  23  24
HETATM   24  C   UNL     1     -11.363  13.920  66.134  1.00  0.00    -0.320 C  
HETATM   25  H   UNL     1     -12.421  14.929  67.451  1.00  0.00     0.000 HD 
HETATM   26  O   UNL     1     -12.000  14.079  67.398  1.00  0.00    -0.388 OA 
BRANCH  24  27
HETATM   27  C   UNL     1     -10.383  15.087  65.956  1.00  0.00    -0.326 C  
BRANCH  27  28
HETATM   28  C   UNL     1     -10.538  16.183  67.014  1.00  0.00    -0.292 C  
BRANCH  28  29
HETATM   29  C   UNL     1      -9.583  17.324  66.768  1.00  0.00    -0.279 A  
HETATM   30  C   UNL     1     -10.035  18.648  66.834  1.00  0.00    -0.373 A  
HETATM   31  C   UNL     1      -9.166  19.706  66.564  1.00  0.00    -0.449 A  
HETATM   32  C   UNL     1      -7.839  19.448  66.225  1.00  0.00    -0.320 A  
HETATM   33  C   UNL     1      -7.380  18.134  66.162  1.00  0.00    -0.309 A  
HETATM   34  C   UNL     1      -8.246  17.075  66.431  1.00  0.00    -0.326 A  
ENDBRANCH  28  29
ENDBRANCH  27  28
ENDBRANCH  24  27
ENDBRANCH  23  24
ENDBRANCH  20  22
ENDBRANCH  12  13
ENDBRANCH  11  12
ENDBRANCH   9  10
ENDBRANCH   8   9
ENDBRANCH   7   8
ENDBRANCH   4   7
ENDBRANCH   2   3
TORSDOF 12
ENDMDL
MODEL      304
REMARK 921   NORMALIZED FREE ENERGY PREDICTED BY IDOCK:   -3.44 KCAL/MOL
REMARK 922        TOTAL FREE ENERGY PREDICTED BY IDOCK:   -8.69 KCAL/MOL
REMARK 923 INTER-LIGAND FREE ENERGY PREDICTED BY IDOCK:   -6.92 KCAL/MOL
REMARK 924 INTRA-LIGAND FREE ENERGY PREDICTED BY IDOCK:   -1.77 KCAL/MOL
REMARK 927      BINDING AFFINITY PREDICTED BY RF-SCORE:    0.00 PKD
ROOT
HETATM    1  C   UNL     1     -10.749   6.976  66.990  1.00  0.00    -0.423 C  
HETATM    2  C   UNL     1      -9.809   7.546  68.035  1.00  0.00    -0.151 C  
ENDROOT
BRANCH   2   3
HETATM    3  N   UNL     1      -8.651   8.164  67.430  1.00  0.00    -0.125 N  
HETATM    4  C   UNL     1      -7.640   8.688  68.203  1.00  0.00    -0.097 C  
HETATM    5  H   UNL     1      -8.582   8.212  66.413  1.00  0.00     0.000 HD 
HETATM    6  O   UNL     1      -7.656   8.677  69.428  1.00  0.00    -0.088 OA 
BRANCH   4   7
HETATM    7  C   UNL     1      -6.500   9.267  67.389  1.00  0.00    -0.063 C  
BRANCH   7   8
HETATM    8  C   UNL     1      -6.327  10.762  67.670  1.00  0.00    -0.056 C  
BRANCH   8   9
HETATM    9  C   UNL     1      -7.521  11.609  67.234  1.00  0.00    -0.143 C  
BRANCH   9  10
HETATM   10  C   UNL     1      -7.527  12.961  67.888  1.00  0.00    -0.131 C  
HETATM   11  C   UNL     1      -8.078  14.090  67.413  1.00  0.00    -0.199 C  
BRANCH  11  12
HETATM   12  C   UNL     1      -8.789  14.263  66.099  1.00  0.00     0.268 C  
BRANCH  12  13
HETATM   13  C   UNL     1     -10.266  13.848  66.144  1.00  0.00    -0.307 C  
HETATM   14  C   UNL     1     -10.791  13.173  64.868  1.00  0.00    -0.332 C  
HETATM   15  C   UNL     1     -12.001  12.388  65.357  1.00  0.00    -0.457 C  
HETATM   16  O   UNL     1      -9.847  12.253  64.332  1.00  0.00    -0.460 OA 
HETATM   17  H   UNL     1     -10.172  11.835  63.543  1.00  0.00     0.000 HD 
HETATM   18  C   UNL     1     -11.525  11.789  66.677  1.00  0.00    -0.267 C  
HETATM   19  O   UNL     1     -10.870  10.542  66.433  1.00  0.00    -0.146 OA 
HETATM   20  C   UNL     1     -10.507  12.796  67.259  1.00  0.00    -0.238 C  
HETATM   21  H   UNL     1     -10.573  10.169  67.255  1.00  0.00     0.000 HD 
BRANCH  20  22
HETATM   22  C   UNL     1     -11.017  13.432  68.535  1.00  0.00    -0.292 C  
HETATM   23  C   UNL     1     -11.562  14.660  68.580  1.00  0.00    -0.343 C  
BRANCH  23  24
HETATM   24  C   UNL     1     -12.013  15.415  69.804  1.00  0.00    -0.358 C  
HETATM   25  H   UNL     1     -12.148  15.083  71.740  1.00  0.00     0.000 HD 
HETATM   26  O   UNL     1     -11.863  14.607  70.968  1.00  0.00    -0.315 OA 
BRANCH  24  27
HETATM   27  C   UNL     1     -11.226  16.712  70.034  1.00  0.00    -0.020 C  
BRANCH  27  28
HETATM   28  C   UNL     1      -9.826  16.697  69.413  1.00  0.00    -0.124 C  
BRANCH  28  29
HETATM   29  C   UNL     1      -9.592  17.915  68.555  1.00  0.00    -0.327 A  
HETATM   30  C   UNL     1      -9.094  17.775  67.253  1.00  0.00    -0.246 A  
HETATM   31  C   UNL     1      -8.834  18.900  66.470  1.00  0.00    -0.324 A  
HETATM   32  C   UNL     1      -9.068  20.174  66.983  1.00  0.00    -0.481 A  
HETATM   33  C   UNL     1      -9.568  20.323  68.276  1.00  0.00    -0.239 A  
HETATM   34  C   UNL     1      -9.828  19.200  69.060  1.00  0.00    -0.437 A  
ENDBRANCH  28  29
ENDBRANCH  27  28
ENDBRANCH  24  27
ENDBRANCH  23  24
ENDBRANCH  20  22
ENDBRANCH  12  13
ENDBRANCH  11  12
ENDBRANCH   9  10
ENDBRANCH   8   9
ENDBRANCH   7   8
ENDBRANCH   4   7
ENDBRANCH   2   3
TORSDOF 12
ENDMDL
MODEL      305
REMARK 921   NORMALIZED FREE ENERGY PREDICTED BY IDOCK:   -3.44 KCAL/MOL
REMARK 922        TOTAL FREE ENERGY PREDICTED BY IDOCK:   -8.69 KCAL/MOL
REMARK 923 INTER-LIGAND FREE ENERGY PREDICTED BY IDOCK:   -6.03 KCAL/MOL
REMARK 924 INTRA-LIGAND FREE ENERGY PREDICTED BY IDOCK:   -2.66 KCAL/MOL
REMARK 927      BINDING AFFINITY PREDICTED BY RF-SCORE:    0.00 PKD
ROOT
HETATM    1  C   UNL     1      -6.142  14.110  73.513  1.00  0.00     0.477 C  
HETATM    2  C   UNL     1      -5.159  14.350  72.383  1.00  0.00    -0.216 C  
ENDROOT
BRANCH   2   3
HETATM    3  N   UNL     1      -5.615  13.757  71.146  1.00  0.00    -0.201 N  
HETATM    4  C   UNL     1      -5.582  12.393  70.958  1.00  0.00    -0.061 C  
HETATM    5  H   UNL     1      -5.966  14.358  70.400  1.00  0.00     0.000 HD 
HETATM    6  O   UNL     1      -5.164  11.609  71.800  1.00  0.00    -0.330 OA 
BRANCH   4   7
HETATM    7  C   UNL     1      -6.125  11.960  69.611  1.00  0.00    -0.124 C  
BRANCH   7   8
HETATM    8  C   UNL     1      -6.777  10.578  69.699  1.00  0.00    -0.108 C  
BRANCH   8   9
HETATM    9  C   UNL     1      -7.626  10.223  68.479  1.00  0.00    -0.089 C  
BRANCH   9  10
HETATM   10  C   UNL     1      -7.107  10.861  67.222  1.00  0.00    -0.097 C  
HETATM   11  C   UNL     1      -7.713  11.800  66.478  1.00  0.00     0.046 C  
BRANCH  11  12
HETATM   12  C   UNL     1      -9.069  12.405  66.719  1.00  0.00    -0.212 C  
BRANCH  12  13
HETATM   13  C   UNL     1     -10.170  11.811  65.828  1.00  0.00    -0.276 C  
HETATM   14  C   UNL     1     -10.855  12.812  64.886  1.00  0.00    -0.299 C  
HETATM   15  C   UNL     1     -11.429  11.927  63.787  1.00  0.00    -0.542 C  
HETATM   16  O   UNL     1      -9.919  13.707  64.297  1.00  0.00    -0.749 OA 
HETATM   17  H   UNL     1     -10.342  14.326  63.715  1.00  0.00     0.000 HD 
HETATM   18  C   UNL     1     -10.313  10.918  63.528  1.00  0.00    -0.277 C  
HETATM   19  O   UNL     1      -9.399  11.446  62.564  1.00  0.00    -0.482 OA 
HETATM   20  C   UNL     1      -9.583  10.732  64.877  1.00  0.00    -0.307 C  
HETATM   21  H   UNL     1      -8.705  10.818  62.402  1.00  0.00     0.000 HD 
BRANCH  20  22
HETATM   22  C   UNL     1      -9.771   9.334  65.426  1.00  0.00    -0.170 C  
HETATM   23  C   UNL     1      -8.776   8.433  65.505  1.00  0.00    -0.196 C  
BRANCH  23  24
HETATM   24  C   UNL     1      -8.878   6.996  65.947  1.00  0.00    -0.103 C  
HETATM   25  H   UNL     1      -8.015   5.283  65.505  1.00  0.00     0.000 HD 
HETATM   26  O   UNL     1      -7.950   6.189  65.226  1.00  0.00    -0.102 OA 
BRANCH  24  27
HETATM   27  C   UNL     1      -8.598   6.805  67.443  1.00  0.00    -0.120 C  
BRANCH  27  28
HETATM   28  C   UNL     1      -9.861   6.579  68.279  1.00  0.00    -0.132 C  
BRANCH  28  29
HETATM   29  C   UNL     1     -10.184   7.787  69.123  1.00  0.00    -0.210 A  
HETATM   30  C   UNL     1      -9.829   7.816  70.478  1.00  0.00    -0.182 A  
HETATM   31  C   UNL     1     -10.165   8.912  71.274  1.00  0.00    -0.361 A  
HETATM   32  C   UNL     1     -10.861   9.986  70.722  1.00  0.00    -0.330 A  
HETATM   33  C   UNL     1     -11.215   9.967  69.374  1.00  0.00    -0.235 A  
HETATM   34  C   UNL     1     -10.880   8.873  68.577  1.00  0.00    -0.038 A  
ENDBRANCH  28  29
ENDBRANCH  27  28
ENDBRANCH  24  27
ENDBRANCH  23  24
ENDBRANCH  20  22
ENDBRANCH  12  13
ENDBRANCH  11  12
ENDBRANCH   9  10
ENDBRANCH   8   9
ENDBRANCH   7   8
ENDBRANCH   4   7
ENDBRANCH   2   3
TORSDOF 12
ENDMDL
MODEL      306
REMARK 921   NORMALIZED FREE ENERGY PREDICTED BY IDOCK:   -3.42 KCAL/MOL
REMARK 922        TOTAL FREE ENERGY PREDICTED BY IDOCK:   -8.65 KCAL/MOL
REMARK 923 INTER-LIGAND FREE ENERGY PREDICTED BY IDOCK:   -6.34 KCAL/MOL
REMARK 924 INTRA-LIGAND FREE ENERGY PREDICTED BY IDOCK:   -2.31 KCAL/MOL
REMARK 927      BINDING AFFINITY PREDICTED BY RF-SCORE:    0.00 PKD
ROOT
HETATM    1  C   UNL     1     -10.757  16.594  65.875  1.00  0.00    -0.179 C  
HETATM    2  C   UNL     1     -11.068  15.822  64.607  1.00  0.00    -0.361 C  
ENDROOT
BRANCH   2   3
HETATM    3  N   UNL     1     -11.006  14.395  64.825  1.00  0.00    -0.472 N  
HETATM    4  C   UNL     1     -12.136  13.675  65.147  1.00  0.00    -0.403 C  
HETATM    5  H   UNL     1     -10.112  13.912  64.739  1.00  0.00     0.000 HD 
HETATM    6  O   UNL     1     -13.242  14.184  65.278  1.00  0.00    -0.760 OA 
BRANCH   4   7
HETATM    7  C   UNL     1     -11.876  12.191  65.309  1.00  0.00    -0.356 C  
BRANCH   7   8
HETATM    8  C   UNL     1     -10.846  11.930  66.411  1.00  0.00    -0.318 C  
BRANCH   8   9
HETATM    9  C   UNL     1     -10.939  10.529  67.015  1.00  0.00    -0.247 C  
BRANCH   9  10
HETATM   10  C   UNL     1      -9.945   9.581  66.406  1.00  0.00    -0.339 C  
HETATM   11  C   UNL     1      -9.846   8.260  66.622  1.00  0.00    -0.337 C  
BRANCH  11  12
HETATM   12  C   UNL     1     -10.692   7.432  67.550  1.00  0.00    -0.310 C  
BRANCH  12  13
HETATM   13  C   UNL     1     -10.100   6.045  67.842  1.00  0.00    -0.183 C  
HETATM   14  C   UNL     1     -10.617   4.915  66.940  1.00  0.00    -0.053 C  
HETATM   15  C   UNL     1      -9.522   3.861  67.031  1.00  0.00    -0.226 C  
HETATM   16  O   UNL     1     -10.726   5.331  65.583  1.00  0.00    -0.482 OA 
HETATM   17  H   UNL     1     -11.046   4.632  65.025  1.00  0.00     0.000 HD 
HETATM   18  C   UNL     1      -8.236   4.681  66.963  1.00  0.00    -0.106 C  
HETATM   19  O   UNL     1      -7.865   4.885  65.598  1.00  0.00    -0.093 OA 
HETATM   20  C   UNL     1      -8.565   6.045  67.613  1.00  0.00    -0.106 C  
HETATM   21  H   UNL     1      -7.065   5.396  65.556  1.00  0.00     0.000 HD 
BRANCH  20  22
HETATM   22  C   UNL     1      -7.802   6.247  68.904  1.00  0.00    -0.105 C  
HETATM   23  C   UNL     1      -8.107   7.201  69.800  1.00  0.00    -0.129 C  
BRANCH  23  24
HETATM   24  C   UNL     1      -7.358   7.542  71.063  1.00  0.00    -0.071 C  
HETATM   25  H   UNL     1      -5.681   7.000  71.941  1.00  0.00     0.000 HD 
HETATM   26  O   UNL     1      -6.153   6.785  71.145  1.00  0.00    -0.035 OA 
BRANCH  24  27
HETATM   27  C   UNL     1      -6.982   9.026  71.156  1.00  0.00    -0.096 C  
BRANCH  27  28
HETATM   28  C   UNL     1      -5.782   9.410  70.285  1.00  0.00    -0.036 C  
BRANCH  28  29
HETATM   29  C   UNL     1      -6.189  10.330  69.161  1.00  0.00    -0.040 A  
HETATM   30  C   UNL     1      -5.347  10.510  68.056  1.00  0.00    -0.037 A  
HETATM   31  C   UNL     1      -5.699  11.393  67.036  1.00  0.00    -0.106 A  
HETATM   32  C   UNL     1      -6.895  12.105  67.111  1.00  0.00    -0.119 A  
HETATM   33  C   UNL     1      -7.741  11.929  68.205  1.00  0.00    -0.126 A  
HETATM   34  C   UNL     1      -7.391  11.046  69.226  1.00  0.00    -0.113 A  
ENDBRANCH  28  29
ENDBRANCH  27  28
ENDBRANCH  24  27
ENDBRANCH  23  24
ENDBRANCH  20  22
ENDBRANCH  12  13
ENDBRANCH  11  12
ENDBRANCH   9  10
ENDBRANCH   8   9
ENDBRANCH   7   8
ENDBRANCH   4   7
ENDBRANCH   2   3
TORSDOF 12
ENDMDL
MODEL      307
REMARK 921   NORMALIZED FREE ENERGY PREDICTED BY IDOCK:   -3.41 KCAL/MOL
REMARK 922        TOTAL FREE ENERGY PREDICTED BY IDOCK:   -8.63 KCAL/MOL
REMARK 923 INTER-LIGAND FREE ENERGY PREDICTED BY IDOCK:   -7.74 KCAL/MOL
REMARK 924 INTRA-LIGAND FREE ENERGY PREDICTED BY IDOCK:   -0.90 KCAL/MOL
REMARK 927      BINDING AFFINITY PREDICTED BY RF-SCORE:    0.00 PKD
ROOT
HETATM    1  C   UNL     1     -13.142  10.842  71.738  1.00  0.00    -0.573 C  
HETATM    2  C   UNL     1     -12.789   9.369  71.647  1.00  0.00    -0.378 C  
ENDROOT
BRANCH   2   3
HETATM    3  N   UNL     1     -11.365   9.154  71.771  1.00  0.00    -0.370 N  
HETATM    4  C   UNL     1     -10.762   8.050  71.211  1.00  0.00    -0.229 C  
HETATM    5  H   UNL     1     -10.798   9.831  72.282  1.00  0.00     0.000 HD 
HETATM    6  O   UNL     1     -11.376   7.190  70.594  1.00  0.00    -0.272 OA 
BRANCH   4   7
HETATM    7  C   UNL     1      -9.261   8.014  71.425  1.00  0.00    -0.180 C  
BRANCH   7   8
HETATM    8  C   UNL     1      -8.599   9.288  70.896  1.00  0.00    -0.220 C  
BRANCH   8   9
HETATM    9  C   UNL     1      -7.080   9.180  70.769  1.00  0.00    -0.103 C  
BRANCH   9  10
HETATM   10  C   UNL     1      -6.617   9.340  69.349  1.00  0.00    -0.044 C  
HETATM   11  C   UNL     1      -6.999  10.282  68.472  1.00  0.00    -0.066 C  
BRANCH  11  12
HETATM   12  C   UNL     1      -8.006  11.375  68.703  1.00  0.00    -0.141 C  
BRANCH  12  13
HETATM   13  C   UNL     1      -8.970  11.576  67.526  1.00  0.00    -0.159 C  
HETATM   14  C   UNL     1      -9.579  10.287  66.955  1.00  0.00    -0.173 C  
HETATM   15  C   UNL     1     -10.845  10.771  66.262  1.00  0.00    -0.143 C  
HETATM   16  O   UNL     1      -9.951   9.379  67.985  1.00  0.00    -0.162 OA 
HETATM   17  H   UNL     1     -10.327   8.581  67.632  1.00  0.00     0.000 HD 
HETATM   18  C   UNL     1     -11.416  11.793  67.242  1.00  0.00    -0.303 C  
HETATM   19  O   UNL     1     -12.246  11.132  68.200  1.00  0.00    -0.708 OA 
HETATM   20  C   UNL     1     -10.200  12.418  67.962  1.00  0.00    -0.219 C  
HETATM   21  H   UNL     1     -12.601  11.768  68.810  1.00  0.00     0.000 HD 
BRANCH  20  22
HETATM   22  C   UNL     1     -10.035  13.881  67.613  1.00  0.00    -0.237 C  
HETATM   23  C   UNL     1      -9.894  14.849  68.536  1.00  0.00    -0.217 C  
BRANCH  23  24
HETATM   24  C   UNL     1      -9.817  16.335  68.297  1.00  0.00    -0.227 C  
HETATM   25  H   UNL     1     -10.577  17.968  69.090  1.00  0.00     0.000 HD 
HETATM   26  O   UNL     1     -10.626  17.031  69.241  1.00  0.00    -0.331 OA 
BRANCH  24  27
HETATM   27  C   UNL     1      -8.390  16.888  68.409  1.00  0.00    -0.238 C  
BRANCH  27  28
HETATM   28  C   UNL     1      -7.690  17.054  67.057  1.00  0.00    -0.219 C  
BRANCH  28  29
HETATM   29  C   UNL     1      -7.189  18.464  66.867  1.00  0.00    -0.225 A  
HETATM   30  C   UNL     1      -7.180  19.361  67.943  1.00  0.00    -0.291 A  
HETATM   31  C   UNL     1      -6.759  20.679  67.762  1.00  0.00    -0.373 A  
HETATM   32  C   UNL     1      -6.344  21.110  66.503  1.00  0.00    -0.340 A  
HETATM   33  C   UNL     1      -6.345  20.224  65.428  1.00  0.00    -0.284 A  
HETATM   34  C   UNL     1      -6.766  18.906  65.607  1.00  0.00    -0.310 A  
ENDBRANCH  28  29
ENDBRANCH  27  28
ENDBRANCH  24  27
ENDBRANCH  23  24
ENDBRANCH  20  22
ENDBRANCH  12  13
ENDBRANCH  11  12
ENDBRANCH   9  10
ENDBRANCH   8   9
ENDBRANCH   7   8
ENDBRANCH   4   7
ENDBRANCH   2   3
TORSDOF 12
ENDMDL
MODEL      308
REMARK 921   NORMALIZED FREE ENERGY PREDICTED BY IDOCK:   -3.39 KCAL/MOL
REMARK 922        TOTAL FREE ENERGY PREDICTED BY IDOCK:   -8.60 KCAL/MOL
REMARK 923 INTER-LIGAND FREE ENERGY PREDICTED BY IDOCK:   -6.58 KCAL/MOL
REMARK 924 INTRA-LIGAND FREE ENERGY PREDICTED BY IDOCK:   -2.03 KCAL/MOL
REMARK 927      BINDING AFFINITY PREDICTED BY RF-SCORE:    0.00 PKD
ROOT
HETATM    1  C   UNL     1      -6.184  10.766  66.008  1.00  0.00    -0.134 C  
HETATM    2  C   UNL     1      -7.481  10.535  66.760  1.00  0.00    -0.115 C  
ENDROOT
BRANCH   2   3
HETATM    3  N   UNL     1      -7.850   9.137  66.768  1.00  0.00    -0.100 N  
HETATM    4  C   UNL     1      -8.880   8.670  65.984  1.00  0.00    -0.178 C  
HETATM    5  H   UNL     1      -7.338   8.487  67.365  1.00  0.00     0.000 HD 
HETATM    6  O   UNL     1      -9.547   9.389  65.252  1.00  0.00    -0.269 OA 
BRANCH   4   7
HETATM    7  C   UNL     1      -9.098   7.175  66.108  1.00  0.00    -0.155 C  
BRANCH   7   8
HETATM    8  C   UNL     1      -9.798   6.828  67.425  1.00  0.00    -0.174 C  
BRANCH   8   9
HETATM    9  C   UNL     1      -9.829   5.330  67.725  1.00  0.00    -0.187 C  
BRANCH   9  10
HETATM   10  C   UNL     1      -8.619   4.879  68.493  1.00  0.00    -0.099 C  
HETATM   11  C   UNL     1      -8.598   4.255  69.682  1.00  0.00    -0.103 C  
BRANCH  11  12
HETATM   12  C   UNL     1      -9.786   3.894  70.532  1.00  0.00    -0.247 C  
BRANCH  12  13
HETATM   13  C   UNL     1     -10.289   5.054  71.403  1.00  0.00    -0.251 C  
HETATM   14  C   UNL     1     -11.052   4.633  72.668  1.00  0.00    -0.064 C  
HETATM   15  C   UNL     1     -10.922   5.847  73.578  1.00  0.00    -0.172 C  
HETATM   16  O   UNL     1     -10.435   3.523  73.311  1.00  0.00    -0.155 OA 
HETATM   17  H   UNL     1     -10.907   3.263  74.093  1.00  0.00     0.000 HD 
HETATM   18  C   UNL     1      -9.470   6.279  73.388  1.00  0.00    -0.139 C  
HETATM   19  O   UNL     1      -8.630   5.563  74.296  1.00  0.00    -0.118 OA 
HETATM   20  C   UNL     1      -9.099   5.895  71.937  1.00  0.00    -0.142 C  
HETATM   21  H   UNL     1      -7.727   5.831  74.177  1.00  0.00     0.000 HD 
BRANCH  20  22
HETATM   22  C   UNL     1      -8.845   7.119  71.083  1.00  0.00    -0.144 C  
HETATM   23  C   UNL     1      -9.251   8.354  71.425  1.00  0.00    -0.242 C  
BRANCH  23  24
HETATM   24  C   UNL     1      -9.130   9.615  70.608  1.00  0.00    -0.063 C  
HETATM   25  H   UNL     1      -7.867  10.377  69.303  1.00  0.00     0.000 HD 
HETATM   26  O   UNL     1      -7.943   9.582  69.819  1.00  0.00    -0.101 OA 
BRANCH  24  27
HETATM   27  C   UNL     1     -10.315   9.831  69.657  1.00  0.00    -0.259 C  
BRANCH  27  28
HETATM   28  C   UNL     1     -11.664   9.933  70.374  1.00  0.00    -0.333 C  
BRANCH  28  29
HETATM   29  C   UNL     1     -12.070  11.371  70.580  1.00  0.00    -0.487 A  
HETATM   30  C   UNL     1     -12.881  11.727  71.665  1.00  0.00    -0.433 A  
HETATM   31  C   UNL     1     -13.297  13.048  71.834  1.00  0.00    -0.539 A  
HETATM   32  C   UNL     1     -12.905  14.024  70.920  1.00  0.00    -0.389 A  
HETATM   33  C   UNL     1     -12.094  13.680  69.840  1.00  0.00    -0.406 A  
HETATM   34  C   UNL     1     -11.678  12.360  69.668  1.00  0.00    -0.377 A  
ENDBRANCH  28  29
ENDBRANCH  27  28
ENDBRANCH  24  27
ENDBRANCH  23  24
ENDBRANCH  20  22
ENDBRANCH  12  13
ENDBRANCH  11  12
ENDBRANCH   9  10
ENDBRANCH   8   9
ENDBRANCH   7   8
ENDBRANCH   4   7
ENDBRANCH   2   3
TORSDOF 12
ENDMDL
MODEL      309
REMARK 921   NORMALIZED FREE ENERGY PREDICTED BY IDOCK:   -3.38 KCAL/MOL
REMARK 922        TOTAL FREE ENERGY PREDICTED BY IDOCK:   -8.59 KCAL/MOL
REMARK 923 INTER-LIGAND FREE ENERGY PREDICTED BY IDOCK:   -6.54 KCAL/MOL
REMARK 924 INTRA-LIGAND FREE ENERGY PREDICTED BY IDOCK:   -2.05 KCAL/MOL
REMARK 927      BINDING AFFINITY PREDICTED BY RF-SCORE:    0.00 PKD
ROOT
HETATM    1  C   UNL     1     -10.182   8.916  72.325  1.00  0.00    -0.196 C  
HETATM    2  C   UNL     1     -11.350   8.156  71.725  1.00  0.00    -0.278 C  
ENDROOT
BRANCH   2   3
HETATM    3  N   UNL     1     -10.909   7.185  70.749  1.00  0.00    -0.239 N  
HETATM    4  C   UNL     1     -10.502   5.927  71.134  1.00  0.00    -0.233 C  
HETATM    5  H   UNL     1     -10.898   7.436  69.761  1.00  0.00     0.000 HD 
HETATM    6  O   UNL     1     -10.476   5.556  72.300  1.00  0.00    -0.202 OA 
BRANCH   4   7
HETATM    7  C   UNL     1     -10.102   5.044  69.969  1.00  0.00    -0.342 C  
BRANCH   7   8
HETATM    8  C   UNL     1      -9.163   3.923  70.424  1.00  0.00    -0.209 C  
BRANCH   8   9
HETATM    9  C   UNL     1      -9.519   2.555  69.844  1.00  0.00    -0.133 C  
BRANCH   9  10
HETATM   10  C   UNL     1      -8.441   2.023  68.943  1.00  0.00    -0.087 C  
HETATM   11  C   UNL     1      -8.170   2.411  67.686  1.00  0.00    -0.074 C  
BRANCH  11  12
HETATM   12  C   UNL     1      -8.907   3.447  66.883  1.00  0.00    -0.149 C  
BRANCH  12  13
HETATM   13  C   UNL     1      -7.980   4.380  66.092  1.00  0.00    -0.099 C  
HETATM   14  C   UNL     1      -7.251   3.724  64.910  1.00  0.00    -0.067 C  
HETATM   15  C   UNL     1      -6.901   4.903  64.012  1.00  0.00    -0.048 C  
HETATM   16  O   UNL     1      -8.106   2.847  64.185  1.00  0.00    -0.081 OA 
HETATM   17  H   UNL     1      -7.655   2.441  63.454  1.00  0.00     0.000 HD 
HETATM   18  C   UNL     1      -8.161   5.764  64.052  1.00  0.00    -0.084 C  
HETATM   19  O   UNL     1      -9.077   5.326  63.045  1.00  0.00    -0.342 OA 
HETATM   20  C   UNL     1      -8.788   5.538  65.447  1.00  0.00    -0.131 C  
HETATM   21  H   UNL     1      -9.861   5.862  63.070  1.00  0.00     0.000 HD 
BRANCH  20  22
HETATM   22  C   UNL     1      -8.744   6.795  66.289  1.00  0.00    -0.152 C  
HETATM   23  C   UNL     1      -9.844   7.405  66.763  1.00  0.00    -0.290 C  
BRANCH  23  24
HETATM   24  C   UNL     1      -9.913   8.702  67.527  1.00  0.00    -0.199 C  
HETATM   25  H   UNL     1      -9.237   9.411  69.235  1.00  0.00     0.000 HD 
HETATM   26  O   UNL     1      -9.194   8.593  68.753  1.00  0.00    -0.142 OA 
BRANCH  24  27
HETATM   27  C   UNL     1      -9.330   9.889  66.750  1.00  0.00    -0.187 C  
BRANCH  27  28
HETATM   28  C   UNL     1     -10.187  10.319  65.556  1.00  0.00    -0.308 C  
BRANCH  28  29
HETATM   29  C   UNL     1     -10.700  11.728  65.726  1.00  0.00    -0.328 A  
HETATM   30  C   UNL     1     -11.389  12.093  66.890  1.00  0.00    -0.402 A  
HETATM   31  C   UNL     1     -11.903  13.382  67.032  1.00  0.00    -0.443 A  
HETATM   32  C   UNL     1     -11.734  14.316  66.012  1.00  0.00    -0.384 A  
HETATM   33  C   UNL     1     -11.046  13.963  64.852  1.00  0.00    -0.370 A  
HETATM   34  C   UNL     1     -10.531  12.675  64.708  1.00  0.00    -0.343 A  
ENDBRANCH  28  29
ENDBRANCH  27  28
ENDBRANCH  24  27
ENDBRANCH  23  24
ENDBRANCH  20  22
ENDBRANCH  12  13
ENDBRANCH  11  12
ENDBRANCH   9  10
ENDBRANCH   8   9
ENDBRANCH   7   8
ENDBRANCH   4   7
ENDBRANCH   2   3
TORSDOF 12
ENDMDL
MODEL      310
REMARK 921   NORMALIZED FREE ENERGY PREDICTED BY IDOCK:   -3.37 KCAL/MOL
REMARK 922        TOTAL FREE ENERGY PREDICTED BY IDOCK:   -8.56 KCAL/MOL
REMARK 923 INTER-LIGAND FREE ENERGY PREDICTED BY IDOCK:   -8.01 KCAL/MOL
REMARK 924 INTRA-LIGAND FREE ENERGY PREDICTED BY IDOCK:   -0.56 KCAL/MOL
REMARK 927      BINDING AFFINITY PREDICTED BY RF-SCORE:    0.00 PKD
ROOT
HETATM    1  C   UNL     1      -7.540  12.634  68.301  1.00  0.00    -0.133 C  
HETATM    2  C   UNL     1      -6.059  12.310  68.366  1.00  0.00    -0.052 C  
ENDROOT
BRANCH   2   3
HETATM    3  N   UNL     1      -5.799  10.935  68.004  1.00  0.00    -0.046 N  
HETATM    4  C   UNL     1      -5.425  10.597  66.722  1.00  0.00    -0.051 C  
HETATM    5  H   UNL     1      -5.895  10.204  68.708  1.00  0.00     0.000 HD 
HETATM    6  O   UNL     1      -5.300  11.415  65.820  1.00  0.00    -0.267 OA 
BRANCH   4   7
HETATM    7  C   UNL     1      -5.171   9.113  66.543  1.00  0.00    -0.037 C  
BRANCH   7   8
HETATM    8  C   UNL     1      -6.339   8.438  65.819  1.00  0.00    -0.052 C  
BRANCH   8   9
HETATM    9  C   UNL     1      -7.707   8.798  66.396  1.00  0.00    -0.099 C  
BRANCH   9  10
HETATM   10  C   UNL     1      -8.790   8.762  65.355  1.00  0.00    -0.221 C  
HETATM   11  C   UNL     1      -9.890   9.530  65.301  1.00  0.00    -0.179 C  
BRANCH  11  12
HETATM   12  C   UNL     1     -10.305  10.581  66.293  1.00  0.00    -0.276 C  
BRANCH  12  13
HETATM   13  C   UNL     1     -10.289  12.004  65.717  1.00  0.00    -0.289 C  
HETATM   14  C   UNL     1     -10.675  12.111  64.235  1.00  0.00    -0.338 C  
HETATM   15  C   UNL     1     -11.126  13.559  64.091  1.00  0.00    -0.302 C  
HETATM   16  O   UNL     1     -11.774  11.266  63.914  1.00  0.00    -0.377 OA 
HETATM   17  H   UNL     1     -12.013  11.332  62.997  1.00  0.00     0.000 HD 
HETATM   18  C   UNL     1     -11.947  13.800  65.354  1.00  0.00    -0.379 C  
HETATM   19  O   UNL     1     -13.303  13.403  65.133  1.00  0.00    -0.611 OA 
HETATM   20  C   UNL     1     -11.323  12.903  66.447  1.00  0.00    -0.361 C  
HETATM   21  H   UNL     1     -13.814  13.553  65.919  1.00  0.00     0.000 HD 
BRANCH  20  22
HETATM   22  C   UNL     1     -10.682  13.724  67.545  1.00  0.00    -0.262 C  
HETATM   23  C   UNL     1     -11.307  14.738  68.169  1.00  0.00    -0.324 C  
BRANCH  23  24
HETATM   24  C   UNL     1     -10.729  15.670  69.203  1.00  0.00    -0.243 C  
HETATM   25  H   UNL     1     -10.776  15.865  71.161  1.00  0.00     0.000 HD 
HETATM   26  O   UNL     1     -11.141  15.277  70.509  1.00  0.00    -0.286 OA 
BRANCH  24  27
HETATM   27  C   UNL     1      -9.195  15.705  69.190  1.00  0.00    -0.254 C  
BRANCH  27  28
HETATM   28  C   UNL     1      -8.607  16.269  67.893  1.00  0.00    -0.173 C  
BRANCH  28  29
HETATM   29  C   UNL     1      -8.961  17.724  67.715  1.00  0.00    -0.249 A  
HETATM   30  C   UNL     1     -10.111  18.249  68.317  1.00  0.00    -0.406 A  
HETATM   31  C   UNL     1     -10.467  19.584  68.119  1.00  0.00    -0.497 A  
HETATM   32  C   UNL     1      -9.676  20.404  67.317  1.00  0.00    -0.602 A  
HETATM   33  C   UNL     1      -8.527  19.891  66.716  1.00  0.00    -0.377 A  
HETATM   34  C   UNL     1      -8.170  18.557  66.913  1.00  0.00    -0.266 A  
ENDBRANCH  28  29
ENDBRANCH  27  28
ENDBRANCH  24  27
ENDBRANCH  23  24
ENDBRANCH  20  22
ENDBRANCH  12  13
ENDBRANCH  11  12
ENDBRANCH   9  10
ENDBRANCH   8   9
ENDBRANCH   7   8
ENDBRANCH   4   7
ENDBRANCH   2   3
TORSDOF 12
ENDMDL
MODEL      311
REMARK 921   NORMALIZED FREE ENERGY PREDICTED BY IDOCK:   -3.35 KCAL/MOL
REMARK 922        TOTAL FREE ENERGY PREDICTED BY IDOCK:   -8.54 KCAL/MOL
REMARK 923 INTER-LIGAND FREE ENERGY PREDICTED BY IDOCK:   -6.71 KCAL/MOL
REMARK 924 INTRA-LIGAND FREE ENERGY PREDICTED BY IDOCK:   -1.83 KCAL/MOL
REMARK 927      BINDING AFFINITY PREDICTED BY RF-SCORE:    0.00 PKD
ROOT
HETATM    1  C   UNL     1     -14.350  14.474  71.959  1.00  0.00    -0.639 C  
HETATM    2  C   UNL     1     -13.527  13.247  72.304  1.00  0.00    -0.582 C  
ENDROOT
BRANCH   2   3
HETATM    3  N   UNL     1     -12.866  12.705  71.139  1.00  0.00    -0.287 N  
HETATM    4  C   UNL     1     -12.718  11.346  70.975  1.00  0.00    -0.349 C  
HETATM    5  H   UNL     1     -12.504  13.339  70.426  1.00  0.00     0.000 HD 
HETATM    6  O   UNL     1     -13.115  10.523  71.790  1.00  0.00    -0.432 OA 
BRANCH   4   7
HETATM    7  C   UNL     1     -12.025  10.969  69.680  1.00  0.00    -0.424 C  
BRANCH   7   8
HETATM    8  C   UNL     1     -11.421  12.201  69.000  1.00  0.00    -0.351 C  
BRANCH   8   9
HETATM    9  C   UNL     1      -9.907  12.118  68.816  1.00  0.00    -0.034 C  
BRANCH   9  10
HETATM   10  C   UNL     1      -9.458  12.731  67.520  1.00  0.00    -0.187 C  
HETATM   11  C   UNL     1      -9.559  12.197  66.292  1.00  0.00    -0.246 C  
BRANCH  11  12
HETATM   12  C   UNL     1     -10.117  10.845  65.939  1.00  0.00    -0.307 C  
BRANCH  12  13
HETATM   13  C   UNL     1      -9.045   9.752  65.829  1.00  0.00    -0.221 C  
HETATM   14  C   UNL     1      -8.755   9.267  64.401  1.00  0.00    -0.181 C  
HETATM   15  C   UNL     1      -7.356   8.676  64.506  1.00  0.00    -0.099 C  
HETATM   16  O   UNL     1      -8.715  10.348  63.475  1.00  0.00    -0.175 OA 
HETATM   17  H   UNL     1      -8.536  10.048  62.592  1.00  0.00     0.000 HD 
HETATM   18  C   UNL     1      -6.614   9.676  65.389  1.00  0.00    -0.082 C  
HETATM   19  O   UNL     1      -6.064  10.719  64.580  1.00  0.00    -0.369 OA 
HETATM   20  C   UNL     1      -7.675  10.273  66.341  1.00  0.00    -0.116 C  
HETATM   21  H   UNL     1      -5.603  11.342  65.130  1.00  0.00     0.000 HD 
BRANCH  20  22
HETATM   22  C   UNL     1      -7.422   9.876  67.779  1.00  0.00    -0.090 C  
HETATM   23  C   UNL     1      -6.492  10.461  68.554  1.00  0.00    -0.051 C  
BRANCH  23  24
HETATM   24  C   UNL     1      -6.101  10.080  69.959  1.00  0.00    -0.059 C  
HETATM   25  H   UNL     1      -5.567  11.005  71.612  1.00  0.00     0.000 HD 
HETATM   26  O   UNL     1      -5.814  11.246  70.727  1.00  0.00    -0.274 OA 
BRANCH  24  27
HETATM   27  C   UNL     1      -7.195   9.295  70.695  1.00  0.00    -0.120 C  
BRANCH  27  28
HETATM   28  C   UNL     1      -6.765   7.883  71.103  1.00  0.00    -0.041 C  
BRANCH  28  29
HETATM   29  C   UNL     1      -7.958   7.018  71.426  1.00  0.00    -0.103 A  
HETATM   30  C   UNL     1      -8.851   6.641  70.415  1.00  0.00    -0.152 A  
HETATM   31  C   UNL     1      -9.980   5.878  70.716  1.00  0.00    -0.241 A  
HETATM   32  C   UNL     1     -10.224   5.485  72.030  1.00  0.00    -0.249 A  
HETATM   33  C   UNL     1      -9.338   5.851  73.043  1.00  0.00    -0.140 A  
HETATM   34  C   UNL     1      -8.210   6.614  72.744  1.00  0.00    -0.108 A  
ENDBRANCH  28  29
ENDBRANCH  27  28
ENDBRANCH  24  27
ENDBRANCH  23  24
ENDBRANCH  20  22
ENDBRANCH  12  13
ENDBRANCH  11  12
ENDBRANCH   9  10
ENDBRANCH   8   9
ENDBRANCH   7   8
ENDBRANCH   4   7
ENDBRANCH   2   3
TORSDOF 12
ENDMDL
MODEL      312
REMARK 921   NORMALIZED FREE ENERGY PREDICTED BY IDOCK:   -3.35 KCAL/MOL
REMARK 922        TOTAL FREE ENERGY PREDICTED BY IDOCK:   -8.53 KCAL/MOL
REMARK 923 INTER-LIGAND FREE ENERGY PREDICTED BY IDOCK:   -6.86 KCAL/MOL
REMARK 924 INTRA-LIGAND FREE ENERGY PREDICTED BY IDOCK:   -1.67 KCAL/MOL
REMARK 927      BINDING AFFINITY PREDICTED BY RF-SCORE:    0.00 PKD
ROOT
HETATM    1  C   UNL     1      -8.893  19.342  66.494  1.00  0.00    -0.367 C  
HETATM    2  C   UNL     1      -8.316  19.300  67.897  1.00  0.00    -0.303 C  
ENDROOT
BRANCH   2   3
HETATM    3  N   UNL     1      -8.308  17.956  68.429  1.00  0.00    -0.297 N  
HETATM    4  C   UNL     1      -7.211  17.464  69.099  1.00  0.00    -0.175 C  
HETATM    5  H   UNL     1      -9.128  17.362  68.305  1.00  0.00     0.000 HD 
HETATM    6  O   UNL     1      -6.186  18.111  69.278  1.00  0.00    -0.235 OA 
BRANCH   4   7
HETATM    7  C   UNL     1      -7.402  16.048  69.605  1.00  0.00    -0.039 C  
BRANCH   7   8
HETATM    8  C   UNL     1      -8.240  15.222  68.626  1.00  0.00    -0.159 C  
BRANCH   8   9
HETATM    9  C   UNL     1      -9.454  14.555  69.272  1.00  0.00     0.069 C  
BRANCH   9  10
HETATM   10  C   UNL     1     -10.599  14.407  68.311  1.00  0.00    -0.243 C  
HETATM   11  C   UNL     1     -11.851  14.013  68.594  1.00  0.00    -0.396 C  
BRANCH  11  12
HETATM   12  C   UNL     1     -12.383  13.597  69.938  1.00  0.00    -0.310 C  
BRANCH  12  13
HETATM   13  C   UNL     1     -11.870  12.226  70.401  1.00  0.00    -0.259 C  
HETATM   14  C   UNL     1     -12.359  11.783  71.788  1.00  0.00     0.319 C  
HETATM   15  C   UNL     1     -12.208  10.268  71.748  1.00  0.00    -0.282 C  
HETATM   16  O   UNL     1     -13.734  12.091  71.985  1.00  0.00    -0.250 OA 
HETATM   17  H   UNL     1     -14.036  11.818  72.843  1.00  0.00     0.000 HD 
HETATM   18  C   UNL     1     -12.705   9.900  70.352  1.00  0.00     0.034 C  
HETATM   19  O   UNL     1     -14.122   9.714  70.377  1.00  0.00    -0.236 OA 
HETATM   20  C   UNL     1     -12.363  11.105  69.446  1.00  0.00    -0.224 C  
HETATM   21  H   UNL     1     -14.431   9.485  69.508  1.00  0.00     0.000 HD 
BRANCH  20  22
HETATM   22  C   UNL     1     -11.319  10.746  68.411  1.00  0.00    -0.367 C  
HETATM   23  C   UNL     1     -10.293   9.913  68.655  1.00  0.00    -0.217 C  
BRANCH  23  24
HETATM   24  C   UNL     1      -9.157   9.565  67.727  1.00  0.00    -0.125 C  
HETATM   25  H   UNL     1      -7.969   8.028  67.409  1.00  0.00     0.000 HD 
HETATM   26  O   UNL     1      -8.685   8.247  67.994  1.00  0.00    -0.134 OA 
BRANCH  24  27
HETATM   27  C   UNL     1      -9.551   9.627  66.246  1.00  0.00    -0.281 C  
BRANCH  27  28
HETATM   28  C   UNL     1      -9.096  10.911  65.545  1.00  0.00    -0.221 C  
BRANCH  28  29
HETATM   29  C   UNL     1     -10.258  11.631  64.907  1.00  0.00    -0.315 A  
HETATM   30  C   UNL     1     -11.130  12.397  65.692  1.00  0.00    -0.343 A  
HETATM   31  C   UNL     1     -12.231  13.029  65.114  1.00  0.00    -0.507 A  
HETATM   32  C   UNL     1     -12.470  12.900  63.748  1.00  0.00    -0.434 A  
HETATM   33  C   UNL     1     -11.606  12.143  62.958  1.00  0.00    -0.074 A  
HETATM   34  C   UNL     1     -10.504  11.511  63.534  1.00  0.00    -0.486 A  
ENDBRANCH  28  29
ENDBRANCH  27  28
ENDBRANCH  24  27
ENDBRANCH  23  24
ENDBRANCH  20  22
ENDBRANCH  12  13
ENDBRANCH  11  12
ENDBRANCH   9  10
ENDBRANCH   8   9
ENDBRANCH   7   8
ENDBRANCH   4   7
ENDBRANCH   2   3
TORSDOF 12
ENDMDL
MODEL      313
REMARK 921   NORMALIZED FREE ENERGY PREDICTED BY IDOCK:   -3.35 KCAL/MOL
REMARK 922        TOTAL FREE ENERGY PREDICTED BY IDOCK:   -8.53 KCAL/MOL
REMARK 923 INTER-LIGAND FREE ENERGY PREDICTED BY IDOCK:   -6.56 KCAL/MOL
REMARK 924 INTRA-LIGAND FREE ENERGY PREDICTED BY IDOCK:   -1.97 KCAL/MOL
REMARK 927      BINDING AFFINITY PREDICTED BY RF-SCORE:    0.00 PKD
ROOT
HETATM    1  C   UNL     1      -9.274   1.511  64.287  1.00  0.00    -0.121 C  
HETATM    2  C   UNL     1      -8.735   2.929  64.251  1.00  0.00    -0.095 C  
ENDROOT
BRANCH   2   3
HETATM    3  N   UNL     1      -9.154   3.686  65.409  1.00  0.00    -0.140 N  
HETATM    4  C   UNL     1     -10.373   4.327  65.435  1.00  0.00    -0.197 C  
HETATM    5  H   UNL     1      -8.538   3.747  66.219  1.00  0.00     0.000 HD 
HETATM    6  O   UNL     1     -11.162   4.309  64.499  1.00  0.00    -0.280 OA 
BRANCH   4   7
HETATM    7  C   UNL     1     -10.646   5.045  66.742  1.00  0.00    -0.220 C  
BRANCH   7   8
HETATM    8  C   UNL     1      -9.572   6.099  67.025  1.00  0.00    -0.153 C  
BRANCH   8   9
HETATM    9  C   UNL     1      -9.914   7.483  66.474  1.00  0.00    -0.209 C  
BRANCH   9  10
HETATM   10  C   UNL     1      -8.729   8.145  65.830  1.00  0.00    -0.183 C  
HETATM   11  C   UNL     1      -7.797   8.902  66.430  1.00  0.00    -0.103 C  
BRANCH  11  12
HETATM   12  C   UNL     1      -7.747   9.287  67.883  1.00  0.00    -0.088 C  
BRANCH  12  13
HETATM   13  C   UNL     1      -8.224  10.722  68.152  1.00  0.00    -0.119 C  
HETATM   14  C   UNL     1      -7.344  11.529  69.118  1.00  0.00    -0.057 C  
HETATM   15  C   UNL     1      -7.671  12.975  68.768  1.00  0.00     0.004 C  
HETATM   16  O   UNL     1      -5.959  11.312  68.876  1.00  0.00    -0.043 OA 
HETATM   17  H   UNL     1      -5.415  11.811  69.474  1.00  0.00     0.000 HD 
HETATM   18  C   UNL     1      -7.727  12.966  67.243  1.00  0.00    -0.117 C  
HETATM   19  O   UNL     1      -6.417  13.180  66.711  1.00  0.00    -0.321 OA 
HETATM   20  C   UNL     1      -8.218  11.556  66.843  1.00  0.00    -0.167 C  
HETATM   21  H   UNL     1      -6.452  13.174  65.761  1.00  0.00     0.000 HD 
BRANCH  20  22
HETATM   22  C   UNL     1      -9.586  11.604  66.198  1.00  0.00    -0.252 C  
HETATM   23  C   UNL     1      -9.883  12.398  65.154  1.00  0.00    -0.157 C  
BRANCH  23  24
HETATM   24  C   UNL     1     -11.230  12.586  64.503  1.00  0.00    -0.325 C  
HETATM   25  H   UNL     1     -12.547  11.471  63.557  1.00  0.00     0.000 HD 
HETATM   26  O   UNL     1     -11.698  11.351  63.967  1.00  0.00    -0.222 OA 
BRANCH  24  27
HETATM   27  C   UNL     1     -12.298  13.108  65.473  1.00  0.00    -0.529 C  
BRANCH  27  28
HETATM   28  C   UNL     1     -11.887  14.388  66.205  1.00  0.00    -0.391 C  
BRANCH  28  29
HETATM   29  C   UNL     1     -11.915  14.199  67.702  1.00  0.00    -0.405 A  
HETATM   30  C   UNL     1     -11.958  12.910  68.249  1.00  0.00    -0.297 A  
HETATM   31  C   UNL     1     -12.028  12.731  69.631  1.00  0.00    -0.354 A  
HETATM   32  C   UNL     1     -12.057  13.838  70.476  1.00  0.00    -0.416 A  
HETATM   33  C   UNL     1     -12.011  15.124  69.941  1.00  0.00    -0.372 A  
HETATM   34  C   UNL     1     -11.940  15.305  68.560  1.00  0.00    -0.228 A  
ENDBRANCH  28  29
ENDBRANCH  27  28
ENDBRANCH  24  27
ENDBRANCH  23  24
ENDBRANCH  20  22
ENDBRANCH  12  13
ENDBRANCH  11  12
ENDBRANCH   9  10
ENDBRANCH   8   9
ENDBRANCH   7   8
ENDBRANCH   4   7
ENDBRANCH   2   3
TORSDOF 12
ENDMDL
MODEL      314
REMARK 921   NORMALIZED FREE ENERGY PREDICTED BY IDOCK:   -3.34 KCAL/MOL
REMARK 922        TOTAL FREE ENERGY PREDICTED BY IDOCK:   -8.52 KCAL/MOL
REMARK 923 INTER-LIGAND FREE ENERGY PREDICTED BY IDOCK:   -5.34 KCAL/MOL
REMARK 924 INTRA-LIGAND FREE ENERGY PREDICTED BY IDOCK:   -3.18 KCAL/MOL
REMARK 927      BINDING AFFINITY PREDICTED BY RF-SCORE:    0.00 PKD
ROOT
HETATM    1  C   UNL     1     -14.311   8.782  72.038  1.00  0.00    -0.466 C  
HETATM    2  C   UNL     1     -12.948   9.425  71.859  1.00  0.00    -0.417 C  
ENDROOT
BRANCH   2   3
HETATM    3  N   UNL     1     -12.169   8.746  70.848  1.00  0.00    -0.470 N  
HETATM    4  C   UNL     1     -11.228   9.423  70.104  1.00  0.00    -0.219 C  
HETATM    5  H   UNL     1     -12.318   7.751  70.683  1.00  0.00     0.000 HD 
HETATM    6  O   UNL     1     -10.999  10.618  70.237  1.00  0.00    -0.273 OA 
BRANCH   4   7
HETATM    7  C   UNL     1     -10.495   8.538  69.115  1.00  0.00    -0.217 C  
BRANCH   7   8
HETATM    8  C   UNL     1      -9.050   8.296  69.558  1.00  0.00    -0.154 C  
BRANCH   8   9
HETATM    9  C   UNL     1      -8.890   7.100  70.496  1.00  0.00    -0.154 C  
BRANCH   9  10
HETATM   10  C   UNL     1      -7.635   6.323  70.215  1.00  0.00    -0.096 C  
HETATM   11  C   UNL     1      -7.508   5.244  69.426  1.00  0.00    -0.065 C  
BRANCH  11  12
HETATM   12  C   UNL     1      -8.604   4.546  68.668  1.00  0.00    -0.101 C  
BRANCH  12  13
HETATM   13  C   UNL     1      -8.386   4.538  67.149  1.00  0.00    -0.105 C  
HETATM   14  C   UNL     1      -8.632   3.185  66.464  1.00  0.00    -0.119 C  
HETATM   15  C   UNL     1      -8.911   3.568  65.017  1.00  0.00    -0.133 C  
HETATM   16  O   UNL     1      -9.785   2.533  66.985  1.00  0.00    -0.396 OA 
HETATM   17  H   UNL     1      -9.938   1.697  66.561  1.00  0.00     0.000 HD 
HETATM   18  C   UNL     1      -9.805   4.799  65.142  1.00  0.00    -0.018 C  
HETATM   19  O   UNL     1     -11.172   4.394  65.251  1.00  0.00    -0.869 OA 
HETATM   20  C   UNL     1      -9.375   5.507  66.447  1.00  0.00    -0.161 C  
HETATM   21  H   UNL     1     -11.728   5.160  65.330  1.00  0.00     0.000 HD 
BRANCH  20  22
HETATM   22  C   UNL     1      -8.744   6.854  66.169  1.00  0.00    -0.153 C  
HETATM   23  C   UNL     1      -8.487   7.307  64.930  1.00  0.00     0.057 C  
BRANCH  23  24
HETATM   24  C   UNL     1      -7.782   8.585  64.552  1.00  0.00    -0.126 C  
HETATM   25  H   UNL     1      -8.252  10.484  64.330  1.00  0.00     0.000 HD 
HETATM   26  O   UNL     1      -8.696   9.679  64.569  1.00  0.00    -0.174 OA 
BRANCH  24  27
HETATM   27  C   UNL     1      -6.623   8.933  65.494  1.00  0.00    -0.068 C  
BRANCH  27  28
HETATM   28  C   UNL     1      -6.675  10.368  66.025  1.00  0.00    -0.124 C  
BRANCH  28  29
HETATM   29  C   UNL     1      -6.557  10.403  67.529  1.00  0.00    -0.066 A  
HETATM   30  C   UNL     1      -5.758   9.464  68.195  1.00  0.00    -0.037 A  
HETATM   31  C   UNL     1      -5.681   9.464  69.588  1.00  0.00    -0.033 A  
HETATM   32  C   UNL     1      -6.401  10.401  70.326  1.00  0.00    -0.132 A  
HETATM   33  C   UNL     1      -7.196  11.341  69.671  1.00  0.00     0.030 A  
HETATM   34  C   UNL     1      -7.275  11.343  68.279  1.00  0.00    -0.082 A  
ENDBRANCH  28  29
ENDBRANCH  27  28
ENDBRANCH  24  27
ENDBRANCH  23  24
ENDBRANCH  20  22
ENDBRANCH  12  13
ENDBRANCH  11  12
ENDBRANCH   9  10
ENDBRANCH   8   9
ENDBRANCH   7   8
ENDBRANCH   4   7
ENDBRANCH   2   3
TORSDOF 12
ENDMDL
MODEL      315
REMARK 921   NORMALIZED FREE ENERGY PREDICTED BY IDOCK:   -3.32 KCAL/MOL
REMARK 922        TOTAL FREE ENERGY PREDICTED BY IDOCK:   -8.49 KCAL/MOL
REMARK 923 INTER-LIGAND FREE ENERGY PREDICTED BY IDOCK:   -6.51 KCAL/MOL
REMARK 924 INTRA-LIGAND FREE ENERGY PREDICTED BY IDOCK:   -1.98 KCAL/MOL
REMARK 927      BINDING AFFINITY PREDICTED BY RF-SCORE:    0.00 PKD
ROOT
HETATM    1  C   UNL     1      -8.544   1.808  66.120  1.00  0.00    -0.112 C  
HETATM    2  C   UNL     1      -7.397   2.628  65.560  1.00  0.00    -0.067 C  
ENDROOT
BRANCH   2   3
HETATM    3  N   UNL     1      -7.671   4.045  65.634  1.00  0.00    -0.089 N  
HETATM    4  C   UNL     1      -7.541   4.853  64.526  1.00  0.00    -0.077 C  
HETATM    5  H   UNL     1      -7.964   4.454  66.521  1.00  0.00     0.000 HD 
HETATM    6  O   UNL     1      -7.184   4.438  63.430  1.00  0.00    -0.044 OA 
BRANCH   4   7
HETATM    7  C   UNL     1      -7.898   6.301  64.794  1.00  0.00    -0.110 C  
BRANCH   7   8
HETATM    8  C   UNL     1      -7.020   7.246  63.969  1.00  0.00    -0.057 C  
BRANCH   8   9
HETATM    9  C   UNL     1      -7.389   8.720  64.129  1.00  0.00    -0.101 C  
BRANCH   9  10
HETATM   10  C   UNL     1      -7.278   9.182  65.554  1.00  0.00    -0.082 C  
HETATM   11  C   UNL     1      -8.168   9.914  66.242  1.00  0.00    -0.114 C  
BRANCH  11  12
HETATM   12  C   UNL     1      -9.469  10.468  65.729  1.00  0.00    -0.249 C  
BRANCH  12  13
HETATM   13  C   UNL     1     -10.362  11.052  66.833  1.00  0.00    -0.279 C  
HETATM   14  C   UNL     1     -11.348  10.060  67.466  1.00  0.00     0.233 C  
HETATM   15  C   UNL     1     -11.657  10.683  68.820  1.00  0.00    -0.309 C  
HETATM   16  O   UNL     1     -10.748   8.788  67.684  1.00  0.00    -0.414 OA 
HETATM   17  H   UNL     1     -11.358   8.173  68.076  1.00  0.00     0.000 HD 
HETATM   18  C   UNL     1     -10.295  11.177  69.301  1.00  0.00    -0.120 C  
HETATM   19  O   UNL     1      -9.615  10.125  69.990  1.00  0.00    -0.371 OA 
HETATM   20  C   UNL     1      -9.503  11.550  68.027  1.00  0.00    -0.181 C  
HETATM   21  H   UNL     1      -8.767  10.433  70.288  1.00  0.00     0.000 HD 
BRANCH  20  22
HETATM   22  C   UNL     1      -9.238  13.038  67.949  1.00  0.00    -0.208 C  
HETATM   23  C   UNL     1      -9.721  13.824  66.972  1.00  0.00    -0.251 C  
BRANCH  23  24
HETATM   24  C   UNL     1      -9.441  15.289  66.754  1.00  0.00    -0.245 C  
HETATM   25  H   UNL     1      -9.935  16.677  65.449  1.00  0.00     0.000 HD 
HETATM   26  O   UNL     1     -10.112  15.754  65.585  1.00  0.00    -0.330 OA 
BRANCH  24  27
HETATM   27  C   UNL     1      -9.892  16.167  67.929  1.00  0.00    -0.235 C  
BRANCH  27  28
HETATM   28  C   UNL     1     -11.400  16.120  68.186  1.00  0.00    -0.270 C  
BRANCH  28  29
HETATM   29  C   UNL     1     -11.712  15.493  69.522  1.00  0.00    -0.380 A  
HETATM   30  C   UNL     1     -12.286  14.217  69.586  1.00  0.00    -0.376 A  
HETATM   31  C   UNL     1     -12.616  13.651  70.818  1.00  0.00    -0.397 A  
HETATM   32  C   UNL     1     -12.376  14.357  71.995  1.00  0.00    -0.330 A  
HETATM   33  C   UNL     1     -11.802  15.626  71.941  1.00  0.00    -0.536 A  
HETATM   34  C   UNL     1     -11.471  16.193  70.711  1.00  0.00    -0.408 A  
ENDBRANCH  28  29
ENDBRANCH  27  28
ENDBRANCH  24  27
ENDBRANCH  23  24
ENDBRANCH  20  22
ENDBRANCH  12  13
ENDBRANCH  11  12
ENDBRANCH   9  10
ENDBRANCH   8   9
ENDBRANCH   7   8
ENDBRANCH   4   7
ENDBRANCH   2   3
TORSDOF 12
ENDMDL
MODEL      316
REMARK 921   NORMALIZED FREE ENERGY PREDICTED BY IDOCK:   -3.31 KCAL/MOL
REMARK 922        TOTAL FREE ENERGY PREDICTED BY IDOCK:   -8.47 KCAL/MOL
REMARK 923 INTER-LIGAND FREE ENERGY PREDICTED BY IDOCK:   -5.66 KCAL/MOL
REMARK 924 INTRA-LIGAND FREE ENERGY PREDICTED BY IDOCK:   -2.81 KCAL/MOL
REMARK 927      BINDING AFFINITY PREDICTED BY RF-SCORE:    0.00 PKD
ROOT
HETATM    1  C   UNL     1      -9.847   4.561  69.038  1.00  0.00    -0.202 C  
HETATM    2  C   UNL     1     -10.363   4.940  67.662  1.00  0.00    -0.020 C  
ENDROOT
BRANCH   2   3
HETATM    3  N   UNL     1      -9.540   5.958  67.048  1.00  0.00    -0.126 N  
HETATM    4  C   UNL     1      -8.436   5.621  66.297  1.00  0.00    -0.124 C  
HETATM    5  H   UNL     1      -9.781   6.941  67.173  1.00  0.00     0.000 HD 
HETATM    6  O   UNL     1      -8.077   4.465  66.111  1.00  0.00    -0.102 OA 
BRANCH   4   7
HETATM    7  C   UNL     1      -7.718   6.822  65.714  1.00  0.00    -0.096 C  
BRANCH   7   8
HETATM    8  C   UNL     1      -6.340   7.005  66.356  1.00  0.00    -0.050 C  
BRANCH   8   9
HETATM    9  C   UNL     1      -5.759   8.406  66.169  1.00  0.00    -0.043 C  
BRANCH   9  10
HETATM   10  C   UNL     1      -6.647   9.281  65.331  1.00  0.00    -0.069 C  
HETATM   11  C   UNL     1      -6.960  10.568  65.552  1.00  0.00    -0.100 C  
BRANCH  11  12
HETATM   12  C   UNL     1      -6.515  11.418  66.710  1.00  0.00    -0.140 C  
BRANCH  12  13
HETATM   13  C   UNL     1      -7.624  11.674  67.741  1.00  0.00    -0.121 C  
HETATM   14  C   UNL     1      -8.393  12.990  67.557  1.00  0.00    -0.184 C  
HETATM   15  C   UNL     1      -9.711  12.733  68.275  1.00  0.00    -0.216 C  
HETATM   16  O   UNL     1      -8.672  13.250  66.186  1.00  0.00    -0.373 OA 
HETATM   17  H   UNL     1      -9.148  14.064  66.072  1.00  0.00     0.000 HD 
HETATM   18  C   UNL     1     -10.065  11.306  67.863  1.00  0.00    -0.178 C  
HETATM   19  O   UNL     1     -10.790  11.325  66.631  1.00  0.00    -0.266 OA 
HETATM   20  C   UNL     1      -8.718  10.577  67.653  1.00  0.00    -0.121 C  
HETATM   21  H   UNL     1     -11.010  10.437  66.375  1.00  0.00     0.000 HD 
BRANCH  20  22
HETATM   22  C   UNL     1      -8.508   9.485  68.680  1.00  0.00    -0.119 C  
HETATM   23  C   UNL     1      -7.742   9.639  69.774  1.00  0.00    -0.133 C  
BRANCH  23  24
HETATM   24  C   UNL     1      -7.397   8.593  70.803  1.00  0.00    -0.070 C  
HETATM   25  H   UNL     1      -7.191   8.501  72.758  1.00  0.00     0.000 HD 
HETATM   26  O   UNL     1      -7.408   9.161  72.110  1.00  0.00    -0.328 OA 
BRANCH  24  27
HETATM   27  C   UNL     1      -8.369   7.406  70.802  1.00  0.00    -0.119 C  
BRANCH  27  28
HETATM   28  C   UNL     1      -9.150   7.254  72.111  1.00  0.00    -0.149 C  
BRANCH  28  29
HETATM   29  C   UNL     1     -10.597   7.642  71.936  1.00  0.00    -0.257 A  
HETATM   30  C   UNL     1     -10.962   8.992  71.862  1.00  0.00    -0.423 A  
HETATM   31  C   UNL     1     -12.303   9.357  71.745  1.00  0.00    -0.471 A  
HETATM   32  C   UNL     1     -13.291   8.375  71.701  1.00  0.00    -0.361 A  
HETATM   33  C   UNL     1     -12.937   7.029  71.770  1.00  0.00    -0.356 A  
HETATM   34  C   UNL     1     -11.597   6.662  71.887  1.00  0.00    -0.344 A  
ENDBRANCH  28  29
ENDBRANCH  27  28
ENDBRANCH  24  27
ENDBRANCH  23  24
ENDBRANCH  20  22
ENDBRANCH  12  13
ENDBRANCH  11  12
ENDBRANCH   9  10
ENDBRANCH   8   9
ENDBRANCH   7   8
ENDBRANCH   4   7
ENDBRANCH   2   3
TORSDOF 12
ENDMDL
MODEL      317
REMARK 921   NORMALIZED FREE ENERGY PREDICTED BY IDOCK:   -3.28 KCAL/MOL
REMARK 922        TOTAL FREE ENERGY PREDICTED BY IDOCK:   -8.42 KCAL/MOL
REMARK 923 INTER-LIGAND FREE ENERGY PREDICTED BY IDOCK:   -5.98 KCAL/MOL
REMARK 924 INTRA-LIGAND FREE ENERGY PREDICTED BY IDOCK:   -2.44 KCAL/MOL
REMARK 927      BINDING AFFINITY PREDICTED BY RF-SCORE:    0.00 PKD
ROOT
HETATM    1  C   UNL     1     -10.685   5.380  66.560  1.00  0.00    -0.309 C  
HETATM    2  C   UNL     1     -10.874   6.590  67.455  1.00  0.00    -0.352 C  
ENDROOT
BRANCH   2   3
HETATM    3  N   UNL     1      -9.666   7.380  67.543  1.00  0.00    -0.141 N  
HETATM    4  C   UNL     1      -8.926   7.420  68.703  1.00  0.00    -0.131 C  
HETATM    5  H   UNL     1      -9.358   7.918  66.732  1.00  0.00     0.000 HD 
HETATM    6  O   UNL     1      -9.237   6.812  69.720  1.00  0.00    -0.146 OA 
BRANCH   4   7
HETATM    7  C   UNL     1      -7.682   8.279  68.593  1.00  0.00    -0.114 C  
BRANCH   7   8
HETATM    8  C   UNL     1      -7.414   9.030  69.900  1.00  0.00    -0.065 C  
BRANCH   8   9
HETATM    9  C   UNL     1      -7.541  10.547  69.771  1.00  0.00    -0.102 C  
BRANCH   9  10
HETATM   10  C   UNL     1      -6.821  11.077  68.563  1.00  0.00    -0.064 C  
HETATM   11  C   UNL     1      -6.405  12.336  68.354  1.00  0.00    -0.054 C  
BRANCH  11  12
HETATM   12  C   UNL     1      -6.595  13.513  69.271  1.00  0.00    -0.103 C  
BRANCH  12  13
HETATM   13  C   UNL     1      -7.862  14.325  68.968  1.00  0.00    -0.045 C  
HETATM   14  C   UNL     1      -7.820  15.790  69.426  1.00  0.00    -0.210 C  
HETATM   15  C   UNL     1      -8.861  16.466  68.544  1.00  0.00    -0.224 C  
HETATM   16  O   UNL     1      -6.555  16.388  69.164  1.00  0.00    -0.168 OA 
HETATM   17  H   UNL     1      -6.529  17.295  69.447  1.00  0.00     0.000 HD 
HETATM   18  C   UNL     1      -8.619  15.844  67.171  1.00  0.00    -0.196 C  
HETATM   19  O   UNL     1      -7.614  16.585  66.476  1.00  0.00    -0.258 OA 
HETATM   20  C   UNL     1      -8.105  14.410  67.437  1.00  0.00    -0.217 C  
HETATM   21  H   UNL     1      -7.463  16.197  65.621  1.00  0.00     0.000 HD 
BRANCH  20  22
HETATM   22  C   UNL     1      -9.094  13.366  66.964  1.00  0.00    -0.245 C  
HETATM   23  C   UNL     1     -10.108  12.913  67.721  1.00  0.00    -0.229 C  
BRANCH  23  24
HETATM   24  C   UNL     1     -11.084  11.816  67.381  1.00  0.00    -0.282 C  
HETATM   25  H   UNL     1     -12.774  11.643  66.386  1.00  0.00     0.000 HD 
HETATM   26  O   UNL     1     -12.159  12.335  66.601  1.00  0.00    -0.612 OA 
BRANCH  24  27
HETATM   27  C   UNL     1     -10.446  10.668  66.588  1.00  0.00    -0.296 C  
BRANCH  27  28
HETATM   28  C   UNL     1     -10.640  10.788  65.074  1.00  0.00    -0.243 C  
BRANCH  28  29
HETATM   29  C   UNL     1      -9.384  10.415  64.326  1.00  0.00    -0.324 A  
HETATM   30  C   UNL     1      -8.498   9.471  64.863  1.00  0.00    -0.170 A  
HETATM   31  C   UNL     1      -7.313   9.155  64.198  1.00  0.00    -0.104 A  
HETATM   32  C   UNL     1      -7.004   9.780  62.991  1.00  0.00    -0.112 A  
HETATM   33  C   UNL     1      -7.882  10.717  62.447  1.00  0.00    -0.204 A  
HETATM   34  C   UNL     1      -9.066  11.034  63.111  1.00  0.00    -0.262 A  
ENDBRANCH  28  29
ENDBRANCH  27  28
ENDBRANCH  24  27
ENDBRANCH  23  24
ENDBRANCH  20  22
ENDBRANCH  12  13
ENDBRANCH  11  12
ENDBRANCH   9  10
ENDBRANCH   8   9
ENDBRANCH   7   8
ENDBRANCH   4   7
ENDBRANCH   2   3
TORSDOF 12
ENDMDL
MODEL      318
REMARK 921   NORMALIZED FREE ENERGY PREDICTED BY IDOCK:   -3.28 KCAL/MOL
REMARK 922        TOTAL FREE ENERGY PREDICTED BY IDOCK:   -8.42 KCAL/MOL
REMARK 923 INTER-LIGAND FREE ENERGY PREDICTED BY IDOCK:   -6.76 KCAL/MOL
REMARK 924 INTRA-LIGAND FREE ENERGY PREDICTED BY IDOCK:   -1.66 KCAL/MOL
REMARK 927      BINDING AFFINITY PREDICTED BY RF-SCORE:    0.00 PKD
ROOT
HETATM    1  C   UNL     1     -10.014  15.675  67.448  1.00  0.00    -0.232 C  
HETATM    2  C   UNL     1      -8.804  16.098  68.261  1.00  0.00    -0.188 C  
ENDROOT
BRANCH   2   3
HETATM    3  N   UNL     1      -7.602  15.435  67.808  1.00  0.00    -0.137 N  
HETATM    4  C   UNL     1      -6.801  14.740  68.685  1.00  0.00    -0.103 C  
HETATM    5  H   UNL     1      -7.343  15.485  66.822  1.00  0.00     0.000 HD 
HETATM    6  O   UNL     1      -7.039  14.645  69.883  1.00  0.00    -0.148 OA 
BRANCH   4   7
HETATM    7  C   UNL     1      -5.602  14.093  68.020  1.00  0.00    -0.124 C  
BRANCH   7   8
HETATM    8  C   UNL     1      -5.872  12.618  67.714  1.00  0.00    -0.125 C  
BRANCH   8   9
HETATM    9  C   UNL     1      -5.952  11.739  68.962  1.00  0.00    -0.061 C  
BRANCH   9  10
HETATM   10  C   UNL     1      -6.642  10.433  68.693  1.00  0.00    -0.052 C  
HETATM   11  C   UNL     1      -7.958  10.230  68.523  1.00  0.00    -0.107 C  
BRANCH  11  12
HETATM   12  C   UNL     1      -9.047  11.265  68.597  1.00  0.00    -0.153 C  
BRANCH  12  13
HETATM   13  C   UNL     1     -10.099  11.126  67.487  1.00  0.00    -0.210 C  
HETATM   14  C   UNL     1     -10.198  12.324  66.531  1.00  0.00    -0.214 C  
HETATM   15  C   UNL     1     -10.830  11.727  65.281  1.00  0.00    -0.343 C  
HETATM   16  O   UNL     1      -8.913  12.830  66.186  1.00  0.00    -0.430 OA 
HETATM   17  H   UNL     1      -8.975  13.571  65.595  1.00  0.00     0.000 HD 
HETATM   18  C   UNL     1     -10.114  10.387  65.129  1.00  0.00    -0.308 C  
HETATM   19  O   UNL     1      -8.909  10.566  64.380  1.00  0.00    -0.187 OA 
HETATM   20  C   UNL     1      -9.763   9.926  66.562  1.00  0.00    -0.260 C  
HETATM   21  H   UNL     1      -8.464   9.732  64.286  1.00  0.00     0.000 HD 
BRANCH  20  22
HETATM   22  C   UNL     1     -10.530   8.681  66.951  1.00  0.00    -0.329 C  
HETATM   23  C   UNL     1     -10.018   7.441  66.866  1.00  0.00    -0.307 C  
BRANCH  23  24
HETATM   24  C   UNL     1     -10.725   6.138  67.139  1.00  0.00    -0.346 C  
HETATM   25  H   UNL     1     -10.761   4.325  66.375  1.00  0.00     0.000 HD 
HETATM   26  O   UNL     1     -10.315   5.145  66.202  1.00  0.00    -0.233 OA 
BRANCH  24  27
HETATM   27  C   UNL     1     -10.454   5.591  68.546  1.00  0.00    -0.234 C  
BRANCH  27  28
HETATM   28  C   UNL     1     -11.127   6.400  69.658  1.00  0.00    -0.465 C  
BRANCH  28  29
HETATM   29  C   UNL     1     -10.665   5.952  71.022  1.00  0.00    -0.331 A  
HETATM   30  C   UNL     1      -9.478   5.220  71.160  1.00  0.00    -0.206 A  
HETATM   31  C   UNL     1      -9.069   4.765  72.414  1.00  0.00    -0.141 A  
HETATM   32  C   UNL     1      -9.843   5.036  73.540  1.00  0.00    -0.168 A  
HETATM   33  C   UNL     1     -11.024   5.767  73.413  1.00  0.00    -0.261 A  
HETATM   34  C   UNL     1     -11.434   6.222  72.161  1.00  0.00    -0.354 A  
ENDBRANCH  28  29
ENDBRANCH  27  28
ENDBRANCH  24  27
ENDBRANCH  23  24
ENDBRANCH  20  22
ENDBRANCH  12  13
ENDBRANCH  11  12
ENDBRANCH   9  10
ENDBRANCH   8   9
ENDBRANCH   7   8
ENDBRANCH   4   7
ENDBRANCH   2   3
TORSDOF 12
ENDMDL
MODEL      319
REMARK 921   NORMALIZED FREE ENERGY PREDICTED BY IDOCK:   -3.27 KCAL/MOL
REMARK 922        TOTAL FREE ENERGY PREDICTED BY IDOCK:   -8.40 KCAL/MOL
REMARK 923 INTER-LIGAND FREE ENERGY PREDICTED BY IDOCK:   -6.58 KCAL/MOL
REMARK 924 INTRA-LIGAND FREE ENERGY PREDICTED BY IDOCK:   -1.82 KCAL/MOL
REMARK 927      BINDING AFFINITY PREDICTED BY RF-SCORE:    0.00 PKD
ROOT
HETATM    1  C   UNL     1     -14.385  14.493  71.832  1.00  0.00    -0.647 C  
HETATM    2  C   UNL     1     -13.737  13.265  72.443  1.00  0.00    -0.578 C  
ENDROOT
BRANCH   2   3
HETATM    3  N   UNL     1     -13.019  12.495  71.452  1.00  0.00    -0.320 N  
HETATM    4  C   UNL     1     -13.041  11.118  71.470  1.00  0.00    -0.385 C  
HETATM    5  H   UNL     1     -12.487  12.979  70.729  1.00  0.00     0.000 HD 
HETATM    6  O   UNL     1     -13.646  10.466  72.312  1.00  0.00    -0.299 OA 
BRANCH   4   7
HETATM    7  C   UNL     1     -12.252  10.491  70.338  1.00  0.00    -0.415 C  
BRANCH   7   8
HETATM    8  C   UNL     1     -11.940  11.519  69.248  1.00  0.00    -0.397 C  
BRANCH   8   9
HETATM    9  C   UNL     1     -10.446  11.787  69.068  1.00  0.00    -0.131 C  
BRANCH   9  10
HETATM   10  C   UNL     1      -9.923  11.237  67.772  1.00  0.00    -0.193 C  
HETATM   11  C   UNL     1      -9.506   9.984  67.531  1.00  0.00    -0.169 C  
BRANCH  11  12
HETATM   12  C   UNL     1      -9.436   8.851  68.518  1.00  0.00    -0.152 C  
BRANCH  12  13
HETATM   13  C   UNL     1      -8.822   9.253  69.867  1.00  0.00    -0.196 C  
HETATM   14  C   UNL     1      -9.068   8.263  71.015  1.00  0.00    -0.158 C  
HETATM   15  C   UNL     1      -7.944   8.571  71.994  1.00  0.00    -0.160 C  
HETATM   16  O   UNL     1      -8.931   6.913  70.585  1.00  0.00    -0.150 OA 
HETATM   17  H   UNL     1      -9.083   6.301  71.295  1.00  0.00     0.000 HD 
HETATM   18  C   UNL     1      -6.730   8.765  71.090  1.00  0.00    -0.075 C  
HETATM   19  O   UNL     1      -6.107   7.503  70.840  1.00  0.00    -0.035 OA 
HETATM   20  C   UNL     1      -7.275   9.338  69.762  1.00  0.00    -0.066 C  
HETATM   21  H   UNL     1      -5.351   7.624  70.277  1.00  0.00     0.000 HD 
BRANCH  20  22
HETATM   22  C   UNL     1      -6.802  10.757  69.530  1.00  0.00    -0.116 C  
HETATM   23  C   UNL     1      -5.978  11.106  68.527  1.00  0.00    -0.042 C  
BRANCH  23  24
HETATM   24  C   UNL     1      -5.379  12.464  68.266  1.00  0.00    -0.058 C  
HETATM   25  H   UNL     1      -4.892  13.552  66.699  1.00  0.00     0.000 HD 
HETATM   26  O   UNL     1      -5.269  12.696  66.864  1.00  0.00    -0.339 OA 
BRANCH  24  27
HETATM   27  C   UNL     1      -6.205  13.610  68.864  1.00  0.00    -0.092 C  
BRANCH  27  28
HETATM   28  C   UNL     1      -7.105  14.313  67.844  1.00  0.00    -0.169 C  
BRANCH  28  29
HETATM   29  C   UNL     1      -7.235  15.785  68.147  1.00  0.00    -0.124 A  
HETATM   30  C   UNL     1      -8.365  16.496  67.720  1.00  0.00    -0.176 A  
HETATM   31  C   UNL     1      -8.469  17.866  67.959  1.00  0.00    -0.256 A  
HETATM   32  C   UNL     1      -7.445  18.537  68.625  1.00  0.00    -0.323 A  
HETATM   33  C   UNL     1      -6.320  17.837  69.057  1.00  0.00    -0.224 A  
HETATM   34  C   UNL     1      -6.213  16.467  68.819  1.00  0.00    -0.138 A  
ENDBRANCH  28  29
ENDBRANCH  27  28
ENDBRANCH  24  27
ENDBRANCH  23  24
ENDBRANCH  20  22
ENDBRANCH  12  13
ENDBRANCH  11  12
ENDBRANCH   9  10
ENDBRANCH   8   9
ENDBRANCH   7   8
ENDBRANCH   4   7
ENDBRANCH   2   3
TORSDOF 12
ENDMDL
MODEL      320
REMARK 921   NORMALIZED FREE ENERGY PREDICTED BY IDOCK:   -3.26 KCAL/MOL
REMARK 922        TOTAL FREE ENERGY PREDICTED BY IDOCK:   -8.38 KCAL/MOL
REMARK 923 INTER-LIGAND FREE ENERGY PREDICTED BY IDOCK:   -6.15 KCAL/MOL
REMARK 924 INTRA-LIGAND FREE ENERGY PREDICTED BY IDOCK:   -2.23 KCAL/MOL
REMARK 927      BINDING AFFINITY PREDICTED BY RF-SCORE:    0.00 PKD
ROOT
HETATM    1  C   UNL     1      -6.773  10.947  66.515  1.00  0.00    -0.133 C  
HETATM    2  C   UNL     1      -8.041  10.784  67.332  1.00  0.00    -0.112 C  
ENDROOT
BRANCH   2   3
HETATM    3  N   UNL     1      -8.513   9.418  67.315  1.00  0.00    -0.124 N  
HETATM    4  C   UNL     1      -9.553   9.035  66.498  1.00  0.00    -0.223 C  
HETATM    5  H   UNL     1      -8.068   8.726  67.919  1.00  0.00     0.000 HD 
HETATM    6  O   UNL     1     -10.143   9.809  65.755  1.00  0.00    -0.293 OA 
BRANCH   4   7
HETATM    7  C   UNL     1      -9.886   7.560  66.601  1.00  0.00    -0.274 C  
BRANCH   7   8
HETATM    8  C   UNL     1     -10.571   7.241  67.932  1.00  0.00    -0.266 C  
BRANCH   8   9
HETATM    9  C   UNL     1     -10.818   5.749  68.151  1.00  0.00    -0.249 C  
BRANCH   9  10
HETATM   10  C   UNL     1      -9.538   4.965  68.210  1.00  0.00    -0.196 C  
HETATM   11  C   UNL     1      -9.145   4.124  69.180  1.00  0.00    -0.191 C  
BRANCH  11  12
HETATM   12  C   UNL     1      -9.886   3.801  70.448  1.00  0.00    -0.135 C  
BRANCH  12  13
HETATM   13  C   UNL     1      -9.126   4.203  71.719  1.00  0.00    -0.168 C  
HETATM   14  C   UNL     1      -8.910   3.070  72.734  1.00  0.00    -0.083 C  
HETATM   15  C   UNL     1      -7.714   3.548  73.547  1.00  0.00    -0.066 C  
HETATM   16  O   UNL     1      -8.558   1.849  72.094  1.00  0.00    -0.052 OA 
HETATM   17  H   UNL     1      -8.425   1.149  72.721  1.00  0.00     0.000 HD 
HETATM   18  C   UNL     1      -6.779   4.131  72.491  1.00  0.00    -0.041 C  
HETATM   19  O   UNL     1      -5.948   3.097  71.959  1.00  0.00    -0.012 OA 
HETATM   20  C   UNL     1      -7.691   4.682  71.372  1.00  0.00    -0.086 C  
HETATM   21  H   UNL     1      -5.366   3.460  71.301  1.00  0.00     0.000 HD 
BRANCH  20  22
HETATM   22  C   UNL     1      -7.607   6.190  71.275  1.00  0.00    -0.094 C  
HETATM   23  C   UNL     1      -8.151   7.019  72.183  1.00  0.00    -0.093 C  
BRANCH  23  24
HETATM   24  C   UNL     1      -8.203   8.525  72.131  1.00  0.00    -0.112 C  
HETATM   25  H   UNL     1      -6.918  10.015  72.098  1.00  0.00     0.000 HD 
HETATM   26  O   UNL     1      -6.885   9.066  72.130  1.00  0.00    -0.292 OA 
BRANCH  24  27
HETATM   27  C   UNL     1      -8.926   9.058  70.888  1.00  0.00    -0.300 C  
BRANCH  27  28
HETATM   28  C   UNL     1     -10.406   8.669  70.826  1.00  0.00    -0.249 C  
BRANCH  28  29
HETATM   29  C   UNL     1     -11.296   9.886  70.813  1.00  0.00    -0.430 A  
HETATM   30  C   UNL     1     -11.049  10.931  69.913  1.00  0.00    -0.311 A  
HETATM   31  C   UNL     1     -11.842  12.079  69.928  1.00  0.00    -0.405 A  
HETATM   32  C   UNL     1     -12.887  12.192  70.842  1.00  0.00    -0.190 A  
HETATM   33  C   UNL     1     -13.142  11.156  71.739  1.00  0.00    -0.536 A  
HETATM   34  C   UNL     1     -12.351  10.008  71.726  1.00  0.00    -0.434 A  
ENDBRANCH  28  29
ENDBRANCH  27  28
ENDBRANCH  24  27
ENDBRANCH  23  24
ENDBRANCH  20  22
ENDBRANCH  12  13
ENDBRANCH  11  12
ENDBRANCH   9  10
ENDBRANCH   8   9
ENDBRANCH   7   8
ENDBRANCH   4   7
ENDBRANCH   2   3
TORSDOF 12
ENDMDL
MODEL      321
REMARK 921   NORMALIZED FREE ENERGY PREDICTED BY IDOCK:   -3.25 KCAL/MOL
REMARK 922        TOTAL FREE ENERGY PREDICTED BY IDOCK:   -8.36 KCAL/MOL
REMARK 923 INTER-LIGAND FREE ENERGY PREDICTED BY IDOCK:   -6.21 KCAL/MOL
REMARK 924 INTRA-LIGAND FREE ENERGY PREDICTED BY IDOCK:   -2.15 KCAL/MOL
REMARK 927      BINDING AFFINITY PREDICTED BY RF-SCORE:    0.00 PKD
ROOT
HETATM    1  C   UNL     1     -12.520  12.436  64.233  1.00  0.00    -0.529 C  
HETATM    2  C   UNL     1     -12.259  13.930  64.229  1.00  0.00    -0.408 C  
ENDROOT
BRANCH   2   3
HETATM    3  N   UNL     1     -11.860  14.403  65.536  1.00  0.00    -0.357 N  
HETATM    4  C   UNL     1     -10.981  15.454  65.672  1.00  0.00    -0.326 C  
HETATM    5  H   UNL     1     -12.234  13.950  66.370  1.00  0.00     0.000 HD 
HETATM    6  O   UNL     1     -10.481  16.041  64.721  1.00  0.00    -0.564 OA 
BRANCH   4   7
HETATM    7  C   UNL     1     -10.705  15.822  67.117  1.00  0.00    -0.312 C  
BRANCH   7   8
HETATM    8  C   UNL     1      -9.968  14.692  67.841  1.00  0.00    -0.221 C  
BRANCH   8   9
HETATM    9  C   UNL     1      -8.502  14.556  67.430  1.00  0.00    -0.220 C  
BRANCH   9  10
HETATM   10  C   UNL     1      -7.677  13.876  68.485  1.00  0.00    -0.139 C  
HETATM   11  C   UNL     1      -7.136  12.648  68.425  1.00  0.00    -0.101 C  
BRANCH  11  12
HETATM   12  C   UNL     1      -7.262  11.661  67.298  1.00  0.00    -0.137 C  
BRANCH  12  13
HETATM   13  C   UNL     1      -8.557  10.838  67.348  1.00  0.00    -0.126 C  
HETATM   14  C   UNL     1      -9.711  11.389  66.497  1.00  0.00    -0.200 C  
HETATM   15  C   UNL     1     -10.593  10.170  66.267  1.00  0.00    -0.121 C  
HETATM   16  O   UNL     1      -9.255  11.857  65.232  1.00  0.00    -0.423 OA 
HETATM   17  H   UNL     1      -9.969  12.198  64.705  1.00  0.00     0.000 HD 
HETATM   18  C   UNL     1      -9.590   9.055  65.983  1.00  0.00    -0.272 C  
HETATM   19  O   UNL     1      -9.274   9.033  64.589  1.00  0.00    -0.435 OA 
HETATM   20  C   UNL     1      -8.320   9.408  66.791  1.00  0.00    -0.123 C  
HETATM   21  H   UNL     1      -8.649   8.339  64.413  1.00  0.00     0.000 HD 
BRANCH  20  22
HETATM   22  C   UNL     1      -8.065   8.407  67.896  1.00  0.00    -0.123 C  
HETATM   23  C   UNL     1      -6.844   8.167  68.407  1.00  0.00    -0.068 C  
BRANCH  23  24
HETATM   24  C   UNL     1      -6.472   7.132  69.437  1.00  0.00    -0.036 C  
HETATM   25  H   UNL     1      -5.063   6.878  70.788  1.00  0.00     0.000 HD 
HETATM   26  O   UNL     1      -5.297   7.530  70.138  1.00  0.00    -0.023 OA 
BRANCH  24  27
HETATM   27  C   UNL     1      -7.576   6.894  70.476  1.00  0.00    -0.091 C  
BRANCH  27  28
HETATM   28  C   UNL     1      -7.860   5.413  70.740  1.00  0.00    -0.095 C  
BRANCH  28  29
HETATM   29  C   UNL     1      -8.295   4.704  69.482  1.00  0.00    -0.080 A  
HETATM   30  C   UNL     1      -9.464   5.099  68.818  1.00  0.00    -0.181 A  
HETATM   31  C   UNL     1      -9.895   4.418  67.679  1.00  0.00    -0.168 A  
HETATM   32  C   UNL     1      -9.162   3.336  67.196  1.00  0.00    -0.214 A  
HETATM   33  C   UNL     1      -7.996   2.938  67.847  1.00  0.00    -0.068 A  
HETATM   34  C   UNL     1      -7.564   3.617  68.986  1.00  0.00    -0.053 A  
ENDBRANCH  28  29
ENDBRANCH  27  28
ENDBRANCH  24  27
ENDBRANCH  23  24
ENDBRANCH  20  22
ENDBRANCH  12  13
ENDBRANCH  11  12
ENDBRANCH   9  10
ENDBRANCH   8   9
ENDBRANCH   7   8
ENDBRANCH   4   7
ENDBRANCH   2   3
TORSDOF 12
ENDMDL
MODEL      322
REMARK 921   NORMALIZED FREE ENERGY PREDICTED BY IDOCK:   -3.23 KCAL/MOL
REMARK 922        TOTAL FREE ENERGY PREDICTED BY IDOCK:   -8.33 KCAL/MOL
REMARK 923 INTER-LIGAND FREE ENERGY PREDICTED BY IDOCK:   -6.26 KCAL/MOL
REMARK 924 INTRA-LIGAND FREE ENERGY PREDICTED BY IDOCK:   -2.07 KCAL/MOL
REMARK 927      BINDING AFFINITY PREDICTED BY RF-SCORE:    0.00 PKD
ROOT
HETATM    1  C   UNL     1      -5.892   8.014  68.947  1.00  0.00    -0.035 C  
HETATM    2  C   UNL     1      -5.934   7.503  67.520  1.00  0.00    -0.043 C  
ENDROOT
BRANCH   2   3
HETATM    3  N   UNL     1      -7.189   6.848  67.226  1.00  0.00    -0.087 N  
HETATM    4  C   UNL     1      -7.288   5.927  66.207  1.00  0.00    -0.081 C  
HETATM    5  H   UNL     1      -8.014   7.072  67.782  1.00  0.00     0.000 HD 
HETATM    6  O   UNL     1      -6.346   5.614  65.489  1.00  0.00    -0.036 OA 
BRANCH   4   7
HETATM    7  C   UNL     1      -8.675   5.331  66.070  1.00  0.00    -0.137 C  
BRANCH   7   8
HETATM    8  C   UNL     1      -9.752   6.414  66.163  1.00  0.00    -0.004 C  
BRANCH   8   9
HETATM    9  C   UNL     1     -10.816   6.130  67.222  1.00  0.00    -0.438 C  
BRANCH   9  10
HETATM   10  C   UNL     1     -10.247   5.434  68.426  1.00  0.00    -0.229 C  
HETATM   11  C   UNL     1     -10.614   5.598  69.707  1.00  0.00    -0.400 C  
BRANCH  11  12
HETATM   12  C   UNL     1     -11.661   6.542  70.231  1.00  0.00    -0.473 C  
BRANCH  12  13
HETATM   13  C   UNL     1     -11.086   7.667  71.103  1.00  0.00    -0.269 C  
HETATM   14  C   UNL     1     -10.844   7.292  72.573  1.00  0.00    -0.272 C  
HETATM   15  C   UNL     1      -9.801   8.304  73.029  1.00  0.00    -0.248 C  
HETATM   16  O   UNL     1     -10.288   5.988  72.700  1.00  0.00    -0.187 OA 
HETATM   17  H   UNL     1     -10.139   5.756  73.609  1.00  0.00     0.000 HD 
HETATM   18  C   UNL     1      -8.837   8.375  71.847  1.00  0.00    -0.203 C  
HETATM   19  O   UNL     1      -7.841   7.358  71.975  1.00  0.00    -0.087 OA 
HETATM   20  C   UNL     1      -9.689   8.103  70.586  1.00  0.00    -0.184 C  
HETATM   21  H   UNL     1      -7.242   7.402  71.239  1.00  0.00     0.000 HD 
BRANCH  20  22
HETATM   22  C   UNL     1      -9.772   9.323  69.694  1.00  0.00    -0.192 C  
HETATM   23  C   UNL     1      -9.539   9.287  68.371  1.00  0.00    -0.158 C  
BRANCH  23  24
HETATM   24  C   UNL     1      -9.506  10.454  67.417  1.00  0.00    -0.149 C  
HETATM   25  H   UNL     1     -10.262  10.903  65.656  1.00  0.00     0.000 HD 
HETATM   26  O   UNL     1     -10.283  10.167  66.257  1.00  0.00    -0.238 OA 
BRANCH  24  27
HETATM   27  C   UNL     1     -10.048  11.749  68.033  1.00  0.00    -0.198 C  
BRANCH  27  28
HETATM   28  C   UNL     1      -9.010  12.872  68.110  1.00  0.00    -0.202 C  
BRANCH  28  29
HETATM   29  C   UNL     1      -9.554  14.164  67.552  1.00  0.00    -0.223 A  
HETATM   30  C   UNL     1      -9.981  15.181  68.416  1.00  0.00    -0.222 A  
HETATM   31  C   UNL     1     -10.526  16.359  67.907  1.00  0.00    -0.307 A  
HETATM   32  C   UNL     1     -10.650  16.531  66.529  1.00  0.00    -0.217 A  
HETATM   33  C   UNL     1     -10.224  15.526  65.662  1.00  0.00    -0.403 A  
HETATM   34  C   UNL     1      -9.679  14.347  66.169  1.00  0.00    -0.335 A  
ENDBRANCH  28  29
ENDBRANCH  27  28
ENDBRANCH  24  27
ENDBRANCH  23  24
ENDBRANCH  20  22
ENDBRANCH  12  13
ENDBRANCH  11  12
ENDBRANCH   9  10
ENDBRANCH   8   9
ENDBRANCH   7   8
ENDBRANCH   4   7
ENDBRANCH   2   3
TORSDOF 12
ENDMDL
MODEL      323
REMARK 921   NORMALIZED FREE ENERGY PREDICTED BY IDOCK:   -3.23 KCAL/MOL
REMARK 922        TOTAL FREE ENERGY PREDICTED BY IDOCK:   -8.32 KCAL/MOL
REMARK 923 INTER-LIGAND FREE ENERGY PREDICTED BY IDOCK:   -5.83 KCAL/MOL
REMARK 924 INTRA-LIGAND FREE ENERGY PREDICTED BY IDOCK:   -2.49 KCAL/MOL
REMARK 927      BINDING AFFINITY PREDICTED BY RF-SCORE:    0.00 PKD
ROOT
HETATM    1  C   UNL     1     -14.380  14.565  71.580  1.00  0.00    -0.562 C  
HETATM    2  C   UNL     1     -13.518  13.593  72.364  1.00  0.00    -0.584 C  
ENDROOT
BRANCH   2   3
HETATM    3  N   UNL     1     -12.675  12.807  71.491  1.00  0.00    -0.287 N  
HETATM    4  C   UNL     1     -12.722  11.431  71.509  1.00  0.00    -0.357 C  
HETATM    5  H   UNL     1     -12.035  13.279  70.853  1.00  0.00     0.000 HD 
HETATM    6  O   UNL     1     -13.456  10.793  72.254  1.00  0.00    -0.330 OA 
BRANCH   4   7
HETATM    7  C   UNL     1     -11.787  10.785  70.507  1.00  0.00    -0.453 C  
BRANCH   7   8
HETATM    8  C   UNL     1     -11.885  11.470  69.141  1.00  0.00    -0.406 C  
BRANCH   8   9
HETATM    9  C   UNL     1     -10.649  11.269  68.266  1.00  0.00    -0.228 C  
BRANCH   9  10
HETATM   10  C   UNL     1     -10.782  10.077  67.361  1.00  0.00    -0.336 C  
HETATM   11  C   UNL     1     -10.628   8.785  67.692  1.00  0.00    -0.281 C  
BRANCH  11  12
HETATM   12  C   UNL     1     -10.252   8.239  69.042  1.00  0.00    -0.226 C  
BRANCH  12  13
HETATM   13  C   UNL     1      -8.758   7.911  69.175  1.00  0.00    -0.138 C  
HETATM   14  C   UNL     1      -8.277   7.636  70.607  1.00  0.00    -0.113 C  
HETATM   15  C   UNL     1      -7.010   6.817  70.403  1.00  0.00    -0.063 C  
HETATM   16  O   UNL     1      -9.210   6.844  71.334  1.00  0.00    -0.155 OA 
HETATM   17  H   UNL     1      -8.913   6.674  72.220  1.00  0.00     0.000 HD 
HETATM   18  C   UNL     1      -7.386   5.857  69.277  1.00  0.00    -0.083 C  
HETATM   19  O   UNL     1      -8.000   4.688  69.825  1.00  0.00    -0.064 OA 
HETATM   20  C   UNL     1      -8.412   6.611  68.400  1.00  0.00    -0.125 C  
HETATM   21  H   UNL     1      -8.235   4.091  69.123  1.00  0.00     0.000 HD 
BRANCH  20  22
HETATM   22  C   UNL     1      -7.858   6.906  67.022  1.00  0.00    -0.111 C  
HETATM   23  C   UNL     1      -7.901   6.026  66.006  1.00  0.00    -0.105 C  
BRANCH  23  24
HETATM   24  C   UNL     1      -7.300   6.187  64.633  1.00  0.00    -0.072 C  
HETATM   25  H   UNL     1      -7.584   5.438  62.835  1.00  0.00     0.000 HD 
HETATM   26  O   UNL     1      -7.963   5.337  63.700  1.00  0.00    -0.088 OA 
BRANCH  24  27
HETATM   27  C   UNL     1      -7.391   7.623  64.101  1.00  0.00    -0.094 C  
BRANCH  27  28
HETATM   28  C   UNL     1      -6.109   8.434  64.306  1.00  0.00    -0.066 C  
BRANCH  28  29
HETATM   29  C   UNL     1      -6.221   9.347  65.501  1.00  0.00    -0.065 A  
HETATM   30  C   UNL     1      -5.310   9.237  66.561  1.00  0.00    -0.045 A  
HETATM   31  C   UNL     1      -5.436  10.050  67.688  1.00  0.00    -0.038 A  
HETATM   32  C   UNL     1      -6.473  10.977  67.766  1.00  0.00    -0.063 A  
HETATM   33  C   UNL     1      -7.381  11.097  66.715  1.00  0.00    -0.146 A  
HETATM   34  C   UNL     1      -7.257  10.286  65.587  1.00  0.00    -0.148 A  
ENDBRANCH  28  29
ENDBRANCH  27  28
ENDBRANCH  24  27
ENDBRANCH  23  24
ENDBRANCH  20  22
ENDBRANCH  12  13
ENDBRANCH  11  12
ENDBRANCH   9  10
ENDBRANCH   8   9
ENDBRANCH   7   8
ENDBRANCH   4   7
ENDBRANCH   2   3
TORSDOF 12
ENDMDL
MODEL      324
REMARK 921   NORMALIZED FREE ENERGY PREDICTED BY IDOCK:   -3.19 KCAL/MOL
REMARK 922        TOTAL FREE ENERGY PREDICTED BY IDOCK:   -8.26 KCAL/MOL
REMARK 923 INTER-LIGAND FREE ENERGY PREDICTED BY IDOCK:   -6.58 KCAL/MOL
REMARK 924 INTRA-LIGAND FREE ENERGY PREDICTED BY IDOCK:   -1.68 KCAL/MOL
REMARK 927      BINDING AFFINITY PREDICTED BY RF-SCORE:    0.00 PKD
ROOT
HETATM    1  C   UNL     1      -6.302   7.469  68.445  1.00  0.00    -0.044 C  
HETATM    2  C   UNL     1      -6.269   8.267  67.155  1.00  0.00    -0.056 C  
ENDROOT
BRANCH   2   3
HETATM    3  N   UNL     1      -7.554   8.260  66.492  1.00  0.00    -0.090 N  
HETATM    4  C   UNL     1      -7.905   9.260  65.613  1.00  0.00    -0.099 C  
HETATM    5  H   UNL     1      -8.211   7.502  66.679  1.00  0.00     0.000 HD 
HETATM    6  O   UNL     1      -7.177  10.207  65.346  1.00  0.00    -0.132 OA 
BRANCH   4   7
HETATM    7  C   UNL     1      -9.277   9.064  64.999  1.00  0.00    -0.116 C  
BRANCH   7   8
HETATM    8  C   UNL     1     -10.284  10.066  65.571  1.00  0.00    -0.248 C  
BRANCH   8   9
HETATM    9  C   UNL     1     -10.235  11.436  64.897  1.00  0.00    -0.330 C  
BRANCH   9  10
HETATM   10  C   UNL     1     -11.597  11.913  64.480  1.00  0.00    -0.344 C  
HETATM   11  C   UNL     1     -12.368  12.815  65.108  1.00  0.00    -0.555 C  
BRANCH  11  12
HETATM   12  C   UNL     1     -12.055  13.531  66.393  1.00  0.00    -0.467 C  
BRANCH  12  13
HETATM   13  C   UNL     1     -10.551  13.656  66.672  1.00  0.00    -0.277 C  
HETATM   14  C   UNL     1      -9.881  14.904  66.079  1.00  0.00    -0.318 C  
HETATM   15  C   UNL     1      -8.635  15.079  66.937  1.00  0.00    -0.280 C  
HETATM   16  O   UNL     1     -10.695  16.062  66.231  1.00  0.00    -0.301 OA 
HETATM   17  H   UNL     1     -10.281  16.834  65.864  1.00  0.00     0.000 HD 
HETATM   18  C   UNL     1      -9.137  14.794  68.350  1.00  0.00    -0.188 C  
HETATM   19  O   UNL     1      -9.651  15.994  68.931  1.00  0.00    -0.212 OA 
HETATM   20  C   UNL     1     -10.283  13.768  68.197  1.00  0.00    -0.253 C  
HETATM   21  H   UNL     1      -9.964  15.817  69.811  1.00  0.00     0.000 HD 
BRANCH  20  22
HETATM   22  C   UNL     1      -9.921  12.431  68.806  1.00  0.00    -0.040 C  
HETATM   23  C   UNL     1      -8.725  11.841  68.634  1.00  0.00    -0.059 C  
BRANCH  23  24
HETATM   24  C   UNL     1      -8.299  10.479  69.118  1.00  0.00    -0.151 C  
HETATM   25  H   UNL     1      -6.696   9.665  69.919  1.00  0.00     0.000 HD 
HETATM   26  O   UNL     1      -6.964  10.524  69.615  1.00  0.00    -0.102 OA 
BRANCH  24  27
HETATM   27  C   UNL     1      -9.194   9.932  70.237  1.00  0.00    -0.123 C  
BRANCH  27  28
HETATM   28  C   UNL     1     -10.132   8.812  69.779  1.00  0.00    -0.198 C  
BRANCH  28  29
HETATM   29  C   UNL     1     -10.339   7.787  70.866  1.00  0.00    -0.208 A  
HETATM   30  C   UNL     1      -9.963   8.073  72.185  1.00  0.00    -0.289 A  
HETATM   31  C   UNL     1     -10.111   7.112  73.186  1.00  0.00    -0.292 A  
HETATM   32  C   UNL     1     -10.635   5.859  72.877  1.00  0.00    -0.265 A  
HETATM   33  C   UNL     1     -11.015   5.567  71.568  1.00  0.00    -0.220 A  
HETATM   34  C   UNL     1     -10.868   6.526  70.566  1.00  0.00    -0.323 A  
ENDBRANCH  28  29
ENDBRANCH  27  28
ENDBRANCH  24  27
ENDBRANCH  23  24
ENDBRANCH  20  22
ENDBRANCH  12  13
ENDBRANCH  11  12
ENDBRANCH   9  10
ENDBRANCH   8   9
ENDBRANCH   7   8
ENDBRANCH   4   7
ENDBRANCH   2   3
TORSDOF 12
ENDMDL
MODEL      325
REMARK 921   NORMALIZED FREE ENERGY PREDICTED BY IDOCK:   -3.18 KCAL/MOL
REMARK 922        TOTAL FREE ENERGY PREDICTED BY IDOCK:   -8.25 KCAL/MOL
REMARK 923 INTER-LIGAND FREE ENERGY PREDICTED BY IDOCK:   -7.15 KCAL/MOL
REMARK 924 INTRA-LIGAND FREE ENERGY PREDICTED BY IDOCK:   -1.10 KCAL/MOL
REMARK 927      BINDING AFFINITY PREDICTED BY RF-SCORE:    0.00 PKD
ROOT
HETATM    1  C   UNL     1      -8.273  19.673  69.651  1.00  0.00     0.400 C  
HETATM    2  C   UNL     1      -6.831  19.786  69.192  1.00  0.00    -0.337 C  
ENDROOT
BRANCH   2   3
HETATM    3  N   UNL     1      -6.417  18.617  68.448  1.00  0.00    -0.221 N  
HETATM    4  C   UNL     1      -6.181  18.684  67.093  1.00  0.00    -0.181 C  
HETATM    5  H   UNL     1      -6.298  17.729  68.936  1.00  0.00     0.000 HD 
HETATM    6  O   UNL     1      -6.313  19.710  66.438  1.00  0.00    -0.179 OA 
BRANCH   4   7
HETATM    7  C   UNL     1      -5.730  17.365  66.497  1.00  0.00    -0.241 C  
BRANCH   7   8
HETATM    8  C   UNL     1      -6.690  16.234  66.874  1.00  0.00    -0.165 C  
BRANCH   8   9
HETATM    9  C   UNL     1      -6.551  15.772  68.325  1.00  0.00    -0.124 C  
BRANCH   9  10
HETATM   10  C   UNL     1      -6.248  14.304  68.426  1.00  0.00    -0.103 C  
HETATM   11  C   UNL     1      -6.996  13.288  67.967  1.00  0.00    -0.120 C  
BRANCH  11  12
HETATM   12  C   UNL     1      -8.327  13.388  67.274  1.00  0.00    -0.183 C  
BRANCH  12  13
HETATM   13  C   UNL     1      -9.524  13.269  68.228  1.00  0.00    -0.209 C  
HETATM   14  C   UNL     1     -10.488  14.464  68.216  1.00  0.00    -0.245 C  
HETATM   15  C   UNL     1     -11.786  13.876  68.751  1.00  0.00    -0.396 C  
HETATM   16  O   UNL     1     -10.722  14.939  66.895  1.00  0.00    -0.295 OA 
HETATM   17  H   UNL     1     -11.318  15.678  66.887  1.00  0.00     0.000 HD 
HETATM   18  C   UNL     1     -11.873  12.520  68.057  1.00  0.00    -0.325 C  
HETATM   19  O   UNL     1     -12.514  12.667  66.788  1.00  0.00    -0.328 OA 
HETATM   20  C   UNL     1     -10.414  12.057  67.842  1.00  0.00    -0.221 C  
HETATM   21  H   UNL     1     -12.568  11.822  66.355  1.00  0.00     0.000 HD 
BRANCH  20  22
HETATM   22  C   UNL     1     -10.089  10.832  68.669  1.00  0.00    -0.194 C  
HETATM   23  C   UNL     1      -9.434   9.764  68.181  1.00  0.00    -0.146 C  
BRANCH  23  24
HETATM   24  C   UNL     1      -9.144   8.466  68.891  1.00  0.00    -0.147 C  
HETATM   25  H   UNL     1      -8.423   7.901  70.633  1.00  0.00     0.000 HD 
HETATM   26  O   UNL     1      -8.605   8.719  70.186  1.00  0.00    -0.130 OA 
BRANCH  24  27
HETATM   27  C   UNL     1     -10.390   7.588  69.069  1.00  0.00    -0.217 C  
BRANCH  27  28
HETATM   28  C   UNL     1     -10.618   7.136  70.514  1.00  0.00    -0.243 C  
BRANCH  28  29
HETATM   29  C   UNL     1     -11.885   7.727  71.082  1.00  0.00    -0.311 A  
HETATM   30  C   UNL     1     -13.014   6.920  71.276  1.00  0.00    -0.309 A  
HETATM   31  C   UNL     1     -14.202   7.471  71.759  1.00  0.00    -0.548 A  
HETATM   32  C   UNL     1     -14.271   8.831  72.050  1.00  0.00    -0.493 A  
HETATM   33  C   UNL     1     -13.152   9.641  71.863  1.00  0.00    -0.530 A  
HETATM   34  C   UNL     1     -11.964   9.093  71.381  1.00  0.00    -0.410 A  
ENDBRANCH  28  29
ENDBRANCH  27  28
ENDBRANCH  24  27
ENDBRANCH  23  24
ENDBRANCH  20  22
ENDBRANCH  12  13
ENDBRANCH  11  12
ENDBRANCH   9  10
ENDBRANCH   8   9
ENDBRANCH   7   8
ENDBRANCH   4   7
ENDBRANCH   2   3
TORSDOF 12
ENDMDL
MODEL      326
REMARK 921   NORMALIZED FREE ENERGY PREDICTED BY IDOCK:   -3.17 KCAL/MOL
REMARK 922        TOTAL FREE ENERGY PREDICTED BY IDOCK:   -8.22 KCAL/MOL
REMARK 923 INTER-LIGAND FREE ENERGY PREDICTED BY IDOCK:   -7.65 KCAL/MOL
REMARK 924 INTRA-LIGAND FREE ENERGY PREDICTED BY IDOCK:   -0.58 KCAL/MOL
REMARK 927      BINDING AFFINITY PREDICTED BY RF-SCORE:    0.00 PKD
ROOT
HETATM    1  C   UNL     1      -5.433  11.286  71.723  1.00  0.00     0.343 C  
HETATM    2  C   UNL     1      -5.134  12.455  70.804  1.00  0.00    -0.131 C  
ENDROOT
BRANCH   2   3
HETATM    3  N   UNL     1      -5.877  12.364  69.567  1.00  0.00    -0.092 N  
HETATM    4  C   UNL     1      -6.893  13.248  69.282  1.00  0.00    -0.031 C  
HETATM    5  H   UNL     1      -5.645  11.632  68.895  1.00  0.00     0.000 HD 
HETATM    6  O   UNL     1      -7.236  14.145  70.041  1.00  0.00     0.127 OA 
BRANCH   4   7
HETATM    7  C   UNL     1      -7.534  13.010  67.929  1.00  0.00    -0.137 C  
BRANCH   7   8
HETATM    8  C   UNL     1      -7.689  14.321  67.154  1.00  0.00    -0.046 C  
BRANCH   8   9
HETATM    9  C   UNL     1      -7.028  15.517  67.838  1.00  0.00    -0.156 C  
BRANCH   9  10
HETATM   10  C   UNL     1      -6.443  16.484  66.848  1.00  0.00    -0.190 C  
HETATM   11  C   UNL     1      -6.351  17.818  66.975  1.00  0.00    -0.191 C  
BRANCH  11  12
HETATM   12  C   UNL     1      -6.843  18.651  68.125  1.00  0.00    -0.243 C  
BRANCH  12  13
HETATM   13  C   UNL     1      -8.350  18.939  68.070  1.00  0.00    -0.325 C  
HETATM   14  C   UNL     1      -8.733  20.423  68.175  1.00  0.00     0.094 C  
HETATM   15  C   UNL     1     -10.117  20.476  67.541  1.00  0.00    -0.437 C  
HETATM   16  O   UNL     1      -7.859  21.248  67.412  1.00  0.00    -0.600 OA 
HETATM   17  H   UNL     1      -8.096  22.165  67.476  1.00  0.00     0.000 HD 
HETATM   18  C   UNL     1      -9.983  19.565  66.323  1.00  0.00    -0.450 C  
HETATM   19  O   UNL     1      -9.493  20.315  65.210  1.00  0.00    -0.333 OA 
HETATM   20  C   UNL     1      -8.946  18.486  66.710  1.00  0.00    -0.293 C  
HETATM   21  H   UNL     1      -9.410  19.748  64.452  1.00  0.00     0.000 HD 
BRANCH  20  22
HETATM   22  C   UNL     1      -9.575  17.112  66.799  1.00  0.00    -0.279 C  
HETATM   23  C   UNL     1     -10.711  16.863  67.472  1.00  0.00    -0.270 C  
BRANCH  23  24
HETATM   24  C   UNL     1     -11.366  15.524  67.697  1.00  0.00    -0.260 C  
HETATM   25  H   UNL     1     -11.521  13.812  66.739  1.00  0.00     0.000 HD 
HETATM   26  O   UNL     1     -11.109  14.656  66.596  1.00  0.00    -0.320 OA 
BRANCH  24  27
HETATM   27  C   UNL     1     -10.874  14.821  68.969  1.00  0.00    -0.250 C  
BRANCH  27  28
HETATM   28  C   UNL     1     -10.719  15.762  70.167  1.00  0.00    -0.354 C  
BRANCH  28  29
HETATM   29  C   UNL     1     -11.800  15.529  71.193  1.00  0.00    -0.435 A  
HETATM   30  C   UNL     1     -11.837  16.295  72.366  1.00  0.00    -0.606 A  
HETATM   31  C   UNL     1     -12.808  16.053  73.338  1.00  0.00    -0.671 A  
HETATM   32  C   UNL     1     -13.749  15.044  73.147  1.00  0.00    -0.158 A  
HETATM   33  C   UNL     1     -13.723  14.280  71.981  1.00  0.00    -0.542 A  
HETATM   34  C   UNL     1     -12.753  14.519  71.008  1.00  0.00    -0.413 A  
ENDBRANCH  28  29
ENDBRANCH  27  28
ENDBRANCH  24  27
ENDBRANCH  23  24
ENDBRANCH  20  22
ENDBRANCH  12  13
ENDBRANCH  11  12
ENDBRANCH   9  10
ENDBRANCH   8   9
ENDBRANCH   7   8
ENDBRANCH   4   7
ENDBRANCH   2   3
TORSDOF 12
ENDMDL
MODEL      327
REMARK 921   NORMALIZED FREE ENERGY PREDICTED BY IDOCK:   -3.16 KCAL/MOL
REMARK 922        TOTAL FREE ENERGY PREDICTED BY IDOCK:   -8.22 KCAL/MOL
REMARK 923 INTER-LIGAND FREE ENERGY PREDICTED BY IDOCK:   -5.84 KCAL/MOL
REMARK 924 INTRA-LIGAND FREE ENERGY PREDICTED BY IDOCK:   -2.38 KCAL/MOL
REMARK 927      BINDING AFFINITY PREDICTED BY RF-SCORE:    0.00 PKD
ROOT
HETATM    1  C   UNL     1     -13.426  12.221  72.201  1.00  0.00    -0.431 C  
HETATM    2  C   UNL     1     -12.589  11.509  71.155  1.00  0.00    -0.359 C  
ENDROOT
BRANCH   2   3
HETATM    3  N   UNL     1     -11.774  12.437  70.404  1.00  0.00    -0.540 N  
HETATM    4  C   UNL     1     -11.672  12.345  69.034  1.00  0.00    -0.323 C  
HETATM    5  H   UNL     1     -11.266  13.172  70.896  1.00  0.00     0.000 HD 
HETATM    6  O   UNL     1     -12.241  11.485  68.374  1.00  0.00    -0.540 OA 
BRANCH   4   7
HETATM    7  C   UNL     1     -10.795  13.420  68.423  1.00  0.00    -0.284 C  
BRANCH   7   8
HETATM    8  C   UNL     1      -9.787  12.818  67.441  1.00  0.00    -0.210 C  
BRANCH   8   9
HETATM    9  C   UNL     1      -8.870  11.770  68.071  1.00  0.00    -0.164 C  
BRANCH   9  10
HETATM   10  C   UNL     1      -7.772  11.343  67.139  1.00  0.00    -0.152 C  
HETATM   11  C   UNL     1      -7.873  10.499  66.100  1.00  0.00    -0.145 C  
BRANCH  11  12
HETATM   12  C   UNL     1      -9.105   9.762  65.652  1.00  0.00    -0.222 C  
BRANCH  12  13
HETATM   13  C   UNL     1      -8.989   8.237  65.789  1.00  0.00    -0.185 C  
HETATM   14  C   UNL     1      -8.032   7.566  64.792  1.00  0.00    -0.132 C  
HETATM   15  C   UNL     1      -7.672   6.255  65.477  1.00  0.00    -0.095 C  
HETATM   16  O   UNL     1      -6.838   8.322  64.617  1.00  0.00    -0.067 OA 
HETATM   17  H   UNL     1      -6.246   7.907  64.001  1.00  0.00     0.000 HD 
HETATM   18  C   UNL     1      -7.468   6.661  66.935  1.00  0.00    -0.087 C  
HETATM   19  O   UNL     1      -6.118   7.084  67.134  1.00  0.00    -0.036 OA 
HETATM   20  C   UNL     1      -8.421   7.853  67.181  1.00  0.00    -0.117 C  
HETATM   21  H   UNL     1      -5.992   7.337  68.041  1.00  0.00     0.000 HD 
BRANCH  20  22
HETATM   22  C   UNL     1      -9.519   7.497  68.160  1.00  0.00    -0.147 C  
HETATM   23  C   UNL     1      -9.954   8.335  69.117  1.00  0.00    -0.196 C  
BRANCH  23  24
HETATM   24  C   UNL     1     -10.970   8.046  70.192  1.00  0.00    -0.226 C  
HETATM   25  H   UNL     1     -12.323   6.667  70.569  1.00  0.00     0.000 HD 
HETATM   26  O   UNL     1     -11.683   6.849  69.892  1.00  0.00    -0.244 OA 
BRANCH  24  27
HETATM   27  C   UNL     1     -10.343   7.878  71.582  1.00  0.00    -0.250 C  
BRANCH  27  28
HETATM   28  C   UNL     1     -10.026   6.423  71.939  1.00  0.00    -0.193 C  
BRANCH  28  29
HETATM   29  C   UNL     1      -8.793   5.937  71.220  1.00  0.00    -0.137 A  
HETATM   30  C   UNL     1      -8.813   4.718  70.528  1.00  0.00    -0.142 A  
HETATM   31  C   UNL     1      -7.663   4.243  69.899  1.00  0.00    -0.053 A  
HETATM   32  C   UNL     1      -6.482   4.980  69.957  1.00  0.00    -0.035 A  
HETATM   33  C   UNL     1      -6.453   6.195  70.639  1.00  0.00    -0.041 A  
HETATM   34  C   UNL     1      -7.602   6.672  71.269  1.00  0.00    -0.093 A  
ENDBRANCH  28  29
ENDBRANCH  27  28
ENDBRANCH  24  27
ENDBRANCH  23  24
ENDBRANCH  20  22
ENDBRANCH  12  13
ENDBRANCH  11  12
ENDBRANCH   9  10
ENDBRANCH   8   9
ENDBRANCH   7   8
ENDBRANCH   4   7
ENDBRANCH   2   3
TORSDOF 12
ENDMDL
MODEL      328
REMARK 921   NORMALIZED FREE ENERGY PREDICTED BY IDOCK:   -3.15 KCAL/MOL
REMARK 922        TOTAL FREE ENERGY PREDICTED BY IDOCK:   -8.20 KCAL/MOL
REMARK 923 INTER-LIGAND FREE ENERGY PREDICTED BY IDOCK:   -6.82 KCAL/MOL
REMARK 924 INTRA-LIGAND FREE ENERGY PREDICTED BY IDOCK:   -1.38 KCAL/MOL
REMARK 927      BINDING AFFINITY PREDICTED BY RF-SCORE:    0.00 PKD
ROOT
HETATM    1  C   UNL     1      -9.788  19.507  67.262  1.00  0.00    -0.468 C  
HETATM    2  C   UNL     1     -10.008  18.701  68.529  1.00  0.00    -0.388 C  
ENDROOT
BRANCH   2   3
HETATM    3  N   UNL     1      -9.509  17.351  68.394  1.00  0.00    -0.283 N  
HETATM    4  C   UNL     1     -10.371  16.282  68.293  1.00  0.00    -0.272 C  
HETATM    5  H   UNL     1      -8.502  17.188  68.373  1.00  0.00     0.000 HD 
HETATM    6  O   UNL     1     -11.590  16.397  68.321  1.00  0.00    -0.255 OA 
BRANCH   4   7
HETATM    7  C   UNL     1      -9.662  14.952  68.132  1.00  0.00    -0.214 C  
BRANCH   7   8
HETATM    8  C   UNL     1     -10.596  13.786  68.464  1.00  0.00    -0.261 C  
BRANCH   8   9
HETATM    9  C   UNL     1     -10.049  12.424  68.038  1.00  0.00    -0.214 C  
BRANCH   9  10
HETATM   10  C   UNL     1     -11.144  11.460  67.679  1.00  0.00    -0.325 C  
HETATM   11  C   UNL     1     -11.032  10.134  67.501  1.00  0.00    -0.319 C  
BRANCH  11  12
HETATM   12  C   UNL     1      -9.773   9.316  67.589  1.00  0.00    -0.195 C  
BRANCH  12  13
HETATM   13  C   UNL     1     -10.008   7.885  68.093  1.00  0.00    -0.210 C  
HETATM   14  C   UNL     1     -10.840   6.994  67.158  1.00  0.00    -0.357 C  
HETATM   15  C   UNL     1     -10.445   5.583  67.571  1.00  0.00    -0.269 C  
HETATM   16  O   UNL     1     -10.477   7.179  65.794  1.00  0.00     0.520 OA 
HETATM   17  H   UNL     1     -10.991   6.629  65.215  1.00  0.00     0.000 HD 
HETATM   18  C   UNL     1      -8.935   5.682  67.771  1.00  0.00    -0.107 C  
HETATM   19  O   UNL     1      -8.268   5.456  66.527  1.00  0.00    -0.108 OA 
HETATM   20  C   UNL     1      -8.661   7.128  68.244  1.00  0.00    -0.128 C  
HETATM   21  H   UNL     1      -7.328   5.518  66.652  1.00  0.00     0.000 HD 
BRANCH  20  22
HETATM   22  C   UNL     1      -8.151   7.162  69.668  1.00  0.00    -0.129 C  
HETATM   23  C   UNL     1      -8.841   7.703  70.687  1.00  0.00    -0.145 C  
BRANCH  23  24
HETATM   24  C   UNL     1      -8.385   7.870  72.114  1.00  0.00    -0.131 C  
HETATM   25  H   UNL     1      -7.796   9.341  73.281  1.00  0.00     0.000 HD 
HETATM   26  O   UNL     1      -8.083   9.236  72.381  1.00  0.00    -0.008 OA 
BRANCH  24  27
HETATM   27  C   UNL     1      -9.435   7.416  73.136  1.00  0.00    -0.249 C  
BRANCH  27  28
HETATM   28  C   UNL     1     -10.564   6.581  72.526  1.00  0.00    -0.240 C  
BRANCH  28  29
HETATM   29  C   UNL     1     -11.706   7.452  72.065  1.00  0.00    -0.325 A  
HETATM   30  C   UNL     1     -11.662   8.838  72.268  1.00  0.00    -0.398 A  
HETATM   31  C   UNL     1     -12.735   9.642  71.884  1.00  0.00    -0.499 A  
HETATM   32  C   UNL     1     -13.860   9.069  71.295  1.00  0.00    -0.224 A  
HETATM   33  C   UNL     1     -13.910   7.692  71.085  1.00  0.00    -0.236 A  
HETATM   34  C   UNL     1     -12.839   6.885  71.468  1.00  0.00    -0.384 A  
ENDBRANCH  28  29
ENDBRANCH  27  28
ENDBRANCH  24  27
ENDBRANCH  23  24
ENDBRANCH  20  22
ENDBRANCH  12  13
ENDBRANCH  11  12
ENDBRANCH   9  10
ENDBRANCH   8   9
ENDBRANCH   7   8
ENDBRANCH   4   7
ENDBRANCH   2   3
TORSDOF 12
ENDMDL
MODEL      329
REMARK 921   NORMALIZED FREE ENERGY PREDICTED BY IDOCK:   -3.15 KCAL/MOL
REMARK 922        TOTAL FREE ENERGY PREDICTED BY IDOCK:   -8.20 KCAL/MOL
REMARK 923 INTER-LIGAND FREE ENERGY PREDICTED BY IDOCK:   -6.54 KCAL/MOL
REMARK 924 INTRA-LIGAND FREE ENERGY PREDICTED BY IDOCK:   -1.66 KCAL/MOL
REMARK 927      BINDING AFFINITY PREDICTED BY RF-SCORE:    0.00 PKD
ROOT
HETATM    1  C   UNL     1     -12.998  13.872  65.205  1.00  0.00    -0.341 C  
HETATM    2  C   UNL     1     -11.578  14.054  64.703  1.00  0.00    -0.392 C  
ENDROOT
BRANCH   2   3
HETATM    3  N   UNL     1     -10.910  15.143  65.379  1.00  0.00    -0.357 N  
HETATM    4  C   UNL     1     -11.062  16.443  64.953  1.00  0.00    -0.239 C  
HETATM    5  H   UNL     1     -10.317  14.945  66.185  1.00  0.00     0.000 HD 
HETATM    6  O   UNL     1     -11.747  16.759  63.989  1.00  0.00    -1.120 OA 
BRANCH   4   7
HETATM    7  C   UNL     1     -10.307  17.446  65.803  1.00  0.00    -0.226 C  
BRANCH   7   8
HETATM    8  C   UNL     1      -8.901  16.938  66.135  1.00  0.00    -0.279 C  
BRANCH   8   9
HETATM    9  C   UNL     1      -8.701  16.614  67.615  1.00  0.00    -0.206 C  
BRANCH   9  10
HETATM   10  C   UNL     1      -7.518  15.718  67.845  1.00  0.00    -0.147 C  
HETATM   11  C   UNL     1      -7.392  14.432  67.481  1.00  0.00    -0.208 C  
BRANCH  11  12
HETATM   12  C   UNL     1      -8.423  13.585  66.787  1.00  0.00     0.013 C  
BRANCH  12  13
HETATM   13  C   UNL     1      -8.915  12.404  67.636  1.00  0.00    -0.183 C  
HETATM   14  C   UNL     1      -9.982  12.754  68.683  1.00  0.00    -0.091 C  
HETATM   15  C   UNL     1     -10.671  11.422  68.945  1.00  0.00    -0.248 C  
HETATM   16  O   UNL     1     -10.947  13.664  68.167  1.00  0.00    -0.240 OA 
HETATM   17  H   UNL     1     -11.607  13.881  68.815  1.00  0.00     0.000 HD 
HETATM   18  C   UNL     1     -10.805  10.813  67.551  1.00  0.00    -0.288 C  
HETATM   19  O   UNL     1     -12.014  11.267  66.940  1.00  0.00    -0.327 OA 
HETATM   20  C   UNL     1      -9.595  11.332  66.741  1.00  0.00    -0.214 C  
HETATM   21  H   UNL     1     -12.097  10.888  66.072  1.00  0.00     0.000 HD 
BRANCH  20  22
HETATM   22  C   UNL     1      -8.643  10.212  66.379  1.00  0.00    -0.137 C  
HETATM   23  C   UNL     1      -8.974   9.198  65.561  1.00  0.00    -0.252 C  
BRANCH  23  24
HETATM   24  C   UNL     1      -8.137   7.994  65.213  1.00  0.00    -0.138 C  
HETATM   25  H   UNL     1      -6.265   7.425  65.426  1.00  0.00     0.000 HD 
HETATM   26  O   UNL     1      -6.792   8.184  65.646  1.00  0.00    -0.064 OA 
BRANCH  24  27
HETATM   27  C   UNL     1      -8.653   6.698  65.851  1.00  0.00    -0.153 C  
BRANCH  27  28
HETATM   28  C   UNL     1      -7.542   5.705  66.205  1.00  0.00    -0.091 C  
BRANCH  28  29
HETATM   29  C   UNL     1      -7.841   4.981  67.494  1.00  0.00    -0.095 A  
HETATM   30  C   UNL     1      -9.044   5.217  68.173  1.00  0.00    -0.125 A  
HETATM   31  C   UNL     1      -9.305   4.583  69.388  1.00  0.00    -0.217 A  
HETATM   32  C   UNL     1      -8.367   3.709  69.934  1.00  0.00    -0.079 A  
HETATM   33  C   UNL     1      -7.170   3.465  69.263  1.00  0.00    -0.049 A  
HETATM   34  C   UNL     1      -6.906   4.098  68.049  1.00  0.00    -0.048 A  
ENDBRANCH  28  29
ENDBRANCH  27  28
ENDBRANCH  24  27
ENDBRANCH  23  24
ENDBRANCH  20  22
ENDBRANCH  12  13
ENDBRANCH  11  12
ENDBRANCH   9  10
ENDBRANCH   8   9
ENDBRANCH   7   8
ENDBRANCH   4   7
ENDBRANCH   2   3
TORSDOF 12
ENDMDL
MODEL      330
REMARK 921   NORMALIZED FREE ENERGY PREDICTED BY IDOCK:   -3.15 KCAL/MOL
REMARK 922        TOTAL FREE ENERGY PREDICTED BY IDOCK:   -8.20 KCAL/MOL
REMARK 923 INTER-LIGAND FREE ENERGY PREDICTED BY IDOCK:   -5.93 KCAL/MOL
REMARK 924 INTRA-LIGAND FREE ENERGY PREDICTED BY IDOCK:   -2.26 KCAL/MOL
REMARK 927      BINDING AFFINITY PREDICTED BY RF-SCORE:    0.00 PKD
ROOT
HETATM    1  C   UNL     1     -10.487   4.171  63.106  1.00  0.00    -0.053 C  
HETATM    2  C   UNL     1     -10.457   3.727  64.556  1.00  0.00    -0.182 C  
ENDROOT
BRANCH   2   3
HETATM    3  N   UNL     1     -10.232   4.842  65.449  1.00  0.00    -0.414 N  
HETATM    4  C   UNL     1      -8.959   5.194  65.838  1.00  0.00    -0.145 C  
HETATM    5  H   UNL     1     -11.029   5.375  65.797  1.00  0.00     0.000 HD 
HETATM    6  O   UNL     1      -7.955   4.596  65.473  1.00  0.00    -0.093 OA 
BRANCH   4   7
HETATM    7  C   UNL     1      -8.924   6.402  66.753  1.00  0.00    -0.134 C  
BRANCH   7   8
HETATM    8  C   UNL     1      -8.084   6.124  68.002  1.00  0.00    -0.114 C  
BRANCH   8   9
HETATM    9  C   UNL     1      -6.943   7.120  68.206  1.00  0.00    -0.076 C  
BRANCH   9  10
HETATM   10  C   UNL     1      -6.787   8.051  67.038  1.00  0.00    -0.073 C  
HETATM   11  C   UNL     1      -6.472   9.356  67.076  1.00  0.00    -0.067 C  
BRANCH  11  12
HETATM   12  C   UNL     1      -6.235  10.191  68.305  1.00  0.00    -0.049 C  
BRANCH  12  13
HETATM   13  C   UNL     1      -7.237  11.343  68.463  1.00  0.00    -0.093 C  
HETATM   14  C   UNL     1      -6.834  12.655  67.773  1.00  0.00    -0.128 C  
HETATM   15  C   UNL     1      -8.161  13.379  67.589  1.00  0.00    -0.177 C  
HETATM   16  O   UNL     1      -6.270  12.422  66.487  1.00  0.00    -0.439 OA 
HETATM   17  H   UNL     1      -6.021  13.233  66.060  1.00  0.00     0.000 HD 
HETATM   18  C   UNL     1      -9.111  12.270  67.145  1.00  0.00    -0.193 C  
HETATM   19  O   UNL     1      -9.048  12.120  65.725  1.00  0.00    -0.425 OA 
HETATM   20  C   UNL     1      -8.601  10.976  67.819  1.00  0.00    -0.130 C  
HETATM   21  H   UNL     1      -9.639  11.429  65.448  1.00  0.00     0.000 HD 
BRANCH  20  22
HETATM   22  C   UNL     1      -9.586  10.454  68.843  1.00  0.00    -0.197 C  
HETATM   23  C   UNL     1      -9.378   9.339  69.565  1.00  0.00    -0.177 C  
BRANCH  23  24
HETATM   24  C   UNL     1     -10.330   8.689  70.536  1.00  0.00    -0.202 C  
HETATM   25  H   UNL     1     -11.874   9.232  71.630  1.00  0.00     0.000 HD 
HETATM   26  O   UNL     1     -11.274   9.642  71.018  1.00  0.00    -0.316 OA 
BRANCH  24  27
HETATM   27  C   UNL     1     -11.117   7.526  69.919  1.00  0.00    -0.185 C  
BRANCH  27  28
HETATM   28  C   UNL     1     -11.929   6.725  70.940  1.00  0.00    -0.437 C  
BRANCH  28  29
HETATM   29  C   UNL     1     -11.037   5.870  71.805  1.00  0.00    -0.324 A  
HETATM   30  C   UNL     1     -10.229   4.883  71.225  1.00  0.00    -0.248 A  
HETATM   31  C   UNL     1      -9.436   4.060  72.025  1.00  0.00    -0.198 A  
HETATM   32  C   UNL     1      -9.442   4.217  73.409  1.00  0.00    -0.127 A  
HETATM   33  C   UNL     1     -10.239   5.200  73.994  1.00  0.00    -0.270 A  
HETATM   34  C   UNL     1     -11.034   6.023  73.197  1.00  0.00    -0.269 A  
ENDBRANCH  28  29
ENDBRANCH  27  28
ENDBRANCH  24  27
ENDBRANCH  23  24
ENDBRANCH  20  22
ENDBRANCH  12  13
ENDBRANCH  11  12
ENDBRANCH   9  10
ENDBRANCH   8   9
ENDBRANCH   7   8
ENDBRANCH   4   7
ENDBRANCH   2   3
TORSDOF 12
ENDMDL
MODEL      331
REMARK 921   NORMALIZED FREE ENERGY PREDICTED BY IDOCK:   -3.15 KCAL/MOL
REMARK 922        TOTAL FREE ENERGY PREDICTED BY IDOCK:   -8.19 KCAL/MOL
REMARK 923 INTER-LIGAND FREE ENERGY PREDICTED BY IDOCK:   -5.93 KCAL/MOL
REMARK 924 INTRA-LIGAND FREE ENERGY PREDICTED BY IDOCK:   -2.26 KCAL/MOL
REMARK 927      BINDING AFFINITY PREDICTED BY RF-SCORE:    0.00 PKD
ROOT
HETATM    1  C   UNL     1     -10.711   5.413  66.605  1.00  0.00    -0.309 C  
HETATM    2  C   UNL     1     -10.756   6.521  67.640  1.00  0.00    -0.307 C  
ENDROOT
BRANCH   2   3
HETATM    3  N   UNL     1      -9.440   7.060  67.900  1.00  0.00    -0.125 N  
HETATM    4  C   UNL     1      -8.788   6.802  69.084  1.00  0.00    -0.134 C  
HETATM    5  H   UNL     1      -8.987   7.642  67.194  1.00  0.00     0.000 HD 
HETATM    6  O   UNL     1      -9.269   6.123  69.983  1.00  0.00    -0.148 OA 
BRANCH   4   7
HETATM    7  C   UNL     1      -7.410   7.430  69.160  1.00  0.00    -0.090 C  
BRANCH   7   8
HETATM    8  C   UNL     1      -7.136   7.989  70.559  1.00  0.00    -0.045 C  
BRANCH   8   9
HETATM    9  C   UNL     1      -6.896   9.499  70.578  1.00  0.00    -0.112 C  
BRANCH   9  10
HETATM   10  C   UNL     1      -5.815   9.913  69.621  1.00  0.00    -0.041 C  
HETATM   11  C   UNL     1      -5.306  11.144  69.455  1.00  0.00    -0.045 C  
BRANCH  11  12
HETATM   12  C   UNL     1      -5.729  12.399  70.170  1.00  0.00    -0.157 C  
BRANCH  12  13
HETATM   13  C   UNL     1      -6.685  13.276  69.350  1.00  0.00    -0.032 C  
HETATM   14  C   UNL     1      -6.800  14.732  69.825  1.00  0.00    -0.173 C  
HETATM   15  C   UNL     1      -7.297  15.469  68.588  1.00  0.00    -0.125 C  
HETATM   16  O   UNL     1      -5.534  15.270  70.188  1.00  0.00    -0.117 OA 
HETATM   17  H   UNL     1      -5.605  16.170  70.482  1.00  0.00     0.000 HD 
HETATM   18  C   UNL     1      -6.479  14.852  67.457  1.00  0.00    -0.077 C  
HETATM   19  O   UNL     1      -5.239  15.551  67.321  1.00  0.00    -0.336 OA 
HETATM   20  C   UNL     1      -6.199  13.392  67.880  1.00  0.00    -0.147 C  
HETATM   21  H   UNL     1      -4.730  15.166  66.617  1.00  0.00     0.000 HD 
BRANCH  20  22
HETATM   22  C   UNL     1      -6.902  12.404  66.974  1.00  0.00    -0.006 C  
HETATM   23  C   UNL     1      -8.209  12.107  67.079  1.00  0.00    -0.164 C  
BRANCH  23  24
HETATM   24  C   UNL     1      -8.979  11.077  66.292  1.00  0.00    -0.185 C  
HETATM   25  H   UNL     1      -9.216   9.123  66.312  1.00  0.00     0.000 HD 
HETATM   26  O   UNL     1      -8.731   9.772  66.808  1.00  0.00    -0.130 OA 
BRANCH  24  27
HETATM   27  C   UNL     1     -10.495  11.309  66.320  1.00  0.00    -0.308 C  
BRANCH  27  28
HETATM   28  C   UNL     1     -11.155  10.879  67.633  1.00  0.00    -0.376 C  
BRANCH  28  29
HETATM   29  C   UNL     1     -11.540  12.072  68.473  1.00  0.00    -0.363 A  
HETATM   30  C   UNL     1     -11.821  11.914  69.836  1.00  0.00    -0.418 A  
HETATM   31  C   UNL     1     -12.220  13.006  70.607  1.00  0.00    -0.390 A  
HETATM   32  C   UNL     1     -12.343  14.264  70.021  1.00  0.00    -0.403 A  
HETATM   33  C   UNL     1     -12.062  14.432  68.666  1.00  0.00    -0.274 A  
HETATM   34  C   UNL     1     -11.663  13.341  67.894  1.00  0.00    -0.395 A  
ENDBRANCH  28  29
ENDBRANCH  27  28
ENDBRANCH  24  27
ENDBRANCH  23  24
ENDBRANCH  20  22
ENDBRANCH  12  13
ENDBRANCH  11  12
ENDBRANCH   9  10
ENDBRANCH   8   9
ENDBRANCH   7   8
ENDBRANCH   4   7
ENDBRANCH   2   3
TORSDOF 12
ENDMDL
MODEL      332
REMARK 921   NORMALIZED FREE ENERGY PREDICTED BY IDOCK:   -3.09 KCAL/MOL
REMARK 922        TOTAL FREE ENERGY PREDICTED BY IDOCK:   -8.10 KCAL/MOL
REMARK 923 INTER-LIGAND FREE ENERGY PREDICTED BY IDOCK:   -6.20 KCAL/MOL
REMARK 924 INTRA-LIGAND FREE ENERGY PREDICTED BY IDOCK:   -1.90 KCAL/MOL
REMARK 927      BINDING AFFINITY PREDICTED BY RF-SCORE:    0.00 PKD
ROOT
HETATM    1  C   UNL     1     -10.748   5.381  66.633  1.00  0.00    -0.309 C  
HETATM    2  C   UNL     1     -10.848   6.592  67.541  1.00  0.00    -0.352 C  
ENDROOT
BRANCH   2   3
HETATM    3  N   UNL     1      -9.547   7.150  67.829  1.00  0.00    -0.128 N  
HETATM    4  C   UNL     1      -8.959   6.982  69.063  1.00  0.00    -0.133 C  
HETATM    5  H   UNL     1      -9.055   7.677  67.108  1.00  0.00     0.000 HD 
HETATM    6  O   UNL     1      -9.490   6.372  69.983  1.00  0.00    -0.155 OA 
BRANCH   4   7
HETATM    7  C   UNL     1      -7.586   7.615  69.166  1.00  0.00    -0.100 C  
BRANCH   7   8
HETATM    8  C   UNL     1      -7.377   8.257  70.540  1.00  0.00    -0.056 C  
BRANCH   8   9
HETATM    9  C   UNL     1      -7.046   9.747  70.475  1.00  0.00    -0.130 C  
BRANCH   9  10
HETATM   10  C   UNL     1      -6.046  10.060  69.398  1.00  0.00    -0.041 C  
HETATM   11  C   UNL     1      -5.460  11.243  69.154  1.00  0.00    -0.040 C  
BRANCH  11  12
HETATM   12  C   UNL     1      -5.697  12.535  69.886  1.00  0.00    -0.124 C  
BRANCH  12  13
HETATM   13  C   UNL     1      -6.840  13.372  69.294  1.00  0.00    -0.036 C  
HETATM   14  C   UNL     1      -6.937  14.809  69.827  1.00  0.00    -0.158 C  
HETATM   15  C   UNL     1      -7.703  15.540  68.733  1.00  0.00    -0.159 C  
HETATM   16  O   UNL     1      -5.655  15.412  69.956  1.00  0.00    -0.117 OA 
HETATM   17  H   UNL     1      -5.715  16.301  70.285  1.00  0.00     0.000 HD 
HETATM   18  C   UNL     1      -7.089  14.995  67.446  1.00  0.00    -0.175 C  
HETATM   19  O   UNL     1      -5.939  15.767  67.095  1.00  0.00    -0.328 OA 
HETATM   20  C   UNL     1      -6.656  13.545  67.762  1.00  0.00    -0.175 C  
HETATM   21  H   UNL     1      -5.556  15.426  66.294  1.00  0.00     0.000 HD 
BRANCH  20  22
HETATM   22  C   UNL     1      -7.468  12.536  66.979  1.00  0.00    -0.009 C  
HETATM   23  C   UNL     1      -8.663  12.074  67.387  1.00  0.00    -0.170 C  
BRANCH  23  24
HETATM   24  C   UNL     1      -9.503  11.008  66.732  1.00  0.00    -0.182 C  
HETATM   25  H   UNL     1      -9.424   9.057  66.478  1.00  0.00     0.000 HD 
HETATM   26  O   UNL     1      -8.894   9.729  66.892  1.00  0.00    -0.136 OA 
BRANCH  24  27
HETATM   27  C   UNL     1     -10.922  10.922  67.308  1.00  0.00    -0.355 C  
BRANCH  27  28
HETATM   28  C   UNL     1     -11.670  12.258  67.293  1.00  0.00    -0.394 C  
BRANCH  28  29
HETATM   29  C   UNL     1     -11.837  12.780  65.888  1.00  0.00    -0.490 A  
HETATM   30  C   UNL     1     -11.988  14.154  65.658  1.00  0.00    -0.401 A  
HETATM   31  C   UNL     1     -12.188  14.637  64.365  1.00  0.00    -0.473 A  
HETATM   32  C   UNL     1     -12.238  13.751  63.291  1.00  0.00     0.039 A  
HETATM   33  C   UNL     1     -12.085  12.383  63.509  1.00  0.00    -0.651 A  
HETATM   34  C   UNL     1     -11.886  11.898  64.801  1.00  0.00    -0.259 A  
ENDBRANCH  28  29
ENDBRANCH  27  28
ENDBRANCH  24  27
ENDBRANCH  23  24
ENDBRANCH  20  22
ENDBRANCH  12  13
ENDBRANCH  11  12
ENDBRANCH   9  10
ENDBRANCH   8   9
ENDBRANCH   7   8
ENDBRANCH   4   7
ENDBRANCH   2   3
TORSDOF 12
ENDMDL
MODEL      333
REMARK 921   NORMALIZED FREE ENERGY PREDICTED BY IDOCK:   -3.07 KCAL/MOL
REMARK 922        TOTAL FREE ENERGY PREDICTED BY IDOCK:   -8.07 KCAL/MOL
REMARK 923 INTER-LIGAND FREE ENERGY PREDICTED BY IDOCK:   -7.69 KCAL/MOL
REMARK 924 INTRA-LIGAND FREE ENERGY PREDICTED BY IDOCK:   -0.38 KCAL/MOL
REMARK 927      BINDING AFFINITY PREDICTED BY RF-SCORE:    0.00 PKD
ROOT
HETATM    1  C   UNL     1     -11.432  15.453  72.572  1.00  0.00    -0.441 C  
HETATM    2  C   UNL     1     -12.387  14.825  71.575  1.00  0.00    -0.344 C  
ENDROOT
BRANCH   2   3
HETATM    3  N   UNL     1     -12.342  13.381  71.632  1.00  0.00    -0.169 N  
HETATM    4  C   UNL     1     -13.382  12.659  72.173  1.00  0.00    -0.466 C  
HETATM    5  H   UNL     1     -11.527  12.890  71.266  1.00  0.00     0.000 HD 
HETATM    6  O   UNL     1     -14.388  13.176  72.642  1.00  0.00    -0.636 OA 
BRANCH   4   7
HETATM    7  C   UNL     1     -13.163  11.160  72.119  1.00  0.00    -0.297 C  
BRANCH   7   8
HETATM    8  C   UNL     1     -12.859  10.699  70.691  1.00  0.00    -0.404 C  
BRANCH   8   9
HETATM    9  C   UNL     1     -11.384  10.823  70.310  1.00  0.00    -0.374 C  
BRANCH   9  10
HETATM   10  C   UNL     1     -10.800   9.511  69.870  1.00  0.00    -0.272 C  
HETATM   11  C   UNL     1      -9.503   9.162  69.862  1.00  0.00    -0.199 C  
BRANCH  11  12
HETATM   12  C   UNL     1      -8.335  10.021  70.262  1.00  0.00     0.041 C  
BRANCH  12  13
HETATM   13  C   UNL     1      -7.865  10.969  69.150  1.00  0.00    -0.092 C  
HETATM   14  C   UNL     1      -6.649  10.480  68.350  1.00  0.00    -0.055 C  
HETATM   15  C   UNL     1      -6.756  11.248  67.039  1.00  0.00    -0.126 C  
HETATM   16  O   UNL     1      -6.732   9.088  68.062  1.00  0.00    -0.066 OA 
HETATM   17  H   UNL     1      -5.980   8.786  67.567  1.00  0.00     0.000 HD 
HETATM   18  C   UNL     1      -8.247  11.193  66.718  1.00  0.00    -0.154 C  
HETATM   19  O   UNL     1      -8.541   9.998  65.990  1.00  0.00    -0.133 OA 
HETATM   20  C   UNL     1      -8.975  11.154  68.081  1.00  0.00    -0.159 C  
HETATM   21  H   UNL     1      -9.469   9.964  65.791  1.00  0.00     0.000 HD 
BRANCH  20  22
HETATM   22  C   UNL     1      -9.783  12.412  68.319  1.00  0.00    -0.218 C  
HETATM   23  C   UNL     1      -9.408  13.625  67.876  1.00  0.00    -0.206 C  
BRANCH  23  24
HETATM   24  C   UNL     1     -10.089  14.944  68.137  1.00  0.00    -0.222 C  
HETATM   25  H   UNL     1      -9.903  16.442  69.400  1.00  0.00     0.000 HD 
HETATM   26  O   UNL     1      -9.473  15.611  69.236  1.00  0.00    -0.230 OA 
BRANCH  24  27
HETATM   27  C   UNL     1     -10.042  15.892  66.932  1.00  0.00    -0.267 C  
BRANCH  27  28
HETATM   28  C   UNL     1      -9.529  15.229  65.650  1.00  0.00    -0.240 C  
BRANCH  28  29
HETATM   29  C   UNL     1     -10.584  14.351  65.025  1.00  0.00    -0.452 A  
HETATM   30  C   UNL     1     -11.926  14.477  65.409  1.00  0.00    -0.332 A  
HETATM   31  C   UNL     1     -12.898  13.637  64.866  1.00  0.00    -0.256 A  
HETATM   32  C   UNL     1     -12.538  12.664  63.937  1.00  0.00    -0.432 A  
HETATM   33  C   UNL     1     -11.206  12.533  63.546  1.00  0.00    -0.525 A  
HETATM   34  C   UNL     1     -10.232  13.372  64.087  1.00  0.00     0.039 A  
ENDBRANCH  28  29
ENDBRANCH  27  28
ENDBRANCH  24  27
ENDBRANCH  23  24
ENDBRANCH  20  22
ENDBRANCH  12  13
ENDBRANCH  11  12
ENDBRANCH   9  10
ENDBRANCH   8   9
ENDBRANCH   7   8
ENDBRANCH   4   7
ENDBRANCH   2   3
TORSDOF 12
ENDMDL
MODEL      334
REMARK 921   NORMALIZED FREE ENERGY PREDICTED BY IDOCK:   -3.04 KCAL/MOL
REMARK 922        TOTAL FREE ENERGY PREDICTED BY IDOCK:   -8.01 KCAL/MOL
REMARK 923 INTER-LIGAND FREE ENERGY PREDICTED BY IDOCK:   -4.38 KCAL/MOL
REMARK 924 INTRA-LIGAND FREE ENERGY PREDICTED BY IDOCK:   -3.63 KCAL/MOL
REMARK 927      BINDING AFFINITY PREDICTED BY RF-SCORE:    0.00 PKD
ROOT
HETATM    1  C   UNL     1      -6.012  11.142  66.174  1.00  0.00    -0.103 C  
HETATM    2  C   UNL     1      -7.189  10.475  66.861  1.00  0.00    -0.106 C  
ENDROOT
BRANCH   2   3
HETATM    3  N   UNL     1      -7.002   9.045  66.967  1.00  0.00    -0.077 N  
HETATM    4  C   UNL     1      -7.518   8.190  66.020  1.00  0.00    -0.080 C  
HETATM    5  H   UNL     1      -6.480   8.665  67.756  1.00  0.00     0.000 HD 
HETATM    6  O   UNL     1      -8.164   8.569  65.051  1.00  0.00    -0.142 OA 
BRANCH   4   7
HETATM    7  C   UNL     1      -7.196   6.733  66.288  1.00  0.00    -0.072 C  
BRANCH   7   8
HETATM    8  C   UNL     1      -7.313   6.408  67.780  1.00  0.00    -0.088 C  
BRANCH   8   9
HETATM    9  C   UNL     1      -7.213   4.916  68.091  1.00  0.00    -0.062 C  
BRANCH   9  10
HETATM   10  C   UNL     1      -6.208   4.627  69.169  1.00  0.00    -0.031 C  
HETATM   11  C   UNL     1      -6.380   3.853  70.253  1.00  0.00    -0.027 C  
BRANCH  11  12
HETATM   12  C   UNL     1      -7.634   3.124  70.650  1.00  0.00    -0.040 C  
BRANCH  12  13
HETATM   13  C   UNL     1      -8.748   4.054  71.153  1.00  0.00    -0.123 C  
HETATM   14  C   UNL     1     -10.004   3.341  71.675  1.00  0.00    -0.099 C  
HETATM   15  C   UNL     1     -10.644   4.377  72.590  1.00  0.00    -0.233 C  
HETATM   16  O   UNL     1      -9.675   2.197  72.455  1.00  0.00    -0.092 OA 
HETATM   17  H   UNL     1     -10.452   1.756  72.778  1.00  0.00     0.000 HD 
HETATM   18  C   UNL     1      -9.454   4.972  73.337  1.00  0.00    -0.136 C  
HETATM   19  O   UNL     1      -9.170   4.187  74.498  1.00  0.00    -0.101 OA 
HETATM   20  C   UNL     1      -8.256   4.895  72.362  1.00  0.00    -0.119 C  
HETATM   21  H   UNL     1      -8.429   4.558  74.962  1.00  0.00     0.000 HD 
BRANCH  20  22
HETATM   22  C   UNL     1      -7.790   6.271  71.940  1.00  0.00    -0.101 C  
HETATM   23  C   UNL     1      -8.286   7.409  72.456  1.00  0.00    -0.128 C  
BRANCH  23  24
HETATM   24  C   UNL     1      -7.958   8.820  72.041  1.00  0.00     0.014 C  
HETATM   25  H   UNL     1      -6.346   9.933  71.851  1.00  0.00     0.000 HD 
HETATM   26  O   UNL     1      -6.552   9.044  72.113  1.00  0.00    -0.249 OA 
BRANCH  24  27
HETATM   27  C   UNL     1      -8.408   9.146  70.611  1.00  0.00    -0.239 C  
BRANCH  27  28
HETATM   28  C   UNL     1      -9.930   9.164  70.437  1.00  0.00    -0.263 C  
BRANCH  28  29
HETATM   29  C   UNL     1     -10.376   8.169  69.395  1.00  0.00    -0.219 A  
HETATM   30  C   UNL     1     -10.654   6.844  69.757  1.00  0.00    -0.261 A  
HETATM   31  C   UNL     1     -11.024   5.910  68.790  1.00  0.00    -0.311 A  
HETATM   32  C   UNL     1     -11.119   6.291  67.453  1.00  0.00    -0.384 A  
HETATM   33  C   UNL     1     -10.849   7.608  67.084  1.00  0.00    -0.258 A  
HETATM   34  C   UNL     1     -10.478   8.544  68.049  1.00  0.00    -0.249 A  
ENDBRANCH  28  29
ENDBRANCH  27  28
ENDBRANCH  24  27
ENDBRANCH  23  24
ENDBRANCH  20  22
ENDBRANCH  12  13
ENDBRANCH  11  12
ENDBRANCH   9  10
ENDBRANCH   8   9
ENDBRANCH   7   8
ENDBRANCH   4   7
ENDBRANCH   2   3
TORSDOF 12
ENDMDL
MODEL      335
REMARK 921   NORMALIZED FREE ENERGY PREDICTED BY IDOCK:   -3.03 KCAL/MOL
REMARK 922        TOTAL FREE ENERGY PREDICTED BY IDOCK:   -7.99 KCAL/MOL
REMARK 923 INTER-LIGAND FREE ENERGY PREDICTED BY IDOCK:   -7.33 KCAL/MOL
REMARK 924 INTRA-LIGAND FREE ENERGY PREDICTED BY IDOCK:   -0.66 KCAL/MOL
REMARK 927      BINDING AFFINITY PREDICTED BY RF-SCORE:    0.00 PKD
ROOT
HETATM    1  C   UNL     1      -8.613   8.683  67.805  1.00  0.00    -0.136 C  
HETATM    2  C   UNL     1      -7.651   8.004  68.762  1.00  0.00    -0.103 C  
ENDROOT
BRANCH   2   3
HETATM    3  N   UNL     1      -8.144   8.032  70.120  1.00  0.00    -0.112 N  
HETATM    4  C   UNL     1      -8.888   6.991  70.627  1.00  0.00    -0.150 C  
HETATM    5  H   UNL     1      -7.937   8.836  70.713  1.00  0.00     0.000 HD 
HETATM    6  O   UNL     1      -9.187   5.998  69.975  1.00  0.00    -0.147 OA 
BRANCH   4   7
HETATM    7  C   UNL     1      -9.291   7.189  72.075  1.00  0.00    -0.151 C  
BRANCH   7   8
HETATM    8  C   UNL     1     -10.748   7.645  72.184  1.00  0.00    -0.289 C  
BRANCH   8   9
HETATM    9  C   UNL     1     -10.953   9.124  71.859  1.00  0.00    -0.372 C  
BRANCH   9  10
HETATM   10  C   UNL     1     -12.383   9.440  71.527  1.00  0.00    -0.452 C  
HETATM   11  C   UNL     1     -12.864  10.584  71.016  1.00  0.00    -0.502 C  
BRANCH  11  12
HETATM   12  C   UNL     1     -12.081  11.826  70.689  1.00  0.00    -0.407 C  
BRANCH  12  13
HETATM   13  C   UNL     1     -12.962  13.062  70.461  1.00  0.00     0.134 C  
HETATM   14  C   UNL     1     -13.864  13.445  71.642  1.00  0.00    -0.030 C  
HETATM   15  C   UNL     1     -14.156  14.920  71.401  1.00  0.00    -0.552 C  
HETATM   16  O   UNL     1     -13.185  13.321  72.887  1.00  0.00    -0.427 OA 
HETATM   17  H   UNL     1     -13.743  13.558  73.618  1.00  0.00     0.000 HD 
HETATM   18  C   UNL     1     -12.806  15.479  70.955  1.00  0.00    -0.482 C  
HETATM   19  O   UNL     1     -12.041  15.863  72.100  1.00  0.00    -0.414 OA 
HETATM   20  C   UNL     1     -12.087  14.323  70.224  1.00  0.00    -0.403 C  
HETATM   21  H   UNL     1     -11.201  16.210  71.823  1.00  0.00     0.000 HD 
BRANCH  20  22
HETATM   22  C   UNL     1     -11.911  14.619  68.750  1.00  0.00    -0.348 C  
HETATM   23  C   UNL     1     -10.973  14.031  67.986  1.00  0.00    -0.266 C  
BRANCH  23  24
HETATM   24  C   UNL     1     -10.657  14.322  66.541  1.00  0.00    -0.286 C  
HETATM   25  H   UNL     1     -11.513  15.255  65.034  1.00  0.00     0.000 HD 
HETATM   26  O   UNL     1     -11.712  15.072  65.945  1.00  0.00    -0.248 OA 
BRANCH  24  27
HETATM   27  C   UNL     1      -9.359  15.118  66.359  1.00  0.00    -0.332 C  
BRANCH  27  28
HETATM   28  C   UNL     1      -8.535  15.249  67.643  1.00  0.00    -0.172 C  
BRANCH  28  29
HETATM   29  C   UNL     1      -7.743  13.995  67.918  1.00  0.00    -0.161 A  
HETATM   30  C   UNL     1      -8.377  12.862  68.446  1.00  0.00    -0.116 A  
HETATM   31  C   UNL     1      -7.641  11.714  68.744  1.00  0.00    -0.119 A  
HETATM   32  C   UNL     1      -6.266  11.690  68.518  1.00  0.00    -0.051 A  
HETATM   33  C   UNL     1      -5.628  12.811  67.990  1.00  0.00    -0.096 A  
HETATM   34  C   UNL     1      -6.361  13.959  67.692  1.00  0.00    -0.140 A  
ENDBRANCH  28  29
ENDBRANCH  27  28
ENDBRANCH  24  27
ENDBRANCH  23  24
ENDBRANCH  20  22
ENDBRANCH  12  13
ENDBRANCH  11  12
ENDBRANCH   9  10
ENDBRANCH   8   9
ENDBRANCH   7   8
ENDBRANCH   4   7
ENDBRANCH   2   3
TORSDOF 12
ENDMDL
MODEL      336
REMARK 921   NORMALIZED FREE ENERGY PREDICTED BY IDOCK:   -3.03 KCAL/MOL
REMARK 922        TOTAL FREE ENERGY PREDICTED BY IDOCK:   -7.99 KCAL/MOL
REMARK 923 INTER-LIGAND FREE ENERGY PREDICTED BY IDOCK:   -6.85 KCAL/MOL
REMARK 924 INTRA-LIGAND FREE ENERGY PREDICTED BY IDOCK:   -1.14 KCAL/MOL
REMARK 927      BINDING AFFINITY PREDICTED BY RF-SCORE:    0.00 PKD
ROOT
HETATM    1  C   UNL     1     -14.036   9.083  72.647  1.00  0.00    -0.335 C  
HETATM    2  C   UNL     1     -13.487   7.993  71.745  1.00  0.00    -0.341 C  
ENDROOT
BRANCH   2   3
HETATM    3  N   UNL     1     -12.102   8.230  71.407  1.00  0.00    -0.296 N  
HETATM    4  C   UNL     1     -11.744   9.254  70.559  1.00  0.00    -0.176 C  
HETATM    5  H   UNL     1     -11.379   7.629  71.802  1.00  0.00     0.000 HD 
HETATM    6  O   UNL     1     -12.554  10.009  70.037  1.00  0.00    -0.009 OA 
BRANCH   4   7
HETATM    7  C   UNL     1     -10.247   9.360  70.346  1.00  0.00    -0.310 C  
BRANCH   7   8
HETATM    8  C   UNL     1      -9.573   7.992  70.477  1.00  0.00    -0.170 C  
BRANCH   8   9
HETATM    9  C   UNL     1      -9.859   7.055  69.305  1.00  0.00    -0.159 C  
BRANCH   9  10
HETATM   10  C   UNL     1     -10.359   7.794  68.096  1.00  0.00    -0.248 C  
HETATM   11  C   UNL     1      -9.706   7.995  66.940  1.00  0.00    -0.291 C  
BRANCH  11  12
HETATM   12  C   UNL     1      -8.309   7.552  66.604  1.00  0.00    -0.127 C  
BRANCH  12  13
HETATM   13  C   UNL     1      -7.661   8.374  65.481  1.00  0.00    -0.090 C  
HETATM   14  C   UNL     1      -7.541   7.650  64.132  1.00  0.00    -0.113 C  
HETATM   15  C   UNL     1      -7.431   8.790  63.129  1.00  0.00    -0.103 C  
HETATM   16  O   UNL     1      -8.712   6.900  63.830  1.00  0.00    -0.199 OA 
HETATM   17  H   UNL     1      -8.637   6.452  62.996  1.00  0.00     0.000 HD 
HETATM   18  C   UNL     1      -8.459   9.802  63.629  1.00  0.00    -0.184 C  
HETATM   19  O   UNL     1      -9.742   9.499  63.077  1.00  0.00    -0.453 OA 
HETATM   20  C   UNL     1      -8.509   9.634  65.164  1.00  0.00    -0.159 C  
HETATM   21  H   UNL     1     -10.382  10.129  63.388  1.00  0.00     0.000 HD 
BRANCH  20  22
HETATM   22  C   UNL     1      -7.985  10.862  65.878  1.00  0.00    -0.105 C  
HETATM   23  C   UNL     1      -8.653  11.483  66.866  1.00  0.00    -0.163 C  
BRANCH  23  24
HETATM   24  C   UNL     1      -8.263  12.756  67.572  1.00  0.00    -0.179 C  
HETATM   25  H   UNL     1      -6.638  13.841  67.805  1.00  0.00     0.000 HD 
HETATM   26  O   UNL     1      -6.883  13.039  67.360  1.00  0.00    -0.164 OA 
BRANCH  24  27
HETATM   27  C   UNL     1      -9.066  13.975  67.100  1.00  0.00    -0.239 C  
BRANCH  27  28
HETATM   28  C   UNL     1      -9.100  15.118  68.118  1.00  0.00    -0.176 C  
BRANCH  28  29
HETATM   29  C   UNL     1     -10.250  14.963  69.082  1.00  0.00    -0.243 A  
HETATM   30  C   UNL     1     -10.955  13.754  69.149  1.00  0.00    -0.246 A  
HETATM   31  C   UNL     1     -12.048  13.620  70.007  1.00  0.00    -0.417 A  
HETATM   32  C   UNL     1     -12.445  14.693  70.802  1.00  0.00    -0.407 A  
HETATM   33  C   UNL     1     -11.746  15.898  70.745  1.00  0.00    -0.433 A  
HETATM   34  C   UNL     1     -10.654  16.034  69.888  1.00  0.00    -0.314 A  
ENDBRANCH  28  29
ENDBRANCH  27  28
ENDBRANCH  24  27
ENDBRANCH  23  24
ENDBRANCH  20  22
ENDBRANCH  12  13
ENDBRANCH  11  12
ENDBRANCH   9  10
ENDBRANCH   8   9
ENDBRANCH   7   8
ENDBRANCH   4   7
ENDBRANCH   2   3
TORSDOF 12
ENDMDL
MODEL      337
REMARK 921   NORMALIZED FREE ENERGY PREDICTED BY IDOCK:   -3.03 KCAL/MOL
REMARK 922        TOTAL FREE ENERGY PREDICTED BY IDOCK:   -7.99 KCAL/MOL
REMARK 923 INTER-LIGAND FREE ENERGY PREDICTED BY IDOCK:   -5.84 KCAL/MOL
REMARK 924 INTRA-LIGAND FREE ENERGY PREDICTED BY IDOCK:   -2.15 KCAL/MOL
REMARK 927      BINDING AFFINITY PREDICTED BY RF-SCORE:    0.00 PKD
ROOT
HETATM    1  C   UNL     1     -12.906  13.796  65.382  1.00  0.00    -0.455 C  
HETATM    2  C   UNL     1     -11.862  14.437  64.486  1.00  0.00    -0.449 C  
ENDROOT
BRANCH   2   3
HETATM    3  N   UNL     1     -10.893  15.187  65.253  1.00  0.00    -0.373 N  
HETATM    4  C   UNL     1      -9.798  14.568  65.813  1.00  0.00    -0.314 C  
HETATM    5  H   UNL     1     -11.022  16.191  65.380  1.00  0.00     0.000 HD 
HETATM    6  O   UNL     1      -9.580  13.368  65.713  1.00  0.00    -0.179 OA 
BRANCH   4   7
HETATM    7  C   UNL     1      -8.883  15.523  66.554  1.00  0.00    -0.348 C  
BRANCH   7   8
HETATM    8  C   UNL     1      -8.295  14.863  67.804  1.00  0.00    -0.163 C  
BRANCH   8   9
HETATM    9  C   UNL     1      -6.908  14.260  67.583  1.00  0.00    -0.201 C  
BRANCH   9  10
HETATM   10  C   UNL     1      -6.444  13.455  68.763  1.00  0.00    -0.098 C  
HETATM   11  C   UNL     1      -6.774  12.189  69.062  1.00  0.00    -0.103 C  
BRANCH  11  12
HETATM   12  C   UNL     1      -7.713  11.297  68.297  1.00  0.00    -0.122 C  
BRANCH  12  13
HETATM   13  C   UNL     1      -8.839  10.711  69.161  1.00  0.00    -0.133 C  
HETATM   14  C   UNL     1     -10.228  11.319  68.920  1.00  0.00    -0.180 C  
HETATM   15  C   UNL     1     -11.178  10.240  69.421  1.00  0.00    -0.292 C  
HETATM   16  O   UNL     1     -10.479  11.529  67.535  1.00  0.00    -0.189 OA 
HETATM   17  H   UNL     1     -11.338  11.905  67.386  1.00  0.00     0.000 HD 
HETATM   18  C   UNL     1     -10.553   8.949  68.901  1.00  0.00    -0.165 C  
HETATM   19  O   UNL     1     -11.021   8.684  67.577  1.00  0.00    -0.488 OA 
HETATM   20  C   UNL     1      -9.028   9.199  68.864  1.00  0.00    -0.139 C  
HETATM   21  H   UNL     1     -10.631   7.880  67.253  1.00  0.00     0.000 HD 
BRANCH  20  22
HETATM   22  C   UNL     1      -8.295   8.331  69.864  1.00  0.00    -0.125 C  
HETATM   23  C   UNL     1      -8.905   7.410  70.629  1.00  0.00    -0.150 C  
BRANCH  23  24
HETATM   24  C   UNL     1      -8.286   6.565  71.713  1.00  0.00    -0.112 C  
HETATM   25  H   UNL     1      -8.118   6.623  73.673  1.00  0.00     0.000 HD 
HETATM   26  O   UNL     1      -8.509   7.156  72.990  1.00  0.00    -0.117 OA 
BRANCH  24  27
HETATM   27  C   UNL     1      -8.846   5.138  71.756  1.00  0.00    -0.144 C  
BRANCH  27  28
HETATM   28  C   UNL     1      -8.131   4.170  70.808  1.00  0.00    -0.063 C  
BRANCH  28  29
HETATM   29  C   UNL     1      -8.387   4.524  69.364  1.00  0.00    -0.078 A  
HETATM   30  C   UNL     1      -7.342   4.992  68.557  1.00  0.00    -0.063 A  
HETATM   31  C   UNL     1      -7.582   5.363  67.234  1.00  0.00    -0.092 A  
HETATM   32  C   UNL     1      -8.869   5.270  66.707  1.00  0.00    -0.111 A  
HETATM   33  C   UNL     1      -9.914   4.802  67.502  1.00  0.00    -0.194 A  
HETATM   34  C   UNL     1      -9.676   4.431  68.825  1.00  0.00    -0.200 A  
ENDBRANCH  28  29
ENDBRANCH  27  28
ENDBRANCH  24  27
ENDBRANCH  23  24
ENDBRANCH  20  22
ENDBRANCH  12  13
ENDBRANCH  11  12
ENDBRANCH   9  10
ENDBRANCH   8   9
ENDBRANCH   7   8
ENDBRANCH   4   7
ENDBRANCH   2   3
TORSDOF 12
ENDMDL
MODEL      338
REMARK 921   NORMALIZED FREE ENERGY PREDICTED BY IDOCK:   -3.00 KCAL/MOL
REMARK 922        TOTAL FREE ENERGY PREDICTED BY IDOCK:   -7.94 KCAL/MOL
REMARK 923 INTER-LIGAND FREE ENERGY PREDICTED BY IDOCK:   -6.14 KCAL/MOL
REMARK 924 INTRA-LIGAND FREE ENERGY PREDICTED BY IDOCK:   -1.81 KCAL/MOL
REMARK 927      BINDING AFFINITY PREDICTED BY RF-SCORE:    0.00 PKD
ROOT
HETATM    1  C   UNL     1     -10.740   5.418  66.564  1.00  0.00    -0.309 C  
HETATM    2  C   UNL     1     -10.920   6.644  67.440  1.00  0.00    -0.360 C  
ENDROOT
BRANCH   2   3
HETATM    3  N   UNL     1      -9.754   7.498  67.405  1.00  0.00    -0.150 N  
HETATM    4  C   UNL     1      -8.936   7.628  68.505  1.00  0.00    -0.129 C  
HETATM    5  H   UNL     1      -9.534   8.013  66.553  1.00  0.00     0.000 HD 
HETATM    6  O   UNL     1      -9.139   7.051  69.566  1.00  0.00    -0.146 OA 
BRANCH   4   7
HETATM    7  C   UNL     1      -7.752   8.544  68.268  1.00  0.00    -0.102 C  
BRANCH   7   8
HETATM    8  C   UNL     1      -7.455   9.393  69.507  1.00  0.00    -0.083 C  
BRANCH   8   9
HETATM    9  C   UNL     1      -7.726  10.883  69.306  1.00  0.00    -0.100 C  
BRANCH   9  10
HETATM   10  C   UNL     1      -7.517  11.311  67.882  1.00  0.00    -0.094 C  
HETATM   11  C   UNL     1      -7.429  12.568  67.416  1.00  0.00    -0.153 C  
BRANCH  11  12
HETATM   12  C   UNL     1      -7.555  13.836  68.215  1.00  0.00    -0.129 C  
BRANCH  12  13
HETATM   13  C   UNL     1      -8.999  14.344  68.331  1.00  0.00    -0.188 C  
HETATM   14  C   UNL     1      -9.163  15.867  68.226  1.00  0.00    -0.189 C  
HETATM   15  C   UNL     1     -10.616  16.037  67.803  1.00  0.00    -0.309 C  
HETATM   16  O   UNL     1      -8.334  16.418  67.209  1.00  0.00    -0.165 OA 
HETATM   17  H   UNL     1      -8.435  17.360  67.143  1.00  0.00     0.000 HD 
HETATM   18  C   UNL     1     -10.812  14.940  66.761  1.00  0.00    -0.320 C  
HETATM   19  O   UNL     1     -10.427  15.423  65.472  1.00  0.00    -0.322 OA 
HETATM   20  C   UNL     1      -9.872  13.785  67.176  1.00  0.00    -0.242 C  
HETATM   21  H   UNL     1     -10.549  14.739  64.823  1.00  0.00     0.000 HD 
BRANCH  20  22
HETATM   22  C   UNL     1     -10.649  12.557  67.599  1.00  0.00    -0.234 C  
HETATM   23  C   UNL     1     -11.297  12.462  68.773  1.00  0.00    -0.339 C  
BRANCH  23  24
HETATM   24  C   UNL     1     -12.018  11.258  69.324  1.00  0.00    -0.342 C  
HETATM   25  H   UNL     1     -11.544   9.595  70.266  1.00  0.00     0.000 HD 
HETATM   26  O   UNL     1     -11.089  10.354  69.918  1.00  0.00    -0.263 OA 
BRANCH  24  27
HETATM   27  C   UNL     1     -13.062  11.618  70.389  1.00  0.00     0.362 C  
BRANCH  27  28
HETATM   28  C   UNL     1     -12.456  11.928  71.761  1.00  0.00     0.007 C  
BRANCH  28  29
HETATM   29  C   UNL     1     -12.819  13.317  72.222  1.00  0.00    -0.259 A  
HETATM   30  C   UNL     1     -14.050  13.881  71.862  1.00  0.00    -0.488 A  
HETATM   31  C   UNL     1     -14.372  15.182  72.249  1.00  0.00    -0.559 A  
HETATM   32  C   UNL     1     -13.467  15.930  72.998  1.00  0.00    -0.653 A  
HETATM   33  C   UNL     1     -12.242  15.376  73.366  1.00  0.00    -0.621 A  
HETATM   34  C   UNL     1     -11.917  14.076  72.979  1.00  0.00     0.740 A  
ENDBRANCH  28  29
ENDBRANCH  27  28
ENDBRANCH  24  27
ENDBRANCH  23  24
ENDBRANCH  20  22
ENDBRANCH  12  13
ENDBRANCH  11  12
ENDBRANCH   9  10
ENDBRANCH   8   9
ENDBRANCH   7   8
ENDBRANCH   4   7
ENDBRANCH   2   3
TORSDOF 12
ENDMDL
MODEL      339
REMARK 921   NORMALIZED FREE ENERGY PREDICTED BY IDOCK:   -2.99 KCAL/MOL
REMARK 922        TOTAL FREE ENERGY PREDICTED BY IDOCK:   -7.92 KCAL/MOL
REMARK 923 INTER-LIGAND FREE ENERGY PREDICTED BY IDOCK:   -5.63 KCAL/MOL
REMARK 924 INTRA-LIGAND FREE ENERGY PREDICTED BY IDOCK:   -2.30 KCAL/MOL
REMARK 927      BINDING AFFINITY PREDICTED BY RF-SCORE:    0.00 PKD
ROOT
HETATM    1  C   UNL     1     -13.760   7.507  72.420  1.00  0.00     0.184 C  
HETATM    2  C   UNL     1     -14.218   8.662  71.549  1.00  0.00    -0.339 C  
ENDROOT
BRANCH   2   3
HETATM    3  N   UNL     1     -13.141   9.171  70.730  1.00  0.00    -0.501 N  
HETATM    4  C   UNL     1     -12.504  10.350  71.047  1.00  0.00    -0.388 C  
HETATM    5  H   UNL     1     -12.849   8.649  69.904  1.00  0.00     0.000 HD 
HETATM    6  O   UNL     1     -12.805  11.038  72.014  1.00  0.00    -0.380 OA 
BRANCH   4   7
HETATM    7  C   UNL     1     -11.386  10.705  70.087  1.00  0.00    -0.402 C  
BRANCH   7   8
HETATM    8  C   UNL     1     -10.110   9.927  70.417  1.00  0.00    -0.258 C  
BRANCH   8   9
HETATM    9  C   UNL     1      -9.654   8.995  69.295  1.00  0.00    -0.162 C  
BRANCH   9  10
HETATM   10  C   UNL     1     -10.581   9.034  68.113  1.00  0.00    -0.225 C  
HETATM   11  C   UNL     1     -10.244   9.191  66.823  1.00  0.00    -0.331 C  
BRANCH  11  12
HETATM   12  C   UNL     1      -8.861   9.396  66.270  1.00  0.00    -0.172 C  
BRANCH  12  13
HETATM   13  C   UNL     1      -8.751  10.607  65.333  1.00  0.00    -0.195 C  
HETATM   14  C   UNL     1      -9.168  10.344  63.878  1.00  0.00    -0.266 C  
HETATM   15  C   UNL     1      -9.510  11.731  63.353  1.00  0.00    -0.179 C  
HETATM   16  O   UNL     1     -10.336   9.535  63.803  1.00  0.00     0.487 OA 
HETATM   17  H   UNL     1     -10.594   9.372  62.903  1.00  0.00     0.000 HD 
HETATM   18  C   UNL     1     -10.277  12.368  64.509  1.00  0.00    -0.299 C  
HETATM   19  O   UNL     1     -11.664  12.036  64.409  1.00  0.00    -0.345 OA 
HETATM   20  C   UNL     1      -9.693  11.749  65.799  1.00  0.00    -0.260 C  
HETATM   21  H   UNL     1     -12.140  12.433  65.130  1.00  0.00     0.000 HD 
BRANCH  20  22
HETATM   22  C   UNL     1      -8.962  12.779  66.632  1.00  0.00    -0.152 C  
HETATM   23  C   UNL     1      -7.678  12.650  67.006  1.00  0.00    -0.021 C  
BRANCH  23  24
HETATM   24  C   UNL     1      -6.890  13.567  67.906  1.00  0.00    -0.151 C  
HETATM   25  H   UNL     1      -6.208  15.413  67.849  1.00  0.00     0.000 HD 
HETATM   26  O   UNL     1      -6.705  14.835  67.281  1.00  0.00    -0.279 OA 
BRANCH  24  27
HETATM   27  C   UNL     1      -7.571  13.811  69.259  1.00  0.00     0.198 C  
BRANCH  27  28
HETATM   28  C   UNL     1      -7.824  15.291  69.559  1.00  0.00    -0.204 C  
BRANCH  28  29
HETATM   29  C   UNL     1      -9.255  15.673  69.275  1.00  0.00    -0.269 A  
HETATM   30  C   UNL     1      -9.545  16.857  68.583  1.00  0.00    -0.265 A  
HETATM   31  C   UNL     1     -10.868  17.237  68.356  1.00  0.00    -0.273 A  
HETATM   32  C   UNL     1     -11.912  16.438  68.819  1.00  0.00     0.272 A  
HETATM   33  C   UNL     1     -11.633  15.257  69.505  1.00  0.00    -0.339 A  
HETATM   34  C   UNL     1     -10.311  14.875  69.733  1.00  0.00    -0.111 A  
ENDBRANCH  28  29
ENDBRANCH  27  28
ENDBRANCH  24  27
ENDBRANCH  23  24
ENDBRANCH  20  22
ENDBRANCH  12  13
ENDBRANCH  11  12
ENDBRANCH   9  10
ENDBRANCH   8   9
ENDBRANCH   7   8
ENDBRANCH   4   7
ENDBRANCH   2   3
TORSDOF 12
ENDMDL
MODEL      340
REMARK 921   NORMALIZED FREE ENERGY PREDICTED BY IDOCK:   -2.96 KCAL/MOL
REMARK 922        TOTAL FREE ENERGY PREDICTED BY IDOCK:   -7.87 KCAL/MOL
REMARK 923 INTER-LIGAND FREE ENERGY PREDICTED BY IDOCK:   -6.85 KCAL/MOL
REMARK 924 INTRA-LIGAND FREE ENERGY PREDICTED BY IDOCK:   -1.02 KCAL/MOL
REMARK 927      BINDING AFFINITY PREDICTED BY RF-SCORE:    0.00 PKD
ROOT
HETATM    1  C   UNL     1     -12.926   8.722  72.467  1.00  0.00    -0.382 C  
HETATM    2  C   UNL     1     -12.696   7.557  71.522  1.00  0.00    -0.359 C  
ENDROOT
BRANCH   2   3
HETATM    3  N   UNL     1     -11.368   7.587  70.953  1.00  0.00    -0.273 N  
HETATM    4  C   UNL     1     -10.953   8.642  70.171  1.00  0.00    -0.226 C  
HETATM    5  H   UNL     1     -10.727   6.814  71.134  1.00  0.00     0.000 HD 
HETATM    6  O   UNL     1     -11.667   9.599  69.901  1.00  0.00    -0.117 OA 
BRANCH   4   7
HETATM    7  C   UNL     1      -9.522   8.506  69.690  1.00  0.00    -0.165 C  
BRANCH   7   8
HETATM    8  C   UNL     1      -9.130   7.035  69.537  1.00  0.00    -0.146 C  
BRANCH   8   9
HETATM    9  C   UNL     1      -9.445   6.458  68.157  1.00  0.00    -0.114 C  
BRANCH   9  10
HETATM   10  C   UNL     1     -10.116   7.462  67.263  1.00  0.00    -0.296 C  
HETATM   11  C   UNL     1      -9.648   7.960  66.107  1.00  0.00    -0.127 C  
BRANCH  11  12
HETATM   12  C   UNL     1      -8.326   7.651  65.461  1.00  0.00    -0.139 C  
BRANCH  12  13
HETATM   13  C   UNL     1      -7.807   8.780  64.559  1.00  0.00    -0.129 C  
HETATM   14  C   UNL     1      -7.749   8.442  63.062  1.00  0.00    -0.132 C  
HETATM   15  C   UNL     1      -7.775   9.809  62.391  1.00  0.00    -0.128 C  
HETATM   16  O   UNL     1      -8.898   7.715  62.642  1.00  0.00    -0.347 OA 
HETATM   17  H   UNL     1      -8.863   7.506  61.716  1.00  0.00     0.000 HD 
HETATM   18  C   UNL     1      -8.815  10.580  63.199  1.00  0.00    -0.215 C  
HETATM   19  O   UNL     1     -10.118  10.342  62.662  1.00  0.00    -0.646 OA 
HETATM   20  C   UNL     1      -8.742  10.016  64.636  1.00  0.00    -0.210 C  
HETATM   21  H   UNL     1     -10.765  10.822  63.165  1.00  0.00     0.000 HD 
BRANCH  20  22
HETATM   22  C   UNL     1      -8.232  11.050  65.617  1.00  0.00    -0.026 C  
HETATM   23  C   UNL     1      -8.932  11.460  66.689  1.00  0.00    -0.183 C  
BRANCH  23  24
HETATM   24  C   UNL     1      -8.556  12.542  67.667  1.00  0.00    -0.178 C  
HETATM   25  H   UNL     1      -6.922  13.499  68.208  1.00  0.00     0.000 HD 
HETATM   26  O   UNL     1      -7.159  12.816  67.591  1.00  0.00    -0.116 OA 
BRANCH  24  27
HETATM   27  C   UNL     1      -9.302  13.860  67.422  1.00  0.00    -0.228 C  
BRANCH  27  28
HETATM   28  C   UNL     1      -9.291  14.804  68.628  1.00  0.00    -0.198 C  
BRANCH  28  29
HETATM   29  C   UNL     1      -9.384  16.247  68.198  1.00  0.00    -0.210 A  
HETATM   30  C   UNL     1     -10.149  17.156  68.941  1.00  0.00    -0.322 A  
HETATM   31  C   UNL     1     -10.275  18.481  68.523  1.00  0.00    -0.389 A  
HETATM   32  C   UNL     1      -9.638  18.908  67.359  1.00  0.00    -0.348 A  
HETATM   33  C   UNL     1      -8.872  18.012  66.616  1.00  0.00    -0.280 A  
HETATM   34  C   UNL     1      -8.745  16.686  67.032  1.00  0.00    -0.223 A  
ENDBRANCH  28  29
ENDBRANCH  27  28
ENDBRANCH  24  27
ENDBRANCH  23  24
ENDBRANCH  20  22
ENDBRANCH  12  13
ENDBRANCH  11  12
ENDBRANCH   9  10
ENDBRANCH   8   9
ENDBRANCH   7   8
ENDBRANCH   4   7
ENDBRANCH   2   3
TORSDOF 12
ENDMDL
MODEL      341
REMARK 921   NORMALIZED FREE ENERGY PREDICTED BY IDOCK:   -2.93 KCAL/MOL
REMARK 922        TOTAL FREE ENERGY PREDICTED BY IDOCK:   -7.82 KCAL/MOL
REMARK 923 INTER-LIGAND FREE ENERGY PREDICTED BY IDOCK:   -6.00 KCAL/MOL
REMARK 924 INTRA-LIGAND FREE ENERGY PREDICTED BY IDOCK:   -1.82 KCAL/MOL
REMARK 927      BINDING AFFINITY PREDICTED BY RF-SCORE:    0.00 PKD
ROOT
HETATM    1  C   UNL     1     -10.135  19.026  67.845  1.00  0.00    -0.455 C  
HETATM    2  C   UNL     1     -10.593  18.004  68.869  1.00  0.00     0.052 C  
ENDROOT
BRANCH   2   3
HETATM    3  N   UNL     1      -9.906  16.743  68.705  1.00  0.00    -0.253 N  
HETATM    4  C   UNL     1     -10.573  15.624  68.257  1.00  0.00    -0.262 C  
HETATM    5  H   UNL     1      -8.913  16.680  68.926  1.00  0.00     0.000 HD 
HETATM    6  O   UNL     1     -11.766  15.618  67.982  1.00  0.00    -0.306 OA 
BRANCH   4   7
HETATM    7  C   UNL     1      -9.680  14.407  68.125  1.00  0.00    -0.223 C  
BRANCH   7   8
HETATM    8  C   UNL     1     -10.389  13.147  68.630  1.00  0.00    -0.207 C  
BRANCH   8   9
HETATM    9  C   UNL     1      -9.897  11.861  67.967  1.00  0.00    -0.190 C  
BRANCH   9  10
HETATM   10  C   UNL     1     -10.970  10.812  67.897  1.00  0.00    -0.344 C  
HETATM   11  C   UNL     1     -10.804   9.491  67.724  1.00  0.00    -0.258 C  
BRANCH  11  12
HETATM   12  C   UNL     1      -9.502   8.764  67.526  1.00  0.00    -0.173 C  
BRANCH  12  13
HETATM   13  C   UNL     1      -9.474   7.374  68.176  1.00  0.00    -0.141 C  
HETATM   14  C   UNL     1      -9.346   6.199  67.195  1.00  0.00    -0.118 C  
HETATM   15  C   UNL     1      -8.782   5.079  68.058  1.00  0.00    -0.105 C  
HETATM   16  O   UNL     1      -8.412   6.479  66.158  1.00  0.00    -0.125 OA 
HETATM   17  H   UNL     1      -8.333   5.753  65.551  1.00  0.00     0.000 HD 
HETATM   18  C   UNL     1      -7.730   5.784  68.911  1.00  0.00    -0.090 C  
HETATM   19  O   UNL     1      -6.483   5.814  68.213  1.00  0.00    -0.042 OA 
HETATM   20  C   UNL     1      -8.242   7.229  69.109  1.00  0.00    -0.122 C  
HETATM   21  H   UNL     1      -5.829   6.253  68.744  1.00  0.00     0.000 HD 
BRANCH  20  22
HETATM   22  C   UNL     1      -8.592   7.504  70.555  1.00  0.00    -0.138 C  
HETATM   23  C   UNL     1      -9.852   7.683  70.988  1.00  0.00    -0.181 C  
BRANCH  23  24
HETATM   24  C   UNL     1     -10.297   8.051  72.380  1.00  0.00    -0.289 C  
HETATM   25  H   UNL     1     -11.654   9.215  73.204  1.00  0.00     0.000 HD 
HETATM   26  O   UNL     1     -11.374   8.983  72.326  1.00  0.00    -0.312 OA 
BRANCH  24  27
HETATM   27  C   UNL     1     -10.769   6.843  73.199  1.00  0.00    -0.338 C  
BRANCH  27  28
HETATM   28  C   UNL     1     -11.183   5.645  72.340  1.00  0.00    -0.336 C  
BRANCH  28  29
HETATM   29  C   UNL     1     -10.416   4.403  72.719  1.00  0.00    -0.253 A  
HETATM   30  C   UNL     1     -10.996   3.444  73.559  1.00  0.00    -0.328 A  
HETATM   31  C   UNL     1     -10.274   2.315  73.949  1.00  0.00    -0.177 A  
HETATM   32  C   UNL     1      -8.966   2.137  73.503  1.00  0.00    -0.069 A  
HETATM   33  C   UNL     1      -8.382   3.084  72.664  1.00  0.00    -0.071 A  
HETATM   34  C   UNL     1      -9.102   4.213  72.273  1.00  0.00    -0.148 A  
ENDBRANCH  28  29
ENDBRANCH  27  28
ENDBRANCH  24  27
ENDBRANCH  23  24
ENDBRANCH  20  22
ENDBRANCH  12  13
ENDBRANCH  11  12
ENDBRANCH   9  10
ENDBRANCH   8   9
ENDBRANCH   7   8
ENDBRANCH   4   7
ENDBRANCH   2   3
TORSDOF 12
ENDMDL
MODEL      342
REMARK 921   NORMALIZED FREE ENERGY PREDICTED BY IDOCK:   -2.91 KCAL/MOL
REMARK 922        TOTAL FREE ENERGY PREDICTED BY IDOCK:   -7.79 KCAL/MOL
REMARK 923 INTER-LIGAND FREE ENERGY PREDICTED BY IDOCK:   -4.74 KCAL/MOL
REMARK 924 INTRA-LIGAND FREE ENERGY PREDICTED BY IDOCK:   -3.05 KCAL/MOL
REMARK 927      BINDING AFFINITY PREDICTED BY RF-SCORE:    0.00 PKD
ROOT
HETATM    1  C   UNL     1     -11.811  11.272  68.362  1.00  0.00    -0.331 C  
HETATM    2  C   UNL     1     -10.741  11.862  67.463  1.00  0.00    -0.225 C  
ENDROOT
BRANCH   2   3
HETATM    3  N   UNL     1      -9.677  10.916  67.210  1.00  0.00    -0.164 N  
HETATM    4  C   UNL     1      -9.384  10.504  65.930  1.00  0.00    -0.181 C  
HETATM    5  H   UNL     1      -9.136  10.548  67.993  1.00  0.00     0.000 HD 
HETATM    6  O   UNL     1      -9.994  10.892  64.942  1.00  0.00    -0.256 OA 
BRANCH   4   7
HETATM    7  C   UNL     1      -8.222   9.532  65.864  1.00  0.00    -0.115 C  
BRANCH   7   8
HETATM    8  C   UNL     1      -8.424   8.366  66.835  1.00  0.00    -0.117 C  
BRANCH   8   9
HETATM    9  C   UNL     1      -7.657   7.103  66.441  1.00  0.00    -0.092 C  
BRANCH   9  10
HETATM   10  C   UNL     1      -8.411   6.270  65.445  1.00  0.00    -0.131 C  
HETATM   11  C   UNL     1      -8.582   4.938  65.465  1.00  0.00    -0.135 C  
BRANCH  11  12
HETATM   12  C   UNL     1      -8.027   3.973  66.476  1.00  0.00    -0.097 C  
BRANCH  12  13
HETATM   13  C   UNL     1      -9.044   3.560  67.549  1.00  0.00    -0.196 C  
HETATM   14  C   UNL     1      -9.050   2.064  67.899  1.00  0.00    -0.171 C  
HETATM   15  C   UNL     1      -9.666   2.030  69.291  1.00  0.00     0.069 C  
HETATM   16  O   UNL     1      -7.730   1.537  67.980  1.00  0.00    -0.052 OA 
HETATM   17  H   UNL     1      -7.733   0.612  68.197  1.00  0.00     0.000 HD 
HETATM   18  C   UNL     1      -9.013   3.215  69.996  1.00  0.00    -0.103 C  
HETATM   19  O   UNL     1      -7.776   2.807  70.583  1.00  0.00    -0.042 OA 
HETATM   20  C   UNL     1      -8.737   4.266  68.897  1.00  0.00    -0.122 C  
HETATM   21  H   UNL     1      -7.369   3.545  71.022  1.00  0.00     0.000 HD 
BRANCH  20  22
HETATM   22  C   UNL     1      -9.578   5.509  69.087  1.00  0.00    -0.189 C  
HETATM   23  C   UNL     1     -10.085   5.883  70.276  1.00  0.00    -0.260 C  
BRANCH  23  24
HETATM   24  C   UNL     1     -11.005   7.044  70.553  1.00  0.00    -0.265 C  
HETATM   25  H   UNL     1     -12.814   7.313  71.280  1.00  0.00     0.000 HD 
HETATM   26  O   UNL     1     -12.234   6.581  71.106  1.00  0.00    -0.335 OA 
BRANCH  24  27
HETATM   27  C   UNL     1     -10.408   8.062  71.533  1.00  0.00    -0.258 C  
BRANCH  27  28
HETATM   28  C   UNL     1      -9.837   9.308  70.849  1.00  0.00    -0.363 C  
BRANCH  28  29
HETATM   29  C   UNL     1      -8.358   9.163  70.590  1.00  0.00    -0.239 A  
HETATM   30  C   UNL     1      -7.686  10.103  69.797  1.00  0.00    -0.176 A  
HETATM   31  C   UNL     1      -6.328   9.950  69.517  1.00  0.00    -0.047 A  
HETATM   32  C   UNL     1      -5.631   8.856  70.027  1.00  0.00    -0.028 A  
HETATM   33  C   UNL     1      -6.290   7.919  70.820  1.00  0.00    -0.037 A  
HETATM   34  C   UNL     1      -7.648   8.070  71.101  1.00  0.00    -0.082 A  
ENDBRANCH  28  29
ENDBRANCH  27  28
ENDBRANCH  24  27
ENDBRANCH  23  24
ENDBRANCH  20  22
ENDBRANCH  12  13
ENDBRANCH  11  12
ENDBRANCH   9  10
ENDBRANCH   8   9
ENDBRANCH   7   8
ENDBRANCH   4   7
ENDBRANCH   2   3
TORSDOF 12
ENDMDL
MODEL      343
REMARK 921   NORMALIZED FREE ENERGY PREDICTED BY IDOCK:   -2.90 KCAL/MOL
REMARK 922        TOTAL FREE ENERGY PREDICTED BY IDOCK:   -7.77 KCAL/MOL
REMARK 923 INTER-LIGAND FREE ENERGY PREDICTED BY IDOCK:   -5.79 KCAL/MOL
REMARK 924 INTRA-LIGAND FREE ENERGY PREDICTED BY IDOCK:   -1.97 KCAL/MOL
REMARK 927      BINDING AFFINITY PREDICTED BY RF-SCORE:    0.00 PKD
ROOT
HETATM    1  C   UNL     1      -6.903   3.194  70.408  1.00  0.00    -0.033 C  
HETATM    2  C   UNL     1      -6.722   4.279  71.452  1.00  0.00    -0.030 C  
ENDROOT
BRANCH   2   3
HETATM    3  N   UNL     1      -7.172   5.564  70.967  1.00  0.00    -0.076 N  
HETATM    4  C   UNL     1      -7.084   6.691  71.753  1.00  0.00    -0.076 C  
HETATM    5  H   UNL     1      -7.562   5.638  70.027  1.00  0.00     0.000 HD 
HETATM    6  O   UNL     1      -6.640   6.681  72.894  1.00  0.00    -0.066 OA 
BRANCH   4   7
HETATM    7  C   UNL     1      -7.580   7.946  71.062  1.00  0.00    -0.082 C  
BRANCH   7   8
HETATM    8  C   UNL     1      -6.426   8.703  70.400  1.00  0.00    -0.036 C  
BRANCH   8   9
HETATM    9  C   UNL     1      -6.881   9.718  69.353  1.00  0.00    -0.057 C  
BRANCH   9  10
HETATM   10  C   UNL     1      -6.299   9.435  67.997  1.00  0.00    -0.057 C  
HETATM   11  C   UNL     1      -6.465   8.327  67.258  1.00  0.00    -0.058 C  
BRANCH  11  12
HETATM   12  C   UNL     1      -7.248   7.099  67.636  1.00  0.00    -0.091 C  
BRANCH  12  13
HETATM   13  C   UNL     1      -8.627   7.024  66.966  1.00  0.00    -0.122 C  
HETATM   14  C   UNL     1      -9.076   5.613  66.556  1.00  0.00    -0.138 C  
HETATM   15  C   UNL     1     -10.591   5.733  66.476  1.00  0.00    -0.294 C  
HETATM   16  O   UNL     1      -8.754   4.648  67.552  1.00  0.00    -0.104 OA 
HETATM   17  H   UNL     1      -9.031   3.776  67.299  1.00  0.00     0.000 HD 
HETATM   18  C   UNL     1     -10.944   6.575  67.700  1.00  0.00    -0.337 C  
HETATM   19  O   UNL     1     -11.116   5.725  68.837  1.00  0.00    -0.265 OA 
HETATM   20  C   UNL     1      -9.736   7.510  67.938  1.00  0.00    -0.170 C  
HETATM   21  H   UNL     1     -11.335   6.249  69.599  1.00  0.00     0.000 HD 
BRANCH  20  22
HETATM   22  C   UNL     1     -10.098   8.960  67.702  1.00  0.00    -0.274 C  
HETATM   23  C   UNL     1      -9.963   9.570  66.512  1.00  0.00    -0.329 C  
BRANCH  23  24
HETATM   24  C   UNL     1     -10.206  11.024  66.197  1.00  0.00    -0.247 C  
HETATM   25  H   UNL     1     -10.643  12.107  64.613  1.00  0.00     0.000 HD 
HETATM   26  O   UNL     1     -10.490  11.190  64.811  1.00  0.00    -0.303 OA 
BRANCH  24  27
HETATM   27  C   UNL     1     -11.376  11.623  66.988  1.00  0.00    -0.373 C  
BRANCH  27  28
HETATM   28  C   UNL     1     -11.003  12.041  68.412  1.00  0.00    -0.276 C  
BRANCH  28  29
HETATM   29  C   UNL     1     -11.141  13.531  68.603  1.00  0.00    -0.299 A  
HETATM   30  C   UNL     1     -10.459  14.417  67.758  1.00  0.00    -0.245 A  
HETATM   31  C   UNL     1     -10.548  15.794  67.958  1.00  0.00    -0.279 A  
HETATM   32  C   UNL     1     -11.319  16.298  69.003  1.00  0.00    -0.301 A  
HETATM   33  C   UNL     1     -12.005  15.425  69.846  1.00  0.00    -0.384 A  
HETATM   34  C   UNL     1     -11.916  14.047  69.649  1.00  0.00    -0.393 A  
ENDBRANCH  28  29
ENDBRANCH  27  28
ENDBRANCH  24  27
ENDBRANCH  23  24
ENDBRANCH  20  22
ENDBRANCH  12  13
ENDBRANCH  11  12
ENDBRANCH   9  10
ENDBRANCH   8   9
ENDBRANCH   7   8
ENDBRANCH   4   7
ENDBRANCH   2   3
TORSDOF 12
ENDMDL
MODEL      344
REMARK 921   NORMALIZED FREE ENERGY PREDICTED BY IDOCK:   -2.89 KCAL/MOL
REMARK 922        TOTAL FREE ENERGY PREDICTED BY IDOCK:   -7.75 KCAL/MOL
REMARK 923 INTER-LIGAND FREE ENERGY PREDICTED BY IDOCK:   -5.85 KCAL/MOL
REMARK 924 INTRA-LIGAND FREE ENERGY PREDICTED BY IDOCK:   -1.90 KCAL/MOL
REMARK 927      BINDING AFFINITY PREDICTED BY RF-SCORE:    0.00 PKD
ROOT
HETATM    1  C   UNL     1      -8.490   2.672  69.876  1.00  0.00    -0.091 C  
HETATM    2  C   UNL     1      -8.944   3.506  71.059  1.00  0.00    -0.094 C  
ENDROOT
BRANCH   2   3
HETATM    3  N   UNL     1      -9.834   4.569  70.650  1.00  0.00    -0.214 N  
HETATM    4  C   UNL     1     -10.456   5.372  71.579  1.00  0.00    -0.223 C  
HETATM    5  H   UNL     1     -10.004   4.727  69.656  1.00  0.00     0.000 HD 
HETATM    6  O   UNL     1     -10.311   5.238  72.788  1.00  0.00    -0.180 OA 
BRANCH   4   7
HETATM    7  C   UNL     1     -11.327   6.446  70.958  1.00  0.00    -0.386 C  
BRANCH   7   8
HETATM    8  C   UNL     1     -10.728   7.837  71.180  1.00  0.00    -0.245 C  
BRANCH   8   9
HETATM    9  C   UNL     1     -10.927   8.784  69.996  1.00  0.00    -0.216 C  
BRANCH   9  10
HETATM   10  C   UNL     1      -9.886   9.867  69.955  1.00  0.00    -0.291 C  
HETATM   11  C   UNL     1      -8.569   9.719  69.739  1.00  0.00    -0.215 C  
BRANCH  11  12
HETATM   12  C   UNL     1      -7.830   8.427  69.521  1.00  0.00    -0.102 C  
BRANCH  12  13
HETATM   13  C   UNL     1      -7.111   8.355  68.167  1.00  0.00    -0.085 C  
HETATM   14  C   UNL     1      -5.721   7.704  68.202  1.00  0.00    -0.028 C  
HETATM   15  C   UNL     1      -5.506   7.252  66.764  1.00  0.00    -0.023 C  
HETATM   16  O   UNL     1      -5.699   6.554  69.041  1.00  0.00    -0.015 OA 
HETATM   17  H   UNL     1      -4.839   6.151  69.063  1.00  0.00     0.000 HD 
HETATM   18  C   UNL     1      -6.864   6.680  66.366  1.00  0.00    -0.061 C  
HETATM   19  O   UNL     1      -6.937   5.303  66.741  1.00  0.00    -0.062 OA 
HETATM   20  C   UNL     1      -7.915   7.484  67.165  1.00  0.00    -0.117 C  
HETATM   21  H   UNL     1      -7.782   4.947  66.493  1.00  0.00     0.000 HD 
BRANCH  20  22
HETATM   22  C   UNL     1      -8.783   8.327  66.255  1.00  0.00    -0.173 C  
HETATM   23  C   UNL     1      -8.303   9.323  65.491  1.00  0.00    -0.139 C  
BRANCH  23  24
HETATM   24  C   UNL     1      -9.091  10.275  64.628  1.00  0.00    -0.228 C  
HETATM   25  H   UNL     1      -9.638  10.399  62.741  1.00  0.00     0.000 HD 
HETATM   26  O   UNL     1      -9.141   9.799  63.285  1.00  0.00    -0.252 OA 
BRANCH  24  27
HETATM   27  C   UNL     1     -10.535  10.466  65.108  1.00  0.00    -0.158 C  
BRANCH  27  28
HETATM   28  C   UNL     1     -10.664  11.431  66.290  1.00  0.00    -0.322 C  
BRANCH  28  29
HETATM   29  C   UNL     1     -10.835  12.855  65.822  1.00  0.00    -0.292 A  
HETATM   30  C   UNL     1      -9.730  13.712  65.753  1.00  0.00    -0.162 A  
HETATM   31  C   UNL     1      -9.889  15.043  65.364  1.00  0.00    -0.312 A  
HETATM   32  C   UNL     1     -11.156  15.526  65.040  1.00  0.00    -0.411 A  
HETATM   33  C   UNL     1     -12.261  14.679  65.102  1.00  0.00    -0.282 A  
HETATM   34  C   UNL     1     -12.103  13.349  65.491  1.00  0.00    -0.467 A  
ENDBRANCH  28  29
ENDBRANCH  27  28
ENDBRANCH  24  27
ENDBRANCH  23  24
ENDBRANCH  20  22
ENDBRANCH  12  13
ENDBRANCH  11  12
ENDBRANCH   9  10
ENDBRANCH   8   9
ENDBRANCH   7   8
ENDBRANCH   4   7
ENDBRANCH   2   3
TORSDOF 12
ENDMDL
MODEL      345
REMARK 921   NORMALIZED FREE ENERGY PREDICTED BY IDOCK:   -2.89 KCAL/MOL
REMARK 922        TOTAL FREE ENERGY PREDICTED BY IDOCK:   -7.75 KCAL/MOL
REMARK 923 INTER-LIGAND FREE ENERGY PREDICTED BY IDOCK:   -5.32 KCAL/MOL
REMARK 924 INTRA-LIGAND FREE ENERGY PREDICTED BY IDOCK:   -2.43 KCAL/MOL
REMARK 927      BINDING AFFINITY PREDICTED BY RF-SCORE:    0.00 PKD
ROOT
HETATM    1  C   UNL     1     -13.077  10.445  71.053  1.00  0.00    -0.450 C  
HETATM    2  C   UNL     1     -11.812   9.630  71.248  1.00  0.00    -0.381 C  
ENDROOT
BRANCH   2   3
HETATM    3  N   UNL     1     -10.670  10.263  70.629  1.00  0.00    -0.406 N  
HETATM    4  C   UNL     1     -10.350  10.018  69.312  1.00  0.00    -0.219 C  
HETATM    5  H   UNL     1     -10.092  10.901  71.175  1.00  0.00     0.000 HD 
HETATM    6  O   UNL     1     -10.989   9.257  68.595  1.00  0.00    -0.128 OA 
BRANCH   4   7
HETATM    7  C   UNL     1      -9.138  10.792  68.835  1.00  0.00    -0.170 C  
BRANCH   7   8
HETATM    8  C   UNL     1      -7.963   9.854  68.548  1.00  0.00    -0.086 C  
BRANCH   8   9
HETATM    9  C   UNL     1      -7.753   8.790  69.625  1.00  0.00    -0.088 C  
BRANCH   9  10
HETATM   10  C   UNL     1      -7.046   7.576  69.092  1.00  0.00    -0.078 C  
HETATM   11  C   UNL     1      -7.586   6.558  68.404  1.00  0.00    -0.104 C  
BRANCH  11  12
HETATM   12  C   UNL     1      -9.035   6.385  68.038  1.00  0.00    -0.115 C  
BRANCH  12  13
HETATM   13  C   UNL     1      -9.609   5.021  68.444  1.00  0.00    -0.195 C  
HETATM   14  C   UNL     1      -9.213   3.850  67.532  1.00  0.00    -0.172 C  
HETATM   15  C   UNL     1      -9.400   2.629  68.422  1.00  0.00    -0.256 C  
HETATM   16  O   UNL     1      -7.844   3.920  67.150  1.00  0.00    -0.086 OA 
HETATM   17  H   UNL     1      -7.598   3.197  66.586  1.00  0.00     0.000 HD 
HETATM   18  C   UNL     1      -8.833   3.081  69.766  1.00  0.00    -0.086 C  
HETATM   19  O   UNL     1      -7.425   2.837  69.803  1.00  0.00    -0.044 OA 
HETATM   20  C   UNL     1      -9.092   4.603  69.847  1.00  0.00    -0.161 C  
HETATM   21  H   UNL     1      -7.073   3.119  70.639  1.00  0.00     0.000 HD 
BRANCH  20  22
HETATM   22  C   UNL     1     -10.083   4.944  70.939  1.00  0.00    -0.292 C  
HETATM   23  C   UNL     1     -10.386   6.205  71.294  1.00  0.00    -0.264 C  
BRANCH  23  24
HETATM   24  C   UNL     1     -11.283   6.647  72.421  1.00  0.00    -0.267 C  
HETATM   25  H   UNL     1     -12.789   5.903  73.447  1.00  0.00     0.000 HD 
HETATM   26  O   UNL     1     -12.224   5.624  72.736  1.00  0.00    -0.126 OA 
BRANCH  24  27
HETATM   27  C   UNL     1     -10.513   6.982  73.705  1.00  0.00    -0.392 C  
BRANCH  27  28
HETATM   28  C   UNL     1      -9.206   7.740  73.455  1.00  0.00    -0.350 C  
BRANCH  28  29
HETATM   29  C   UNL     1      -8.014   6.818  73.521  1.00  0.00    -0.103 A  
HETATM   30  C   UNL     1      -7.005   6.900  72.553  1.00  0.00    -0.066 A  
HETATM   31  C   UNL     1      -5.923   6.020  72.584  1.00  0.00    -0.038 A  
HETATM   32  C   UNL     1      -5.841   5.051  73.582  1.00  0.00    -0.026 A  
HETATM   33  C   UNL     1      -6.839   4.965  74.552  1.00  0.00    -0.072 A  
HETATM   34  C   UNL     1      -7.921   5.843  74.522  1.00  0.00    -0.102 A  
ENDBRANCH  28  29
ENDBRANCH  27  28
ENDBRANCH  24  27
ENDBRANCH  23  24
ENDBRANCH  20  22
ENDBRANCH  12  13
ENDBRANCH  11  12
ENDBRANCH   9  10
ENDBRANCH   8   9
ENDBRANCH   7   8
ENDBRANCH   4   7
ENDBRANCH   2   3
TORSDOF 12
ENDMDL
MODEL      346
REMARK 921   NORMALIZED FREE ENERGY PREDICTED BY IDOCK:   -2.87 KCAL/MOL
REMARK 922        TOTAL FREE ENERGY PREDICTED BY IDOCK:   -7.72 KCAL/MOL
REMARK 923 INTER-LIGAND FREE ENERGY PREDICTED BY IDOCK:   -5.24 KCAL/MOL
REMARK 924 INTRA-LIGAND FREE ENERGY PREDICTED BY IDOCK:   -2.48 KCAL/MOL
REMARK 927      BINDING AFFINITY PREDICTED BY RF-SCORE:    0.00 PKD
ROOT
HETATM    1  C   UNL     1      -7.600   3.227  70.170  1.00  0.00    -0.044 C  
HETATM    2  C   UNL     1      -8.518   3.629  71.310  1.00  0.00    -0.068 C  
ENDROOT
BRANCH   2   3
HETATM    3  N   UNL     1      -9.467   4.638  70.898  1.00  0.00    -0.153 N  
HETATM    4  C   UNL     1     -10.496   5.027  71.727  1.00  0.00    -0.176 C  
HETATM    5  H   UNL     1      -9.374   5.070  69.978  1.00  0.00     0.000 HD 
HETATM    6  O   UNL     1     -10.680   4.549  72.839  1.00  0.00    -0.200 OA 
BRANCH   4   7
HETATM    7  C   UNL     1     -11.368   6.114  71.131  1.00  0.00    -0.340 C  
BRANCH   7   8
HETATM    8  C   UNL     1     -10.908   7.501  71.587  1.00  0.00    -0.249 C  
BRANCH   8   9
HETATM    9  C   UNL     1     -10.828   8.522  70.453  1.00  0.00    -0.251 C  
BRANCH   9  10
HETATM   10  C   UNL     1      -9.482   9.185  70.380  1.00  0.00    -0.269 C  
HETATM   11  C   UNL     1      -8.387   8.731  69.751  1.00  0.00    -0.127 C  
BRANCH  11  12
HETATM   12  C   UNL     1      -8.250   7.434  69.001  1.00  0.00    -0.128 C  
BRANCH  12  13
HETATM   13  C   UNL     1      -8.050   7.620  67.491  1.00  0.00    -0.120 C  
HETATM   14  C   UNL     1      -7.028   6.670  66.848  1.00  0.00    -0.067 C  
HETATM   15  C   UNL     1      -7.431   6.658  65.380  1.00  0.00    -0.080 C  
HETATM   16  O   UNL     1      -7.147   5.346  67.356  1.00  0.00    -0.067 OA 
HETATM   17  H   UNL     1      -6.515   4.758  66.959  1.00  0.00     0.000 HD 
HETATM   18  C   UNL     1      -8.955   6.594  65.432  1.00  0.00     0.179 C  
HETATM   19  O   UNL     1      -9.379   5.231  65.513  1.00  0.00    -0.235 OA 
HETATM   20  C   UNL     1      -9.369   7.336  66.723  1.00  0.00    -0.203 C  
HETATM   21  H   UNL     1     -10.328   5.191  65.546  1.00  0.00     0.000 HD 
BRANCH  20  22
HETATM   22  C   UNL     1     -10.128   8.609  66.416  1.00  0.00    -0.294 C  
HETATM   23  C   UNL     1      -9.547   9.712  65.913  1.00  0.00    -0.321 C  
BRANCH  23  24
HETATM   24  C   UNL     1     -10.192  11.051  65.660  1.00  0.00    -0.260 C  
HETATM   25  H   UNL     1     -10.855  12.066  64.109  1.00  0.00     0.000 HD 
HETATM   26  O   UNL     1     -10.448  11.222  64.268  1.00  0.00    -0.309 OA 
BRANCH  24  27
HETATM   27  C   UNL     1     -11.522  11.227  66.403  1.00  0.00     0.043 C  
BRANCH  27  28
HETATM   28  C   UNL     1     -11.358  11.418  67.914  1.00  0.00    -0.371 C  
BRANCH  28  29
HETATM   29  C   UNL     1     -10.860  12.804  68.242  1.00  0.00    -0.270 A  
HETATM   30  C   UNL     1      -9.535  12.998  68.652  1.00  0.00    -0.007 A  
HETATM   31  C   UNL     1      -9.082  14.271  69.000  1.00  0.00     0.056 A  
HETATM   32  C   UNL     1      -9.950  15.359  68.942  1.00  0.00    -0.219 A  
HETATM   33  C   UNL     1     -11.269  15.176  68.531  1.00  0.00    -0.301 A  
HETATM   34  C   UNL     1     -11.724  13.904  68.183  1.00  0.00    -0.388 A  
ENDBRANCH  28  29
ENDBRANCH  27  28
ENDBRANCH  24  27
ENDBRANCH  23  24
ENDBRANCH  20  22
ENDBRANCH  12  13
ENDBRANCH  11  12
ENDBRANCH   9  10
ENDBRANCH   8   9
ENDBRANCH   7   8
ENDBRANCH   4   7
ENDBRANCH   2   3
TORSDOF 12
ENDMDL
MODEL      347
REMARK 921   NORMALIZED FREE ENERGY PREDICTED BY IDOCK:   -2.86 KCAL/MOL
REMARK 922        TOTAL FREE ENERGY PREDICTED BY IDOCK:   -7.70 KCAL/MOL
REMARK 923 INTER-LIGAND FREE ENERGY PREDICTED BY IDOCK:   -6.18 KCAL/MOL
REMARK 924 INTRA-LIGAND FREE ENERGY PREDICTED BY IDOCK:   -1.51 KCAL/MOL
REMARK 927      BINDING AFFINITY PREDICTED BY RF-SCORE:    0.00 PKD
ROOT
HETATM    1  C   UNL     1     -13.689  15.294  72.016  1.00  0.00    -0.596 C  
HETATM    2  C   UNL     1     -12.512  14.508  71.469  1.00  0.00    -0.355 C  
ENDROOT
BRANCH   2   3
HETATM    3  N   UNL     1     -12.662  14.243  70.056  1.00  0.00    -0.466 N  
HETATM    4  C   UNL     1     -11.904  14.915  69.123  1.00  0.00    -0.307 C  
HETATM    5  H   UNL     1     -13.339  13.546  69.745  1.00  0.00     0.000 HD 
HETATM    6  O   UNL     1     -11.080  15.772  69.418  1.00  0.00    -0.267 OA 
BRANCH   4   7
HETATM    7  C   UNL     1     -12.183  14.481  67.698  1.00  0.00    -0.146 C  
BRANCH   7   8
HETATM    8  C   UNL     1     -12.010  12.969  67.539  1.00  0.00    -0.360 C  
BRANCH   8   9
HETATM    9  C   UNL     1     -10.599  12.478  67.859  1.00  0.00    -0.233 C  
BRANCH   9  10
HETATM   10  C   UNL     1      -9.611  12.857  66.792  1.00  0.00    -0.246 C  
HETATM   11  C   UNL     1      -9.472  12.298  65.579  1.00  0.00    -0.029 C  
BRANCH  11  12
HETATM   12  C   UNL     1     -10.256  11.141  65.024  1.00  0.00    -0.354 C  
BRANCH  12  13
HETATM   13  C   UNL     1      -9.374   9.973  64.560  1.00  0.00    -0.345 C  
HETATM   14  C   UNL     1      -8.974  10.008  63.078  1.00  0.00    -0.260 C  
HETATM   15  C   UNL     1      -7.720   9.146  63.030  1.00  0.00    -0.110 C  
HETATM   16  O   UNL     1      -8.630  11.324  62.656  1.00  0.00    -0.451 OA 
HETATM   17  H   UNL     1      -8.383  11.346  61.739  1.00  0.00     0.000 HD 
HETATM   18  C   UNL     1      -6.952   9.569  64.279  1.00  0.00    -0.108 C  
HETATM   19  O   UNL     1      -6.131  10.701  63.981  1.00  0.00    -0.348 OA 
HETATM   20  C   UNL     1      -8.021   9.971  65.321  1.00  0.00    -0.143 C  
HETATM   21  H   UNL     1      -5.653  10.964  64.760  1.00  0.00     0.000 HD 
BRANCH  20  22
HETATM   22  C   UNL     1      -8.037   9.022  66.500  1.00  0.00    -0.111 C  
HETATM   23  C   UNL     1      -8.998   8.103  66.694  1.00  0.00    -0.181 C  
BRANCH  23  24
HETATM   24  C   UNL     1      -9.155   7.180  67.875  1.00  0.00    -0.128 C  
HETATM   25  H   UNL     1      -9.376   5.248  68.180  1.00  0.00     0.000 HD 
HETATM   26  O   UNL     1      -9.278   5.830  67.435  1.00  0.00    -0.111 OA 
BRANCH  24  27
HETATM   27  C   UNL     1      -7.972   7.246  68.850  1.00  0.00    -0.123 C  
BRANCH  27  28
HETATM   28  C   UNL     1      -8.339   6.853  70.284  1.00  0.00    -0.134 C  
BRANCH  28  29
HETATM   29  C   UNL     1      -7.375   5.835  70.839  1.00  0.00    -0.085 A  
HETATM   30  C   UNL     1      -7.710   5.095  71.981  1.00  0.00    -0.099 A  
HETATM   31  C   UNL     1      -6.804   4.184  72.525  1.00  0.00    -0.050 A  
HETATM   32  C   UNL     1      -5.556   4.005  71.932  1.00  0.00    -0.008 A  
HETATM   33  C   UNL     1      -5.215   4.733  70.793  1.00  0.00    -0.004 A  
HETATM   34  C   UNL     1      -6.119   5.645  70.248  1.00  0.00    -0.026 A  
ENDBRANCH  28  29
ENDBRANCH  27  28
ENDBRANCH  24  27
ENDBRANCH  23  24
ENDBRANCH  20  22
ENDBRANCH  12  13
ENDBRANCH  11  12
ENDBRANCH   9  10
ENDBRANCH   8   9
ENDBRANCH   7   8
ENDBRANCH   4   7
ENDBRANCH   2   3
TORSDOF 12
ENDMDL
MODEL      348
REMARK 921   NORMALIZED FREE ENERGY PREDICTED BY IDOCK:   -2.85 KCAL/MOL
REMARK 922        TOTAL FREE ENERGY PREDICTED BY IDOCK:   -7.68 KCAL/MOL
REMARK 923 INTER-LIGAND FREE ENERGY PREDICTED BY IDOCK:   -5.83 KCAL/MOL
REMARK 924 INTRA-LIGAND FREE ENERGY PREDICTED BY IDOCK:   -1.85 KCAL/MOL
REMARK 927      BINDING AFFINITY PREDICTED BY RF-SCORE:    0.00 PKD
ROOT
HETATM    1  C   UNL     1     -11.183  11.887  68.559  1.00  0.00    -0.308 C  
HETATM    2  C   UNL     1     -11.397  13.388  68.576  1.00  0.00    -0.289 C  
ENDROOT
BRANCH   2   3
HETATM    3  N   UNL     1     -11.509  13.926  67.239  1.00  0.00    -0.326 N  
HETATM    4  C   UNL     1     -10.438  14.542  66.630  1.00  0.00    -0.274 C  
HETATM    5  H   UNL     1     -12.394  13.848  66.739  1.00  0.00     0.000 HD 
HETATM    6  O   UNL     1      -9.348  14.683  67.169  1.00  0.00    -0.207 OA 
BRANCH   4   7
HETATM    7  C   UNL     1     -10.740  15.015  65.222  1.00  0.00    -0.406 C  
BRANCH   7   8
HETATM    8  C   UNL     1     -10.747  13.843  64.237  1.00  0.00    -0.146 C  
BRANCH   8   9
HETATM    9  C   UNL     1     -12.095  13.129  64.146  1.00  0.00    -0.496 C  
BRANCH   9  10
HETATM   10  C   UNL     1     -11.974  11.766  63.525  1.00  0.00    -0.484 C  
HETATM   11  C   UNL     1     -11.011  10.856  63.746  1.00  0.00     0.123 C  
BRANCH  11  12
HETATM   12  C   UNL     1      -9.814  11.010  64.644  1.00  0.00    -0.338 C  
BRANCH  12  13
HETATM   13  C   UNL     1      -8.930   9.756  64.702  1.00  0.00    -0.270 C  
HETATM   14  C   UNL     1      -8.636   9.103  63.344  1.00  0.00    -0.169 C  
HETATM   15  C   UNL     1      -7.361   8.311  63.601  1.00  0.00    -0.108 C  
HETATM   16  O   UNL     1      -8.364  10.075  62.340  1.00  0.00    -0.130 OA 
HETATM   17  H   UNL     1      -8.182   9.671  61.500  1.00  0.00     0.000 HD 
HETATM   18  C   UNL     1      -6.522   9.259  64.454  1.00  0.00    -0.082 C  
HETATM   19  O   UNL     1      -5.761  10.123  63.607  1.00  0.00    -0.112 OA 
HETATM   20  C   UNL     1      -7.528  10.100  65.272  1.00  0.00    -0.145 C  
HETATM   21  H   UNL     1      -5.238  10.714  64.138  1.00  0.00     0.000 HD 
BRANCH  20  22
HETATM   22  C   UNL     1      -7.431   9.801  66.753  1.00  0.00    -0.095 C  
HETATM   23  C   UNL     1      -7.590  10.735  67.707  1.00  0.00    -0.095 C  
BRANCH  23  24
HETATM   24  C   UNL     1      -7.424  10.560  69.194  1.00  0.00    -0.114 C  
HETATM   25  H   UNL     1      -7.019  11.699  70.748  1.00  0.00     0.000 HD 
HETATM   26  O   UNL     1      -7.124  11.810  69.810  1.00  0.00     0.065 OA 
BRANCH  24  27
HETATM   27  C   UNL     1      -8.676   9.994  69.876  1.00  0.00    -0.169 C  
BRANCH  27  28
HETATM   28  C   UNL     1      -8.532   8.530  70.303  1.00  0.00    -0.128 C  
BRANCH  28  29
HETATM   29  C   UNL     1      -9.051   7.594  69.240  1.00  0.00    -0.145 A  
HETATM   30  C   UNL     1      -8.341   6.431  68.916  1.00  0.00    -0.121 A  
HETATM   31  C   UNL     1      -8.793   5.585  67.903  1.00  0.00    -0.105 A  
HETATM   32  C   UNL     1      -9.960   5.894  67.206  1.00  0.00    -0.179 A  
HETATM   33  C   UNL     1     -10.676   7.047  67.525  1.00  0.00    -0.352 A  
HETATM   34  C   UNL     1     -10.225   7.894  68.537  1.00  0.00    -0.229 A  
ENDBRANCH  28  29
ENDBRANCH  27  28
ENDBRANCH  24  27
ENDBRANCH  23  24
ENDBRANCH  20  22
ENDBRANCH  12  13
ENDBRANCH  11  12
ENDBRANCH   9  10
ENDBRANCH   8   9
ENDBRANCH   7   8
ENDBRANCH   4   7
ENDBRANCH   2   3
TORSDOF 12
ENDMDL
MODEL      349
REMARK 921   NORMALIZED FREE ENERGY PREDICTED BY IDOCK:   -2.84 KCAL/MOL
REMARK 922        TOTAL FREE ENERGY PREDICTED BY IDOCK:   -7.67 KCAL/MOL
REMARK 923 INTER-LIGAND FREE ENERGY PREDICTED BY IDOCK:   -6.65 KCAL/MOL
REMARK 924 INTRA-LIGAND FREE ENERGY PREDICTED BY IDOCK:   -1.02 KCAL/MOL
REMARK 927      BINDING AFFINITY PREDICTED BY RF-SCORE:    0.00 PKD
ROOT
HETATM    1  C   UNL     1     -12.504  13.017  64.835  1.00  0.00    -0.512 C  
HETATM    2  C   UNL     1     -12.348  13.945  66.026  1.00  0.00    -0.475 C  
ENDROOT
BRANCH   2   3
HETATM    3  N   UNL     1     -12.441  13.225  67.276  1.00  0.00    -0.076 N  
HETATM    4  C   UNL     1     -11.442  13.310  68.220  1.00  0.00    -0.316 C  
HETATM    5  H   UNL     1     -13.260  12.646  67.462  1.00  0.00     0.000 HD 
HETATM    6  O   UNL     1     -10.426  13.975  68.065  1.00  0.00    -0.234 OA 
BRANCH   4   7
HETATM    7  C   UNL     1     -11.732  12.509  69.473  1.00  0.00    -0.375 C  
BRANCH   7   8
HETATM    8  C   UNL     1     -11.809  11.011  69.164  1.00  0.00    -0.407 C  
BRANCH   8   9
HETATM    9  C   UNL     1     -12.845  10.266  70.005  1.00  0.00     0.071 C  
BRANCH   9  10
HETATM   10  C   UNL     1     -12.586  10.405  71.478  1.00  0.00    -0.544 C  
HETATM   11  C   UNL     1     -12.292   9.423  72.346  1.00  0.00    -0.196 C  
BRANCH  11  12
HETATM   12  C   UNL     1     -12.187   7.954  72.045  1.00  0.00    -0.357 C  
BRANCH  12  13
HETATM   13  C   UNL     1     -10.917   7.303  72.611  1.00  0.00    -0.341 C  
HETATM   14  C   UNL     1     -11.152   6.031  73.439  1.00  0.00    -0.083 C  
HETATM   15  C   UNL     1      -9.809   5.316  73.377  1.00  0.00    -0.173 C  
HETATM   16  O   UNL     1     -12.136   5.190  72.846  1.00  0.00    -0.408 OA 
HETATM   17  H   UNL     1     -12.281   4.404  73.358  1.00  0.00     0.000 HD 
HETATM   18  C   UNL     1      -9.382   5.493  71.922  1.00  0.00    -0.144 C  
HETATM   19  O   UNL     1      -9.930   4.439  71.126  1.00  0.00    -0.190 OA 
HETATM   20  C   UNL     1      -9.978   6.843  71.464  1.00  0.00    -0.185 C  
HETATM   21  H   UNL     1      -9.663   4.550  70.221  1.00  0.00     0.000 HD 
BRANCH  20  22
HETATM   22  C   UNL     1      -8.896   7.862  71.178  1.00  0.00    -0.150 C  
HETATM   23  C   UNL     1      -9.085   8.939  70.395  1.00  0.00    -0.217 C  
BRANCH  23  24
HETATM   24  C   UNL     1      -8.055   9.956  69.976  1.00  0.00    -0.177 C  
HETATM   25  H   UNL     1      -6.354  10.663  70.671  1.00  0.00     0.000 HD 
HETATM   26  O   UNL     1      -7.003  10.021  70.935  1.00  0.00    -0.337 OA 
BRANCH  24  27
HETATM   27  C   UNL     1      -7.423   9.645  68.613  1.00  0.00    -0.075 C  
BRANCH  27  28
HETATM   28  C   UNL     1      -7.528  10.798  67.611  1.00  0.00    -0.095 C  
BRANCH  28  29
HETATM   29  C   UNL     1      -6.848  12.041  68.130  1.00  0.00    -0.069 A  
HETATM   30  C   UNL     1      -7.062  13.276  67.503  1.00  0.00    -0.156 A  
HETATM   31  C   UNL     1      -6.401  14.420  67.951  1.00  0.00    -0.173 A  
HETATM   32  C   UNL     1      -5.522  14.339  69.029  1.00  0.00    -0.084 A  
HETATM   33  C   UNL     1      -5.306  13.116  69.661  1.00  0.00    -0.086 A  
HETATM   34  C   UNL     1      -5.965  11.971  69.215  1.00  0.00    -0.081 A  
ENDBRANCH  28  29
ENDBRANCH  27  28
ENDBRANCH  24  27
ENDBRANCH  23  24
ENDBRANCH  20  22
ENDBRANCH  12  13
ENDBRANCH  11  12
ENDBRANCH   9  10
ENDBRANCH   8   9
ENDBRANCH   7   8
ENDBRANCH   4   7
ENDBRANCH   2   3
TORSDOF 12
ENDMDL
MODEL      350
REMARK 921   NORMALIZED FREE ENERGY PREDICTED BY IDOCK:   -2.78 KCAL/MOL
REMARK 922        TOTAL FREE ENERGY PREDICTED BY IDOCK:   -7.57 KCAL/MOL
REMARK 923 INTER-LIGAND FREE ENERGY PREDICTED BY IDOCK:   -5.13 KCAL/MOL
REMARK 924 INTRA-LIGAND FREE ENERGY PREDICTED BY IDOCK:   -2.44 KCAL/MOL
REMARK 927      BINDING AFFINITY PREDICTED BY RF-SCORE:    0.00 PKD
ROOT
HETATM    1  C   UNL     1     -11.732  12.094  67.417  1.00  0.00    -0.374 C  
HETATM    2  C   UNL     1     -10.642  12.704  68.278  1.00  0.00    -0.237 C  
ENDROOT
BRANCH   2   3
HETATM    3  N   UNL     1      -9.351  12.118  67.996  1.00  0.00    -0.192 N  
HETATM    4  C   UNL     1      -8.376  12.831  67.336  1.00  0.00    -0.189 C  
HETATM    5  H   UNL     1      -9.160  11.160  68.290  1.00  0.00     0.000 HD 
HETATM    6  O   UNL     1      -8.533  13.980  66.943  1.00  0.00    -0.179 OA 
BRANCH   4   7
HETATM    7  C   UNL     1      -7.084  12.058  67.157  1.00  0.00    -0.130 C  
BRANCH   7   8
HETATM    8  C   UNL     1      -7.356  10.560  66.998  1.00  0.00    -0.099 C  
BRANCH   8   9
HETATM    9  C   UNL     1      -6.538   9.905  65.886  1.00  0.00    -0.091 C  
BRANCH   9  10
HETATM   10  C   UNL     1      -7.194  10.044  64.541  1.00  0.00    -0.139 C  
HETATM   11  C   UNL     1      -7.226   9.133  63.556  1.00  0.00    -0.092 C  
BRANCH  11  12
HETATM   12  C   UNL     1      -6.582   7.774  63.563  1.00  0.00    -0.062 C  
BRANCH  12  13
HETATM   13  C   UNL     1      -7.570   6.631  63.835  1.00  0.00    -0.108 C  
HETATM   14  C   UNL     1      -7.176   5.273  63.235  1.00  0.00    -0.048 C  
HETATM   15  C   UNL     1      -7.946   4.274  64.087  1.00  0.00    -0.090 C  
HETATM   16  O   UNL     1      -5.785   5.014  63.387  1.00  0.00    -0.016 OA 
HETATM   17  H   UNL     1      -5.541   4.174  63.016  1.00  0.00     0.000 HD 
HETATM   18  C   UNL     1      -7.787   4.821  65.504  1.00  0.00    -0.094 C  
HETATM   19  O   UNL     1      -6.581   4.319  66.083  1.00  0.00    -0.040 OA 
HETATM   20  C   UNL     1      -7.685   6.356  65.358  1.00  0.00    -0.098 C  
HETATM   21  H   UNL     1      -6.482   4.660  66.965  1.00  0.00     0.000 HD 
BRANCH  20  22
HETATM   22  C   UNL     1      -8.880   7.056  65.970  1.00  0.00    -0.155 C  
HETATM   23  C   UNL     1      -9.497   6.625  67.084  1.00  0.00    -0.158 C  
BRANCH  23  24
HETATM   24  C   UNL     1     -10.741   7.193  67.717  1.00  0.00    -0.212 C  
HETATM   25  H   UNL     1     -12.102   6.604  69.012  1.00  0.00     0.000 HD 
HETATM   26  O   UNL     1     -11.317   6.246  68.613  1.00  0.00    -0.337 OA 
BRANCH  24  27
HETATM   27  C   UNL     1     -10.479   8.481  68.507  1.00  0.00    -0.205 C  
BRANCH  27  28
HETATM   28  C   UNL     1      -9.257   8.398  69.426  1.00  0.00    -0.154 C  
BRANCH  28  29
HETATM   29  C   UNL     1      -9.650   8.017  70.832  1.00  0.00    -0.179 A  
HETATM   30  C   UNL     1      -8.802   7.218  71.609  1.00  0.00    -0.123 A  
HETATM   31  C   UNL     1      -9.180   6.826  72.894  1.00  0.00    -0.150 A  
HETATM   32  C   UNL     1     -10.410   7.229  73.410  1.00  0.00    -0.410 A  
HETATM   33  C   UNL     1     -11.259   8.028  72.646  1.00  0.00    -0.462 A  
HETATM   34  C   UNL     1     -10.882   8.420  71.362  1.00  0.00    -0.304 A  
ENDBRANCH  28  29
ENDBRANCH  27  28
ENDBRANCH  24  27
ENDBRANCH  23  24
ENDBRANCH  20  22
ENDBRANCH  12  13
ENDBRANCH  11  12
ENDBRANCH   9  10
ENDBRANCH   8   9
ENDBRANCH   7   8
ENDBRANCH   4   7
ENDBRANCH   2   3
TORSDOF 12
ENDMDL
MODEL      351
REMARK 921   NORMALIZED FREE ENERGY PREDICTED BY IDOCK:   -2.76 KCAL/MOL
REMARK 922        TOTAL FREE ENERGY PREDICTED BY IDOCK:   -7.53 KCAL/MOL
REMARK 923 INTER-LIGAND FREE ENERGY PREDICTED BY IDOCK:   -5.74 KCAL/MOL
REMARK 924 INTRA-LIGAND FREE ENERGY PREDICTED BY IDOCK:   -1.79 KCAL/MOL
REMARK 927      BINDING AFFINITY PREDICTED BY RF-SCORE:    0.00 PKD
ROOT
HETATM    1  C   UNL     1     -11.750  12.528  68.257  1.00  0.00    -0.390 C  
HETATM    2  C   UNL     1     -10.806  12.971  67.154  1.00  0.00    -0.260 C  
ENDROOT
BRANCH   2   3
HETATM    3  N   UNL     1      -9.987  11.876  66.685  1.00  0.00    -0.196 N  
HETATM    4  C   UNL     1     -10.075  11.430  65.385  1.00  0.00    -0.261 C  
HETATM    5  H   UNL     1      -9.333  11.427  67.326  1.00  0.00     0.000 HD 
HETATM    6  O   UNL     1     -10.842  11.910  64.560  1.00  0.00    -0.287 OA 
BRANCH   4   7
HETATM    7  C   UNL     1      -9.119  10.295  65.074  1.00  0.00    -0.244 C  
BRANCH   7   8
HETATM    8  C   UNL     1      -9.335   9.116  66.027  1.00  0.00    -0.300 C  
BRANCH   8   9
HETATM    9  C   UNL     1      -8.219   8.074  65.974  1.00  0.00    -0.120 C  
BRANCH   9  10
HETATM   10  C   UNL     1      -8.503   6.989  64.975  1.00  0.00     0.018 C  
HETATM   11  C   UNL     1      -7.989   5.749  64.955  1.00  0.00    -0.123 C  
BRANCH  11  12
HETATM   12  C   UNL     1      -6.982   5.175  65.913  1.00  0.00    -0.066 C  
BRANCH  12  13
HETATM   13  C   UNL     1      -7.563   4.090  66.832  1.00  0.00    -0.084 C  
HETATM   14  C   UNL     1      -7.106   2.658  66.517  1.00  0.00    -0.053 C  
HETATM   15  C   UNL     1      -7.327   1.920  67.831  1.00  0.00    -0.050 C  
HETATM   16  O   UNL     1      -5.720   2.605  66.201  1.00  0.00    -0.020 OA 
HETATM   17  H   UNL     1      -5.437   1.719  66.006  1.00  0.00     0.000 HD 
HETATM   18  C   UNL     1      -6.838   2.914  68.881  1.00  0.00    -0.041 C  
HETATM   19  O   UNL     1      -5.431   2.753  69.079  1.00  0.00    -0.012 OA 
HETATM   20  C   UNL     1      -7.116   4.319  68.301  1.00  0.00    -0.059 C  
HETATM   21  H   UNL     1      -5.127   3.372  69.733  1.00  0.00     0.000 HD 
BRANCH  20  22
HETATM   22  C   UNL     1      -8.167   5.056  69.102  1.00  0.00    -0.083 C  
HETATM   23  C   UNL     1      -9.257   5.618  68.550  1.00  0.00    -0.131 C  
BRANCH  23  24
HETATM   24  C   UNL     1     -10.308   6.447  69.243  1.00  0.00    -0.207 C  
HETATM   25  H   UNL     1     -11.979   7.366  68.753  1.00  0.00     0.000 HD 
HETATM   26  O   UNL     1     -11.316   6.843  68.317  1.00  0.00    -0.046 OA 
BRANCH  24  27
HETATM   27  C   UNL     1     -10.999   5.702  70.392  1.00  0.00    -0.278 C  
BRANCH  27  28
HETATM   28  C   UNL     1     -10.845   6.394  71.750  1.00  0.00    -0.283 C  
BRANCH  28  29
HETATM   29  C   UNL     1     -11.532   7.736  71.765  1.00  0.00    -0.307 A  
HETATM   30  C   UNL     1     -10.881   8.868  71.257  1.00  0.00    -0.360 A  
HETATM   31  C   UNL     1     -11.494  10.120  71.309  1.00  0.00    -0.327 A  
HETATM   32  C   UNL     1     -12.762  10.251  71.871  1.00  0.00    -0.478 A  
HETATM   33  C   UNL     1     -13.419   9.131  72.376  1.00  0.00    -0.535 A  
HETATM   34  C   UNL     1     -12.808   7.878  72.325  1.00  0.00    -0.152 A  
ENDBRANCH  28  29
ENDBRANCH  27  28
ENDBRANCH  24  27
ENDBRANCH  23  24
ENDBRANCH  20  22
ENDBRANCH  12  13
ENDBRANCH  11  12
ENDBRANCH   9  10
ENDBRANCH   8   9
ENDBRANCH   7   8
ENDBRANCH   4   7
ENDBRANCH   2   3
TORSDOF 12
ENDMDL
MODEL      352
REMARK 921   NORMALIZED FREE ENERGY PREDICTED BY IDOCK:   -2.75 KCAL/MOL
REMARK 922        TOTAL FREE ENERGY PREDICTED BY IDOCK:   -7.51 KCAL/MOL
REMARK 923 INTER-LIGAND FREE ENERGY PREDICTED BY IDOCK:   -7.18 KCAL/MOL
REMARK 924 INTRA-LIGAND FREE ENERGY PREDICTED BY IDOCK:   -0.34 KCAL/MOL
REMARK 927      BINDING AFFINITY PREDICTED BY RF-SCORE:    0.00 PKD
ROOT
HETATM    1  C   UNL     1     -11.349  13.194  69.038  1.00  0.00    -0.332 C  
HETATM    2  C   UNL     1     -11.768  14.612  68.698  1.00  0.00    -0.329 C  
ENDROOT
BRANCH   2   3
HETATM    3  N   UNL     1     -11.918  14.795  67.272  1.00  0.00    -0.464 N  
HETATM    4  C   UNL     1     -11.027  15.564  66.557  1.00  0.00    -0.243 C  
HETATM    5  H   UNL     1     -12.697  14.348  66.788  1.00  0.00     0.000 HD 
HETATM    6  O   UNL     1     -10.075  16.140  67.068  1.00  0.00    -0.257 OA 
BRANCH   4   7
HETATM    7  C   UNL     1     -11.334  15.615  65.074  1.00  0.00    -0.255 C  
BRANCH   7   8
HETATM    8  C   UNL     1     -10.936  14.308  64.384  1.00  0.00    -0.204 C  
BRANCH   8   9
HETATM    9  C   UNL     1     -11.826  13.123  64.757  1.00  0.00    -0.413 C  
BRANCH   9  10
HETATM   10  C   UNL     1     -11.614  11.945  63.848  1.00  0.00    -0.515 C  
HETATM   11  C   UNL     1     -10.624  11.041  63.910  1.00  0.00    -0.382 C  
BRANCH  11  12
HETATM   12  C   UNL     1      -9.480  11.020  64.886  1.00  0.00    -0.270 C  
BRANCH  12  13
HETATM   13  C   UNL     1      -9.922  11.179  66.348  1.00  0.00    -0.257 C  
HETATM   14  C   UNL     1     -10.639   9.960  66.947  1.00  0.00    -0.178 C  
HETATM   15  C   UNL     1     -10.446  10.139  68.447  1.00  0.00    -0.237 C  
HETATM   16  O   UNL     1     -10.020   8.740  66.558  1.00  0.00    -0.254 OA 
HETATM   17  H   UNL     1     -10.463   7.986  66.928  1.00  0.00     0.000 HD 
HETATM   18  C   UNL     1      -8.995  10.598  68.564  1.00  0.00    -0.156 C  
HETATM   19  O   UNL     1      -8.132   9.460  68.633  1.00  0.00    -0.101 OA 
HETATM   20  C   UNL     1      -8.693  11.391  67.272  1.00  0.00    -0.148 C  
HETATM   21  H   UNL     1      -7.229   9.746  68.706  1.00  0.00     0.000 HD 
BRANCH  20  22
HETATM   22  C   UNL     1      -8.450  12.857  67.560  1.00  0.00    -0.186 C  
HETATM   23  C   UNL     1      -7.771  13.295  68.635  1.00  0.00    -0.080 C  
BRANCH  23  24
HETATM   24  C   UNL     1      -7.555  14.725  69.059  1.00  0.00    -0.141 C  
HETATM   25  H   UNL     1      -8.562  16.116  70.022  1.00  0.00     0.000 HD 
HETATM   26  O   UNL     1      -8.698  15.214  69.755  1.00  0.00    -0.147 OA 
BRANCH  24  27
HETATM   27  C   UNL     1      -6.340  14.902  69.979  1.00  0.00    -0.162 C  
BRANCH  27  28
HETATM   28  C   UNL     1      -5.852  16.350  70.077  1.00  0.00    -0.190 C  
BRANCH  28  29
HETATM   29  C   UNL     1      -6.131  17.112  68.806  1.00  0.00    -0.158 A  
HETATM   30  C   UNL     1      -6.379  18.490  68.849  1.00  0.00    -0.244 A  
HETATM   31  C   UNL     1      -6.681  19.192  67.682  1.00  0.00    -0.225 A  
HETATM   32  C   UNL     1      -6.740  18.521  66.462  1.00  0.00    -0.225 A  
HETATM   33  C   UNL     1      -6.491  17.151  66.408  1.00  0.00    -0.236 A  
HETATM   34  C   UNL     1      -6.189  16.448  67.574  1.00  0.00    -0.186 A  
ENDBRANCH  28  29
ENDBRANCH  27  28
ENDBRANCH  24  27
ENDBRANCH  23  24
ENDBRANCH  20  22
ENDBRANCH  12  13
ENDBRANCH  11  12
ENDBRANCH   9  10
ENDBRANCH   8   9
ENDBRANCH   7   8
ENDBRANCH   4   7
ENDBRANCH   2   3
TORSDOF 12
ENDMDL
MODEL      353
REMARK 921   NORMALIZED FREE ENERGY PREDICTED BY IDOCK:   -2.71 KCAL/MOL
REMARK 922        TOTAL FREE ENERGY PREDICTED BY IDOCK:   -7.45 KCAL/MOL
REMARK 923 INTER-LIGAND FREE ENERGY PREDICTED BY IDOCK:   -6.72 KCAL/MOL
REMARK 924 INTRA-LIGAND FREE ENERGY PREDICTED BY IDOCK:   -0.72 KCAL/MOL
REMARK 927      BINDING AFFINITY PREDICTED BY RF-SCORE:    0.00 PKD
ROOT
HETATM    1  C   UNL     1      -5.600   7.961  70.870  1.00  0.00    -0.030 C  
HETATM    2  C   UNL     1      -5.143   7.067  69.732  1.00  0.00    -0.015 C  
ENDROOT
BRANCH   2   3
HETATM    3  N   UNL     1      -6.219   6.788  68.809  1.00  0.00    -0.026 N  
HETATM    4  C   UNL     1      -6.163   5.708  67.957  1.00  0.00    -0.037 C  
HETATM    5  H   UNL     1      -7.034   7.403  68.787  1.00  0.00     0.000 HD 
HETATM    6  O   UNL     1      -5.216   4.933  67.917  1.00  0.00    -0.009 OA 
BRANCH   4   7
HETATM    7  C   UNL     1      -7.395   5.566  67.085  1.00  0.00    -0.080 C  
BRANCH   7   8
HETATM    8  C   UNL     1      -8.117   6.906  66.931  1.00  0.00    -0.109 C  
BRANCH   8   9
HETATM    9  C   UNL     1      -9.294   7.081  67.890  1.00  0.00    -0.123 C  
BRANCH   9  10
HETATM   10  C   UNL     1      -9.549   5.845  68.706  1.00  0.00    -0.152 C  
HETATM   11  C   UNL     1     -10.647   5.559  69.423  1.00  0.00    -0.349 C  
BRANCH  11  12
HETATM   12  C   UNL     1     -11.862   6.429  69.599  1.00  0.00     0.013 C  
BRANCH  12  13
HETATM   13  C   UNL     1     -11.822   7.282  70.875  1.00  0.00    -0.351 C  
HETATM   14  C   UNL     1     -11.781   6.486  72.189  1.00  0.00    -0.311 C  
HETATM   15  C   UNL     1     -11.187   7.476  73.182  1.00  0.00    -0.318 C  
HETATM   16  O   UNL     1     -10.909   5.365  72.098  1.00  0.00    -0.226 OA 
HETATM   17  H   UNL     1     -10.883   4.873  72.910  1.00  0.00     0.000 HD 
HETATM   18  C   UNL     1     -10.069   8.147  72.388  1.00  0.00    -0.285 C  
HETATM   19  O   UNL     1      -8.868   7.380  72.502  1.00  0.00    -0.123 OA 
HETATM   20  C   UNL     1     -10.536   8.150  70.914  1.00  0.00    -0.236 C  
HETATM   21  H   UNL     1      -8.173   7.798  72.007  1.00  0.00     0.000 HD 
BRANCH  20  22
HETATM   22  C   UNL     1     -10.789   9.556  70.412  1.00  0.00    -0.338 C  
HETATM   23  C   UNL     1     -11.957  10.200  70.578  1.00  0.00    -0.400 C  
BRANCH  23  24
HETATM   24  C   UNL     1     -12.339  11.555  70.039  1.00  0.00    -0.213 C  
HETATM   25  H   UNL     1     -12.880  13.301  70.769  1.00  0.00     0.000 HD 
HETATM   26  O   UNL     1     -12.640  12.447  71.109  1.00  0.00    -0.364 OA 
BRANCH  24  27
HETATM   27  C   UNL     1     -11.232  12.199  69.194  1.00  0.00    -0.303 C  
BRANCH  27  28
HETATM   28  C   UNL     1     -11.699  12.636  67.803  1.00  0.00    -0.412 C  
BRANCH  28  29
HETATM   29  C   UNL     1     -11.186  14.011  67.457  1.00  0.00    -0.328 A  
HETATM   30  C   UNL     1     -11.226  15.039  68.408  1.00  0.00    -0.303 A  
HETATM   31  C   UNL     1     -10.793  16.324  68.078  1.00  0.00    -0.339 A  
HETATM   32  C   UNL     1     -10.318  16.592  66.796  1.00  0.00    -0.296 A  
HETATM   33  C   UNL     1     -10.270  15.574  65.845  1.00  0.00    -0.367 A  
HETATM   34  C   UNL     1     -10.702  14.289  66.172  1.00  0.00    -0.295 A  
ENDBRANCH  28  29
ENDBRANCH  27  28
ENDBRANCH  24  27
ENDBRANCH  23  24
ENDBRANCH  20  22
ENDBRANCH  12  13
ENDBRANCH  11  12
ENDBRANCH   9  10
ENDBRANCH   8   9
ENDBRANCH   7   8
ENDBRANCH   4   7
ENDBRANCH   2   3
TORSDOF 12
ENDMDL
MODEL      354
REMARK 921   NORMALIZED FREE ENERGY PREDICTED BY IDOCK:   -2.71 KCAL/MOL
REMARK 922        TOTAL FREE ENERGY PREDICTED BY IDOCK:   -7.44 KCAL/MOL
REMARK 923 INTER-LIGAND FREE ENERGY PREDICTED BY IDOCK:   -4.83 KCAL/MOL
REMARK 924 INTRA-LIGAND FREE ENERGY PREDICTED BY IDOCK:   -2.61 KCAL/MOL
REMARK 927      BINDING AFFINITY PREDICTED BY RF-SCORE:    0.00 PKD
ROOT
HETATM    1  C   UNL     1     -11.854  12.508  68.406  1.00  0.00    -0.353 C  
HETATM    2  C   UNL     1     -10.516  12.774  67.742  1.00  0.00    -0.223 C  
ENDROOT
BRANCH   2   3
HETATM    3  N   UNL     1      -9.764  11.554  67.554  1.00  0.00    -0.178 N  
HETATM    4  C   UNL     1      -9.439  11.108  66.293  1.00  0.00    -0.196 C  
HETATM    5  H   UNL     1      -9.470  11.015  68.368  1.00  0.00     0.000 HD 
HETATM    6  O   UNL     1      -9.765  11.693  65.268  1.00  0.00    -0.235 OA 
BRANCH   4   7
HETATM    7  C   UNL     1      -8.627   9.828  66.300  1.00  0.00    -0.137 C  
BRANCH   7   8
HETATM    8  C   UNL     1      -9.245   8.788  67.238  1.00  0.00    -0.165 C  
BRANCH   8   9
HETATM    9  C   UNL     1      -8.658   7.387  67.070  1.00  0.00    -0.119 C  
BRANCH   9  10
HETATM   10  C   UNL     1      -9.614   6.449  66.391  1.00  0.00    -0.156 C  
HETATM   11  C   UNL     1      -9.630   5.108  66.472  1.00  0.00    -0.166 C  
BRANCH  11  12
HETATM   12  C   UNL     1      -8.672   4.239  67.238  1.00  0.00    -0.111 C  
BRANCH  12  13
HETATM   13  C   UNL     1      -9.186   3.839  68.628  1.00  0.00    -0.216 C  
HETATM   14  C   UNL     1      -9.233   2.327  68.894  1.00  0.00    -0.155 C  
HETATM   15  C   UNL     1      -9.205   2.235  70.414  1.00  0.00    -0.189 C  
HETATM   16  O   UNL     1      -8.081   1.666  68.384  1.00  0.00    -0.055 OA 
HETATM   17  H   UNL     1      -8.110   0.731  68.548  1.00  0.00     0.000 HD 
HETATM   18  C   UNL     1      -8.172   3.285  70.813  1.00  0.00    -0.056 C  
HETATM   19  O   UNL     1      -6.865   2.706  70.798  1.00  0.00    -0.032 OA 
HETATM   20  C   UNL     1      -8.253   4.393  69.738  1.00  0.00    -0.067 C  
HETATM   21  H   UNL     1      -6.222   3.360  71.046  1.00  0.00     0.000 HD 
BRANCH  20  22
HETATM   22  C   UNL     1      -8.771   5.693  70.314  1.00  0.00    -0.134 C  
HETATM   23  C   UNL     1     -10.031   5.855  70.754  1.00  0.00    -0.241 C  
BRANCH  23  24
HETATM   24  C   UNL     1     -10.668   7.126  71.256  1.00  0.00    -0.226 C  
HETATM   25  H   UNL     1     -12.120   8.333  70.700  1.00  0.00     0.000 HD 
HETATM   26  O   UNL     1     -11.719   7.532  70.384  1.00  0.00    -0.212 OA 
BRANCH  24  27
HETATM   27  C   UNL     1     -11.260   6.985  72.664  1.00  0.00    -0.310 C  
BRANCH  27  28
HETATM   28  C   UNL     1     -10.377   7.584  73.763  1.00  0.00    -0.203 C  
BRANCH  28  29
HETATM   29  C   UNL     1      -9.022   6.922  73.801  1.00  0.00    -0.187 A  
HETATM   30  C   UNL     1      -8.897   5.596  74.235  1.00  0.00    -0.121 A  
HETATM   31  C   UNL     1      -7.641   4.994  74.315  1.00  0.00    -0.090 A  
HETATM   32  C   UNL     1      -6.500   5.713  73.963  1.00  0.00    -0.074 A  
HETATM   33  C   UNL     1      -6.615   7.031  73.527  1.00  0.00    -0.066 A  
HETATM   34  C   UNL     1      -7.870   7.635  73.446  1.00  0.00    -0.157 A  
ENDBRANCH  28  29
ENDBRANCH  27  28
ENDBRANCH  24  27
ENDBRANCH  23  24
ENDBRANCH  20  22
ENDBRANCH  12  13
ENDBRANCH  11  12
ENDBRANCH   9  10
ENDBRANCH   8   9
ENDBRANCH   7   8
ENDBRANCH   4   7
ENDBRANCH   2   3
TORSDOF 12
ENDMDL
MODEL      355
REMARK 921   NORMALIZED FREE ENERGY PREDICTED BY IDOCK:   -2.69 KCAL/MOL
REMARK 922        TOTAL FREE ENERGY PREDICTED BY IDOCK:   -7.41 KCAL/MOL
REMARK 923 INTER-LIGAND FREE ENERGY PREDICTED BY IDOCK:   -5.70 KCAL/MOL
REMARK 924 INTRA-LIGAND FREE ENERGY PREDICTED BY IDOCK:   -1.71 KCAL/MOL
REMARK 927      BINDING AFFINITY PREDICTED BY RF-SCORE:    0.00 PKD
ROOT
HETATM    1  C   UNL     1      -9.805  18.915  67.182  1.00  0.00    -0.368 C  
HETATM    2  C   UNL     1     -10.304  17.970  68.259  1.00  0.00    -0.380 C  
ENDROOT
BRANCH   2   3
HETATM    3  N   UNL     1      -9.700  16.662  68.140  1.00  0.00    -0.238 N  
HETATM    4  C   UNL     1     -10.449  15.563  67.784  1.00  0.00    -0.273 C  
HETATM    5  H   UNL     1      -8.702  16.551  68.323  1.00  0.00     0.000 HD 
HETATM    6  O   UNL     1     -11.652  15.614  67.559  1.00  0.00    -0.206 OA 
BRANCH   4   7
HETATM    7  C   UNL     1      -9.636  14.288  67.685  1.00  0.00    -0.219 C  
BRANCH   7   8
HETATM    8  C   UNL     1     -10.381  13.109  68.316  1.00  0.00    -0.256 C  
BRANCH   8   9
HETATM    9  C   UNL     1     -10.003  11.755  67.717  1.00  0.00    -0.198 C  
BRANCH   9  10
HETATM   10  C   UNL     1     -11.127  10.762  67.805  1.00  0.00    -0.381 C  
HETATM   11  C   UNL     1     -11.033   9.423  67.756  1.00  0.00    -0.122 C  
BRANCH  11  12
HETATM   12  C   UNL     1      -9.780   8.613  67.568  1.00  0.00    -0.212 C  
BRANCH  12  13
HETATM   13  C   UNL     1      -9.742   7.339  68.423  1.00  0.00    -0.151 C  
HETATM   14  C   UNL     1     -10.887   6.348  68.164  1.00  0.00    -0.308 C  
HETATM   15  C   UNL     1     -10.325   5.022  68.660  1.00  0.00    -0.098 C  
HETATM   16  O   UNL     1     -11.170   6.222  66.774  1.00  0.00    -0.683 OA 
HETATM   17  H   UNL     1     -11.877   5.609  66.614  1.00  0.00     0.000 HD 
HETATM   18  C   UNL     1      -8.885   5.036  68.154  1.00  0.00    -0.102 C  
HETATM   19  O   UNL     1      -8.835   4.509  66.826  1.00  0.00    -0.111 OA 
HETATM   20  C   UNL     1      -8.455   6.521  68.132  1.00  0.00    -0.116 C  
HETATM   21  H   UNL     1      -7.938   4.518  66.511  1.00  0.00     0.000 HD 
BRANCH  20  22
HETATM   22  C   UNL     1      -7.367   6.802  69.144  1.00  0.00    -0.093 C  
HETATM   23  C   UNL     1      -7.564   7.530  70.257  1.00  0.00    -0.090 C  
BRANCH  23  24
HETATM   24  C   UNL     1      -6.531   7.943  71.275  1.00  0.00    -0.038 C  
HETATM   25  H   UNL     1      -6.134   9.530  72.369  1.00  0.00     0.000 HD 
HETATM   26  O   UNL     1      -6.785   9.270  71.728  1.00  0.00    -0.285 OA 
BRANCH  24  27
HETATM   27  C   UNL     1      -6.503   7.028  72.506  1.00  0.00    -0.053 C  
BRANCH  27  28
HETATM   28  C   UNL     1      -7.890   6.739  73.086  1.00  0.00    -0.099 C  
BRANCH  28  29
HETATM   29  C   UNL     1      -8.168   5.257  73.134  1.00  0.00    -0.112 A  
HETATM   30  C   UNL     1      -7.645   4.474  74.172  1.00  0.00    -0.085 A  
HETATM   31  C   UNL     1      -7.862   3.096  74.197  1.00  0.00    -0.065 A  
HETATM   32  C   UNL     1      -8.603   2.489  73.184  1.00  0.00    -0.071 A  
HETATM   33  C   UNL     1      -9.130   3.261  72.149  1.00  0.00    -0.150 A  
HETATM   34  C   UNL     1      -8.914   4.638  72.123  1.00  0.00    -0.143 A  
ENDBRANCH  28  29
ENDBRANCH  27  28
ENDBRANCH  24  27
ENDBRANCH  23  24
ENDBRANCH  20  22
ENDBRANCH  12  13
ENDBRANCH  11  12
ENDBRANCH   9  10
ENDBRANCH   8   9
ENDBRANCH   7   8
ENDBRANCH   4   7
ENDBRANCH   2   3
TORSDOF 12
ENDMDL
MODEL      356
REMARK 921   NORMALIZED FREE ENERGY PREDICTED BY IDOCK:   -2.67 KCAL/MOL
REMARK 922        TOTAL FREE ENERGY PREDICTED BY IDOCK:   -7.38 KCAL/MOL
REMARK 923 INTER-LIGAND FREE ENERGY PREDICTED BY IDOCK:   -6.44 KCAL/MOL
REMARK 924 INTRA-LIGAND FREE ENERGY PREDICTED BY IDOCK:   -0.94 KCAL/MOL
REMARK 927      BINDING AFFINITY PREDICTED BY RF-SCORE:    0.00 PKD
ROOT
HETATM    1  C   UNL     1      -6.626  10.336  68.733  1.00  0.00    -0.052 C  
HETATM    2  C   UNL     1      -7.070  10.068  70.159  1.00  0.00    -0.154 C  
ENDROOT
BRANCH   2   3
HETATM    3  N   UNL     1      -8.052   9.009  70.219  1.00  0.00    -0.119 N  
HETATM    4  C   UNL     1      -8.154   8.197  71.327  1.00  0.00    -0.107 C  
HETATM    5  H   UNL     1      -8.680   8.861  69.429  1.00  0.00     0.000 HD 
HETATM    6  O   UNL     1      -7.430   8.306  72.308  1.00  0.00    -0.107 OA 
BRANCH   4   7
HETATM    7  C   UNL     1      -9.258   7.165  71.215  1.00  0.00    -0.151 C  
BRANCH   7   8
HETATM    8  C   UNL     1     -10.606   7.830  70.920  1.00  0.00    -0.220 C  
BRANCH   8   9
HETATM    9  C   UNL     1     -10.979   8.924  71.918  1.00  0.00    -0.439 C  
BRANCH   9  10
HETATM   10  C   UNL     1     -12.133   9.759  71.440  1.00  0.00    -0.486 C  
HETATM   11  C   UNL     1     -12.160  10.570  70.371  1.00  0.00    -0.418 C  
BRANCH  11  12
HETATM   12  C   UNL     1     -11.026  10.853  69.425  1.00  0.00    -0.304 C  
BRANCH  12  13
HETATM   13  C   UNL     1     -11.461  10.925  67.954  1.00  0.00    -0.344 C  
HETATM   14  C   UNL     1     -11.974  12.298  67.494  1.00  0.00    -0.140 C  
HETATM   15  C   UNL     1     -11.784  12.258  65.984  1.00  0.00    -0.451 C  
HETATM   16  O   UNL     1     -11.183  13.359  68.018  1.00  0.00    -0.246 OA 
HETATM   17  H   UNL     1     -11.501  14.208  67.734  1.00  0.00     0.000 HD 
HETATM   18  C   UNL     1     -10.417  11.599  65.817  1.00  0.00    -0.263 C  
HETATM   19  O   UNL     1      -9.391  12.592  65.876  1.00  0.00    -0.426 OA 
HETATM   20  C   UNL     1     -10.262  10.631  67.013  1.00  0.00    -0.267 C  
HETATM   21  H   UNL     1      -8.540  12.181  65.773  1.00  0.00     0.000 HD 
BRANCH  20  22
HETATM   22  C   UNL     1     -10.239   9.186  66.562  1.00  0.00    -0.322 C  
HETATM   23  C   UNL     1     -10.250   8.147  67.415  1.00  0.00    -0.327 C  
BRANCH  23  24
HETATM   24  C   UNL     1     -10.137   6.684  67.074  1.00  0.00    -0.187 C  
HETATM   25  H   UNL     1      -9.340   5.590  65.645  1.00  0.00     0.000 HD 
HETATM   26  O   UNL     1      -9.411   6.512  65.860  1.00  0.00    -0.071 OA 
BRANCH  24  27
HETATM   27  C   UNL     1      -9.427   5.866  68.161  1.00  0.00    -0.120 C  
BRANCH  27  28
HETATM   28  C   UNL     1      -8.083   5.286  67.710  1.00  0.00    -0.099 C  
BRANCH  28  29
HETATM   29  C   UNL     1      -8.263   3.969  66.998  1.00  0.00    -0.100 A  
HETATM   30  C   UNL     1      -8.402   3.934  65.604  1.00  0.00    -0.109 A  
HETATM   31  C   UNL     1      -8.613   2.723  64.944  1.00  0.00    -0.098 A  
HETATM   32  C   UNL     1      -8.689   1.537  65.673  1.00  0.00    -0.114 A  
HETATM   33  C   UNL     1      -8.549   1.562  67.059  1.00  0.00    -0.107 A  
HETATM   34  C   UNL     1      -8.337   2.772  67.720  1.00  0.00    -0.094 A  
ENDBRANCH  28  29
ENDBRANCH  27  28
ENDBRANCH  24  27
ENDBRANCH  23  24
ENDBRANCH  20  22
ENDBRANCH  12  13
ENDBRANCH  11  12
ENDBRANCH   9  10
ENDBRANCH   8   9
ENDBRANCH   7   8
ENDBRANCH   4   7
ENDBRANCH   2   3
TORSDOF 12
ENDMDL
MODEL      357
REMARK 921   NORMALIZED FREE ENERGY PREDICTED BY IDOCK:   -2.65 KCAL/MOL
REMARK 922        TOTAL FREE ENERGY PREDICTED BY IDOCK:   -7.35 KCAL/MOL
REMARK 923 INTER-LIGAND FREE ENERGY PREDICTED BY IDOCK:   -5.45 KCAL/MOL
REMARK 924 INTRA-LIGAND FREE ENERGY PREDICTED BY IDOCK:   -1.90 KCAL/MOL
REMARK 927      BINDING AFFINITY PREDICTED BY RF-SCORE:    0.00 PKD
ROOT
HETATM    1  C   UNL     1      -8.905  19.312  66.463  1.00  0.00    -0.367 C  
HETATM    2  C   UNL     1      -8.213  19.157  67.805  1.00  0.00    -0.286 C  
ENDROOT
BRANCH   2   3
HETATM    3  N   UNL     1      -8.150  17.772  68.213  1.00  0.00    -0.274 N  
HETATM    4  C   UNL     1      -6.991  17.236  68.729  1.00  0.00    -0.230 C  
HETATM    5  H   UNL     1      -8.976  17.182  68.118  1.00  0.00     0.000 HD 
HETATM    6  O   UNL     1      -5.956  17.877  68.864  1.00  0.00    -0.188 OA 
BRANCH   4   7
HETATM    7  C   UNL     1      -7.127  15.779  69.124  1.00  0.00    -0.176 C  
BRANCH   7   8
HETATM    8  C   UNL     1      -8.024  15.023  68.140  1.00  0.00    -0.131 C  
BRANCH   8   9
HETATM    9  C   UNL     1      -9.169  14.267  68.813  1.00  0.00    -0.112 C  
BRANCH   9  10
HETATM   10  C   UNL     1     -10.322  14.035  67.878  1.00  0.00    -0.239 C  
HETATM   11  C   UNL     1     -11.557  13.618  68.200  1.00  0.00    -0.367 C  
BRANCH  11  12
HETATM   12  C   UNL     1     -12.057  13.256  69.571  1.00  0.00    -0.315 C  
BRANCH  12  13
HETATM   13  C   UNL     1     -11.553  11.893  70.066  1.00  0.00    -0.301 C  
HETATM   14  C   UNL     1     -11.916  11.554  71.519  1.00  0.00     0.672 C  
HETATM   15  C   UNL     1     -11.829  10.034  71.559  1.00  0.00    -0.406 C  
HETATM   16  O   UNL     1     -13.251  11.934  71.832  1.00  0.00    -0.482 OA 
HETATM   17  H   UNL     1     -13.475  11.725  72.731  1.00  0.00     0.000 HD 
HETATM   18  C   UNL     1     -12.478   9.608  70.245  1.00  0.00     0.217 C  
HETATM   19  O   UNL     1     -13.891   9.487  70.422  1.00  0.00    -0.325 OA 
HETATM   20  C   UNL     1     -12.182  10.742  69.237  1.00  0.00    -0.185 C  
HETATM   21  H   UNL     1     -14.295   9.222  69.603  1.00  0.00     0.000 HD 
BRANCH  20  22
HETATM   22  C   UNL     1     -11.264  10.277  68.128  1.00  0.00    -0.294 C  
HETATM   23  C   UNL     1     -10.320   9.334  68.297  1.00  0.00    -0.257 C  
BRANCH  23  24
HETATM   24  C   UNL     1      -9.301   8.870  67.289  1.00  0.00    -0.140 C  
HETATM   25  H   UNL     1      -8.351   7.201  66.856  1.00  0.00     0.000 HD 
HETATM   26  O   UNL     1      -8.994   7.493  67.492  1.00  0.00    -0.126 OA 
BRANCH  24  27
HETATM   27  C   UNL     1      -9.773   9.032  65.838  1.00  0.00    -0.306 C  
BRANCH  27  28
HETATM   28  C   UNL     1      -9.135  10.221  65.115  1.00  0.00    -0.234 C  
BRANCH  28  29
HETATM   29  C   UNL     1      -7.824  10.612  65.750  1.00  0.00    -0.141 A  
HETATM   30  C   UNL     1      -6.654   9.902  65.448  1.00  0.00    -0.099 A  
HETATM   31  C   UNL     1      -5.448  10.231  66.067  1.00  0.00    -0.066 A  
HETATM   32  C   UNL     1      -5.400  11.271  66.993  1.00  0.00    -0.083 A  
HETATM   33  C   UNL     1      -6.558  11.986  67.296  1.00  0.00    -0.145 A  
HETATM   34  C   UNL     1      -7.765  11.659  66.679  1.00  0.00    -0.065 A  
ENDBRANCH  28  29
ENDBRANCH  27  28
ENDBRANCH  24  27
ENDBRANCH  23  24
ENDBRANCH  20  22
ENDBRANCH  12  13
ENDBRANCH  11  12
ENDBRANCH   9  10
ENDBRANCH   8   9
ENDBRANCH   7   8
ENDBRANCH   4   7
ENDBRANCH   2   3
TORSDOF 12
ENDMDL
MODEL      358
REMARK 921   NORMALIZED FREE ENERGY PREDICTED BY IDOCK:   -2.65 KCAL/MOL
REMARK 922        TOTAL FREE ENERGY PREDICTED BY IDOCK:   -7.34 KCAL/MOL
REMARK 923 INTER-LIGAND FREE ENERGY PREDICTED BY IDOCK:   -4.28 KCAL/MOL
REMARK 924 INTRA-LIGAND FREE ENERGY PREDICTED BY IDOCK:   -3.06 KCAL/MOL
REMARK 927      BINDING AFFINITY PREDICTED BY RF-SCORE:    0.00 PKD
ROOT
HETATM    1  C   UNL     1      -9.540   4.695  68.908  1.00  0.00    -0.233 C  
HETATM    2  C   UNL     1      -9.902   4.808  67.439  1.00  0.00    -0.175 C  
ENDROOT
BRANCH   2   3
HETATM    3  N   UNL     1      -8.998   5.691  66.735  1.00  0.00    -0.114 N  
HETATM    4  C   UNL     1      -7.841   5.213  66.163  1.00  0.00    -0.103 C  
HETATM    5  H   UNL     1      -9.222   6.683  66.662  1.00  0.00     0.000 HD 
HETATM    6  O   UNL     1      -7.499   4.038  66.218  1.00  0.00    -0.084 OA 
BRANCH   4   7
HETATM    7  C   UNL     1      -7.039   6.282  65.448  1.00  0.00    -0.068 C  
BRANCH   7   8
HETATM    8  C   UNL     1      -5.799   6.673  66.256  1.00  0.00    -0.025 C  
BRANCH   8   9
HETATM    9  C   UNL     1      -5.371   8.126  66.055  1.00  0.00    -0.028 C  
BRANCH   9  10
HETATM   10  C   UNL     1      -6.292   8.865  65.126  1.00  0.00    -0.061 C  
HETATM   11  C   UNL     1      -6.921  10.028  65.362  1.00  0.00    -0.127 C  
BRANCH  11  12
HETATM   12  C   UNL     1      -6.872  10.839  66.628  1.00  0.00    -0.125 C  
BRANCH  12  13
HETATM   13  C   UNL     1      -8.090  10.627  67.537  1.00  0.00    -0.111 C  
HETATM   14  C   UNL     1      -9.382  11.310  67.065  1.00  0.00    -0.172 C  
HETATM   15  C   UNL     1     -10.478  10.512  67.758  1.00  0.00    -0.263 C  
HETATM   16  O   UNL     1      -9.559  11.187  65.658  1.00  0.00    -0.206 OA 
HETATM   17  H   UNL     1     -10.358  11.610  65.366  1.00  0.00     0.000 HD 
HETATM   18  C   UNL     1     -10.006   9.067  67.616  1.00  0.00    -0.201 C  
HETATM   19  O   UNL     1     -10.463   8.530  66.373  1.00  0.00    -0.353 OA 
HETATM   20  C   UNL     1      -8.462   9.121  67.614  1.00  0.00    -0.116 C  
HETATM   21  H   UNL     1     -10.169   7.630  66.285  1.00  0.00     0.000 HD 
BRANCH  20  22
HETATM   22  C   UNL     1      -7.878   8.458  68.843  1.00  0.00    -0.113 C  
HETATM   23  C   UNL     1      -7.268   9.138  69.829  1.00  0.00    -0.062 C  
BRANCH  23  24
HETATM   24  C   UNL     1      -6.577   8.567  71.042  1.00  0.00    -0.048 C  
HETATM   25  H   UNL     1      -6.695   8.761  72.997  1.00  0.00     0.000 HD 
HETATM   26  O   UNL     1      -7.130   9.121  72.233  1.00  0.00    -0.322 OA 
BRANCH  24  27
HETATM   27  C   UNL     1      -6.696   7.041  71.138  1.00  0.00    -0.056 C  
BRANCH  27  28
HETATM   28  C   UNL     1      -7.184   6.550  72.505  1.00  0.00    -0.082 C  
BRANCH  28  29
HETATM   29  C   UNL     1      -8.566   5.954  72.414  1.00  0.00    -0.120 A  
HETATM   30  C   UNL     1      -9.667   6.768  72.117  1.00  0.00    -0.156 A  
HETATM   31  C   UNL     1     -10.954   6.230  72.076  1.00  0.00    -0.299 A  
HETATM   32  C   UNL     1     -11.150   4.874  72.333  1.00  0.00    -0.112 A  
HETATM   33  C   UNL     1     -10.060   4.056  72.625  1.00  0.00    -0.225 A  
HETATM   34  C   UNL     1      -8.774   4.592  72.667  1.00  0.00    -0.117 A  
ENDBRANCH  28  29
ENDBRANCH  27  28
ENDBRANCH  24  27
ENDBRANCH  23  24
ENDBRANCH  20  22
ENDBRANCH  12  13
ENDBRANCH  11  12
ENDBRANCH   9  10
ENDBRANCH   8   9
ENDBRANCH   7   8
ENDBRANCH   4   7
ENDBRANCH   2   3
TORSDOF 12
ENDMDL
MODEL      359
REMARK 921   NORMALIZED FREE ENERGY PREDICTED BY IDOCK:   -2.60 KCAL/MOL
REMARK 922        TOTAL FREE ENERGY PREDICTED BY IDOCK:   -7.25 KCAL/MOL
REMARK 923 INTER-LIGAND FREE ENERGY PREDICTED BY IDOCK:   -6.85 KCAL/MOL
REMARK 924 INTRA-LIGAND FREE ENERGY PREDICTED BY IDOCK:   -0.40 KCAL/MOL
REMARK 927      BINDING AFFINITY PREDICTED BY RF-SCORE:    0.00 PKD
ROOT
HETATM    1  C   UNL     1      -7.411  19.405  68.997  1.00  0.00    -0.385 C  
HETATM    2  C   UNL     1      -7.191  19.239  67.505  1.00  0.00    -0.221 C  
ENDROOT
BRANCH   2   3
HETATM    3  N   UNL     1      -8.319  18.596  66.869  1.00  0.00    -0.256 N  
HETATM    4  C   UNL     1      -9.521  18.457  67.526  1.00  0.00    -0.270 C  
HETATM    5  H   UNL     1      -8.223  18.238  65.919  1.00  0.00     0.000 HD 
HETATM    6  O   UNL     1      -9.711  18.851  68.670  1.00  0.00    -0.359 OA 
BRANCH   4   7
HETATM    7  C   UNL     1     -10.589  17.783  66.689  1.00  0.00    -0.224 C  
BRANCH   7   8
HETATM    8  C   UNL     1     -11.094  16.506  67.365  1.00  0.00    -0.027 C  
BRANCH   8   9
HETATM    9  C   UNL     1     -10.307  15.255  66.976  1.00  0.00    -0.277 C  
BRANCH   9  10
HETATM   10  C   UNL     1     -11.201  14.067  66.757  1.00  0.00    -0.323 C  
HETATM   11  C   UNL     1     -10.827  12.819  66.434  1.00  0.00    -0.294 C  
BRANCH  11  12
HETATM   12  C   UNL     1      -9.426  12.333  66.184  1.00  0.00    -0.221 C  
BRANCH  12  13
HETATM   13  C   UNL     1      -8.981  11.226  67.150  1.00  0.00    -0.155 C  
HETATM   14  C   UNL     1      -8.197  11.711  68.378  1.00  0.00    -0.155 C  
HETATM   15  C   UNL     1      -8.388  10.585  69.386  1.00  0.00    -0.117 C  
HETATM   16  O   UNL     1      -8.756  12.900  68.925  1.00  0.00    -0.365 OA 
HETATM   17  H   UNL     1      -8.272  13.200  69.684  1.00  0.00     0.000 HD 
HETATM   18  C   UNL     1      -9.859  10.213  69.226  1.00  0.00    -0.220 C  
HETATM   19  O   UNL     1     -10.661  11.043  70.069  1.00  0.00    -0.461 OA 
HETATM   20  C   UNL     1     -10.212  10.493  67.747  1.00  0.00    -0.223 C  
HETATM   21  H   UNL     1     -11.578  10.812  69.970  1.00  0.00     0.000 HD 
BRANCH  20  22
HETATM   22  C   UNL     1     -10.528   9.217  66.997  1.00  0.00    -0.311 C  
HETATM   23  C   UNL     1     -10.305   7.991  67.501  1.00  0.00    -0.330 C  
BRANCH  23  24
HETATM   24  C   UNL     1     -10.498   6.668  66.804  1.00  0.00    -0.228 C  
HETATM   25  H   UNL     1      -9.428   5.457  65.680  1.00  0.00     0.000 HD 
HETATM   26  O   UNL     1      -9.306   6.291  66.119  1.00  0.00    -0.155 OA 
BRANCH  24  27
HETATM   27  C   UNL     1     -10.861   5.530  67.766  1.00  0.00    -0.078 C  
BRANCH  27  28
HETATM   28  C   UNL     1      -9.644   4.776  68.311  1.00  0.00    -0.204 C  
BRANCH  28  29
HETATM   29  C   UNL     1      -9.406   5.095  69.766  1.00  0.00    -0.182 A  
HETATM   30  C   UNL     1     -10.159   4.459  70.761  1.00  0.00    -0.199 A  
HETATM   31  C   UNL     1      -9.973   4.783  72.105  1.00  0.00    -0.237 A  
HETATM   32  C   UNL     1      -9.033   5.746  72.465  1.00  0.00    -0.133 A  
HETATM   33  C   UNL     1      -8.276   6.382  71.483  1.00  0.00    -0.117 A  
HETATM   34  C   UNL     1      -8.460   6.059  70.139  1.00  0.00    -0.127 A  
ENDBRANCH  28  29
ENDBRANCH  27  28
ENDBRANCH  24  27
ENDBRANCH  23  24
ENDBRANCH  20  22
ENDBRANCH  12  13
ENDBRANCH  11  12
ENDBRANCH   9  10
ENDBRANCH   8   9
ENDBRANCH   7   8
ENDBRANCH   4   7
ENDBRANCH   2   3
TORSDOF 12
ENDMDL
MODEL      360
REMARK 921   NORMALIZED FREE ENERGY PREDICTED BY IDOCK:   -2.58 KCAL/MOL
REMARK 922        TOTAL FREE ENERGY PREDICTED BY IDOCK:   -7.22 KCAL/MOL
REMARK 923 INTER-LIGAND FREE ENERGY PREDICTED BY IDOCK:   -6.59 KCAL/MOL
REMARK 924 INTRA-LIGAND FREE ENERGY PREDICTED BY IDOCK:   -0.63 KCAL/MOL
REMARK 927      BINDING AFFINITY PREDICTED BY RF-SCORE:    0.00 PKD
ROOT
HETATM    1  C   UNL     1      -5.550  10.364  71.623  1.00  0.00     0.149 C  
HETATM    2  C   UNL     1      -5.139  11.482  70.684  1.00  0.00    -0.110 C  
ENDROOT
BRANCH   2   3
HETATM    3  N   UNL     1      -5.945  11.491  69.483  1.00  0.00    -0.075 N  
HETATM    4  C   UNL     1      -6.856  12.496  69.247  1.00  0.00    -0.019 C  
HETATM    5  H   UNL     1      -5.837  10.741  68.801  1.00  0.00     0.000 HD 
HETATM    6  O   UNL     1      -7.050  13.424  70.024  1.00  0.00     0.360 OA 
BRANCH   4   7
HETATM    7  C   UNL     1      -7.584  12.348  67.927  1.00  0.00    -0.130 C  
BRANCH   7   8
HETATM    8  C   UNL     1      -7.718  13.698  67.217  1.00  0.00    -0.091 C  
BRANCH   8   9
HETATM    9  C   UNL     1      -6.871  14.805  67.843  1.00  0.00    -0.174 C  
BRANCH   9  10
HETATM   10  C   UNL     1      -6.539  15.891  66.859  1.00  0.00     0.113 C  
HETATM   11  C   UNL     1      -6.592  17.216  67.066  1.00  0.00    -0.227 C  
BRANCH  11  12
HETATM   12  C   UNL     1      -7.028  17.917  68.323  1.00  0.00    -0.222 C  
BRANCH  12  13
HETATM   13  C   UNL     1      -8.538  18.182  68.382  1.00  0.00    -0.310 C  
HETATM   14  C   UNL     1      -8.934  19.657  68.546  1.00  0.00    -0.305 C  
HETATM   15  C   UNL     1     -10.360  19.701  68.014  1.00  0.00    -0.579 C  
HETATM   16  O   UNL     1      -8.130  20.511  67.740  1.00  0.00    -0.241 OA 
HETATM   17  H   UNL     1      -8.374  21.423  67.841  1.00  0.00     0.000 HD 
HETATM   18  C   UNL     1     -10.302  18.817  66.771  1.00  0.00    -0.412 C  
HETATM   19  O   UNL     1      -9.904  19.598  65.641  1.00  0.00    -0.374 OA 
HETATM   20  C   UNL     1      -9.224  17.747  67.059  1.00  0.00    -0.257 C  
HETATM   21  H   UNL     1      -9.867  19.047  64.868  1.00  0.00     0.000 HD 
BRANCH  20  22
HETATM   22  C   UNL     1      -9.825  16.362  67.163  1.00  0.00    -0.249 C  
HETATM   23  C   UNL     1     -11.010  16.114  67.749  1.00  0.00    -0.293 C  
BRANCH  23  24
HETATM   24  C   UNL     1     -11.649  14.770  67.984  1.00  0.00    -0.343 C  
HETATM   25  H   UNL     1     -13.119  14.038  69.070  1.00  0.00     0.000 HD 
HETATM   26  O   UNL     1     -12.717  14.886  68.921  1.00  0.00     0.200 OA 
BRANCH  24  27
HETATM   27  C   UNL     1     -12.219  14.143  66.705  1.00  0.00    -0.429 C  
BRANCH  27  28
HETATM   28  C   UNL     1     -11.248  14.179  65.521  1.00  0.00    -0.317 C  
BRANCH  28  29
HETATM   29  C   UNL     1     -10.790  12.792  65.143  1.00  0.00    -0.318 A  
HETATM   30  C   UNL     1     -10.569  11.827  66.134  1.00  0.00    -0.301 A  
HETATM   31  C   UNL     1     -10.102  10.557  65.793  1.00  0.00    -0.329 A  
HETATM   32  C   UNL     1      -9.853  10.242  64.459  1.00  0.00    -0.384 A  
HETATM   33  C   UNL     1     -10.075  11.194  63.465  1.00  0.00    -0.437 A  
HETATM   34  C   UNL     1     -10.541  12.464  63.804  1.00  0.00    -0.486 A  
ENDBRANCH  28  29
ENDBRANCH  27  28
ENDBRANCH  24  27
ENDBRANCH  23  24
ENDBRANCH  20  22
ENDBRANCH  12  13
ENDBRANCH  11  12
ENDBRANCH   9  10
ENDBRANCH   8   9
ENDBRANCH   7   8
ENDBRANCH   4   7
ENDBRANCH   2   3
TORSDOF 12
ENDMDL
MODEL      361
REMARK 921   NORMALIZED FREE ENERGY PREDICTED BY IDOCK:   -2.57 KCAL/MOL
REMARK 922        TOTAL FREE ENERGY PREDICTED BY IDOCK:   -7.21 KCAL/MOL
REMARK 923 INTER-LIGAND FREE ENERGY PREDICTED BY IDOCK:   -6.93 KCAL/MOL
REMARK 924 INTRA-LIGAND FREE ENERGY PREDICTED BY IDOCK:   -0.28 KCAL/MOL
REMARK 927      BINDING AFFINITY PREDICTED BY RF-SCORE:    0.00 PKD
ROOT
HETATM    1  C   UNL     1      -5.700  11.213  71.687  1.00  0.00     0.501 C  
HETATM    2  C   UNL     1      -5.133  12.327  70.827  1.00  0.00    -0.135 C  
ENDROOT
BRANCH   2   3
HETATM    3  N   UNL     1      -5.510  12.171  69.440  1.00  0.00    -0.066 N  
HETATM    4  C   UNL     1      -6.562  12.882  68.906  1.00  0.00    -0.095 C  
HETATM    5  H   UNL     1      -4.989  11.524  68.847  1.00  0.00     0.000 HD 
HETATM    6  O   UNL     1      -7.241  13.667  69.555  1.00  0.00     0.061 OA 
BRANCH   4   7
HETATM    7  C   UNL     1      -6.787  12.604  67.433  1.00  0.00    -0.141 C  
BRANCH   7   8
HETATM    8  C   UNL     1      -8.151  13.128  66.976  1.00  0.00    -0.032 C  
BRANCH   8   9
HETATM    9  C   UNL     1      -8.871  13.964  68.033  1.00  0.00    -0.184 C  
BRANCH   9  10
HETATM   10  C   UNL     1      -9.853  14.925  67.425  1.00  0.00    -0.221 C  
HETATM   11  C   UNL     1     -10.521  15.907  68.051  1.00  0.00    -0.274 C  
BRANCH  11  12
HETATM   12  C   UNL     1     -10.461  16.247  69.515  1.00  0.00    -0.299 C  
BRANCH  12  13
HETATM   13  C   UNL     1     -11.068  15.165  70.419  1.00  0.00    -0.289 C  
HETATM   14  C   UNL     1     -11.349  15.607  71.863  1.00  0.00    -0.334 C  
HETATM   15  C   UNL     1     -12.411  14.622  72.333  1.00  0.00    -0.387 C  
HETATM   16  O   UNL     1     -11.900  16.918  71.916  1.00  0.00    -0.516 OA 
HETATM   17  H   UNL     1     -12.074  17.191  72.809  1.00  0.00     0.000 HD 
HETATM   18  C   UNL     1     -13.342  14.504  71.129  1.00  0.00    -0.354 C  
HETATM   19  O   UNL     1     -14.334  15.531  71.182  1.00  0.00    -0.774 OA 
HETATM   20  C   UNL     1     -12.453  14.715  69.882  1.00  0.00    -0.290 C  
HETATM   21  H   UNL     1     -14.913  15.457  70.432  1.00  0.00     0.000 HD 
BRANCH  20  22
HETATM   22  C   UNL     1     -12.352  13.455  69.048  1.00  0.00    -0.014 C  
HETATM   23  C   UNL     1     -11.821  12.308  69.505  1.00  0.00    -0.380 C  
BRANCH  23  24
HETATM   24  C   UNL     1     -11.592  11.035  68.732  1.00  0.00    -0.318 C  
HETATM   25  H   UNL     1     -11.532  10.481  66.844  1.00  0.00     0.000 HD 
HETATM   26  O   UNL     1     -11.677  11.284  67.331  1.00  0.00    -0.580 OA 
BRANCH  24  27
HETATM   27  C   UNL     1     -10.222  10.402  69.009  1.00  0.00    -0.233 C  
BRANCH  27  28
HETATM   28  C   UNL     1     -10.099   9.800  70.412  1.00  0.00    -0.313 C  
BRANCH  28  29
HETATM   29  C   UNL     1      -9.866   8.311  70.353  1.00  0.00    -0.194 A  
HETATM   30  C   UNL     1     -10.802   7.474  69.731  1.00  0.00    -0.234 A  
HETATM   31  C   UNL     1     -10.612   6.092  69.713  1.00  0.00    -0.356 A  
HETATM   32  C   UNL     1      -9.486   5.535  70.316  1.00  0.00    -0.211 A  
HETATM   33  C   UNL     1      -8.547   6.360  70.933  1.00  0.00    -0.135 A  
HETATM   34  C   UNL     1      -8.735   7.742  70.953  1.00  0.00    -0.137 A  
ENDBRANCH  28  29
ENDBRANCH  27  28
ENDBRANCH  24  27
ENDBRANCH  23  24
ENDBRANCH  20  22
ENDBRANCH  12  13
ENDBRANCH  11  12
ENDBRANCH   9  10
ENDBRANCH   8   9
ENDBRANCH   7   8
ENDBRANCH   4   7
ENDBRANCH   2   3
TORSDOF 12
ENDMDL
MODEL      362
REMARK 921   NORMALIZED FREE ENERGY PREDICTED BY IDOCK:   -2.50 KCAL/MOL
REMARK 922        TOTAL FREE ENERGY PREDICTED BY IDOCK:   -7.08 KCAL/MOL
REMARK 923 INTER-LIGAND FREE ENERGY PREDICTED BY IDOCK:   -4.71 KCAL/MOL
REMARK 924 INTRA-LIGAND FREE ENERGY PREDICTED BY IDOCK:   -2.37 KCAL/MOL
REMARK 927      BINDING AFFINITY PREDICTED BY RF-SCORE:    0.00 PKD
ROOT
HETATM    1  C   UNL     1      -9.608   8.159  73.298  1.00  0.00    -0.261 C  
HETATM    2  C   UNL     1     -10.633   7.607  72.325  1.00  0.00    -0.246 C  
ENDROOT
BRANCH   2   3
HETATM    3  N   UNL     1     -10.019   6.758  71.330  1.00  0.00    -0.179 N  
HETATM    4  C   UNL     1      -9.892   5.402  71.535  1.00  0.00    -0.168 C  
HETATM    5  H   UNL     1      -9.673   7.169  70.463  1.00  0.00     0.000 HD 
HETATM    6  O   UNL     1     -10.271   4.837  72.553  1.00  0.00    -0.177 OA 
BRANCH   4   7
HETATM    7  C   UNL     1      -9.248   4.677  70.370  1.00  0.00    -0.187 C  
BRANCH   7   8
HETATM    8  C   UNL     1      -8.718   3.306  70.799  1.00  0.00    -0.128 C  
BRANCH   8   9
HETATM    9  C   UNL     1      -9.300   2.146  69.992  1.00  0.00    -0.172 C  
BRANCH   9  10
HETATM   10  C   UNL     1      -8.303   1.569  69.028  1.00  0.00    -0.070 C  
HETATM   11  C   UNL     1      -8.281   1.724  67.694  1.00  0.00    -0.073 C  
BRANCH  11  12
HETATM   12  C   UNL     1      -9.271   2.486  66.858  1.00  0.00    -0.102 C  
BRANCH  12  13
HETATM   13  C   UNL     1      -8.614   3.419  65.831  1.00  0.00    -0.118 C  
HETATM   14  C   UNL     1      -8.090   2.726  64.564  1.00  0.00    -0.082 C  
HETATM   15  C   UNL     1      -8.040   3.852  63.541  1.00  0.00    -0.089 C  
HETATM   16  O   UNL     1      -8.995   1.733  64.094  1.00  0.00    -0.095 OA 
HETATM   17  H   UNL     1      -8.671   1.304  63.311  1.00  0.00     0.000 HD 
HETATM   18  C   UNL     1      -9.336   4.618  63.793  1.00  0.00     0.019 C  
HETATM   19  O   UNL     1     -10.397   4.035  63.034  1.00  0.00    -0.253 OA 
HETATM   20  C   UNL     1      -9.638   4.459  65.301  1.00  0.00    -0.186 C  
HETATM   21  H   UNL     1     -11.204   4.512  63.191  1.00  0.00     0.000 HD 
BRANCH  20  22
HETATM   22  C   UNL     1      -9.532   5.778  66.034  1.00  0.00    -0.108 C  
HETATM   23  C   UNL     1     -10.393   6.161  66.993  1.00  0.00    -0.295 C  
BRANCH  23  24
HETATM   24  C   UNL     1     -10.430   7.484  67.714  1.00  0.00    -0.223 C  
HETATM   25  H   UNL     1      -9.352   8.424  69.066  1.00  0.00     0.000 HD 
HETATM   26  O   UNL     1      -9.329   7.590  68.612  1.00  0.00    -0.144 OA 
BRANCH  24  27
HETATM   27  C   UNL     1     -10.373   8.688  66.764  1.00  0.00    -0.336 C  
BRANCH  27  28
HETATM   28  C   UNL     1      -9.148   9.581  66.980  1.00  0.00    -0.154 C  
BRANCH  28  29
HETATM   29  C   UNL     1      -8.306   9.672  65.732  1.00  0.00    -0.132 A  
HETATM   30  C   UNL     1      -6.979  10.117  65.807  1.00  0.00    -0.123 A  
HETATM   31  C   UNL     1      -6.210  10.246  64.650  1.00  0.00    -0.116 A  
HETATM   32  C   UNL     1      -6.760   9.930  63.409  1.00  0.00    -0.126 A  
HETATM   33  C   UNL     1      -8.078   9.482  63.326  1.00  0.00    -0.151 A  
HETATM   34  C   UNL     1      -8.848   9.353  64.481  1.00  0.00    -0.235 A  
ENDBRANCH  28  29
ENDBRANCH  27  28
ENDBRANCH  24  27
ENDBRANCH  23  24
ENDBRANCH  20  22
ENDBRANCH  12  13
ENDBRANCH  11  12
ENDBRANCH   9  10
ENDBRANCH   8   9
ENDBRANCH   7   8
ENDBRANCH   4   7
ENDBRANCH   2   3
TORSDOF 12
ENDMDL
MODEL      363
REMARK 921   NORMALIZED FREE ENERGY PREDICTED BY IDOCK:   -2.27 KCAL/MOL
REMARK 922        TOTAL FREE ENERGY PREDICTED BY IDOCK:   -6.70 KCAL/MOL
REMARK 923 INTER-LIGAND FREE ENERGY PREDICTED BY IDOCK:   -4.08 KCAL/MOL
REMARK 924 INTRA-LIGAND FREE ENERGY PREDICTED BY IDOCK:   -2.62 KCAL/MOL
REMARK 927      BINDING AFFINITY PREDICTED BY RF-SCORE:    0.00 PKD
ROOT
HETATM    1  C   UNL     1      -5.644  11.046  66.213  1.00  0.00    -0.139 C  
HETATM    2  C   UNL     1      -6.862  10.435  66.880  1.00  0.00    -0.088 C  
ENDROOT
BRANCH   2   3
HETATM    3  N   UNL     1      -6.773   8.993  66.931  1.00  0.00    -0.071 N  
HETATM    4  C   UNL     1      -7.390   8.209  65.982  1.00  0.00    -0.076 C  
HETATM    5  H   UNL     1      -6.244   8.549  67.682  1.00  0.00     0.000 HD 
HETATM    6  O   UNL     1      -8.050   8.666  65.058  1.00  0.00    -0.126 OA 
BRANCH   4   7
HETATM    7  C   UNL     1      -7.160   6.725  66.188  1.00  0.00    -0.066 C  
BRANCH   7   8
HETATM    8  C   UNL     1      -7.195   6.363  67.675  1.00  0.00    -0.086 C  
BRANCH   8   9
HETATM    9  C   UNL     1      -5.981   5.558  68.137  1.00  0.00    -0.018 C  
BRANCH   9  10
HETATM   10  C   UNL     1      -5.377   6.113  69.396  1.00  0.00    -0.012 C  
HETATM   11  C   UNL     1      -5.142   5.455  70.542  1.00  0.00    -0.004 C  
BRANCH  11  12
HETATM   12  C   UNL     1      -5.463   4.016  70.838  1.00  0.00    -0.008 C  
BRANCH  12  13
HETATM   13  C   UNL     1      -6.954   3.764  71.100  1.00  0.00    -0.032 C  
HETATM   14  C   UNL     1      -7.326   2.301  71.388  1.00  0.00    -0.032 C  
HETATM   15  C   UNL     1      -8.644   2.414  72.142  1.00  0.00    -0.083 C  
HETATM   16  O   UNL     1      -6.374   1.673  72.240  1.00  0.00    -0.013 OA 
HETATM   17  H   UNL     1      -6.604   0.769  72.417  1.00  0.00     0.000 HD 
HETATM   18  C   UNL     1      -8.409   3.587  73.090  1.00  0.00    -0.079 C  
HETATM   19  O   UNL     1      -7.808   3.118  74.300  1.00  0.00    -0.063 OA 
HETATM   20  C   UNL     1      -7.427   4.533  72.363  1.00  0.00    -0.082 C  
HETATM   21  H   UNL     1      -7.662   3.849  74.889  1.00  0.00     0.000 HD 
BRANCH  20  22
HETATM   22  C   UNL     1      -8.079   5.852  72.010  1.00  0.00    -0.108 C  
HETATM   23  C   UNL     1      -9.305   6.206  72.433  1.00  0.00    -0.146 C  
BRANCH  23  24
HETATM   24  C   UNL     1     -10.076   7.447  72.065  1.00  0.00    -0.182 C  
HETATM   25  H   UNL     1      -9.824   9.395  72.187  1.00  0.00     0.000 HD 
HETATM   26  O   UNL     1      -9.338   8.613  72.420  1.00  0.00    -0.282 OA 
BRANCH  24  27
HETATM   27  C   UNL     1     -10.393   7.535  70.566  1.00  0.00    -0.217 C  
BRANCH  27  28
HETATM   28  C   UNL     1     -11.324   6.424  70.071  1.00  0.00    -0.496 C  
BRANCH  28  29
HETATM   29  C   UNL     1     -10.715   5.672  68.914  1.00  0.00    -0.280 A  
HETATM   30  C   UNL     1      -9.967   4.510  69.142  1.00  0.00    -0.169 A  
HETATM   31  C   UNL     1      -9.365   3.836  68.079  1.00  0.00    -0.232 A  
HETATM   32  C   UNL     1      -9.506   4.318  66.780  1.00  0.00    -0.202 A  
HETATM   33  C   UNL     1     -10.253   5.471  66.542  1.00  0.00    -0.273 A  
HETATM   34  C   UNL     1     -10.855   6.146  67.603  1.00  0.00    -0.421 A  
ENDBRANCH  28  29
ENDBRANCH  27  28
ENDBRANCH  24  27
ENDBRANCH  23  24
ENDBRANCH  20  22
ENDBRANCH  12  13
ENDBRANCH  11  12
ENDBRANCH   9  10
ENDBRANCH   8   9
ENDBRANCH   7   8
ENDBRANCH   4   7
ENDBRANCH   2   3
TORSDOF 12
ENDMDL
MODEL      364
REMARK 921   NORMALIZED FREE ENERGY PREDICTED BY IDOCK:   -2.27 KCAL/MOL
REMARK 922        TOTAL FREE ENERGY PREDICTED BY IDOCK:   -6.69 KCAL/MOL
REMARK 923 INTER-LIGAND FREE ENERGY PREDICTED BY IDOCK:   -5.07 KCAL/MOL
REMARK 924 INTRA-LIGAND FREE ENERGY PREDICTED BY IDOCK:   -1.62 KCAL/MOL
REMARK 927      BINDING AFFINITY PREDICTED BY RF-SCORE:    0.00 PKD
ROOT
HETATM    1  C   UNL     1      -6.042  11.077  66.178  1.00  0.00    -0.119 C  
HETATM    2  C   UNL     1      -7.214  10.429  66.892  1.00  0.00    -0.099 C  
ENDROOT
BRANCH   2   3
HETATM    3  N   UNL     1      -6.995   9.015  67.098  1.00  0.00    -0.077 N  
HETATM    4  C   UNL     1      -7.464   8.085  66.197  1.00  0.00    -0.075 C  
HETATM    5  H   UNL     1      -6.486   8.701  67.924  1.00  0.00     0.000 HD 
HETATM    6  O   UNL     1      -8.092   8.383  65.189  1.00  0.00    -0.130 OA 
BRANCH   4   7
HETATM    7  C   UNL     1      -7.113   6.658  66.570  1.00  0.00    -0.068 C  
BRANCH   7   8
HETATM    8  C   UNL     1      -7.364   6.401  68.058  1.00  0.00    -0.089 C  
BRANCH   8   9
HETATM    9  C   UNL     1      -7.156   4.944  68.470  1.00  0.00    -0.057 C  
BRANCH   9  10
HETATM   10  C   UNL     1      -6.272   4.816  69.678  1.00  0.00    -0.026 C  
HETATM   11  C   UNL     1      -6.502   4.081  70.778  1.00  0.00    -0.030 C  
BRANCH  11  12
HETATM   12  C   UNL     1      -7.717   3.242  71.064  1.00  0.00    -0.046 C  
BRANCH  12  13
HETATM   13  C   UNL     1      -8.992   4.068  71.285  1.00  0.00    -0.159 C  
HETATM   14  C   UNL     1     -10.194   3.277  71.824  1.00  0.00     0.050 C  
HETATM   15  C   UNL     1     -11.062   4.350  72.467  1.00  0.00     0.037 C  
HETATM   16  O   UNL     1      -9.806   2.351  72.832  1.00  0.00    -0.103 OA 
HETATM   17  H   UNL     1     -10.549   1.862  73.166  1.00  0.00     0.000 HD 
HETATM   18  C   UNL     1     -10.051   5.240  73.186  1.00  0.00    -0.180 C  
HETATM   19  O   UNL     1      -9.798   4.723  74.494  1.00  0.00    -0.150 OA 
HETATM   20  C   UNL     1      -8.753   5.172  72.349  1.00  0.00    -0.124 C  
HETATM   21  H   UNL     1      -9.168   5.277  74.942  1.00  0.00     0.000 HD 
BRANCH  20  22
HETATM   22  C   UNL     1      -8.428   6.507  71.714  1.00  0.00    -0.123 C  
HETATM   23  C   UNL     1      -9.172   7.612  71.897  1.00  0.00    -0.167 C  
BRANCH  23  24
HETATM   24  C   UNL     1      -8.987   8.957  71.242  1.00  0.00    -0.243 C  
HETATM   25  H   UNL     1      -7.553  10.292  71.061  1.00  0.00     0.000 HD 
HETATM   26  O   UNL     1      -7.669   9.445  71.474  1.00  0.00    -0.321 OA 
BRANCH  24  27
HETATM   27  C   UNL     1      -9.210   8.921  69.724  1.00  0.00    -0.167 C  
BRANCH  27  28
HETATM   28  C   UNL     1     -10.684   8.824  69.324  1.00  0.00    -0.166 C  
BRANCH  28  29
HETATM   29  C   UNL     1     -11.546   9.725  70.173  1.00  0.00    -0.239 A  
HETATM   30  C   UNL     1     -11.625  11.095  69.891  1.00  0.00    -0.416 A  
HETATM   31  C   UNL     1     -12.385  11.941  70.701  1.00  0.00    -0.405 A  
HETATM   32  C   UNL     1     -13.071  11.423  71.798  1.00  0.00    -0.523 A  
HETATM   33  C   UNL     1     -13.001  10.061  72.083  1.00  0.00    -0.460 A  
HETATM   34  C   UNL     1     -12.241   9.214  71.276  1.00  0.00    -0.395 A  
ENDBRANCH  28  29
ENDBRANCH  27  28
ENDBRANCH  24  27
ENDBRANCH  23  24
ENDBRANCH  20  22
ENDBRANCH  12  13
ENDBRANCH  11  12
ENDBRANCH   9  10
ENDBRANCH   8   9
ENDBRANCH   7   8
ENDBRANCH   4   7
ENDBRANCH   2   3
TORSDOF 12
ENDMDL
MODEL      365
REMARK 921   NORMALIZED FREE ENERGY PREDICTED BY IDOCK:   -2.26 KCAL/MOL
REMARK 922        TOTAL FREE ENERGY PREDICTED BY IDOCK:   -6.69 KCAL/MOL
REMARK 923 INTER-LIGAND FREE ENERGY PREDICTED BY IDOCK:   -4.80 KCAL/MOL
REMARK 924 INTRA-LIGAND FREE ENERGY PREDICTED BY IDOCK:   -1.89 KCAL/MOL
REMARK 927      BINDING AFFINITY PREDICTED BY RF-SCORE:    0.00 PKD
ROOT
HETATM    1  C   UNL     1      -8.973   8.298  73.189  1.00  0.00    -0.301 C  
HETATM    2  C   UNL     1      -9.566   7.546  72.012  1.00  0.00    -0.154 C  
ENDROOT
BRANCH   2   3
HETATM    3  N   UNL     1      -8.556   6.803  71.293  1.00  0.00    -0.125 N  
HETATM    4  C   UNL     1      -8.106   5.586  71.755  1.00  0.00    -0.118 C  
HETATM    5  H   UNL     1      -8.170   7.185  70.430  1.00  0.00     0.000 HD 
HETATM    6  O   UNL     1      -8.512   5.067  72.787  1.00  0.00    -0.114 OA 
BRANCH   4   7
HETATM    7  C   UNL     1      -7.068   4.948  70.853  1.00  0.00    -0.051 C  
BRANCH   7   8
HETATM    8  C   UNL     1      -6.847   3.479  71.221  1.00  0.00    -0.032 C  
BRANCH   8   9
HETATM    9  C   UNL     1      -7.509   2.499  70.253  1.00  0.00    -0.043 C  
BRANCH   9  10
HETATM   10  C   UNL     1      -6.636   2.195  69.069  1.00  0.00    -0.029 C  
HETATM   11  C   UNL     1      -6.683   2.771  67.857  1.00  0.00    -0.040 C  
BRANCH  11  12
HETATM   12  C   UNL     1      -7.645   3.832  67.399  1.00  0.00    -0.075 C  
BRANCH  12  13
HETATM   13  C   UNL     1      -8.022   3.716  65.915  1.00  0.00    -0.093 C  
HETATM   14  C   UNL     1      -8.767   2.429  65.532  1.00  0.00    -0.120 C  
HETATM   15  C   UNL     1      -9.490   2.808  64.248  1.00  0.00    -0.137 C  
HETATM   16  O   UNL     1      -9.741   2.074  66.507  1.00  0.00    -0.290 OA 
HETATM   17  H   UNL     1     -10.202   1.278  66.271  1.00  0.00     0.000 HD 
HETATM   18  C   UNL     1     -10.013   4.213  64.538  1.00  0.00    -0.161 C  
HETATM   19  O   UNL     1     -11.288   4.131  65.179  1.00  0.00    -0.831 OA 
HETATM   20  C   UNL     1      -8.993   4.855  65.506  1.00  0.00    -0.149 C  
HETATM   21  H   UNL     1     -11.613   5.005  65.360  1.00  0.00     0.000 HD 
BRANCH  20  22
HETATM   22  C   UNL     1      -8.265   6.014  64.860  1.00  0.00    -0.130 C  
HETATM   23  C   UNL     1      -7.087   5.883  64.224  1.00  0.00    -0.053 C  
BRANCH  23  24
HETATM   24  C   UNL     1      -6.241   6.981  63.633  1.00  0.00    -0.044 C  
HETATM   25  H   UNL     1      -6.237   8.084  62.002  1.00  0.00     0.000 HD 
HETATM   26  O   UNL     1      -6.771   7.392  62.375  1.00  0.00    -0.067 OA 
BRANCH  24  27
HETATM   27  C   UNL     1      -6.156   8.223  64.529  1.00  0.00    -0.064 C  
BRANCH  27  28
HETATM   28  C   UNL     1      -6.710   9.491  63.873  1.00  0.00    -0.105 C  
BRANCH  28  29
HETATM   29  C   UNL     1      -7.993   9.935  64.530  1.00  0.00    -0.145 A  
HETATM   30  C   UNL     1      -9.107  10.269  63.748  1.00  0.00    -0.285 A  
HETATM   31  C   UNL     1     -10.282  10.723  64.349  1.00  0.00    -0.432 A  
HETATM   32  C   UNL     1     -10.352  10.846  65.735  1.00  0.00    -0.303 A  
HETATM   33  C   UNL     1      -9.251  10.512  66.521  1.00  0.00    -0.183 A  
HETATM   34  C   UNL     1      -8.075  10.059  65.923  1.00  0.00    -0.126 A  
ENDBRANCH  28  29
ENDBRANCH  27  28
ENDBRANCH  24  27
ENDBRANCH  23  24
ENDBRANCH  20  22
ENDBRANCH  12  13
ENDBRANCH  11  12
ENDBRANCH   9  10
ENDBRANCH   8   9
ENDBRANCH   7   8
ENDBRANCH   4   7
ENDBRANCH   2   3
TORSDOF 12
ENDMDL
MODEL      366
REMARK 921   NORMALIZED FREE ENERGY PREDICTED BY IDOCK:   -2.14 KCAL/MOL
REMARK 922        TOTAL FREE ENERGY PREDICTED BY IDOCK:   -6.48 KCAL/MOL
REMARK 923 INTER-LIGAND FREE ENERGY PREDICTED BY IDOCK:   -4.63 KCAL/MOL
REMARK 924 INTRA-LIGAND FREE ENERGY PREDICTED BY IDOCK:   -1.85 KCAL/MOL
REMARK 927      BINDING AFFINITY PREDICTED BY RF-SCORE:    0.00 PKD
ROOT
HETATM    1  C   UNL     1      -8.830   8.066  73.434  1.00  0.00    -0.334 C  
HETATM    2  C   UNL     1      -9.880   7.525  72.482  1.00  0.00    -0.176 C  
ENDROOT
BRANCH   2   3
HETATM    3  N   UNL     1      -9.322   6.551  71.572  1.00  0.00    -0.148 N  
HETATM    4  C   UNL     1      -9.326   5.208  71.878  1.00  0.00    -0.142 C  
HETATM    5  H   UNL     1      -8.918   6.863  70.689  1.00  0.00     0.000 HD 
HETATM    6  O   UNL     1      -9.782   4.758  72.921  1.00  0.00    -0.136 OA 
BRANCH   4   7
HETATM    7  C   UNL     1      -8.722   4.343  70.790  1.00  0.00    -0.126 C  
BRANCH   7   8
HETATM    8  C   UNL     1      -8.849   2.856  71.135  1.00  0.00    -0.141 C  
BRANCH   8   9
HETATM    9  C   UNL     1      -9.582   2.042  70.070  1.00  0.00    -0.060 C  
BRANCH   9  10
HETATM   10  C   UNL     1      -8.646   1.487  69.035  1.00  0.00    -0.089 C  
HETATM   11  C   UNL     1      -8.443   1.951  67.792  1.00  0.00    -0.090 C  
BRANCH  11  12
HETATM   12  C   UNL     1      -9.134   3.117  67.140  1.00  0.00    -0.203 C  
BRANCH  12  13
HETATM   13  C   UNL     1      -8.427   3.617  65.872  1.00  0.00    -0.111 C  
HETATM   14  C   UNL     1      -8.419   2.626  64.699  1.00  0.00    -0.089 C  
HETATM   15  C   UNL     1      -8.209   3.519  63.484  1.00  0.00    -0.089 C  
HETATM   16  O   UNL     1      -9.672   1.966  64.558  1.00  0.00    -0.257 OA 
HETATM   17  H   UNL     1      -9.667   1.353  63.832  1.00  0.00     0.000 HD 
HETATM   18  C   UNL     1      -9.108   4.720  63.768  1.00  0.00    -0.024 C  
HETATM   19  O   UNL     1     -10.430   4.457  63.291  1.00  0.00    -0.415 OA 
HETATM   20  C   UNL     1      -9.140   4.874  65.306  1.00  0.00    -0.154 C  
HETATM   21  H   UNL     1     -10.989   5.205  63.468  1.00  0.00     0.000 HD 
BRANCH  20  22
HETATM   22  C   UNL     1      -8.467   6.154  65.753  1.00  0.00    -0.147 C  
HETATM   23  C   UNL     1      -7.316   6.179  66.446  1.00  0.00    -0.085 C  
BRANCH  23  24
HETATM   24  C   UNL     1      -6.617   7.388  67.014  1.00  0.00    -0.061 C  
HETATM   25  H   UNL     1      -5.482   8.850  66.343  1.00  0.00     0.000 HD 
HETATM   26  O   UNL     1      -5.922   8.088  65.985  1.00  0.00    -0.037 OA 
BRANCH  24  27
HETATM   27  C   UNL     1      -7.579   8.378  67.683  1.00  0.00    -0.098 C  
BRANCH  27  28
HETATM   28  C   UNL     1      -7.406   9.821  67.199  1.00  0.00    -0.087 C  
BRANCH  28  29
HETATM   29  C   UNL     1      -8.733  10.444  66.842  1.00  0.00    -0.130 A  
HETATM   30  C   UNL     1      -9.436  11.200  67.789  1.00  0.00    -0.173 A  
HETATM   31  C   UNL     1     -10.683  11.741  67.477  1.00  0.00    -0.262 A  
HETATM   32  C   UNL     1     -11.239  11.530  66.217  1.00  0.00    -0.286 A  
HETATM   33  C   UNL     1     -10.545  10.783  65.266  1.00  0.00    -0.230 A  
HETATM   34  C   UNL     1      -9.297  10.241  65.576  1.00  0.00    -0.250 A  
ENDBRANCH  28  29
ENDBRANCH  27  28
ENDBRANCH  24  27
ENDBRANCH  23  24
ENDBRANCH  20  22
ENDBRANCH  12  13
ENDBRANCH  11  12
ENDBRANCH   9  10
ENDBRANCH   8   9
ENDBRANCH   7   8
ENDBRANCH   4   7
ENDBRANCH   2   3
TORSDOF 12
ENDMDL
MODEL      367
REMARK 921   NORMALIZED FREE ENERGY PREDICTED BY IDOCK:   -2.13 KCAL/MOL
REMARK 922        TOTAL FREE ENERGY PREDICTED BY IDOCK:   -6.46 KCAL/MOL
REMARK 923 INTER-LIGAND FREE ENERGY PREDICTED BY IDOCK:   -5.85 KCAL/MOL
REMARK 924 INTRA-LIGAND FREE ENERGY PREDICTED BY IDOCK:   -0.61 KCAL/MOL
REMARK 927      BINDING AFFINITY PREDICTED BY RF-SCORE:    0.00 PKD
ROOT
HETATM    1  C   UNL     1      -8.428   2.795  64.101  1.00  0.00    -0.086 C  
HETATM    2  C   UNL     1      -9.486   3.711  64.688  1.00  0.00    -0.159 C  
ENDROOT
BRANCH   2   3
HETATM    3  N   UNL     1      -8.899   4.893  65.277  1.00  0.00    -0.148 N  
HETATM    4  C   UNL     1      -9.616   5.685  66.145  1.00  0.00    -0.120 C  
HETATM    5  H   UNL     1      -7.938   5.145  65.045  1.00  0.00     0.000 HD 
HETATM    6  O   UNL     1     -10.776   5.455  66.463  1.00  0.00    -0.301 OA 
BRANCH   4   7
HETATM    7  C   UNL     1      -8.823   6.862  66.678  1.00  0.00    -0.140 C  
BRANCH   7   8
HETATM    8  C   UNL     1      -8.307   7.741  65.536  1.00  0.00    -0.151 C  
BRANCH   8   9
HETATM    9  C   UNL     1      -9.296   8.824  65.103  1.00  0.00     0.077 C  
BRANCH   9  10
HETATM   10  C   UNL     1      -8.603  10.040  64.559  1.00  0.00    -0.197 C  
HETATM   11  C   UNL     1      -7.417  10.538  64.943  1.00  0.00     0.006 C  
BRANCH  11  12
HETATM   12  C   UNL     1      -6.525  10.008  66.032  1.00  0.00    -0.093 C  
BRANCH  12  13
HETATM   13  C   UNL     1      -7.203   9.963  67.409  1.00  0.00    -0.086 C  
HETATM   14  C   UNL     1      -6.573   8.987  68.413  1.00  0.00    -0.059 C  
HETATM   15  C   UNL     1      -7.017   9.534  69.763  1.00  0.00    -0.071 C  
HETATM   16  O   UNL     1      -5.151   9.023  68.361  1.00  0.00    -0.030 OA 
HETATM   17  H   UNL     1      -4.761   8.419  68.982  1.00  0.00     0.000 HD 
HETATM   18  C   UNL     1      -6.854  11.044  69.604  1.00  0.00    -0.129 C  
HETATM   19  O   UNL     1      -5.517  11.423  69.940  1.00  0.00    -0.060 OA 
HETATM   20  C   UNL     1      -7.112  11.345  68.110  1.00  0.00    -0.075 C  
HETATM   21  H   UNL     1      -5.416  12.363  69.841  1.00  0.00     0.000 HD 
BRANCH  20  22
HETATM   22  C   UNL     1      -8.370  12.162  67.915  1.00  0.00    -0.161 C  
HETATM   23  C   UNL     1      -8.378  13.384  67.354  1.00  0.00    -0.193 C  
BRANCH  23  24
HETATM   24  C   UNL     1      -9.556  14.312  67.199  1.00  0.00    -0.245 C  
HETATM   25  H   UNL     1     -11.284  14.308  66.257  1.00  0.00     0.000 HD 
HETATM   26  O   UNL     1     -10.541  13.723  66.354  1.00  0.00    -0.279 OA 
BRANCH  24  27
HETATM   27  C   UNL     1     -10.230  14.655  68.533  1.00  0.00    -0.240 C  
BRANCH  27  28
HETATM   28  C   UNL     1     -11.760  14.613  68.474  1.00  0.00    -0.348 C  
BRANCH  28  29
HETATM   29  C   UNL     1     -12.352  14.238  69.810  1.00  0.00    -0.342 A  
HETATM   30  C   UNL     1     -12.881  15.227  70.650  1.00  0.00    -0.462 A  
HETATM   31  C   UNL     1     -13.389  14.892  71.905  1.00  0.00    -0.458 A  
HETATM   32  C   UNL     1     -13.373  13.565  72.331  1.00  0.00    -0.641 A  
HETATM   33  C   UNL     1     -12.853  12.574  71.500  1.00  0.00    -0.367 A  
HETATM   34  C   UNL     1     -12.344  12.907  70.245  1.00  0.00    -0.294 A  
ENDBRANCH  28  29
ENDBRANCH  27  28
ENDBRANCH  24  27
ENDBRANCH  23  24
ENDBRANCH  20  22
ENDBRANCH  12  13
ENDBRANCH  11  12
ENDBRANCH   9  10
ENDBRANCH   8   9
ENDBRANCH   7   8
ENDBRANCH   4   7
ENDBRANCH   2   3
TORSDOF 12
ENDMDL
MODEL      368
REMARK 921   NORMALIZED FREE ENERGY PREDICTED BY IDOCK:   -2.10 KCAL/MOL
REMARK 922        TOTAL FREE ENERGY PREDICTED BY IDOCK:   -6.41 KCAL/MOL
REMARK 923 INTER-LIGAND FREE ENERGY PREDICTED BY IDOCK:   -5.82 KCAL/MOL
REMARK 924 INTRA-LIGAND FREE ENERGY PREDICTED BY IDOCK:   -0.59 KCAL/MOL
REMARK 927      BINDING AFFINITY PREDICTED BY RF-SCORE:    0.00 PKD
ROOT
HETATM    1  C   UNL     1      -9.359   2.256  70.690  1.00  0.00    -0.205 C  
HETATM    2  C   UNL     1      -9.406   3.736  71.022  1.00  0.00    -0.148 C  
ENDROOT
BRANCH   2   3
HETATM    3  N   UNL     1      -9.267   4.552  69.837  1.00  0.00    -0.114 N  
HETATM    4  C   UNL     1      -8.043   5.065  69.469  1.00  0.00    -0.078 C  
HETATM    5  H   UNL     1     -10.087   4.751  69.265  1.00  0.00     0.000 HD 
HETATM    6  O   UNL     1      -7.016   4.880  70.109  1.00  0.00    -0.046 OA 
BRANCH   4   7
HETATM    7  C   UNL     1      -8.092   5.871  68.186  1.00  0.00    -0.109 C  
BRANCH   7   8
HETATM    8  C   UNL     1      -8.900   7.158  68.375  1.00  0.00    -0.127 C  
BRANCH   8   9
HETATM    9  C   UNL     1      -8.440   8.000  69.565  1.00  0.00    -0.131 C  
BRANCH   9  10
HETATM   10  C   UNL     1      -8.265   9.447  69.202  1.00  0.00    -0.112 C  
HETATM   11  C   UNL     1      -8.378   9.998  67.983  1.00  0.00    -0.117 C  
BRANCH  11  12
HETATM   12  C   UNL     1      -8.675   9.282  66.694  1.00  0.00    -0.139 C  
BRANCH  12  13
HETATM   13  C   UNL     1      -8.331  10.105  65.445  1.00  0.00    -0.159 C  
HETATM   14  C   UNL     1      -6.946   9.824  64.842  1.00  0.00    -0.124 C  
HETATM   15  C   UNL     1      -7.089  10.286  63.398  1.00  0.00    -0.089 C  
HETATM   16  O   UNL     1      -6.645   8.433  64.839  1.00  0.00    -0.066 OA 
HETATM   17  H   UNL     1      -5.789   8.259  64.467  1.00  0.00     0.000 HD 
HETATM   18  C   UNL     1      -8.471   9.777  62.999  1.00  0.00    -0.180 C  
HETATM   19  O   UNL     1      -8.370   8.436  62.513  1.00  0.00    -0.203 OA 
HETATM   20  C   UNL     1      -9.320   9.790  64.290  1.00  0.00    -0.253 C  
HETATM   21  H   UNL     1      -9.231   8.119  62.264  1.00  0.00     0.000 HD 
BRANCH  20  22
HETATM   22  C   UNL     1     -10.439  10.807  64.213  1.00  0.00    -0.330 C  
HETATM   23  C   UNL     1     -10.551  11.846  65.058  1.00  0.00    -0.335 C  
BRANCH  23  24
HETATM   24  C   UNL     1     -11.670  12.854  65.123  1.00  0.00    -0.349 C  
HETATM   25  H   UNL     1     -13.436  13.001  65.980  1.00  0.00     0.000 HD 
HETATM   26  O   UNL     1     -12.731  12.365  65.939  1.00  0.00    -0.310 OA 
BRANCH  24  27
HETATM   27  C   UNL     1     -11.227  14.206  65.697  1.00  0.00    -0.308 C  
BRANCH  27  28
HETATM   28  C   UNL     1      -9.867  14.677  65.175  1.00  0.00    -0.156 C  
BRANCH  28  29
HETATM   29  C   UNL     1      -9.390  15.906  65.910  1.00  0.00    -0.353 A  
HETATM   30  C   UNL     1      -8.257  15.842  66.730  1.00  0.00    -0.302 A  
HETATM   31  C   UNL     1      -7.838  16.963  67.447  1.00  0.00    -0.192 A  
HETATM   32  C   UNL     1      -8.549  18.157  67.349  1.00  0.00    -0.244 A  
HETATM   33  C   UNL     1      -9.676  18.232  66.531  1.00  0.00    -0.343 A  
HETATM   34  C   UNL     1     -10.096  17.112  65.815  1.00  0.00    -0.192 A  
ENDBRANCH  28  29
ENDBRANCH  27  28
ENDBRANCH  24  27
ENDBRANCH  23  24
ENDBRANCH  20  22
ENDBRANCH  12  13
ENDBRANCH  11  12
ENDBRANCH   9  10
ENDBRANCH   8   9
ENDBRANCH   7   8
ENDBRANCH   4   7
ENDBRANCH   2   3
TORSDOF 12
ENDMDL
MODEL      369
REMARK 921   NORMALIZED FREE ENERGY PREDICTED BY IDOCK:   -2.07 KCAL/MOL
REMARK 922        TOTAL FREE ENERGY PREDICTED BY IDOCK:   -6.36 KCAL/MOL
REMARK 923 INTER-LIGAND FREE ENERGY PREDICTED BY IDOCK:   -5.10 KCAL/MOL
REMARK 924 INTRA-LIGAND FREE ENERGY PREDICTED BY IDOCK:   -1.27 KCAL/MOL
REMARK 927      BINDING AFFINITY PREDICTED BY RF-SCORE:    0.00 PKD
ROOT
HETATM    1  C   UNL     1      -6.095  14.136  73.541  1.00  0.00     0.477 C  
HETATM    2  C   UNL     1      -5.127  14.364  72.395  1.00  0.00    -0.216 C  
ENDROOT
BRANCH   2   3
HETATM    3  N   UNL     1      -5.612  13.780  71.164  1.00  0.00    -0.201 N  
HETATM    4  C   UNL     1      -5.618  12.416  70.980  1.00  0.00    -0.061 C  
HETATM    5  H   UNL     1      -5.955  14.389  70.421  1.00  0.00     0.000 HD 
HETATM    6  O   UNL     1      -5.213  11.622  71.820  1.00  0.00    -0.330 OA 
BRANCH   4   7
HETATM    7  C   UNL     1      -6.187  11.994  69.640  1.00  0.00    -0.131 C  
BRANCH   7   8
HETATM    8  C   UNL     1      -6.909  10.649  69.747  1.00  0.00    -0.143 C  
BRANCH   8   9
HETATM    9  C   UNL     1      -7.784  10.326  68.536  1.00  0.00    -0.091 C  
BRANCH   9  10
HETATM   10  C   UNL     1      -7.291  10.997  67.285  1.00  0.00    -0.106 C  
HETATM   11  C   UNL     1      -7.919  11.947  66.573  1.00  0.00     0.041 C  
BRANCH  11  12
HETATM   12  C   UNL     1      -9.277  12.531  66.849  1.00  0.00    -0.211 C  
BRANCH  12  13
HETATM   13  C   UNL     1     -10.384  11.952  65.957  1.00  0.00    -0.268 C  
HETATM   14  C   UNL     1     -11.022  12.951  64.980  1.00  0.00    -0.297 C  
HETATM   15  C   UNL     1     -11.609  12.059  63.895  1.00  0.00    -0.536 C  
HETATM   16  O   UNL     1     -10.047  13.799  64.383  1.00  0.00    -0.692 OA 
HETATM   17  H   UNL     1     -10.440  14.417  63.778  1.00  0.00     0.000 HD 
HETATM   18  C   UNL     1     -10.526  11.006  63.678  1.00  0.00    -0.322 C  
HETATM   19  O   UNL     1      -9.580  11.477  62.715  1.00  0.00    -0.505 OA 
HETATM   20  C   UNL     1      -9.822  10.831  65.043  1.00  0.00    -0.346 C  
HETATM   21  H   UNL     1      -8.905  10.822  62.581  1.00  0.00     0.000 HD 
BRANCH  20  22
HETATM   22  C   UNL     1     -10.065   9.454  65.624  1.00  0.00    -0.074 C  
HETATM   23  C   UNL     1      -9.093   8.541  65.792  1.00  0.00    -0.222 C  
BRANCH  23  24
HETATM   24  C   UNL     1      -9.245   7.121  66.272  1.00  0.00    -0.127 C  
HETATM   25  H   UNL     1      -8.335   5.397  65.998  1.00  0.00     0.000 HD 
HETATM   26  O   UNL     1      -8.239   6.292  65.696  1.00  0.00    -0.129 OA 
BRANCH  24  27
HETATM   27  C   UNL     1      -9.141   6.988  67.796  1.00  0.00    -0.126 C  
BRANCH  27  28
HETATM   28  C   UNL     1      -7.731   7.242  68.338  1.00  0.00    -0.120 C  
BRANCH  28  29
HETATM   29  C   UNL     1      -7.335   6.199  69.354  1.00  0.00    -0.091 A  
HETATM   30  C   UNL     1      -7.810   6.280  70.669  1.00  0.00    -0.107 A  
HETATM   31  C   UNL     1      -7.411   5.343  71.623  1.00  0.00    -0.091 A  
HETATM   32  C   UNL     1      -6.535   4.319  71.270  1.00  0.00    -0.019 A  
HETATM   33  C   UNL     1      -6.061   4.228  69.962  1.00  0.00    -0.019 A  
HETATM   34  C   UNL     1      -6.458   5.164  69.007  1.00  0.00    -0.036 A  
ENDBRANCH  28  29
ENDBRANCH  27  28
ENDBRANCH  24  27
ENDBRANCH  23  24
ENDBRANCH  20  22
ENDBRANCH  12  13
ENDBRANCH  11  12
ENDBRANCH   9  10
ENDBRANCH   8   9
ENDBRANCH   7   8
ENDBRANCH   4   7
ENDBRANCH   2   3
TORSDOF 12
ENDMDL
MODEL      370
REMARK 921   NORMALIZED FREE ENERGY PREDICTED BY IDOCK:   -2.05 KCAL/MOL
REMARK 922        TOTAL FREE ENERGY PREDICTED BY IDOCK:   -6.32 KCAL/MOL
REMARK 923 INTER-LIGAND FREE ENERGY PREDICTED BY IDOCK:   -6.48 KCAL/MOL
REMARK 924 INTRA-LIGAND FREE ENERGY PREDICTED BY IDOCK:    0.17 KCAL/MOL
REMARK 927      BINDING AFFINITY PREDICTED BY RF-SCORE:    0.00 PKD
ROOT
HETATM    1  C   UNL     1     -10.154   2.992  63.984  1.00  0.00    -0.157 C  
HETATM    2  C   UNL     1     -10.065   4.295  64.757  1.00  0.00    -0.144 C  
ENDROOT
BRANCH   2   3
HETATM    3  N   UNL     1      -9.682   4.072  66.132  1.00  0.00    -0.258 N  
HETATM    4  C   UNL     1      -8.356   3.986  66.495  1.00  0.00    -0.104 C  
HETATM    5  H   UNL     1     -10.404   3.976  66.846  1.00  0.00     0.000 HD 
HETATM    6  O   UNL     1      -7.433   4.080  65.696  1.00  0.00    -0.078 OA 
BRANCH   4   7
HETATM    7  C   UNL     1      -8.153   3.777  67.983  1.00  0.00    -0.085 C  
BRANCH   7   8
HETATM    8  C   UNL     1      -8.308   5.093  68.750  1.00  0.00    -0.088 C  
BRANCH   8   9
HETATM    9  C   UNL     1      -7.968   4.979  70.235  1.00  0.00    -0.078 C  
BRANCH   9  10
HETATM   10  C   UNL     1      -9.167   4.622  71.066  1.00  0.00    -0.195 C  
HETATM   11  C   UNL     1     -10.435   5.020  70.875  1.00  0.00    -0.212 C  
BRANCH  11  12
HETATM   12  C   UNL     1     -10.938   5.943  69.799  1.00  0.00    -0.452 C  
BRANCH  12  13
HETATM   13  C   UNL     1     -11.637   7.195  70.346  1.00  0.00    -0.300 C  
HETATM   14  C   UNL     1     -11.981   7.147  71.842  1.00  0.00    -0.307 C  
HETATM   15  C   UNL     1     -12.105   8.616  72.223  1.00  0.00    -0.443 C  
HETATM   16  O   UNL     1     -10.927   6.573  72.607  1.00  0.00    -0.235 OA 
HETATM   17  H   UNL     1     -11.140   6.543  73.532  1.00  0.00     0.000 HD 
HETATM   18  C   UNL     1     -10.938   9.271  71.490  1.00  0.00    -0.375 C  
HETATM   19  O   UNL     1      -9.762   9.206  72.300  1.00  0.00    -0.186 OA 
HETATM   20  C   UNL     1     -10.721   8.441  70.205  1.00  0.00    -0.240 C  
HETATM   21  H   UNL     1      -9.035   9.614  71.844  1.00  0.00     0.000 HD 
BRANCH  20  22
HETATM   22  C   UNL     1     -11.043   9.241  68.962  1.00  0.00     0.023 C  
HETATM   23  C   UNL     1     -10.180   9.402  67.943  1.00  0.00    -0.259 C  
BRANCH  23  24
HETATM   24  C   UNL     1     -10.368  10.250  66.711  1.00  0.00    -0.227 C  
HETATM   25  H   UNL     1     -11.735  11.469  65.990  1.00  0.00     0.000 HD 
HETATM   26  O   UNL     1     -11.617  10.935  66.767  1.00  0.00    -0.254 OA 
BRANCH  24  27
HETATM   27  C   UNL     1      -9.267  11.303  66.532  1.00  0.00    -0.200 C  
BRANCH  27  28
HETATM   28  C   UNL     1      -8.895  12.026  67.830  1.00  0.00    -0.165 C  
BRANCH  28  29
HETATM   29  C   UNL     1      -9.820  13.187  68.097  1.00  0.00    -0.228 A  
HETATM   30  C   UNL     1     -10.661  13.176  69.218  1.00  0.00     0.022 A  
HETATM   31  C   UNL     1     -11.550  14.227  69.445  1.00  0.00    -0.354 A  
HETATM   32  C   UNL     1     -11.607  15.297  68.554  1.00  0.00    -0.368 A  
HETATM   33  C   UNL     1     -10.771  15.318  67.439  1.00  0.00    -0.293 A  
HETATM   34  C   UNL     1      -9.882  14.269  67.209  1.00  0.00    -0.244 A  
ENDBRANCH  28  29
ENDBRANCH  27  28
ENDBRANCH  24  27
ENDBRANCH  23  24
ENDBRANCH  20  22
ENDBRANCH  12  13
ENDBRANCH  11  12
ENDBRANCH   9  10
ENDBRANCH   8   9
ENDBRANCH   7   8
ENDBRANCH   4   7
ENDBRANCH   2   3
TORSDOF 12
ENDMDL
MODEL      371
REMARK 921   NORMALIZED FREE ENERGY PREDICTED BY IDOCK:   -2.02 KCAL/MOL
REMARK 922        TOTAL FREE ENERGY PREDICTED BY IDOCK:   -6.28 KCAL/MOL
REMARK 923 INTER-LIGAND FREE ENERGY PREDICTED BY IDOCK:   -5.02 KCAL/MOL
REMARK 924 INTRA-LIGAND FREE ENERGY PREDICTED BY IDOCK:   -1.26 KCAL/MOL
REMARK 927      BINDING AFFINITY PREDICTED BY RF-SCORE:    0.00 PKD
ROOT
HETATM    1  C   UNL     1      -8.280  19.661  69.639  1.00  0.00     0.400 C  
HETATM    2  C   UNL     1      -6.827  19.726  69.207  1.00  0.00    -0.335 C  
ENDROOT
BRANCH   2   3
HETATM    3  N   UNL     1      -6.438  18.546  68.469  1.00  0.00    -0.224 N  
HETATM    4  C   UNL     1      -6.152  18.611  67.124  1.00  0.00    -0.169 C  
HETATM    5  H   UNL     1      -6.375  17.650  68.953  1.00  0.00     0.000 HD 
HETATM    6  O   UNL     1      -6.216  19.646  66.473  1.00  0.00    -0.169 OA 
BRANCH   4   7
HETATM    7  C   UNL     1      -5.738  17.278  66.533  1.00  0.00    -0.231 C  
BRANCH   7   8
HETATM    8  C   UNL     1      -6.793  16.203  66.807  1.00  0.00    -0.049 C  
BRANCH   8   9
HETATM    9  C   UNL     1      -6.797  15.705  68.252  1.00  0.00    -0.122 C  
BRANCH   9  10
HETATM   10  C   UNL     1      -6.516  14.233  68.346  1.00  0.00    -0.106 C  
HETATM   11  C   UNL     1      -7.207  13.236  67.770  1.00  0.00    -0.151 C  
BRANCH  11  12
HETATM   12  C   UNL     1      -8.443  13.368  66.924  1.00  0.00    -0.066 C  
BRANCH  12  13
HETATM   13  C   UNL     1      -9.746  13.164  67.710  1.00  0.00    -0.218 C  
HETATM   14  C   UNL     1     -10.733  14.339  67.649  1.00  0.00    -0.258 C  
HETATM   15  C   UNL     1     -12.072  13.693  67.978  1.00  0.00    -0.309 C  
HETATM   16  O   UNL     1     -10.813  14.893  66.340  1.00  0.00    -0.313 OA 
HETATM   17  H   UNL     1     -11.423  15.619  66.302  1.00  0.00     0.000 HD 
HETATM   18  C   UNL     1     -12.034  12.382  67.196  1.00  0.00    -0.177 C  
HETATM   19  O   UNL     1     -12.515  12.598  65.868  1.00  0.00    -0.584 OA 
HETATM   20  C   UNL     1     -10.547  11.962  67.140  1.00  0.00    -0.264 C  
HETATM   21  H   UNL     1     -12.491  11.782  65.381  1.00  0.00     0.000 HD 
BRANCH  20  22
HETATM   22  C   UNL     1     -10.295  10.693  67.926  1.00  0.00    -0.231 C  
HETATM   23  C   UNL     1      -9.885  10.686  69.206  1.00  0.00    -0.201 C  
BRANCH  23  24
HETATM   24  C   UNL     1      -9.520   9.487  70.042  1.00  0.00    -0.232 C  
HETATM   25  H   UNL     1     -10.279   7.714  70.436  1.00  0.00     0.000 HD 
HETATM   26  O   UNL     1     -10.509   8.470  69.909  1.00  0.00    -0.210 OA 
BRANCH  24  27
HETATM   27  C   UNL     1      -8.167   8.874  69.656  1.00  0.00    -0.114 C  
BRANCH  27  28
HETATM   28  C   UNL     1      -8.236   7.371  69.370  1.00  0.00    -0.131 C  
BRANCH  28  29
HETATM   29  C   UNL     1      -7.908   7.069  67.929  1.00  0.00    -0.114 A  
HETATM   30  C   UNL     1      -6.685   6.475  67.593  1.00  0.00    -0.067 A  
HETATM   31  C   UNL     1      -6.359   6.235  66.258  1.00  0.00    -0.042 A  
HETATM   32  C   UNL     1      -7.252   6.586  65.249  1.00  0.00    -0.073 A  
HETATM   33  C   UNL     1      -8.474   7.173  65.574  1.00  0.00    -0.114 A  
HETATM   34  C   UNL     1      -8.802   7.415  66.908  1.00  0.00    -0.140 A  
ENDBRANCH  28  29
ENDBRANCH  27  28
ENDBRANCH  24  27
ENDBRANCH  23  24
ENDBRANCH  20  22
ENDBRANCH  12  13
ENDBRANCH  11  12
ENDBRANCH   9  10
ENDBRANCH   8   9
ENDBRANCH   7   8
ENDBRANCH   4   7
ENDBRANCH   2   3
TORSDOF 12
ENDMDL
MODEL      372
REMARK 921   NORMALIZED FREE ENERGY PREDICTED BY IDOCK:   -1.95 KCAL/MOL
REMARK 922        TOTAL FREE ENERGY PREDICTED BY IDOCK:   -6.16 KCAL/MOL
REMARK 923 INTER-LIGAND FREE ENERGY PREDICTED BY IDOCK:   -6.26 KCAL/MOL
REMARK 924 INTRA-LIGAND FREE ENERGY PREDICTED BY IDOCK:    0.10 KCAL/MOL
REMARK 927      BINDING AFFINITY PREDICTED BY RF-SCORE:    0.00 PKD
ROOT
HETATM    1  C   UNL     1      -5.591  13.445  68.564  1.00  0.00    -0.086 C  
HETATM    2  C   UNL     1      -7.052  13.229  68.913  1.00  0.00    -0.079 C  
ENDROOT
BRANCH   2   3
HETATM    3  N   UNL     1      -7.570  12.023  68.308  1.00  0.00    -0.110 N  
HETATM    4  C   UNL     1      -6.963  10.805  68.518  1.00  0.00    -0.068 C  
HETATM    5  H   UNL     1      -8.399  12.075  67.715  1.00  0.00     0.000 HD 
HETATM    6  O   UNL     1      -5.960  10.664  69.206  1.00  0.00    -0.040 OA 
BRANCH   4   7
HETATM    7  C   UNL     1      -7.666   9.656  67.823  1.00  0.00    -0.094 C  
BRANCH   7   8
HETATM    8  C   UNL     1      -8.855   9.158  68.650  1.00  0.00    -0.133 C  
BRANCH   8   9
HETATM    9  C   UNL     1      -8.819   9.612  70.108  1.00  0.00    -0.266 C  
BRANCH   9  10
HETATM   10  C   UNL     1     -10.191   9.671  70.718  1.00  0.00    -0.330 C  
HETATM   11  C   UNL     1     -11.243  10.383  70.282  1.00  0.00    -0.395 C  
BRANCH  11  12
HETATM   12  C   UNL     1     -11.276  11.310  69.099  1.00  0.00    -0.337 C  
BRANCH  12  13
HETATM   13  C   UNL     1     -12.175  12.537  69.309  1.00  0.00    -0.087 C  
HETATM   14  C   UNL     1     -12.894  12.592  70.665  1.00  0.00     0.065 C  
HETATM   15  C   UNL     1     -13.210  14.071  70.838  1.00  0.00    -0.245 C  
HETATM   16  O   UNL     1     -12.041  12.188  71.730  1.00  0.00     0.273 OA 
HETATM   17  H   UNL     1     -12.485  12.222  72.569  1.00  0.00     0.000 HD 
HETATM   18  C   UNL     1     -11.938  14.763  70.356  1.00  0.00    -0.309 C  
HETATM   19  O   UNL     1     -11.012  14.880  71.439  1.00  0.00    -0.567 OA 
HETATM   20  C   UNL     1     -11.338  13.844  69.268  1.00  0.00    -0.321 C  
HETATM   21  H   UNL     1     -10.220  15.311  71.139  1.00  0.00     0.000 HD 
BRANCH  20  22
HETATM   22  C   UNL     1     -11.377  14.496  67.903  1.00  0.00    -0.329 C  
HETATM   23  C   UNL     1     -10.386  14.383  67.002  1.00  0.00    -0.263 C  
BRANCH  23  24
HETATM   24  C   UNL     1     -10.287  15.063  65.661  1.00  0.00    -0.353 C  
HETATM   25  H   UNL     1     -11.435  16.184  64.520  1.00  0.00     0.000 HD 
HETATM   26  O   UNL     1     -11.497  15.755  65.366  1.00  0.00    -0.094 OA 
BRANCH  24  27
HETATM   27  C   UNL     1      -9.140  16.079  65.585  1.00  0.00     0.010 C  
BRANCH  27  28
HETATM   28  C   UNL     1      -8.506  16.389  66.945  1.00  0.00    -0.254 C  
BRANCH  28  29
HETATM   29  C   UNL     1      -8.395  17.875  67.174  1.00  0.00    -0.239 A  
HETATM   30  C   UNL     1      -7.503  18.377  68.131  1.00  0.00    -0.279 A  
HETATM   31  C   UNL     1      -7.428  19.748  68.378  1.00  0.00    -0.349 A  
HETATM   32  C   UNL     1      -8.246  20.628  67.673  1.00  0.00    -0.192 A  
HETATM   33  C   UNL     1      -9.134  20.139  66.717  1.00  0.00    -0.453 A  
HETATM   34  C   UNL     1      -9.210  18.769  66.468  1.00  0.00    -0.336 A  
ENDBRANCH  28  29
ENDBRANCH  27  28
ENDBRANCH  24  27
ENDBRANCH  23  24
ENDBRANCH  20  22
ENDBRANCH  12  13
ENDBRANCH  11  12
ENDBRANCH   9  10
ENDBRANCH   8   9
ENDBRANCH   7   8
ENDBRANCH   4   7
ENDBRANCH   2   3
TORSDOF 12
ENDMDL
MODEL      373
REMARK 921   NORMALIZED FREE ENERGY PREDICTED BY IDOCK:   -1.90 KCAL/MOL
REMARK 922        TOTAL FREE ENERGY PREDICTED BY IDOCK:   -6.07 KCAL/MOL
REMARK 923 INTER-LIGAND FREE ENERGY PREDICTED BY IDOCK:   -5.30 KCAL/MOL
REMARK 924 INTRA-LIGAND FREE ENERGY PREDICTED BY IDOCK:   -0.76 KCAL/MOL
REMARK 927      BINDING AFFINITY PREDICTED BY RF-SCORE:    0.00 PKD
ROOT
HETATM    1  C   UNL     1      -8.405   2.883  64.216  1.00  0.00    -0.083 C  
HETATM    2  C   UNL     1      -9.482   3.658  64.950  1.00  0.00    -0.161 C  
ENDROOT
BRANCH   2   3
HETATM    3  N   UNL     1      -8.937   4.810  65.632  1.00  0.00    -0.137 N  
HETATM    4  C   UNL     1      -9.651   5.457  66.616  1.00  0.00    -0.151 C  
HETATM    5  H   UNL     1      -8.008   5.149  65.381  1.00  0.00     0.000 HD 
HETATM    6  O   UNL     1     -10.774   5.117  66.965  1.00  0.00    -0.197 OA 
BRANCH   4   7
HETATM    7  C   UNL     1      -8.904   6.624  67.231  1.00  0.00    -0.116 C  
BRANCH   7   8
HETATM    8  C   UNL     1      -8.476   7.630  66.160  1.00  0.00    -0.147 C  
BRANCH   8   9
HETATM    9  C   UNL     1      -9.587   8.597  65.750  1.00  0.00    -0.134 C  
BRANCH   9  10
HETATM   10  C   UNL     1      -9.044   9.879  65.187  1.00  0.00    -0.257 C  
HETATM   11  C   UNL     1      -7.903  10.498  65.530  1.00  0.00    -0.138 C  
BRANCH  11  12
HETATM   12  C   UNL     1      -6.923  10.062  66.585  1.00  0.00    -0.087 C  
BRANCH  12  13
HETATM   13  C   UNL     1      -7.399  10.346  68.016  1.00  0.00    -0.085 C  
HETATM   14  C   UNL     1      -6.606   9.631  69.120  1.00  0.00    -0.049 C  
HETATM   15  C   UNL     1      -6.870  10.483  70.354  1.00  0.00    -0.012 C  
HETATM   16  O   UNL     1      -5.207   9.645  68.857  1.00  0.00    -0.037 OA 
HETATM   17  H   UNL     1      -4.716   9.203  69.539  1.00  0.00     0.000 HD 
HETATM   18  C   UNL     1      -6.774  11.912  69.825  1.00  0.00     0.047 C  
HETATM   19  O   UNL     1      -5.415  12.352  69.867  1.00  0.00    -0.082 OA 
HETATM   20  C   UNL     1      -7.248  11.854  68.354  1.00  0.00    -0.091 C  
HETATM   21  H   UNL     1      -5.356  13.241  69.537  1.00  0.00     0.000 HD 
BRANCH  20  22
HETATM   22  C   UNL     1      -8.545  12.609  68.156  1.00  0.00    -0.188 C  
HETATM   23  C   UNL     1      -8.724  13.528  67.191  1.00  0.00    -0.222 C  
BRANCH  23  24
HETATM   24  C   UNL     1      -9.936  14.395  66.968  1.00  0.00    -0.257 C  
HETATM   25  H   UNL     1     -11.458  15.054  68.029  1.00  0.00     0.000 HD 
HETATM   26  O   UNL     1     -10.694  14.507  68.170  1.00  0.00    -0.233 OA 
BRANCH  24  27
HETATM   27  C   UNL     1      -9.582  15.815  66.508  1.00  0.00    -0.288 C  
BRANCH  27  28
HETATM   28  C   UNL     1     -10.184  16.913  67.390  1.00  0.00    -0.298 C  
BRANCH  28  29
HETATM   29  C   UNL     1      -9.293  18.129  67.441  1.00  0.00    -0.254 A  
HETATM   30  C   UNL     1      -9.080  18.895  66.287  1.00  0.00    -0.269 A  
HETATM   31  C   UNL     1      -8.222  19.995  66.318  1.00  0.00    -0.324 A  
HETATM   32  C   UNL     1      -7.570  20.337  67.501  1.00  0.00    -0.341 A  
HETATM   33  C   UNL     1      -7.779  19.583  68.654  1.00  0.00    -0.390 A  
HETATM   34  C   UNL     1      -8.636  18.483  68.626  1.00  0.00    -0.323 A  
ENDBRANCH  28  29
ENDBRANCH  27  28
ENDBRANCH  24  27
ENDBRANCH  23  24
ENDBRANCH  20  22
ENDBRANCH  12  13
ENDBRANCH  11  12
ENDBRANCH   9  10
ENDBRANCH   8   9
ENDBRANCH   7   8
ENDBRANCH   4   7
ENDBRANCH   2   3
TORSDOF 12
ENDMDL
MODEL      374
REMARK 921   NORMALIZED FREE ENERGY PREDICTED BY IDOCK:   -1.80 KCAL/MOL
REMARK 922        TOTAL FREE ENERGY PREDICTED BY IDOCK:   -5.90 KCAL/MOL
REMARK 923 INTER-LIGAND FREE ENERGY PREDICTED BY IDOCK:   -5.61 KCAL/MOL
REMARK 924 INTRA-LIGAND FREE ENERGY PREDICTED BY IDOCK:   -0.30 KCAL/MOL
REMARK 927      BINDING AFFINITY PREDICTED BY RF-SCORE:    0.00 PKD
ROOT
HETATM    1  C   UNL     1      -8.255  19.586  69.763  1.00  0.00     0.546 C  
HETATM    2  C   UNL     1      -6.830  19.723  69.262  1.00  0.00    -0.335 C  
ENDROOT
BRANCH   2   3
HETATM    3  N   UNL     1      -6.456  18.617  68.411  1.00  0.00    -0.221 N  
HETATM    4  C   UNL     1      -6.247  18.797  67.062  1.00  0.00    -0.178 C  
HETATM    5  H   UNL     1      -6.346  17.687  68.815  1.00  0.00     0.000 HD 
HETATM    6  O   UNL     1      -6.370  19.879  66.501  1.00  0.00    -0.182 OA 
BRANCH   4   7
HETATM    7  C   UNL     1      -5.836  17.528  66.343  1.00  0.00    -0.245 C  
BRANCH   7   8
HETATM    8  C   UNL     1      -6.730  16.352  66.748  1.00  0.00    -0.144 C  
BRANCH   8   9
HETATM    9  C   UNL     1      -6.642  16.001  68.232  1.00  0.00    -0.121 C  
BRANCH   9  10
HETATM   10  C   UNL     1      -6.218  14.577  68.455  1.00  0.00    -0.103 C  
HETATM   11  C   UNL     1      -6.835  13.469  68.016  1.00  0.00    -0.136 C  
BRANCH  11  12
HETATM   12  C   UNL     1      -8.114  13.400  67.228  1.00  0.00    -0.147 C  
BRANCH  12  13
HETATM   13  C   UNL     1      -9.373  13.379  68.107  1.00  0.00    -0.217 C  
HETATM   14  C   UNL     1     -10.388  14.494  67.816  1.00  0.00    -0.237 C  
HETATM   15  C   UNL     1     -11.695  13.933  68.360  1.00  0.00    -0.391 C  
HETATM   16  O   UNL     1     -10.543  14.715  66.419  1.00  0.00    -0.290 OA 
HETATM   17  H   UNL     1     -11.170  15.405  66.239  1.00  0.00     0.000 HD 
HETATM   18  C   UNL     1     -11.665  12.473  67.916  1.00  0.00    -0.359 C  
HETATM   19  O   UNL     1     -12.214  12.357  66.602  1.00  0.00    -0.562 OA 
HETATM   20  C   UNL     1     -10.174  12.067  67.886  1.00  0.00    -0.203 C  
HETATM   21  H   UNL     1     -12.195  11.448  66.326  1.00  0.00     0.000 HD 
BRANCH  20  22
HETATM   22  C   UNL     1      -9.856  11.028  68.939  1.00  0.00    -0.189 C  
HETATM   23  C   UNL     1      -8.790  10.212  68.873  1.00  0.00    -0.154 C  
BRANCH  23  24
HETATM   24  C   UNL     1      -8.438   9.090  69.816  1.00  0.00    -0.132 C  
HETATM   25  H   UNL     1      -7.914   8.898  71.703  1.00  0.00     0.000 HD 
HETATM   26  O   UNL     1      -8.136   9.606  71.109  1.00  0.00    -0.259 OA 
BRANCH  24  27
HETATM   27  C   UNL     1      -9.566   8.063  69.976  1.00  0.00    -0.171 C  
BRANCH  27  28
HETATM   28  C   UNL     1      -9.069   6.619  70.091  1.00  0.00    -0.155 C  
BRANCH  28  29
HETATM   29  C   UNL     1      -9.211   6.099  71.500  1.00  0.00    -0.152 A  
HETATM   30  C   UNL     1     -10.116   5.068  71.784  1.00  0.00    -0.262 A  
HETATM   31  C   UNL     1     -10.283   4.614  73.093  1.00  0.00    -0.220 A  
HETATM   32  C   UNL     1      -9.547   5.188  74.128  1.00  0.00    -0.144 A  
HETATM   33  C   UNL     1      -8.641   6.211  73.854  1.00  0.00    -0.119 A  
HETATM   34  C   UNL     1      -8.473   6.667  72.547  1.00  0.00    -0.123 A  
ENDBRANCH  28  29
ENDBRANCH  27  28
ENDBRANCH  24  27
ENDBRANCH  23  24
ENDBRANCH  20  22
ENDBRANCH  12  13
ENDBRANCH  11  12
ENDBRANCH   9  10
ENDBRANCH   8   9
ENDBRANCH   7   8
ENDBRANCH   4   7
ENDBRANCH   2   3
TORSDOF 12
ENDMDL
MODEL      375
REMARK 921   NORMALIZED FREE ENERGY PREDICTED BY IDOCK:   -1.71 KCAL/MOL
REMARK 922        TOTAL FREE ENERGY PREDICTED BY IDOCK:   -5.74 KCAL/MOL
REMARK 923 INTER-LIGAND FREE ENERGY PREDICTED BY IDOCK:   -5.45 KCAL/MOL
REMARK 924 INTRA-LIGAND FREE ENERGY PREDICTED BY IDOCK:   -0.29 KCAL/MOL
REMARK 927      BINDING AFFINITY PREDICTED BY RF-SCORE:    0.00 PKD
ROOT
HETATM    1  C   UNL     1      -5.665   7.330  71.648  1.00  0.00    -0.036 C  
HETATM    2  C   UNL     1      -5.224   6.319  70.606  1.00  0.00    -0.014 C  
ENDROOT
BRANCH   2   3
HETATM    3  N   UNL     1      -6.269   6.056  69.643  1.00  0.00    -0.029 N  
HETATM    4  C   UNL     1      -6.129   5.068  68.694  1.00  0.00    -0.030 C  
HETATM    5  H   UNL     1      -7.125   6.611  69.667  1.00  0.00     0.000 HD 
HETATM    6  O   UNL     1      -5.129   4.368  68.595  1.00  0.00     0.000 OA 
BRANCH   4   7
HETATM    7  C   UNL     1      -7.339   4.925  67.793  1.00  0.00    -0.074 C  
BRANCH   7   8
HETATM    8  C   UNL     1      -7.814   6.290  67.288  1.00  0.00    -0.108 C  
BRANCH   8   9
HETATM    9  C   UNL     1      -8.984   6.864  68.085  1.00  0.00    -0.123 C  
BRANCH   9  10
HETATM   10  C   UNL     1      -9.678   5.817  68.909  1.00  0.00    -0.174 C  
HETATM   11  C   UNL     1     -10.908   5.887  69.443  1.00  0.00    -0.422 C  
BRANCH  11  12
HETATM   12  C   UNL     1     -11.860   7.048  69.364  1.00  0.00     0.305 C  
BRANCH  12  13
HETATM   13  C   UNL     1     -11.707   8.043  70.522  1.00  0.00    -0.080 C  
HETATM   14  C   UNL     1     -11.918   7.450  71.923  1.00  0.00    -0.302 C  
HETATM   15  C   UNL     1     -11.179   8.421  72.833  1.00  0.00    -0.047 C  
HETATM   16  O   UNL     1     -11.312   6.168  72.048  1.00  0.00    -0.269 OA 
HETATM   17  H   UNL     1     -11.442   5.801  72.915  1.00  0.00     0.000 HD 
HETATM   18  C   UNL     1      -9.897   8.723  72.062  1.00  0.00    -0.306 C  
HETATM   19  O   UNL     1      -8.904   7.744  72.374  1.00  0.00    -0.122 OA 
HETATM   20  C   UNL     1     -10.266   8.618  70.564  1.00  0.00    -0.229 C  
HETATM   21  H   UNL     1      -8.106   7.932  71.894  1.00  0.00     0.000 HD 
BRANCH  20  22
HETATM   22  C   UNL     1     -10.172   9.960  69.871  1.00  0.00    -0.298 C  
HETATM   23  C   UNL     1     -11.128  10.437  69.054  1.00  0.00    -0.297 C  
BRANCH  23  24
HETATM   24  C   UNL     1     -11.090  11.710  68.248  1.00  0.00    -0.234 C  
HETATM   25  H   UNL     1     -11.355  13.634  68.571  1.00  0.00     0.000 HD 
HETATM   26  O   UNL     1     -11.379  12.831  69.079  1.00  0.00    -0.264 OA 
BRANCH  24  27
HETATM   27  C   UNL     1      -9.729  11.961  67.585  1.00  0.00    -0.186 C  
BRANCH  27  28
HETATM   28  C   UNL     1      -9.563  11.247  66.241  1.00  0.00    -0.235 C  
BRANCH  28  29
HETATM   29  C   UNL     1     -10.551  11.755  65.221  1.00  0.00    -0.327 A  
HETATM   30  C   UNL     1     -11.279  12.927  65.467  1.00  0.00    -0.319 A  
HETATM   31  C   UNL     1     -12.226  13.377  64.547  1.00  0.00    -0.450 A  
HETATM   32  C   UNL     1     -12.455  12.659  63.375  1.00  0.00    -0.474 A  
HETATM   33  C   UNL     1     -11.733  11.494  63.120  1.00  0.00     0.022 A  
HETATM   34  C   UNL     1     -10.786  11.043  64.038  1.00  0.00    -0.331 A  
ENDBRANCH  28  29
ENDBRANCH  27  28
ENDBRANCH  24  27
ENDBRANCH  23  24
ENDBRANCH  20  22
ENDBRANCH  12  13
ENDBRANCH  11  12
ENDBRANCH   9  10
ENDBRANCH   8   9
ENDBRANCH   7   8
ENDBRANCH   4   7
ENDBRANCH   2   3
TORSDOF 12
ENDMDL
MODEL      376
REMARK 921   NORMALIZED FREE ENERGY PREDICTED BY IDOCK:   -1.63 KCAL/MOL
REMARK 922        TOTAL FREE ENERGY PREDICTED BY IDOCK:   -5.61 KCAL/MOL
REMARK 923 INTER-LIGAND FREE ENERGY PREDICTED BY IDOCK:   -4.24 KCAL/MOL
REMARK 924 INTRA-LIGAND FREE ENERGY PREDICTED BY IDOCK:   -1.37 KCAL/MOL
REMARK 927      BINDING AFFINITY PREDICTED BY RF-SCORE:    0.00 PKD
ROOT
HETATM    1  C   UNL     1      -6.023  14.497  73.541  1.00  0.00     0.287 C  
HETATM    2  C   UNL     1      -5.126  14.799  72.356  1.00  0.00    -0.159 C  
ENDROOT
BRANCH   2   3
HETATM    3  N   UNL     1      -5.760  14.446  71.105  1.00  0.00    -0.185 N  
HETATM    4  C   UNL     1      -5.877  13.131  70.716  1.00  0.00    -0.111 C  
HETATM    5  H   UNL     1      -6.125  15.183  70.502  1.00  0.00     0.000 HD 
HETATM    6  O   UNL     1      -5.455  12.193  71.380  1.00  0.00    -0.361 OA 
BRANCH   4   7
HETATM    7  C   UNL     1      -6.593  12.959  69.391  1.00  0.00    -0.062 C  
BRANCH   7   8
HETATM    8  C   UNL     1      -7.440  11.684  69.383  1.00  0.00     0.154 C  
BRANCH   8   9
HETATM    9  C   UNL     1      -8.637  11.751  68.435  1.00  0.00    -0.156 C  
BRANCH   9  10
HETATM   10  C   UNL     1      -8.431  12.747  67.330  1.00  0.00    -0.194 C  
HETATM   11  C   UNL     1      -9.318  13.114  66.392  1.00  0.00    -0.188 C  
BRANCH  11  12
HETATM   12  C   UNL     1     -10.714  12.583  66.214  1.00  0.00    -0.288 C  
BRANCH  12  13
HETATM   13  C   UNL     1     -10.827  11.511  65.122  1.00  0.00    -0.326 C  
HETATM   14  C   UNL     1     -11.341  12.015  63.765  1.00  0.00    -0.445 C  
HETATM   15  C   UNL     1     -10.826  10.972  62.783  1.00  0.00     0.607 C  
HETATM   16  O   UNL     1     -10.772  13.274  63.421  1.00  0.00    -0.403 OA 
HETATM   17  H   UNL     1     -11.090  13.586  62.582  1.00  0.00     0.000 HD 
HETATM   18  C   UNL     1      -9.406  10.697  63.270  1.00  0.00    -0.306 C  
HETATM   19  O   UNL     1      -8.503  11.634  62.679  1.00  0.00    -0.636 OA 
HETATM   20  C   UNL     1      -9.433  10.907  64.801  1.00  0.00    -0.279 C  
HETATM   21  H   UNL     1      -7.619  11.463  62.983  1.00  0.00     0.000 HD 
BRANCH  20  22
HETATM   22  C   UNL     1      -9.194   9.612  65.547  1.00  0.00    -0.291 C  
HETATM   23  C   UNL     1      -8.010   9.281  66.091  1.00  0.00    -0.107 C  
BRANCH  23  24
HETATM   24  C   UNL     1      -7.645   7.985  66.769  1.00  0.00    -0.094 C  
HETATM   25  H   UNL     1      -7.841   7.184  68.556  1.00  0.00     0.000 HD 
HETATM   26  O   UNL     1      -8.071   8.001  68.129  1.00  0.00    -0.125 OA 
BRANCH  24  27
HETATM   27  C   UNL     1      -8.276   6.758  66.098  1.00  0.00    -0.124 C  
BRANCH  27  28
HETATM   28  C   UNL     1      -7.378   5.518  66.124  1.00  0.00    -0.078 C  
BRANCH  28  29
HETATM   29  C   UNL     1      -7.435   4.770  64.816  1.00  0.00    -0.072 A  
HETATM   30  C   UNL     1      -7.364   5.465  63.602  1.00  0.00    -0.053 A  
HETATM   31  C   UNL     1      -7.460   4.783  62.389  1.00  0.00    -0.043 A  
HETATM   32  C   UNL     1      -7.629   3.400  62.379  1.00  0.00    -0.053 A  
HETATM   33  C   UNL     1      -7.697   2.699  63.582  1.00  0.00    -0.068 A  
HETATM   34  C   UNL     1      -7.601   3.379  64.796  1.00  0.00    -0.077 A  
ENDBRANCH  28  29
ENDBRANCH  27  28
ENDBRANCH  24  27
ENDBRANCH  23  24
ENDBRANCH  20  22
ENDBRANCH  12  13
ENDBRANCH  11  12
ENDBRANCH   9  10
ENDBRANCH   8   9
ENDBRANCH   7   8
ENDBRANCH   4   7
ENDBRANCH   2   3
TORSDOF 12
ENDMDL
MODEL      377
REMARK 921   NORMALIZED FREE ENERGY PREDICTED BY IDOCK:   -1.51 KCAL/MOL
REMARK 922        TOTAL FREE ENERGY PREDICTED BY IDOCK:   -5.41 KCAL/MOL
REMARK 923 INTER-LIGAND FREE ENERGY PREDICTED BY IDOCK:   -4.86 KCAL/MOL
REMARK 924 INTRA-LIGAND FREE ENERGY PREDICTED BY IDOCK:   -0.55 KCAL/MOL
REMARK 927      BINDING AFFINITY PREDICTED BY RF-SCORE:    0.00 PKD
ROOT
HETATM    1  C   UNL     1     -11.488  11.315  66.266  1.00  0.00     0.076 C  
HETATM    2  C   UNL     1     -11.135  11.924  64.923  1.00  0.00    -0.307 C  
ENDROOT
BRANCH   2   3
HETATM    3  N   UNL     1      -9.966  11.300  64.346  1.00  0.00    -0.267 N  
HETATM    4  C   UNL     1      -9.559  10.047  64.748  1.00  0.00    -0.308 C  
HETATM    5  H   UNL     1      -9.435  11.794  63.629  1.00  0.00     0.000 HD 
HETATM    6  O   UNL     1     -10.137   9.396  65.608  1.00  0.00    -0.261 OA 
BRANCH   4   7
HETATM    7  C   UNL     1      -8.331   9.550  64.011  1.00  0.00    -0.171 C  
BRANCH   7   8
HETATM    8  C   UNL     1      -7.366   8.841  64.964  1.00  0.00    -0.089 C  
BRANCH   8   9
HETATM    9  C   UNL     1      -6.870   9.730  66.104  1.00  0.00    -0.090 C  
BRANCH   9  10
HETATM   10  C   UNL     1      -7.074   9.093  67.450  1.00  0.00    -0.079 C  
HETATM   11  C   UNL     1      -7.227   7.786  67.714  1.00  0.00    -0.094 C  
BRANCH  11  12
HETATM   12  C   UNL     1      -7.262   6.662  66.715  1.00  0.00    -0.077 C  
BRANCH  12  13
HETATM   13  C   UNL     1      -8.367   5.633  66.991  1.00  0.00    -0.107 C  
HETATM   14  C   UNL     1      -9.523   5.633  65.980  1.00  0.00    -0.110 C  
HETATM   15  C   UNL     1     -10.122   4.241  66.128  1.00  0.00    -0.210 C  
HETATM   16  O   UNL     1      -9.054   5.779  64.644  1.00  0.00    -0.353 OA 
HETATM   17  H   UNL     1      -9.769   5.779  64.018  1.00  0.00     0.000 HD 
HETATM   18  C   UNL     1      -8.896   3.339  66.240  1.00  0.00    -0.140 C  
HETATM   19  O   UNL     1      -8.453   2.961  64.934  1.00  0.00    -0.093 OA 
HETATM   20  C   UNL     1      -7.802   4.189  66.925  1.00  0.00    -0.097 C  
HETATM   21  H   UNL     1      -7.690   2.399  65.004  1.00  0.00     0.000 HD 
BRANCH  20  22
HETATM   22  C   UNL     1      -7.457   3.654  68.298  1.00  0.00    -0.057 C  
HETATM   23  C   UNL     1      -8.054   4.077  69.426  1.00  0.00    -0.061 C  
BRANCH  23  24
HETATM   24  C   UNL     1      -7.722   3.678  70.841  1.00  0.00    -0.047 C  
HETATM   25  H   UNL     1      -6.170   2.955  71.813  1.00  0.00     0.000 HD 
HETATM   26  O   UNL     1      -6.379   3.206  70.920  1.00  0.00    -0.022 OA 
BRANCH  24  27
HETATM   27  C   UNL     1      -7.869   4.832  71.841  1.00  0.00    -0.100 C  
BRANCH  27  28
HETATM   28  C   UNL     1      -8.224   6.169  71.185  1.00  0.00    -0.123 C  
BRANCH  28  29
HETATM   29  C   UNL     1      -9.706   6.439  71.252  1.00  0.00    -0.189 A  
HETATM   30  C   UNL     1     -10.495   6.337  70.098  1.00  0.00    -0.278 A  
HETATM   31  C   UNL     1     -11.858   6.629  70.145  1.00  0.00    -0.347 A  
HETATM   32  C   UNL     1     -12.444   7.025  71.346  1.00  0.00    -0.426 A  
HETATM   33  C   UNL     1     -11.669   7.126  72.500  1.00  0.00    -0.220 A  
HETATM   34  C   UNL     1     -10.305   6.835  72.454  1.00  0.00    -0.218 A  
ENDBRANCH  28  29
ENDBRANCH  27  28
ENDBRANCH  24  27
ENDBRANCH  23  24
ENDBRANCH  20  22
ENDBRANCH  12  13
ENDBRANCH  11  12
ENDBRANCH   9  10
ENDBRANCH   8   9
ENDBRANCH   7   8
ENDBRANCH   4   7
ENDBRANCH   2   3
TORSDOF 12
ENDMDL
MODEL      378
REMARK 921   NORMALIZED FREE ENERGY PREDICTED BY IDOCK:   -1.35 KCAL/MOL
REMARK 922        TOTAL FREE ENERGY PREDICTED BY IDOCK:   -5.13 KCAL/MOL
REMARK 923 INTER-LIGAND FREE ENERGY PREDICTED BY IDOCK:   -4.12 KCAL/MOL
REMARK 924 INTRA-LIGAND FREE ENERGY PREDICTED BY IDOCK:   -1.01 KCAL/MOL
REMARK 927      BINDING AFFINITY PREDICTED BY RF-SCORE:    0.00 PKD
ROOT
HETATM    1  C   UNL     1      -5.665   7.330  71.648  1.00  0.00    -0.036 C  
HETATM    2  C   UNL     1      -5.224   6.319  70.606  1.00  0.00    -0.014 C  
ENDROOT
BRANCH   2   3
HETATM    3  N   UNL     1      -6.269   6.056  69.643  1.00  0.00    -0.029 N  
HETATM    4  C   UNL     1      -6.129   5.068  68.694  1.00  0.00    -0.030 C  
HETATM    5  H   UNL     1      -7.125   6.611  69.667  1.00  0.00     0.000 HD 
HETATM    6  O   UNL     1      -5.129   4.368  68.595  1.00  0.00     0.000 OA 
BRANCH   4   7
HETATM    7  C   UNL     1      -7.339   4.925  67.793  1.00  0.00    -0.074 C  
BRANCH   7   8
HETATM    8  C   UNL     1      -7.814   6.290  67.288  1.00  0.00    -0.108 C  
BRANCH   8   9
HETATM    9  C   UNL     1      -8.984   6.864  68.085  1.00  0.00    -0.123 C  
BRANCH   9  10
HETATM   10  C   UNL     1      -9.678   5.817  68.909  1.00  0.00    -0.174 C  
HETATM   11  C   UNL     1     -10.908   5.887  69.443  1.00  0.00    -0.422 C  
BRANCH  11  12
HETATM   12  C   UNL     1     -11.860   7.048  69.364  1.00  0.00     0.305 C  
BRANCH  12  13
HETATM   13  C   UNL     1     -11.707   8.043  70.522  1.00  0.00    -0.080 C  
HETATM   14  C   UNL     1     -11.918   7.450  71.923  1.00  0.00    -0.302 C  
HETATM   15  C   UNL     1     -11.179   8.421  72.833  1.00  0.00    -0.047 C  
HETATM   16  O   UNL     1     -11.312   6.168  72.048  1.00  0.00    -0.269 OA 
HETATM   17  H   UNL     1     -11.442   5.801  72.915  1.00  0.00     0.000 HD 
HETATM   18  C   UNL     1      -9.897   8.723  72.062  1.00  0.00    -0.306 C  
HETATM   19  O   UNL     1      -8.904   7.744  72.374  1.00  0.00    -0.122 OA 
HETATM   20  C   UNL     1     -10.266   8.618  70.564  1.00  0.00    -0.229 C  
HETATM   21  H   UNL     1      -8.106   7.932  71.894  1.00  0.00     0.000 HD 
BRANCH  20  22
HETATM   22  C   UNL     1     -10.172   9.960  69.871  1.00  0.00    -0.298 C  
HETATM   23  C   UNL     1     -11.128  10.437  69.054  1.00  0.00    -0.297 C  
BRANCH  23  24
HETATM   24  C   UNL     1     -11.090  11.710  68.248  1.00  0.00    -0.234 C  
HETATM   25  H   UNL     1     -11.355  13.634  68.571  1.00  0.00     0.000 HD 
HETATM   26  O   UNL     1     -11.379  12.831  69.079  1.00  0.00    -0.264 OA 
BRANCH  24  27
HETATM   27  C   UNL     1      -9.729  11.961  67.585  1.00  0.00    -0.186 C  
BRANCH  27  28
HETATM   28  C   UNL     1      -9.563  11.247  66.241  1.00  0.00    -0.235 C  
BRANCH  28  29
HETATM   29  C   UNL     1      -8.365  10.330  66.249  1.00  0.00    -0.134 A  
HETATM   30  C   UNL     1      -7.731  10.009  67.457  1.00  0.00    -0.091 A  
HETATM   31  C   UNL     1      -6.596   9.197  67.466  1.00  0.00    -0.065 A  
HETATM   32  C   UNL     1      -6.086   8.700  66.268  1.00  0.00    -0.055 A  
HETATM   33  C   UNL     1      -6.713   9.010  65.062  1.00  0.00    -0.069 A  
HETATM   34  C   UNL     1      -7.847   9.822  65.051  1.00  0.00    -0.128 A  
ENDBRANCH  28  29
ENDBRANCH  27  28
ENDBRANCH  24  27
ENDBRANCH  23  24
ENDBRANCH  20  22
ENDBRANCH  12  13
ENDBRANCH  11  12
ENDBRANCH   9  10
ENDBRANCH   8   9
ENDBRANCH   7   8
ENDBRANCH   4   7
ENDBRANCH   2   3
TORSDOF 12
ENDMDL
MODEL      379
REMARK 921   NORMALIZED FREE ENERGY PREDICTED BY IDOCK:   -1.26 KCAL/MOL
REMARK 922        TOTAL FREE ENERGY PREDICTED BY IDOCK:   -4.97 KCAL/MOL
REMARK 923 INTER-LIGAND FREE ENERGY PREDICTED BY IDOCK:   -2.72 KCAL/MOL
REMARK 924 INTRA-LIGAND FREE ENERGY PREDICTED BY IDOCK:   -2.25 KCAL/MOL
REMARK 927      BINDING AFFINITY PREDICTED BY RF-SCORE:    0.00 PKD
ROOT
HETATM    1  C   UNL     1     -10.484  11.935  67.826  1.00  0.00    -0.224 C  
HETATM    2  C   UNL     1      -9.836  11.839  66.457  1.00  0.00    -0.206 C  
ENDROOT
BRANCH   2   3
HETATM    3  N   UNL     1      -8.452  11.434  66.551  1.00  0.00    -0.171 N  
HETATM    4  C   UNL     1      -8.027  10.232  66.031  1.00  0.00    -0.138 C  
HETATM    5  H   UNL     1      -7.779  12.048  67.010  1.00  0.00     0.000 HD 
HETATM    6  O   UNL     1      -8.776   9.437  65.476  1.00  0.00    -0.143 OA 
BRANCH   4   7
HETATM    7  C   UNL     1      -6.540   9.996  66.202  1.00  0.00    -0.088 C  
BRANCH   7   8
HETATM    8  C   UNL     1      -6.270   8.925  67.263  1.00  0.00    -0.059 C  
BRANCH   8   9
HETATM    9  C   UNL     1      -6.122   9.488  68.675  1.00  0.00    -0.043 C  
BRANCH   9  10
HETATM   10  C   UNL     1      -7.258   9.082  69.570  1.00  0.00    -0.060 C  
HETATM   11  C   UNL     1      -7.845   7.877  69.640  1.00  0.00    -0.105 C  
BRANCH  11  12
HETATM   12  C   UNL     1      -7.519   6.665  68.811  1.00  0.00    -0.096 C  
BRANCH  12  13
HETATM   13  C   UNL     1      -8.757   5.865  68.385  1.00  0.00    -0.112 C  
HETATM   14  C   UNL     1      -9.442   6.359  67.102  1.00  0.00    -0.129 C  
HETATM   15  C   UNL     1     -10.208   5.136  66.616  1.00  0.00    -0.297 C  
HETATM   16  O   UNL     1      -8.493   6.720  66.104  1.00  0.00    -0.123 OA 
HETATM   17  H   UNL     1      -8.917   7.026  65.311  1.00  0.00     0.000 HD 
HETATM   18  C   UNL     1      -9.225   3.991  66.842  1.00  0.00    -0.167 C  
HETATM   19  O   UNL     1      -8.372   3.854  65.703  1.00  0.00    -0.107 OA 
HETATM   20  C   UNL     1      -8.377   4.392  68.071  1.00  0.00    -0.096 C  
HETATM   21  H   UNL     1      -7.760   3.141  65.844  1.00  0.00     0.000 HD 
BRANCH  20  22
HETATM   22  C   UNL     1      -8.635   3.479  69.250  1.00  0.00    -0.110 C  
HETATM   23  C   UNL     1      -9.739   3.553  70.013  1.00  0.00    -0.147 C  
BRANCH  23  24
HETATM   24  C   UNL     1     -10.047   2.757  71.255  1.00  0.00     0.213 C  
HETATM   25  H   UNL     1      -9.588   0.990  71.991  1.00  0.00     0.000 HD 
HETATM   26  O   UNL     1      -9.394   1.491  71.207  1.00  0.00    -0.082 OA 
BRANCH  24  27
HETATM   27  C   UNL     1      -9.603   3.461  72.544  1.00  0.00    -0.191 C  
BRANCH  27  28
HETATM   28  C   UNL     1      -8.767   4.720  72.298  1.00  0.00    -0.125 C  
BRANCH  28  29
HETATM   29  C   UNL     1      -9.541   5.969  72.638  1.00  0.00    -0.156 A  
HETATM   30  C   UNL     1      -8.865   7.142  72.998  1.00  0.00    -0.153 A  
HETATM   31  C   UNL     1      -9.577   8.287  73.357  1.00  0.00    -0.052 A  
HETATM   32  C   UNL     1     -10.970   8.269  73.361  1.00  0.00     0.767 A  
HETATM   33  C   UNL     1     -11.651   7.107  73.000  1.00  0.00    -0.009 A  
HETATM   34  C   UNL     1     -10.942   5.962  72.641  1.00  0.00    -0.305 A  
ENDBRANCH  28  29
ENDBRANCH  27  28
ENDBRANCH  24  27
ENDBRANCH  23  24
ENDBRANCH  20  22
ENDBRANCH  12  13
ENDBRANCH  11  12
ENDBRANCH   9  10
ENDBRANCH   8   9
ENDBRANCH   7   8
ENDBRANCH   4   7
ENDBRANCH   2   3
TORSDOF 12
ENDMDL
MODEL      380
REMARK 921   NORMALIZED FREE ENERGY PREDICTED BY IDOCK:   -1.23 KCAL/MOL
REMARK 922        TOTAL FREE ENERGY PREDICTED BY IDOCK:   -4.92 KCAL/MOL
REMARK 923 INTER-LIGAND FREE ENERGY PREDICTED BY IDOCK:   -4.80 KCAL/MOL
REMARK 924 INTRA-LIGAND FREE ENERGY PREDICTED BY IDOCK:   -0.12 KCAL/MOL
REMARK 927      BINDING AFFINITY PREDICTED BY RF-SCORE:    0.00 PKD
ROOT
HETATM    1  C   UNL     1     -10.440  15.612  69.462  1.00  0.00    -0.270 C  
HETATM    2  C   UNL     1     -11.012  14.618  68.469  1.00  0.00    -0.252 C  
ENDROOT
BRANCH   2   3
HETATM    3  N   UNL     1     -11.335  13.360  69.103  1.00  0.00    -0.273 N  
HETATM    4  C   UNL     1     -12.216  13.303  70.160  1.00  0.00    -0.306 C  
HETATM    5  H   UNL     1     -10.904  12.501  68.762  1.00  0.00     0.000 HD 
HETATM    6  O   UNL     1     -12.764  14.290  70.632  1.00  0.00    -0.334 OA 
BRANCH   4   7
HETATM    7  C   UNL     1     -12.448  11.895  70.672  1.00  0.00    -0.347 C  
BRANCH   7   8
HETATM    8  C   UNL     1     -12.145  10.858  69.588  1.00  0.00    -0.400 C  
BRANCH   8   9
HETATM    9  C   UNL     1     -11.404   9.627  70.110  1.00  0.00    -0.275 C  
BRANCH   9  10
HETATM   10  C   UNL     1     -10.147   9.992  70.847  1.00  0.00     0.245 C  
HETATM   11  C   UNL     1      -8.899   9.577  70.577  1.00  0.00    -0.253 C  
BRANCH  11  12
HETATM   12  C   UNL     1      -8.480   8.624  69.492  1.00  0.00    -0.129 C  
BRANCH  12  13
HETATM   13  C   UNL     1      -8.370   7.168  69.966  1.00  0.00    -0.138 C  
HETATM   14  C   UNL     1      -8.415   6.974  71.489  1.00  0.00    -0.116 C  
HETATM   15  C   UNL     1      -8.859   5.527  71.648  1.00  0.00    -0.141 C  
HETATM   16  O   UNL     1      -9.391   7.812  72.098  1.00  0.00    -0.138 OA 
HETATM   17  H   UNL     1      -9.419   7.693  73.040  1.00  0.00     0.000 HD 
HETATM   18  C   UNL     1      -9.950   5.373  70.592  1.00  0.00    -0.214 C  
HETATM   19  O   UNL     1     -11.210   5.772  71.137  1.00  0.00    -0.241 OA 
HETATM   20  C   UNL     1      -9.565   6.328  69.440  1.00  0.00    -0.157 C  
HETATM   21  H   UNL     1     -11.889   5.677  70.480  1.00  0.00     0.000 HD 
BRANCH  20  22
HETATM   22  C   UNL     1      -9.209   5.569  68.180  1.00  0.00    -0.116 C  
HETATM   23  C   UNL     1     -10.053   4.720  67.567  1.00  0.00    -0.161 C  
BRANCH  23  24
HETATM   24  C   UNL     1      -9.765   3.851  66.369  1.00  0.00    -0.162 C  
HETATM   25  H   UNL     1      -9.878   4.007  64.410  1.00  0.00     0.000 HD 
HETATM   26  O   UNL     1     -10.059   4.555  65.165  1.00  0.00    -0.184 OA 
BRANCH  24  27
HETATM   27  C   UNL     1      -8.303   3.394  66.295  1.00  0.00    -0.103 C  
BRANCH  27  28
HETATM   28  C   UNL     1      -8.046   2.051  66.985  1.00  0.00    -0.072 C  
BRANCH  28  29
HETATM   29  C   UNL     1      -7.656   2.240  68.430  1.00  0.00    -0.050 A  
HETATM   30  C   UNL     1      -8.453   1.705  69.451  1.00  0.00    -0.080 A  
HETATM   31  C   UNL     1      -8.121   1.915  70.789  1.00  0.00    -0.052 A  
HETATM   32  C   UNL     1      -6.991   2.660  71.119  1.00  0.00    -0.032 A  
HETATM   33  C   UNL     1      -6.190   3.192  70.109  1.00  0.00    -0.024 A  
HETATM   34  C   UNL     1      -6.520   2.984  68.770  1.00  0.00    -0.029 A  
ENDBRANCH  28  29
ENDBRANCH  27  28
ENDBRANCH  24  27
ENDBRANCH  23  24
ENDBRANCH  20  22
ENDBRANCH  12  13
ENDBRANCH  11  12
ENDBRANCH   9  10
ENDBRANCH   8   9
ENDBRANCH   7   8
ENDBRANCH   4   7
ENDBRANCH   2   3
TORSDOF 12
ENDMDL
MODEL      381
REMARK 921   NORMALIZED FREE ENERGY PREDICTED BY IDOCK:   -1.03 KCAL/MOL
REMARK 922        TOTAL FREE ENERGY PREDICTED BY IDOCK:   -4.58 KCAL/MOL
REMARK 923 INTER-LIGAND FREE ENERGY PREDICTED BY IDOCK:   -4.67 KCAL/MOL
REMARK 924 INTRA-LIGAND FREE ENERGY PREDICTED BY IDOCK:    0.09 KCAL/MOL
REMARK 927      BINDING AFFINITY PREDICTED BY RF-SCORE:    0.00 PKD
ROOT
HETATM    1  C   UNL     1      -9.423   2.082  64.116  1.00  0.00    -0.131 C  
HETATM    2  C   UNL     1      -9.492   3.473  64.719  1.00  0.00    -0.157 C  
ENDROOT
BRANCH   2   3
HETATM    3  N   UNL     1      -9.123   3.465  66.117  1.00  0.00    -0.146 N  
HETATM    4  C   UNL     1      -7.821   3.242  66.507  1.00  0.00    -0.081 C  
HETATM    5  H   UNL     1      -9.838   3.628  66.826  1.00  0.00     0.000 HD 
HETATM    6  O   UNL     1      -6.910   3.028  65.717  1.00  0.00    -0.046 OA 
BRANCH   4   7
HETATM    7  C   UNL     1      -7.627   3.299  68.009  1.00  0.00    -0.060 C  
BRANCH   7   8
HETATM    8  C   UNL     1      -7.385   4.736  68.479  1.00  0.00    -0.065 C  
BRANCH   8   9
HETATM    9  C   UNL     1      -6.937   4.835  69.936  1.00  0.00    -0.052 C  
BRANCH   9  10
HETATM   10  C   UNL     1      -8.092   4.748  70.893  1.00  0.00    -0.083 C  
HETATM   11  C   UNL     1      -9.356   5.146  70.677  1.00  0.00    -0.211 C  
BRANCH  11  12
HETATM   12  C   UNL     1      -9.896   5.802  69.436  1.00  0.00    -0.219 C  
BRANCH  12  13
HETATM   13  C   UNL     1     -10.856   6.964  69.728  1.00  0.00    -0.295 C  
HETATM   14  C   UNL     1     -11.385   7.025  71.168  1.00  0.00    -0.282 C  
HETATM   15  C   UNL     1     -11.796   8.482  71.332  1.00  0.00    -0.345 C  
HETATM   16  O   UNL     1     -10.364   6.737  72.117  1.00  0.00    -0.198 OA 
HETATM   17  H   UNL     1     -10.692   6.775  73.008  1.00  0.00     0.000 HD 
HETATM   18  C   UNL     1     -10.662   9.247  70.655  1.00  0.00    -0.269 C  
HETATM   19  O   UNL     1      -9.610   9.484  71.593  1.00  0.00    -0.233 OA 
HETATM   20  C   UNL     1     -10.143   8.329  69.525  1.00  0.00    -0.197 C  
HETATM   21  H   UNL     1      -8.905   9.960  71.171  1.00  0.00     0.000 HD 
BRANCH  20  22
HETATM   22  C   UNL     1     -10.421   8.913  68.157  1.00  0.00    -0.254 C  
HETATM   23  C   UNL     1      -9.676   8.640  67.072  1.00  0.00    -0.262 C  
BRANCH  23  24
HETATM   24  C   UNL     1      -9.813   9.238  65.695  1.00  0.00    -0.167 C  
HETATM   25  H   UNL     1     -10.281  10.984  64.917  1.00  0.00     0.000 HD 
HETATM   26  O   UNL     1     -10.195  10.608  65.786  1.00  0.00    -0.253 OA 
BRANCH  24  27
HETATM   27  C   UNL     1      -8.516   9.169  64.879  1.00  0.00    -0.191 C  
BRANCH  27  28
HETATM   28  C   UNL     1      -7.404   8.368  65.563  1.00  0.00    -0.083 C  
BRANCH  28  29
HETATM   29  C   UNL     1      -6.637   9.219  66.545  1.00  0.00    -0.067 A  
HETATM   30  C   UNL     1      -6.092   8.645  67.701  1.00  0.00    -0.048 A  
HETATM   31  C   UNL     1      -5.421   9.436  68.634  1.00  0.00    -0.037 A  
HETATM   32  C   UNL     1      -5.289  10.806  68.419  1.00  0.00    -0.040 A  
HETATM   33  C   UNL     1      -5.824  11.385  67.270  1.00  0.00    -0.080 A  
HETATM   34  C   UNL     1      -6.496  10.597  66.336  1.00  0.00    -0.117 A  
ENDBRANCH  28  29
ENDBRANCH  27  28
ENDBRANCH  24  27
ENDBRANCH  23  24
ENDBRANCH  20  22
ENDBRANCH  12  13
ENDBRANCH  11  12
ENDBRANCH   9  10
ENDBRANCH   8   9
ENDBRANCH   7   8
ENDBRANCH   4   7
ENDBRANCH   2   3
TORSDOF 12
ENDMDL
MODEL      382
REMARK 921   NORMALIZED FREE ENERGY PREDICTED BY IDOCK:   -1.01 KCAL/MOL
REMARK 922        TOTAL FREE ENERGY PREDICTED BY IDOCK:   -4.55 KCAL/MOL
REMARK 923 INTER-LIGAND FREE ENERGY PREDICTED BY IDOCK:   -2.95 KCAL/MOL
REMARK 924 INTRA-LIGAND FREE ENERGY PREDICTED BY IDOCK:   -1.61 KCAL/MOL
REMARK 927      BINDING AFFINITY PREDICTED BY RF-SCORE:    0.00 PKD
ROOT
HETATM    1  C   UNL     1      -5.127  12.184  67.321  1.00  0.00    -0.099 C  
HETATM    2  C   UNL     1      -6.062  11.521  68.315  1.00  0.00    -0.045 C  
ENDROOT
BRANCH   2   3
HETATM    3  N   UNL     1      -6.317  10.142  67.968  1.00  0.00    -0.057 N  
HETATM    4  C   UNL     1      -6.574   9.773  66.666  1.00  0.00    -0.071 C  
HETATM    5  H   UNL     1      -6.306   9.430  68.698  1.00  0.00     0.000 HD 
HETATM    6  O   UNL     1      -6.615  10.570  65.737  1.00  0.00    -0.118 OA 
BRANCH   4   7
HETATM    7  C   UNL     1      -6.789   8.282  66.496  1.00  0.00    -0.067 C  
BRANCH   7   8
HETATM    8  C   UNL     1      -7.331   7.653  67.782  1.00  0.00    -0.099 C  
BRANCH   8   9
HETATM    9  C   UNL     1      -6.244   7.066  68.681  1.00  0.00    -0.027 C  
BRANCH   9  10
HETATM   10  C   UNL     1      -6.398   7.495  70.113  1.00  0.00    -0.034 C  
HETATM   11  C   UNL     1      -6.150   6.763  71.211  1.00  0.00    -0.037 C  
BRANCH  11  12
HETATM   12  C   UNL     1      -5.692   5.332  71.256  1.00  0.00    -0.016 C  
BRANCH  12  13
HETATM   13  C   UNL     1      -6.735   4.339  70.724  1.00  0.00    -0.035 C  
HETATM   14  C   UNL     1      -6.458   2.865  71.054  1.00  0.00    -0.023 C  
HETATM   15  C   UNL     1      -7.831   2.215  70.947  1.00  0.00    -0.040 C  
HETATM   16  O   UNL     1      -5.989   2.703  72.388  1.00  0.00    -0.008 OA 
HETATM   17  H   UNL     1      -5.818   1.791  72.593  1.00  0.00     0.000 HD 
HETATM   18  C   UNL     1      -8.756   3.229  71.615  1.00  0.00    -0.081 C  
HETATM   19  O   UNL     1      -8.801   2.986  73.023  1.00  0.00    -0.079 OA 
HETATM   20  C   UNL     1      -8.127   4.616  71.354  1.00  0.00    -0.101 C  
HETATM   21  H   UNL     1      -9.376   3.618  73.439  1.00  0.00     0.000 HD 
BRANCH  20  22
HETATM   22  C   UNL     1      -8.997   5.463  70.451  1.00  0.00    -0.155 C  
HETATM   23  C   UNL     1     -10.305   5.678  70.675  1.00  0.00    -0.320 C  
BRANCH  23  24
HETATM   24  C   UNL     1     -11.273   6.423  69.794  1.00  0.00    -0.419 C  
HETATM   25  H   UNL     1     -11.785   8.296  69.469  1.00  0.00     0.000 HD 
HETATM   26  O   UNL     1     -11.175   7.826  70.025  1.00  0.00    -0.224 OA 
BRANCH  24  27
HETATM   27  C   UNL     1     -11.034   6.180  68.298  1.00  0.00    -0.397 C  
BRANCH  27  28
HETATM   28  C   UNL     1     -10.635   4.739  67.968  1.00  0.00     0.272 C  
BRANCH  28  29
HETATM   29  C   UNL     1      -9.478   4.696  67.001  1.00  0.00    -0.175 A  
HETATM   30  C   UNL     1      -8.375   3.870  67.257  1.00  0.00    -0.099 A  
HETATM   31  C   UNL     1      -7.283   3.860  66.389  1.00  0.00    -0.064 A  
HETATM   32  C   UNL     1      -7.284   4.675  65.259  1.00  0.00    -0.068 A  
HETATM   33  C   UNL     1      -8.379   5.496  64.994  1.00  0.00    -0.146 A  
HETATM   34  C   UNL     1      -9.472   5.508  65.860  1.00  0.00    -0.115 A  
ENDBRANCH  28  29
ENDBRANCH  27  28
ENDBRANCH  24  27
ENDBRANCH  23  24
ENDBRANCH  20  22
ENDBRANCH  12  13
ENDBRANCH  11  12
ENDBRANCH   9  10
ENDBRANCH   8   9
ENDBRANCH   7   8
ENDBRANCH   4   7
ENDBRANCH   2   3
TORSDOF 12
ENDMDL
MODEL      383
REMARK 921   NORMALIZED FREE ENERGY PREDICTED BY IDOCK:   -0.82 KCAL/MOL
REMARK 922        TOTAL FREE ENERGY PREDICTED BY IDOCK:   -4.23 KCAL/MOL
REMARK 923 INTER-LIGAND FREE ENERGY PREDICTED BY IDOCK:   -3.82 KCAL/MOL
REMARK 924 INTRA-LIGAND FREE ENERGY PREDICTED BY IDOCK:   -0.41 KCAL/MOL
REMARK 927      BINDING AFFINITY PREDICTED BY RF-SCORE:    0.00 PKD
ROOT
HETATM    1  C   UNL     1      -9.416   2.198  64.139  1.00  0.00    -0.131 C  
HETATM    2  C   UNL     1      -9.747   3.676  64.227  1.00  0.00    -0.175 C  
ENDROOT
BRANCH   2   3
HETATM    3  N   UNL     1      -9.616   4.171  65.579  1.00  0.00    -0.174 N  
HETATM    4  C   UNL     1      -8.379   4.313  66.167  1.00  0.00    -0.109 C  
HETATM    5  H   UNL     1     -10.454   4.417  66.106  1.00  0.00     0.000 HD 
HETATM    6  O   UNL     1      -7.330   4.029  65.603  1.00  0.00    -0.074 OA 
BRANCH   4   7
HETATM    7  C   UNL     1      -8.445   4.870  67.575  1.00  0.00    -0.104 C  
BRANCH   7   8
HETATM    8  C   UNL     1      -8.407   6.400  67.565  1.00  0.00    -0.117 C  
BRANCH   8   9
HETATM    9  C   UNL     1      -8.184   7.016  68.946  1.00  0.00    -0.122 C  
BRANCH   9  10
HETATM   10  C   UNL     1      -9.458   7.115  69.736  1.00  0.00    -0.149 C  
HETATM   11  C   UNL     1     -10.642   7.582  69.310  1.00  0.00    -0.215 C  
BRANCH  11  12
HETATM   12  C   UNL     1     -10.954   8.145  67.950  1.00  0.00     0.098 C  
BRANCH  12  13
HETATM   13  C   UNL     1     -11.013   9.678  67.922  1.00  0.00    -0.205 C  
HETATM   14  C   UNL     1     -11.437  10.338  69.243  1.00  0.00    -0.160 C  
HETATM   15  C   UNL     1     -10.877  11.749  69.129  1.00  0.00    -0.221 C  
HETATM   16  O   UNL     1     -10.832   9.705  70.365  1.00  0.00    -0.248 OA 
HETATM   17  H   UNL     1     -11.095  10.112  71.182  1.00  0.00     0.000 HD 
HETATM   18  C   UNL     1      -9.493  11.532  68.523  1.00  0.00    -0.174 C  
HETATM   19  O   UNL     1      -8.543  11.287  69.563  1.00  0.00    -0.327 OA 
HETATM   20  C   UNL     1      -9.610  10.276  67.631  1.00  0.00    -0.173 C  
HETATM   21  H   UNL     1      -7.682  11.152  69.186  1.00  0.00     0.000 HD 
BRANCH  20  22
HETATM   22  C   UNL     1      -9.433  10.613  66.166  1.00  0.00    -0.218 C  
HETATM   23  C   UNL     1      -8.884   9.769  65.275  1.00  0.00    -0.206 C  
BRANCH  23  24
HETATM   24  C   UNL     1      -8.580  10.041  63.824  1.00  0.00    -0.198 C  
HETATM   25  H   UNL     1      -8.701  11.565  62.583  1.00  0.00     0.000 HD 
HETATM   26  O   UNL     1      -8.892  11.393  63.498  1.00  0.00     0.010 OA 
BRANCH  24  27
HETATM   27  C   UNL     1      -7.109   9.803  63.463  1.00  0.00    -0.115 C  
BRANCH  27  28
HETATM   28  C   UNL     1      -6.358   8.945  64.486  1.00  0.00    -0.070 C  
BRANCH  28  29
HETATM   29  C   UNL     1      -6.030   9.733  65.730  1.00  0.00    -0.063 A  
HETATM   30  C   UNL     1      -6.023   9.104  66.982  1.00  0.00    -0.056 A  
HETATM   31  C   UNL     1      -5.763   9.837  68.140  1.00  0.00    -0.039 A  
HETATM   32  C   UNL     1      -5.509  11.205  68.056  1.00  0.00    -0.042 A  
HETATM   33  C   UNL     1      -5.510  11.838  66.814  1.00  0.00    -0.099 A  
HETATM   34  C   UNL     1      -5.770  11.107  65.655  1.00  0.00     0.053 A  
ENDBRANCH  28  29
ENDBRANCH  27  28
ENDBRANCH  24  27
ENDBRANCH  23  24
ENDBRANCH  20  22
ENDBRANCH  12  13
ENDBRANCH  11  12
ENDBRANCH   9  10
ENDBRANCH   8   9
ENDBRANCH   7   8
ENDBRANCH   4   7
ENDBRANCH   2   3
TORSDOF 12
ENDMDL
MODEL      384
REMARK 921   NORMALIZED FREE ENERGY PREDICTED BY IDOCK:   -0.32 KCAL/MOL
REMARK 922        TOTAL FREE ENERGY PREDICTED BY IDOCK:   -3.38 KCAL/MOL
REMARK 923 INTER-LIGAND FREE ENERGY PREDICTED BY IDOCK:   -3.27 KCAL/MOL
REMARK 924 INTRA-LIGAND FREE ENERGY PREDICTED BY IDOCK:   -0.11 KCAL/MOL
REMARK 927      BINDING AFFINITY PREDICTED BY RF-SCORE:    0.00 PKD
ROOT
HETATM    1  C   UNL     1      -8.193   3.021  68.450  1.00  0.00    -0.079 C  
HETATM    2  C   UNL     1      -9.358   3.575  67.651  1.00  0.00    -0.204 C  
ENDROOT
BRANCH   2   3
HETATM    3  N   UNL     1      -8.914   4.511  66.643  1.00  0.00    -0.112 N  
HETATM    4  C   UNL     1      -7.775   4.274  65.906  1.00  0.00    -0.090 C  
HETATM    5  H   UNL     1      -9.453   5.360  66.475  1.00  0.00     0.000 HD 
HETATM    6  O   UNL     1      -7.070   3.285  66.058  1.00  0.00    -0.060 OA 
BRANCH   4   7
HETATM    7  C   UNL     1      -7.488   5.354  64.882  1.00  0.00    -0.070 C  
BRANCH   7   8
HETATM    8  C   UNL     1      -6.001   5.717  64.866  1.00  0.00    -0.022 C  
BRANCH   8   9
HETATM    9  C   UNL     1      -5.729   7.163  64.455  1.00  0.00    -0.033 C  
BRANCH   9  10
HETATM   10  C   UNL     1      -6.730   7.668  63.456  1.00  0.00    -0.058 C  
HETATM   11  C   UNL     1      -7.412   8.823  63.503  1.00  0.00    -0.108 C  
BRANCH  11  12
HETATM   12  C   UNL     1      -7.351   9.864  64.587  1.00  0.00    -0.140 C  
BRANCH  12  13
HETATM   13  C   UNL     1      -8.367   9.631  65.715  1.00  0.00    -0.132 C  
HETATM   14  C   UNL     1      -9.834   9.868  65.327  1.00  0.00    -0.303 C  
HETATM   15  C   UNL     1     -10.607   9.055  66.357  1.00  0.00     0.043 C  
HETATM   16  O   UNL     1     -10.128   9.349  64.035  1.00  0.00     0.075 OA 
HETATM   17  H   UNL     1     -11.036   9.496  63.796  1.00  0.00     0.000 HD 
HETATM   18  C   UNL     1      -9.801   7.763  66.465  1.00  0.00    -0.185 C  
HETATM   19  O   UNL     1     -10.240   6.836  65.470  1.00  0.00     0.558 OA 
HETATM   20  C   UNL     1      -8.331   8.153  66.189  1.00  0.00    -0.126 C  
HETATM   21  H   UNL     1      -9.738   6.032  65.537  1.00  0.00     0.000 HD 
BRANCH  20  22
HETATM   22  C   UNL     1      -7.466   7.976  67.418  1.00  0.00    -0.093 C  
HETATM   23  C   UNL     1      -6.689   8.951  67.921  1.00  0.00    -0.069 C  
BRANCH  23  24
HETATM   24  C   UNL     1      -5.727   8.849  69.077  1.00  0.00    -0.040 C  
HETATM   25  H   UNL     1      -4.989  10.046  70.453  1.00  0.00     0.000 HD 
HETATM   26  O   UNL     1      -5.595  10.111  69.725  1.00  0.00    -0.037 OA 
BRANCH  24  27
HETATM   27  C   UNL     1      -6.165   7.827  70.134  1.00  0.00    -0.033 C  
BRANCH  27  28
HETATM   28  C   UNL     1      -6.727   8.465  71.407  1.00  0.00    -0.063 C  
BRANCH  28  29
HETATM   29  C   UNL     1      -8.196   8.775  71.265  1.00  0.00    -0.212 A  
HETATM   30  C   UNL     1      -8.656   9.532  70.180  1.00  0.00    -0.250 A  
HETATM   31  C   UNL     1     -10.008   9.858  70.068  1.00  0.00    -0.302 A  
HETATM   32  C   UNL     1     -10.910   9.431  71.040  1.00  0.00    -0.406 A  
HETATM   33  C   UNL     1     -10.463   8.674  72.121  1.00  0.00    -0.411 A  
HETATM   34  C   UNL     1      -9.112   8.347  72.235  1.00  0.00    -0.313 A  
ENDBRANCH  28  29
ENDBRANCH  27  28
ENDBRANCH  24  27
ENDBRANCH  23  24
ENDBRANCH  20  22
ENDBRANCH  12  13
ENDBRANCH  11  12
ENDBRANCH   9  10
ENDBRANCH   8   9
ENDBRANCH   7   8
ENDBRANCH   4   7
ENDBRANCH   2   3
TORSDOF 12
ENDMDL
MODEL      385
REMARK 921   NORMALIZED FREE ENERGY PREDICTED BY IDOCK:   -0.19 KCAL/MOL
REMARK 922        TOTAL FREE ENERGY PREDICTED BY IDOCK:   -3.16 KCAL/MOL
REMARK 923 INTER-LIGAND FREE ENERGY PREDICTED BY IDOCK:   -4.64 KCAL/MOL
REMARK 924 INTRA-LIGAND FREE ENERGY PREDICTED BY IDOCK:    1.47 KCAL/MOL
REMARK 927      BINDING AFFINITY PREDICTED BY RF-SCORE:    0.00 PKD
ROOT
HETATM    1  C   UNL     1      -7.580  19.557  68.821  1.00  0.00    -0.386 C  
HETATM    2  C   UNL     1      -7.101  19.707  67.389  1.00  0.00    -0.212 C  
ENDROOT
BRANCH   2   3
HETATM    3  N   UNL     1      -8.067  19.187  66.448  1.00  0.00    -0.298 N  
HETATM    4  C   UNL     1      -9.318  18.787  66.862  1.00  0.00    -0.300 C  
HETATM    5  H   UNL     1      -7.818  19.115  65.462  1.00  0.00     0.000 HD 
HETATM    6  O   UNL     1      -9.686  18.833  68.029  1.00  0.00    -0.299 OA 
BRANCH   4   7
HETATM    7  C   UNL     1     -10.197  18.297  65.729  1.00  0.00    -0.106 C  
BRANCH   7   8
HETATM    8  C   UNL     1     -11.116  17.165  66.195  1.00  0.00     0.405 C  
BRANCH   8   9
HETATM    9  C   UNL     1     -10.365  15.960  66.760  1.00  0.00    -0.298 C  
BRANCH   9  10
HETATM   10  C   UNL     1     -10.483  14.752  65.875  1.00  0.00    -0.324 C  
HETATM   11  C   UNL     1      -9.804  13.598  65.981  1.00  0.00    -0.290 C  
BRANCH  11  12
HETATM   12  C   UNL     1      -8.744  13.266  66.995  1.00  0.00    -0.192 C  
BRANCH  12  13
HETATM   13  C   UNL     1      -9.233  12.323  68.103  1.00  0.00    -0.197 C  
HETATM   14  C   UNL     1     -10.351  12.888  68.992  1.00  0.00     0.068 C  
HETATM   15  C   UNL     1     -11.009  11.642  69.567  1.00  0.00    -0.159 C  
HETATM   16  O   UNL     1     -11.322  13.597  68.231  1.00  0.00    -0.257 OA 
HETATM   17  H   UNL     1     -12.013  13.947  68.781  1.00  0.00     0.000 HD 
HETATM   18  C   UNL     1     -11.070  10.691  68.374  1.00  0.00    -0.272 C  
HETATM   19  O   UNL     1     -12.268  10.927  67.630  1.00  0.00    -0.293 OA 
HETATM   20  C   UNL     1      -9.845  11.033  67.495  1.00  0.00    -0.190 C  
HETATM   21  H   UNL     1     -12.305  10.335  66.887  1.00  0.00     0.000 HD 
BRANCH  20  22
HETATM   22  C   UNL     1      -8.847   9.896  67.462  1.00  0.00    -0.131 C  
HETATM   23  C   UNL     1      -9.006   8.754  68.154  1.00  0.00    -0.141 C  
BRANCH  23  24
HETATM   24  C   UNL     1      -8.033   7.607  68.261  1.00  0.00    -0.123 C  
HETATM   25  H   UNL     1      -7.770   5.851  67.412  1.00  0.00     0.000 HD 
HETATM   26  O   UNL     1      -8.383   6.574  67.344  1.00  0.00    -0.119 OA 
BRANCH  24  27
HETATM   27  C   UNL     1      -6.585   8.019  67.968  1.00  0.00    -0.057 C  
BRANCH  27  28
HETATM   28  C   UNL     1      -5.881   8.673  69.161  1.00  0.00    -0.039 C  
BRANCH  28  29
HETATM   29  C   UNL     1      -6.371   8.104  70.469  1.00  0.00    -0.036 A  
HETATM   30  C   UNL     1      -6.125   6.763  70.792  1.00  0.00    -0.028 A  
HETATM   31  C   UNL     1      -6.614   6.220  71.980  1.00  0.00    -0.059 A  
HETATM   32  C   UNL     1      -7.355   7.013  72.855  1.00  0.00    -0.073 A  
HETATM   33  C   UNL     1      -7.601   8.349  72.544  1.00  0.00    -0.134 A  
HETATM   34  C   UNL     1      -7.113   8.893  71.357  1.00  0.00    -0.096 A  
ENDBRANCH  28  29
ENDBRANCH  27  28
ENDBRANCH  24  27
ENDBRANCH  23  24
ENDBRANCH  20  22
ENDBRANCH  12  13
ENDBRANCH  11  12
ENDBRANCH   9  10
ENDBRANCH   8   9
ENDBRANCH   7   8
ENDBRANCH   4   7
ENDBRANCH   2   3
TORSDOF 12
ENDMDL
MODEL      386
REMARK 921   NORMALIZED FREE ENERGY PREDICTED BY IDOCK:   -0.12 KCAL/MOL
REMARK 922        TOTAL FREE ENERGY PREDICTED BY IDOCK:   -3.04 KCAL/MOL
REMARK 923 INTER-LIGAND FREE ENERGY PREDICTED BY IDOCK:   -2.02 KCAL/MOL
REMARK 924 INTRA-LIGAND FREE ENERGY PREDICTED BY IDOCK:   -1.01 KCAL/MOL
REMARK 927      BINDING AFFINITY PREDICTED BY RF-SCORE:    0.00 PKD
ROOT
HETATM    1  C   UNL     1      -5.594   7.340  71.668  1.00  0.00    -0.036 C  
HETATM    2  C   UNL     1      -5.184   6.289  70.654  1.00  0.00    -0.014 C  
ENDROOT
BRANCH   2   3
HETATM    3  N   UNL     1      -6.265   5.975  69.746  1.00  0.00    -0.026 N  
HETATM    4  C   UNL     1      -6.173   4.917  68.870  1.00  0.00    -0.031 C  
HETATM    5  H   UNL     1      -7.109   6.548  69.755  1.00  0.00     0.000 HD 
HETATM    6  O   UNL     1      -5.189   4.192  68.794  1.00  0.00    -0.010 OA 
BRANCH   4   7
HETATM    7  C   UNL     1      -7.414   4.731  68.021  1.00  0.00    -0.074 C  
BRANCH   7   8
HETATM    8  C   UNL     1      -8.254   6.010  67.985  1.00  0.00    -0.113 C  
BRANCH   8   9
HETATM    9  C   UNL     1      -9.217   6.143  69.165  1.00  0.00    -0.129 C  
BRANCH   9  10
HETATM   10  C   UNL     1      -9.384   4.848  69.909  1.00  0.00    -0.204 C  
HETATM   11  C   UNL     1     -10.448   4.458  70.629  1.00  0.00     0.234 C  
BRANCH  11  12
HETATM   12  C   UNL     1     -11.704   5.244  70.881  1.00  0.00     1.461 C  
BRANCH  12  13
HETATM   13  C   UNL     1     -11.637   6.116  72.143  1.00  0.00    -0.369 C  
HETATM   14  C   UNL     1     -11.486   5.342  73.461  1.00  0.00     0.076 C  
HETATM   15  C   UNL     1     -10.887   6.372  74.409  1.00  0.00     0.611 C  
HETATM   16  O   UNL     1     -10.567   4.262  73.335  1.00  0.00    -0.170 OA 
HETATM   17  H   UNL     1     -10.473   3.783  74.150  1.00  0.00     0.000 HD 
HETATM   18  C   UNL     1      -9.848   7.085  73.547  1.00  0.00    -0.259 C  
HETATM   19  O   UNL     1      -8.607   6.377  73.604  1.00  0.00    -0.122 OA 
HETATM   20  C   UNL     1     -10.394   7.045  72.101  1.00  0.00    -0.214 C  
HETATM   21  H   UNL     1      -7.961   6.821  73.067  1.00  0.00     0.000 HD 
BRANCH  20  22
HETATM   22  C   UNL     1     -10.741   8.430  71.598  1.00  0.00    -0.333 C  
HETATM   23  C   UNL     1     -11.984   8.793  71.235  1.00  0.00    -0.353 C  
BRANCH  23  24
HETATM   24  C   UNL     1     -12.414  10.109  70.638  1.00  0.00    -0.284 C  
HETATM   25  H   UNL     1     -13.630  11.582  71.111  1.00  0.00     0.000 HD 
HETATM   26  O   UNL     1     -13.360  10.753  71.487  1.00  0.00    -0.336 OA 
BRANCH  24  27
HETATM   27  C   UNL     1     -11.246  11.080  70.420  1.00  0.00    -0.102 C  
BRANCH  27  28
HETATM   28  C   UNL     1     -11.224  11.707  69.024  1.00  0.00    -0.323 C  
BRANCH  28  29
HETATM   29  C   UNL     1      -9.974  11.326  68.269  1.00  0.00    -0.201 A  
HETATM   30  C   UNL     1      -9.313  12.273  67.477  1.00  0.00    -0.183 A  
HETATM   31  C   UNL     1      -8.182  11.915  66.742  1.00  0.00    -0.129 A  
HETATM   32  C   UNL     1      -7.704  10.607  66.793  1.00  0.00    -0.127 A  
HETATM   33  C   UNL     1      -8.354   9.659  67.583  1.00  0.00    -0.121 A  
HETATM   34  C   UNL     1      -9.484  10.015  68.317  1.00  0.00    -0.147 A  
ENDBRANCH  28  29
ENDBRANCH  27  28
ENDBRANCH  24  27
ENDBRANCH  23  24
ENDBRANCH  20  22
ENDBRANCH  12  13
ENDBRANCH  11  12
ENDBRANCH   9  10
ENDBRANCH   8   9
ENDBRANCH   7   8
ENDBRANCH   4   7
ENDBRANCH   2   3
TORSDOF 12
ENDMDL
MODEL      387
REMARK 921   NORMALIZED FREE ENERGY PREDICTED BY IDOCK:   -0.11 KCAL/MOL
REMARK 922        TOTAL FREE ENERGY PREDICTED BY IDOCK:   -3.02 KCAL/MOL
REMARK 923 INTER-LIGAND FREE ENERGY PREDICTED BY IDOCK:   -4.50 KCAL/MOL
REMARK 924 INTRA-LIGAND FREE ENERGY PREDICTED BY IDOCK:    1.48 KCAL/MOL
REMARK 927      BINDING AFFINITY PREDICTED BY RF-SCORE:    0.00 PKD
ROOT
HETATM    1  C   UNL     1      -7.579  19.558  68.822  1.00  0.00    -0.386 C  
HETATM    2  C   UNL     1      -7.096  19.704  67.391  1.00  0.00    -0.212 C  
ENDROOT
BRANCH   2   3
HETATM    3  N   UNL     1      -8.049  19.158  66.451  1.00  0.00    -0.298 N  
HETATM    4  C   UNL     1      -9.292  18.735  66.864  1.00  0.00    -0.300 C  
HETATM    5  H   UNL     1      -7.795  19.086  65.465  1.00  0.00     0.000 HD 
HETATM    6  O   UNL     1      -9.665  18.780  68.029  1.00  0.00    -0.299 OA 
BRANCH   4   7
HETATM    7  C   UNL     1     -10.158  18.221  65.731  1.00  0.00    -0.022 C  
BRANCH   7   8
HETATM    8  C   UNL     1     -11.048  17.067  66.199  1.00  0.00     0.368 C  
BRANCH   8   9
HETATM    9  C   UNL     1     -10.267  15.889  66.779  1.00  0.00    -0.283 C  
BRANCH   9  10
HETATM   10  C   UNL     1     -10.338  14.672  65.900  1.00  0.00    -0.334 C  
HETATM   11  C   UNL     1      -9.623  13.542  66.019  1.00  0.00    -0.179 C  
BRANCH  11  12
HETATM   12  C   UNL     1      -8.562  13.250  67.045  1.00  0.00    -0.169 C  
BRANCH  12  13
HETATM   13  C   UNL     1      -9.028  12.291  68.149  1.00  0.00    -0.192 C  
HETATM   14  C   UNL     1     -10.182  12.811  69.019  1.00  0.00     0.128 C  
HETATM   15  C   UNL     1     -10.795  11.539  69.588  1.00  0.00    -0.053 C  
HETATM   16  O   UNL     1     -11.171  13.475  68.239  1.00  0.00    -0.248 OA 
HETATM   17  H   UNL     1     -11.885  13.796  68.777  1.00  0.00     0.000 HD 
HETATM   18  C   UNL     1     -10.797  10.583  68.399  1.00  0.00    -0.240 C  
HETATM   19  O   UNL     1     -11.992  10.764  67.635  1.00  0.00    -0.616 OA 
HETATM   20  C   UNL     1      -9.575  10.973  67.537  1.00  0.00    -0.178 C  
HETATM   21  H   UNL     1     -11.992  10.169  66.894  1.00  0.00     0.000 HD 
BRANCH  20  22
HETATM   22  C   UNL     1      -8.528   9.880  67.524  1.00  0.00    -0.115 C  
HETATM   23  C   UNL     1      -8.649   8.734  68.216  1.00  0.00    -0.134 C  
BRANCH  23  24
HETATM   24  C   UNL     1      -7.631   7.630  68.343  1.00  0.00    -0.113 C  
HETATM   25  H   UNL     1      -6.122   7.184  69.526  1.00  0.00     0.000 HD 
HETATM   26  O   UNL     1      -6.764   7.880  69.446  1.00  0.00    -0.038 OA 
BRANCH  24  27
HETATM   27  C   UNL     1      -8.265   6.249  68.553  1.00  0.00    -0.112 C  
BRANCH  27  28
HETATM   28  C   UNL     1      -8.746   5.593  67.256  1.00  0.00    -0.107 C  
BRANCH  28  29
HETATM   29  C   UNL     1      -7.868   5.971  66.089  1.00  0.00    -0.104 A  
HETATM   30  C   UNL     1      -6.518   5.598  66.072  1.00  0.00    -0.040 A  
HETATM   31  C   UNL     1      -5.691   5.984  65.016  1.00  0.00    -0.024 A  
HETATM   32  C   UNL     1      -6.206   6.746  63.970  1.00  0.00    -0.035 A  
HETATM   33  C   UNL     1      -7.550   7.118  63.976  1.00  0.00    -0.113 A  
HETATM   34  C   UNL     1      -8.378   6.734  65.030  1.00  0.00    -0.052 A  
ENDBRANCH  28  29
ENDBRANCH  27  28
ENDBRANCH  24  27
ENDBRANCH  23  24
ENDBRANCH  20  22
ENDBRANCH  12  13
ENDBRANCH  11  12
ENDBRANCH   9  10
ENDBRANCH   8   9
ENDBRANCH   7   8
ENDBRANCH   4   7
ENDBRANCH   2   3
TORSDOF 12
ENDMDL
MODEL      388
REMARK 921   NORMALIZED FREE ENERGY PREDICTED BY IDOCK:   -0.06 KCAL/MOL
REMARK 922        TOTAL FREE ENERGY PREDICTED BY IDOCK:   -2.93 KCAL/MOL
REMARK 923 INTER-LIGAND FREE ENERGY PREDICTED BY IDOCK:   -2.38 KCAL/MOL
REMARK 924 INTRA-LIGAND FREE ENERGY PREDICTED BY IDOCK:   -0.55 KCAL/MOL
REMARK 927      BINDING AFFINITY PREDICTED BY RF-SCORE:    0.00 PKD
ROOT
HETATM    1  C   UNL     1      -6.185  13.296  73.943  1.00  0.00     1.528 C  
HETATM    2  C   UNL     1      -5.131  13.031  72.884  1.00  0.00     0.106 C  
ENDROOT
BRANCH   2   3
HETATM    3  N   UNL     1      -5.368  11.779  72.200  1.00  0.00     0.354 N  
HETATM    4  C   UNL     1      -5.359  10.584  72.884  1.00  0.00     0.466 C  
HETATM    5  H   UNL     1      -5.543  11.782  71.195  1.00  0.00     0.000 HD 
HETATM    6  O   UNL     1      -5.146  10.499  74.087  1.00  0.00    -0.332 OA 
BRANCH   4   7
HETATM    7  C   UNL     1      -5.653   9.386  72.002  1.00  0.00    -0.053 C  
BRANCH   7   8
HETATM    8  C   UNL     1      -6.732   8.496  72.624  1.00  0.00    -0.077 C  
BRANCH   8   9
HETATM    9  C   UNL     1      -7.288   7.446  71.663  1.00  0.00    -0.075 C  
BRANCH   9  10
HETATM   10  C   UNL     1      -6.211   6.818  70.825  1.00  0.00    -0.035 C  
HETATM   11  C   UNL     1      -5.860   7.149  69.572  1.00  0.00    -0.023 C  
BRANCH  11  12
HETATM   12  C   UNL     1      -6.490   8.208  68.709  1.00  0.00    -0.053 C  
BRANCH  12  13
HETATM   13  C   UNL     1      -7.568   7.662  67.762  1.00  0.00    -0.117 C  
HETATM   14  C   UNL     1      -7.054   6.712  66.670  1.00  0.00    -0.068 C  
HETATM   15  C   UNL     1      -8.292   5.913  66.285  1.00  0.00    -0.117 C  
HETATM   16  O   UNL     1      -6.077   5.808  67.175  1.00  0.00    -0.020 OA 
HETATM   17  H   UNL     1      -5.759   5.220  66.500  1.00  0.00     0.000 HD 
HETATM   18  C   UNL     1      -8.957   5.621  67.628  1.00  0.00    -0.107 C  
HETATM   19  O   UNL     1      -8.412   4.423  68.186  1.00  0.00    -0.093 OA 
HETATM   20  C   UNL     1      -8.609   6.816  68.544  1.00  0.00    -0.125 C  
HETATM   21  H   UNL     1      -8.826   4.242  69.022  1.00  0.00     0.000 HD 
BRANCH  20  22
HETATM   22  C   UNL     1      -9.839   7.624  68.900  1.00  0.00    -0.164 C  
HETATM   23  C   UNL     1      -9.873   8.509  69.911  1.00  0.00    -0.186 C  
BRANCH  23  24
HETATM   24  C   UNL     1     -11.065   9.290  70.402  1.00  0.00    -0.255 C  
HETATM   25  H   UNL     1     -11.869   9.764  72.135  1.00  0.00     0.000 HD 
HETATM   26  O   UNL     1     -11.117   9.272  71.826  1.00  0.00    -0.364 OA 
BRANCH  24  27
HETATM   27  C   UNL     1     -11.047  10.758  69.956  1.00  0.00    -0.327 C  
BRANCH  27  28
HETATM   28  C   UNL     1     -11.921  11.035  68.729  1.00  0.00    -0.295 C  
BRANCH  28  29
HETATM   29  C   UNL     1     -11.488  12.294  68.019  1.00  0.00    -0.378 A  
HETATM   30  C   UNL     1     -10.734  13.262  68.695  1.00  0.00    -0.281 A  
HETATM   31  C   UNL     1     -10.370  14.448  68.057  1.00  0.00    -0.227 A  
HETATM   32  C   UNL     1     -10.756  14.676  66.738  1.00  0.00    -0.301 A  
HETATM   33  C   UNL     1     -11.503  13.716  66.055  1.00  0.00    -0.340 A  
HETATM   34  C   UNL     1     -11.868  12.531  66.692  1.00  0.00    -0.422 A  
ENDBRANCH  28  29
ENDBRANCH  27  28
ENDBRANCH  24  27
ENDBRANCH  23  24
ENDBRANCH  20  22
ENDBRANCH  12  13
ENDBRANCH  11  12
ENDBRANCH   9  10
ENDBRANCH   8   9
ENDBRANCH   7   8
ENDBRANCH   4   7
ENDBRANCH   2   3
TORSDOF 12
ENDMDL
MODEL      389
REMARK 921   NORMALIZED FREE ENERGY PREDICTED BY IDOCK:    0.04 KCAL/MOL
REMARK 922        TOTAL FREE ENERGY PREDICTED BY IDOCK:   -2.77 KCAL/MOL
REMARK 923 INTER-LIGAND FREE ENERGY PREDICTED BY IDOCK:   -2.92 KCAL/MOL
REMARK 924 INTRA-LIGAND FREE ENERGY PREDICTED BY IDOCK:    0.15 KCAL/MOL
REMARK 927      BINDING AFFINITY PREDICTED BY RF-SCORE:    0.00 PKD
ROOT
HETATM    1  C   UNL     1      -7.642   3.685  64.653  1.00  0.00    -0.076 C  
HETATM    2  C   UNL     1      -8.550   4.894  64.787  1.00  0.00    -0.149 C  
ENDROOT
BRANCH   2   3
HETATM    3  N   UNL     1      -7.957   5.914  65.623  1.00  0.00    -0.112 N  
HETATM    4  C   UNL     1      -8.687   7.006  66.035  1.00  0.00    -0.144 C  
HETATM    5  H   UNL     1      -6.983   5.822  65.912  1.00  0.00     0.000 HD 
HETATM    6  O   UNL     1      -9.856   7.191  65.721  1.00  0.00     0.349 OA 
BRANCH   4   7
HETATM    7  C   UNL     1      -7.903   7.950  66.926  1.00  0.00    -0.104 C  
BRANCH   7   8
HETATM    8  C   UNL     1      -6.727   8.572  66.169  1.00  0.00    -0.068 C  
BRANCH   8   9
HETATM    9  C   UNL     1      -7.148   9.382  64.943  1.00  0.00    -0.105 C  
BRANCH   9  10
HETATM   10  C   UNL     1      -6.264  10.576  64.721  1.00  0.00    -0.033 C  
HETATM   11  C   UNL     1      -5.415  11.132  65.600  1.00  0.00     0.008 C  
BRANCH  11  12
HETATM   12  C   UNL     1      -5.180  10.704  67.022  1.00  0.00    -0.043 C  
BRANCH  12  13
HETATM   13  C   UNL     1      -6.354  11.026  67.959  1.00  0.00    -0.057 C  
HETATM   14  C   UNL     1      -6.582  10.011  69.088  1.00  0.00    -0.053 C  
HETATM   15  C   UNL     1      -7.349  10.812  70.132  1.00  0.00     0.279 C  
HETATM   16  O   UNL     1      -5.355   9.581  69.666  1.00  0.00    -0.034 OA 
HETATM   17  H   UNL     1      -5.496   8.953  70.365  1.00  0.00     0.000 HD 
HETATM   18  C   UNL     1      -6.637  12.162  70.136  1.00  0.00     0.302 C  
HETATM   19  O   UNL     1      -5.532  12.123  71.041  1.00  0.00    -0.244 OA 
HETATM   20  C   UNL     1      -6.113  12.371  68.696  1.00  0.00    -0.065 C  
HETATM   21  H   UNL     1      -5.089  12.964  71.043  1.00  0.00     0.000 HD 
BRANCH  20  22
HETATM   22  C   UNL     1      -6.811  13.525  68.010  1.00  0.00    -0.136 C  
HETATM   23  C   UNL     1      -6.155  14.560  67.457  1.00  0.00     0.041 C  
BRANCH  23  24
HETATM   24  C   UNL     1      -6.756  15.795  66.835  1.00  0.00     0.171 C  
HETATM   25  H   UNL     1      -8.549  16.438  66.340  1.00  0.00     0.000 HD 
HETATM   26  O   UNL     1      -8.171  15.660  66.732  1.00  0.00    -0.233 OA 
BRANCH  24  27
HETATM   27  C   UNL     1      -6.467  17.071  67.635  1.00  0.00    -0.164 C  
BRANCH  27  28
HETATM   28  C   UNL     1      -7.484  17.339  68.749  1.00  0.00    -0.260 C  
BRANCH  28  29
HETATM   29  C   UNL     1      -8.391  18.493  68.401  1.00  0.00    -0.355 A  
HETATM   30  C   UNL     1      -9.659  18.595  68.988  1.00  0.00    -0.268 A  
HETATM   31  C   UNL     1     -10.519  19.635  68.636  1.00  0.00    -0.259 A  
HETATM   32  C   UNL     1     -10.119  20.582  67.695  1.00  0.00    -0.412 A  
HETATM   33  C   UNL     1      -8.857  20.491  67.109  1.00  0.00    -0.399 A  
HETATM   34  C   UNL     1      -7.996  19.451  67.459  1.00  0.00    -0.302 A  
ENDBRANCH  28  29
ENDBRANCH  27  28
ENDBRANCH  24  27
ENDBRANCH  23  24
ENDBRANCH  20  22
ENDBRANCH  12  13
ENDBRANCH  11  12
ENDBRANCH   9  10
ENDBRANCH   8   9
ENDBRANCH   7   8
ENDBRANCH   4   7
ENDBRANCH   2   3
TORSDOF 12
ENDMDL
MODEL      390
REMARK 921   NORMALIZED FREE ENERGY PREDICTED BY IDOCK:    0.35 KCAL/MOL
REMARK 922        TOTAL FREE ENERGY PREDICTED BY IDOCK:   -2.24 KCAL/MOL
REMARK 923 INTER-LIGAND FREE ENERGY PREDICTED BY IDOCK:   -1.34 KCAL/MOL
REMARK 924 INTRA-LIGAND FREE ENERGY PREDICTED BY IDOCK:   -0.89 KCAL/MOL
REMARK 927      BINDING AFFINITY PREDICTED BY RF-SCORE:    0.00 PKD
ROOT
HETATM    1  C   UNL     1      -6.134  13.313  73.942  1.00  0.00     1.221 C  
HETATM    2  C   UNL     1      -5.127  12.921  72.877  1.00  0.00     0.161 C  
ENDROOT
BRANCH   2   3
HETATM    3  N   UNL     1      -5.490  11.679  72.233  1.00  0.00     0.592 N  
HETATM    4  C   UNL     1      -5.577  10.506  72.949  1.00  0.00     0.808 C  
HETATM    5  H   UNL     1      -5.686  11.672  71.232  1.00  0.00     0.000 HD 
HETATM    6  O   UNL     1      -5.347  10.434  74.150  1.00  0.00    -0.344 OA 
BRANCH   4   7
HETATM    7  C   UNL     1      -5.997   9.318  72.107  1.00  0.00     0.025 C  
BRANCH   7   8
HETATM    8  C   UNL     1      -6.781   8.302  72.940  1.00  0.00    -0.111 C  
BRANCH   8   9
HETATM    9  C   UNL     1      -7.520   7.261  72.099  1.00  0.00    -0.080 C  
BRANCH   9  10
HETATM   10  C   UNL     1      -6.972   7.167  70.704  1.00  0.00    -0.058 C  
HETATM   11  C   UNL     1      -7.205   8.007  69.682  1.00  0.00    -0.066 C  
BRANCH  11  12
HETATM   12  C   UNL     1      -8.097   9.218  69.695  1.00  0.00    -0.116 C  
BRANCH  12  13
HETATM   13  C   UNL     1      -9.511   8.940  69.167  1.00  0.00    -0.157 C  
HETATM   14  C   UNL     1     -10.232  10.157  68.568  1.00  0.00    -0.174 C  
HETATM   15  C   UNL     1     -11.278   9.533  67.654  1.00  0.00     0.188 C  
HETATM   16  O   UNL     1      -9.357  10.950  67.773  1.00  0.00    -0.153 OA 
HETATM   17  H   UNL     1      -9.803  11.702  67.403  1.00  0.00     0.000 HD 
HETATM   18  C   UNL     1     -10.522   8.392  66.979  1.00  0.00    -0.305 C  
HETATM   19  O   UNL     1      -9.855   8.878  65.812  1.00  0.00    -0.450 OA 
HETATM   20  C   UNL     1      -9.471   7.911  68.006  1.00  0.00    -0.159 C  
HETATM   21  H   UNL     1      -9.384   8.167  65.392  1.00  0.00     0.000 HD 
BRANCH  20  22
HETATM   22  C   UNL     1      -9.762   6.506  68.486  1.00  0.00    -0.129 C  
HETATM   23  C   UNL     1      -8.802   5.605  68.757  1.00  0.00    -0.108 C  
BRANCH  23  24
HETATM   24  C   UNL     1      -8.988   4.161  69.150  1.00  0.00    -0.110 C  
HETATM   25  H   UNL     1      -8.109   2.439  68.782  1.00  0.00     0.000 HD 
HETATM   26  O   UNL     1      -7.992   3.348  68.534  1.00  0.00    -0.062 OA 
BRANCH  24  27
HETATM   27  C   UNL     1      -8.902   3.935  70.665  1.00  0.00    -0.135 C  
BRANCH  27  28
HETATM   28  C   UNL     1     -10.268   3.880  71.354  1.00  0.00    -0.020 C  
BRANCH  28  29
HETATM   29  C   UNL     1     -10.597   5.187  72.030  1.00  0.00    -0.266 A  
HETATM   30  C   UNL     1     -11.131   6.250  71.289  1.00  0.00    -0.345 A  
HETATM   31  C   UNL     1     -11.396   7.476  71.900  1.00  0.00    -0.298 A  
HETATM   32  C   UNL     1     -11.128   7.650  73.257  1.00  0.00    -0.254 A  
HETATM   33  C   UNL     1     -10.600   6.597  74.003  1.00  0.00    -0.196 A  
HETATM   34  C   UNL     1     -10.335   5.371  73.393  1.00  0.00    -0.244 A  
ENDBRANCH  28  29
ENDBRANCH  27  28
ENDBRANCH  24  27
ENDBRANCH  23  24
ENDBRANCH  20  22
ENDBRANCH  12  13
ENDBRANCH  11  12
ENDBRANCH   9  10
ENDBRANCH   8   9
ENDBRANCH   7   8
ENDBRANCH   4   7
ENDBRANCH   2   3
TORSDOF 12
ENDMDL
MODEL      391
REMARK 921   NORMALIZED FREE ENERGY PREDICTED BY IDOCK:    0.53 KCAL/MOL
REMARK 922        TOTAL FREE ENERGY PREDICTED BY IDOCK:   -1.93 KCAL/MOL
REMARK 923 INTER-LIGAND FREE ENERGY PREDICTED BY IDOCK:   -1.22 KCAL/MOL
REMARK 924 INTRA-LIGAND FREE ENERGY PREDICTED BY IDOCK:   -0.71 KCAL/MOL
REMARK 927      BINDING AFFINITY PREDICTED BY RF-SCORE:    0.00 PKD
ROOT
HETATM    1  C   UNL     1      -9.341  20.151  72.356  1.00  0.00     2.841 C  
HETATM    2  C   UNL     1      -7.842  20.065  72.573  1.00  0.00     2.771 C  
ENDROOT
BRANCH   2   3
HETATM    3  N   UNL     1      -7.115  20.217  71.333  1.00  0.00     0.141 N  
HETATM    4  C   UNL     1      -5.785  20.575  71.329  1.00  0.00    -0.160 C  
HETATM    5  H   UNL     1      -7.595  20.057  70.447  1.00  0.00     0.000 HD 
HETATM    6  O   UNL     1      -5.144  20.794  72.349  1.00  0.00    -0.381 OA 
BRANCH   4   7
HETATM    7  C   UNL     1      -5.191  20.658  69.937  1.00  0.00    -0.373 C  
BRANCH   7   8
HETATM    8  C   UNL     1      -6.185  20.163  68.883  1.00  0.00    -0.351 C  
BRANCH   8   9
HETATM    9  C   UNL     1      -6.170  18.647  68.692  1.00  0.00    -0.228 C  
BRANCH   9  10
HETATM   10  C   UNL     1      -5.219  18.220  67.610  1.00  0.00    -0.144 C  
HETATM   11  C   UNL     1      -5.445  18.217  66.287  1.00  0.00    -0.203 C  
BRANCH  11  12
HETATM   12  C   UNL     1      -6.717  18.609  65.588  1.00  0.00    -0.309 C  
BRANCH  12  13
HETATM   13  C   UNL     1      -7.949  18.590  66.504  1.00  0.00    -0.295 C  
HETATM   14  C   UNL     1      -8.823  19.851  66.445  1.00  0.00    -0.358 C  
HETATM   15  C   UNL     1     -10.177  19.366  66.945  1.00  0.00    -0.514 C  
HETATM   16  O   UNL     1      -8.980  20.321  65.110  1.00  0.00    -0.181 OA 
HETATM   17  H   UNL     1      -9.521  21.101  65.074  1.00  0.00     0.000 HD 
HETATM   18  C   UNL     1     -10.339  18.008  66.265  1.00  0.00    -0.382 C  
HETATM   19  O   UNL     1     -10.928  18.182  64.974  1.00  0.00    -0.726 OA 
HETATM   20  C   UNL     1      -8.911  17.439  66.105  1.00  0.00    -0.174 C  
HETATM   21  H   UNL     1     -11.028  17.337  64.552  1.00  0.00     0.000 HD 
BRANCH  20  22
HETATM   22  C   UNL     1      -8.702  16.207  66.958  1.00  0.00    -0.228 C  
HETATM   23  C   UNL     1      -7.633  15.400  66.840  1.00  0.00    -0.111 C  
BRANCH  23  24
HETATM   24  C   UNL     1      -7.378  14.107  67.572  1.00  0.00    -0.175 C  
HETATM   25  H   UNL     1      -7.375  13.479  69.437  1.00  0.00     0.000 HD 
HETATM   26  O   UNL     1      -7.535  14.294  68.976  1.00  0.00    -0.126 OA 
BRANCH  24  27
HETATM   27  C   UNL     1      -8.323  12.978  67.144  1.00  0.00    -0.153 C  
BRANCH  27  28
HETATM   28  C   UNL     1      -7.725  11.579  67.323  1.00  0.00    -0.150 C  
BRANCH  28  29
HETATM   29  C   UNL     1      -8.736  10.618  67.897  1.00  0.00    -0.127 A  
HETATM   30  C   UNL     1      -8.684  10.266  69.252  1.00  0.00    -0.182 A  
HETATM   31  C   UNL     1      -9.589   9.344  69.779  1.00  0.00    -0.216 A  
HETATM   32  C   UNL     1     -10.553   8.766  68.955  1.00  0.00    -0.191 A  
HETATM   33  C   UNL     1     -10.615   9.113  67.607  1.00  0.00    -0.307 A  
HETATM   34  C   UNL     1      -9.711  10.035  67.078  1.00  0.00    -0.227 A  
ENDBRANCH  28  29
ENDBRANCH  27  28
ENDBRANCH  24  27
ENDBRANCH  23  24
ENDBRANCH  20  22
ENDBRANCH  12  13
ENDBRANCH  11  12
ENDBRANCH   9  10
ENDBRANCH   8   9
ENDBRANCH   7   8
ENDBRANCH   4   7
ENDBRANCH   2   3
TORSDOF 12
ENDMDL
MODEL      392
REMARK 921   NORMALIZED FREE ENERGY PREDICTED BY IDOCK:    1.06 KCAL/MOL
REMARK 922        TOTAL FREE ENERGY PREDICTED BY IDOCK:   -1.03 KCAL/MOL
REMARK 923 INTER-LIGAND FREE ENERGY PREDICTED BY IDOCK:   -1.04 KCAL/MOL
REMARK 924 INTRA-LIGAND FREE ENERGY PREDICTED BY IDOCK:    0.01 KCAL/MOL
REMARK 927      BINDING AFFINITY PREDICTED BY RF-SCORE:    0.00 PKD
ROOT
HETATM    1  C   UNL     1      -9.516  20.083  72.513  1.00  0.00     3.055 C  
HETATM    2  C   UNL     1      -8.010  20.028  72.690  1.00  0.00     3.029 C  
ENDROOT
BRANCH   2   3
HETATM    3  N   UNL     1      -7.323  20.064  71.418  1.00  0.00     0.770 N  
HETATM    4  C   UNL     1      -6.016  20.488  71.328  1.00  0.00    -0.097 C  
HETATM    5  H   UNL     1      -7.815  19.771  70.574  1.00  0.00     0.000 HD 
HETATM    6  O   UNL     1      -5.364  20.865  72.294  1.00  0.00    -0.409 OA 
BRANCH   4   7
HETATM    7  C   UNL     1      -5.462  20.430  69.919  1.00  0.00    -0.350 C  
BRANCH   7   8
HETATM    8  C   UNL     1      -6.506  19.888  68.939  1.00  0.00    -0.347 C  
BRANCH   8   9
HETATM    9  C   UNL     1      -6.745  18.384  69.069  1.00  0.00    -0.280 C  
BRANCH   9  10
HETATM   10  C   UNL     1      -5.857  17.588  68.156  1.00  0.00    -0.153 C  
HETATM   11  C   UNL     1      -5.964  17.465  66.823  1.00  0.00    -0.221 C  
BRANCH  11  12
HETATM   12  C   UNL     1      -7.021  18.073  65.943  1.00  0.00    -0.319 C  
BRANCH  12  13
HETATM   13  C   UNL     1      -8.171  18.721  66.728  1.00  0.00    -0.286 C  
HETATM   14  C   UNL     1      -8.458  20.187  66.371  1.00  0.00    -0.239 C  
HETATM   15  C   UNL     1      -9.900  20.384  66.816  1.00  0.00    -0.541 C  
HETATM   16  O   UNL     1      -8.388  20.410  64.967  1.00  0.00    -0.189 OA 
HETATM   17  H   UNL     1      -8.565  21.317  64.745  1.00  0.00     0.000 HD 
HETATM   18  C   UNL     1     -10.587  19.096  66.369  1.00  0.00    -0.435 C  
HETATM   19  O   UNL     1     -11.033  19.231  65.017  1.00  0.00    -0.370 OA 
HETATM   20  C   UNL     1      -9.510  17.990  66.444  1.00  0.00    -0.280 C  
HETATM   21  H   UNL     1     -11.460  18.429  64.739  1.00  0.00     0.000 HD 
BRANCH  20  22
HETATM   22  C   UNL     1      -9.833  16.968  67.513  1.00  0.00    -0.258 C  
HETATM   23  C   UNL     1      -9.208  15.782  67.612  1.00  0.00    -0.200 C  
BRANCH  23  24
HETATM   24  C   UNL     1      -9.516  14.664  68.576  1.00  0.00    -0.216 C  
HETATM   25  H   UNL     1      -9.721  14.449  70.522  1.00  0.00     0.000 HD 
HETATM   26  O   UNL     1      -9.527  15.153  69.915  1.00  0.00    -0.130 OA 
BRANCH  24  27
HETATM   27  C   UNL     1     -10.874  14.001  68.312  1.00  0.00    -0.268 C  
BRANCH  27  28
HETATM   28  C   UNL     1     -11.279  14.001  66.835  1.00  0.00    -0.323 C  
BRANCH  28  29
HETATM   29  C   UNL     1     -10.887  12.712  66.157  1.00  0.00    -0.301 A  
HETATM   30  C   UNL     1     -10.355  11.654  66.906  1.00  0.00    -0.253 A  
HETATM   31  C   UNL     1      -9.950  10.477  66.277  1.00  0.00    -0.276 A  
HETATM   32  C   UNL     1     -10.073  10.347  64.895  1.00  0.00    -0.382 A  
HETATM   33  C   UNL     1     -10.606  11.392  64.143  1.00  0.00    -0.430 A  
HETATM   34  C   UNL     1     -11.011  12.570  64.769  1.00  0.00    -0.339 A  
ENDBRANCH  28  29
ENDBRANCH  27  28
ENDBRANCH  24  27
ENDBRANCH  23  24
ENDBRANCH  20  22
ENDBRANCH  12  13
ENDBRANCH  11  12
ENDBRANCH   9  10
ENDBRANCH   8   9
ENDBRANCH   7   8
ENDBRANCH   4   7
ENDBRANCH   2   3
TORSDOF 12
ENDMDL
MODEL      393
REMARK 921   NORMALIZED FREE ENERGY PREDICTED BY IDOCK:    1.10 KCAL/MOL
REMARK 922        TOTAL FREE ENERGY PREDICTED BY IDOCK:   -0.97 KCAL/MOL
REMARK 923 INTER-LIGAND FREE ENERGY PREDICTED BY IDOCK:    0.20 KCAL/MOL
REMARK 924 INTRA-LIGAND FREE ENERGY PREDICTED BY IDOCK:   -1.17 KCAL/MOL
REMARK 927      BINDING AFFINITY PREDICTED BY RF-SCORE:    0.00 PKD
ROOT
HETATM    1  C   UNL     1      -9.403  20.219  71.515  1.00  0.00     2.307 C  
HETATM    2  C   UNL     1      -7.963  20.319  71.048  1.00  0.00     1.793 C  
ENDROOT
BRANCH   2   3
HETATM    3  N   UNL     1      -7.782  19.716  69.747  1.00  0.00     0.134 N  
HETATM    4  C   UNL     1      -6.607  19.876  69.047  1.00  0.00    -0.328 C  
HETATM    5  H   UNL     1      -8.537  19.163  69.341  1.00  0.00     0.000 HD 
HETATM    6  O   UNL     1      -5.661  20.533  69.463  1.00  0.00    -0.315 OA 
BRANCH   4   7
HETATM    7  C   UNL     1      -6.597  19.148  67.718  1.00  0.00    -0.232 C  
BRANCH   7   8
HETATM    8  C   UNL     1      -7.687  18.074  67.669  1.00  0.00    -0.215 C  
BRANCH   8   9
HETATM    9  C   UNL     1      -7.309  16.786  68.401  1.00  0.00    -0.198 C  
BRANCH   9  10
HETATM   10  C   UNL     1      -6.867  15.705  67.456  1.00  0.00    -0.221 C  
HETATM   11  C   UNL     1      -7.651  14.890  66.732  1.00  0.00     0.361 C  
BRANCH  11  12
HETATM   12  C   UNL     1      -9.155  14.852  66.730  1.00  0.00    -0.295 C  
BRANCH  12  13
HETATM   13  C   UNL     1      -9.759  14.493  68.095  1.00  0.00    -0.219 C  
HETATM   14  C   UNL     1     -10.720  15.539  68.676  1.00  0.00    -0.252 C  
HETATM   15  C   UNL     1     -11.567  14.736  69.655  1.00  0.00    -0.342 C  
HETATM   16  O   UNL     1     -11.579  16.078  67.678  1.00  0.00    -0.106 OA 
HETATM   17  H   UNL     1     -12.174  16.726  68.037  1.00  0.00     0.000 HD 
HETATM   18  C   UNL     1     -11.845  13.439  68.900  1.00  0.00    -0.334 C  
HETATM   19  O   UNL     1     -13.010  13.594  68.087  1.00  0.00     0.538 OA 
HETATM   20  C   UNL     1     -10.616  13.202  67.993  1.00  0.00    -0.246 C  
HETATM   21  H   UNL     1     -13.183  12.786  67.617  1.00  0.00     0.000 HD 
BRANCH  20  22
HETATM   22  C   UNL     1      -9.839  11.974  68.415  1.00  0.00    -0.204 C  
HETATM   23  C   UNL     1      -9.220  11.157  67.545  1.00  0.00    -0.155 C  
BRANCH  23  24
HETATM   24  C   UNL     1      -8.504   9.867  67.853  1.00  0.00    -0.121 C  
HETATM   25  H   UNL     1      -7.422   9.130  69.323  1.00  0.00     0.000 HD 
HETATM   26  O   UNL     1      -7.874   9.943  69.129  1.00  0.00    -0.089 OA 
BRANCH  24  27
HETATM   27  C   UNL     1      -9.437   8.650  67.866  1.00  0.00    -0.157 C  
BRANCH  27  28
HETATM   28  C   UNL     1      -8.824   7.402  67.224  1.00  0.00    -0.124 C  
BRANCH  28  29
HETATM   29  C   UNL     1      -8.661   6.289  68.230  1.00  0.00    -0.117 A  
HETATM   30  C   UNL     1      -9.451   5.136  68.141  1.00  0.00    -0.160 A  
HETATM   31  C   UNL     1      -9.335   4.123  69.094  1.00  0.00    -0.235 A  
HETATM   32  C   UNL     1      -8.429   4.257  70.144  1.00  0.00    -0.089 A  
HETATM   33  C   UNL     1      -7.636   5.399  70.239  1.00  0.00    -0.076 A  
HETATM   34  C   UNL     1      -7.751   6.412  69.288  1.00  0.00    -0.101 A  
ENDBRANCH  28  29
ENDBRANCH  27  28
ENDBRANCH  24  27
ENDBRANCH  23  24
ENDBRANCH  20  22
ENDBRANCH  12  13
ENDBRANCH  11  12
ENDBRANCH   9  10
ENDBRANCH   8   9
ENDBRANCH   7   8
ENDBRANCH   4   7
ENDBRANCH   2   3
TORSDOF 12
ENDMDL
MODEL      394
REMARK 921   NORMALIZED FREE ENERGY PREDICTED BY IDOCK:    2.91 KCAL/MOL
REMARK 922        TOTAL FREE ENERGY PREDICTED BY IDOCK:    2.11 KCAL/MOL
REMARK 923 INTER-LIGAND FREE ENERGY PREDICTED BY IDOCK:    1.90 KCAL/MOL
REMARK 924 INTRA-LIGAND FREE ENERGY PREDICTED BY IDOCK:    0.21 KCAL/MOL
REMARK 927      BINDING AFFINITY PREDICTED BY RF-SCORE:    0.00 PKD
ROOT
HETATM    1  C   UNL     1     -10.213  15.354  73.278  1.00  0.00     5.035 C  
HETATM    2  C   UNL     1     -11.153  15.396  72.087  1.00  0.00    -0.043 C  
ENDROOT
BRANCH   2   3
HETATM    3  N   UNL     1     -11.840  14.137  71.907  1.00  0.00    -0.142 N  
HETATM    4  C   UNL     1     -12.942  13.815  72.668  1.00  0.00    -0.309 C  
HETATM    5  H   UNL     1     -11.504  13.477  71.206  1.00  0.00     0.000 HD 
HETATM    6  O   UNL     1     -13.399  14.550  73.535  1.00  0.00    -0.461 OA 
BRANCH   4   7
HETATM    7  C   UNL     1     -13.541  12.468  72.316  1.00  0.00    -0.443 C  
BRANCH   7   8
HETATM    8  C   UNL     1     -13.642  12.289  70.799  1.00  0.00     1.352 C  
BRANCH   8   9
HETATM    9  C   UNL     1     -12.428  11.596  70.183  1.00  0.00    -0.209 C  
BRANCH   9  10
HETATM   10  C   UNL     1     -12.637  10.116  70.028  1.00  0.00     0.028 C  
HETATM   11  C   UNL     1     -11.944   9.132  70.622  1.00  0.00    -0.171 C  
BRANCH  11  12
HETATM   12  C   UNL     1     -10.775   9.289  71.555  1.00  0.00    -0.425 C  
BRANCH  12  13
HETATM   13  C   UNL     1      -9.415   9.100  70.868  1.00  0.00    -0.343 C  
HETATM   14  C   UNL     1      -8.770   7.721  71.069  1.00  0.00    -0.136 C  
HETATM   15  C   UNL     1      -7.811   7.604  69.892  1.00  0.00    -0.102 C  
HETATM   16  O   UNL     1      -9.728   6.672  70.972  1.00  0.00    -0.174 OA 
HETATM   17  H   UNL     1      -9.329   5.819  71.096  1.00  0.00     0.000 HD 
HETATM   18  C   UNL     1      -8.615   8.167  68.723  1.00  0.00    -0.127 C  
HETATM   19  O   UNL     1      -9.398   7.128  68.131  1.00  0.00    -0.131 OA 
HETATM   20  C   UNL     1      -9.556   9.235  69.328  1.00  0.00    -0.161 C  
HETATM   21  H   UNL     1      -9.899   7.479  67.403  1.00  0.00     0.000 HD 
BRANCH  20  22
HETATM   22  C   UNL     1      -9.202  10.626  68.849  1.00  0.00    -0.189 C  
HETATM   23  C   UNL     1      -7.966  10.981  68.458  1.00  0.00    -0.137 C  
BRANCH  23  24
HETATM   24  C   UNL     1      -7.493  12.353  68.055  1.00  0.00    -0.114 C  
HETATM   25  H   UNL     1      -7.159  14.084  68.932  1.00  0.00     0.000 HD 
HETATM   26  O   UNL     1      -7.458  13.218  69.187  1.00  0.00     0.017 OA 
BRANCH  24  27
HETATM   27  C   UNL     1      -6.091  12.347  67.431  1.00  0.00    -0.158 C  
BRANCH  27  28
HETATM   28  C   UNL     1      -5.463  10.953  67.352  1.00  0.00    -0.045 C  
BRANCH  28  29
HETATM   29  C   UNL     1      -6.026  10.159  66.199  1.00  0.00    -0.077 A  
HETATM   30  C   UNL     1      -7.399  10.193  65.924  1.00  0.00    -0.121 A  
HETATM   31  C   UNL     1      -7.932   9.426  64.887  1.00  0.00    -0.120 A  
HETATM   32  C   UNL     1      -7.096   8.620  64.117  1.00  0.00    -0.090 A  
HETATM   33  C   UNL     1      -5.727   8.584  64.381  1.00  0.00    -0.064 A  
HETATM   34  C   UNL     1      -5.193   9.349  65.417  1.00  0.00    -0.036 A  
ENDBRANCH  28  29
ENDBRANCH  27  28
ENDBRANCH  24  27
ENDBRANCH  23  24
ENDBRANCH  20  22
ENDBRANCH  12  13
ENDBRANCH  11  12
ENDBRANCH   9  10
ENDBRANCH   8   9
ENDBRANCH   7   8
ENDBRANCH   4   7
ENDBRANCH   2   3
TORSDOF 12
ENDMDL
MODEL      395
REMARK 921   NORMALIZED FREE ENERGY PREDICTED BY IDOCK:    4.08 KCAL/MOL
REMARK 922        TOTAL FREE ENERGY PREDICTED BY IDOCK:    4.11 KCAL/MOL
REMARK 923 INTER-LIGAND FREE ENERGY PREDICTED BY IDOCK:   -2.46 KCAL/MOL
REMARK 924 INTRA-LIGAND FREE ENERGY PREDICTED BY IDOCK:    6.56 KCAL/MOL
REMARK 927      BINDING AFFINITY PREDICTED BY RF-SCORE:    0.00 PKD
ROOT
HETATM    1  C   UNL     1      -6.480   2.627  70.412  1.00  0.00    -0.028 C  
HETATM    2  C   UNL     1      -6.281   4.020  70.978  1.00  0.00    -0.015 C  
ENDROOT
BRANCH   2   3
HETATM    3  N   UNL     1      -6.614   5.040  70.009  1.00  0.00    -0.035 N  
HETATM    4  C   UNL     1      -6.218   6.347  70.189  1.00  0.00    -0.035 C  
HETATM    5  H   UNL     1      -7.151   4.788  69.180  1.00  0.00     0.000 HD 
HETATM    6  O   UNL     1      -5.581   6.728  71.163  1.00  0.00    -0.026 OA 
BRANCH   4   7
HETATM    7  C   UNL     1      -6.637   7.262  69.056  1.00  0.00    -0.037 C  
BRANCH   7   8
HETATM    8  C   UNL     1      -5.505   7.434  68.039  1.00  0.00    -0.026 C  
BRANCH   8   9
HETATM    9  C   UNL     1      -5.988   7.861  66.653  1.00  0.00    -0.045 C  
BRANCH   9  10
HETATM   10  C   UNL     1      -5.171   7.244  65.554  1.00  0.00    -0.028 C  
HETATM   11  C   UNL     1      -5.179   5.960  65.159  1.00  0.00    -0.013 C  
BRANCH  11  12
HETATM   12  C   UNL     1      -5.987   4.839  65.753  1.00  0.00    -0.023 C  
BRANCH  12  13
HETATM   13  C   UNL     1      -7.496   5.119  65.775  1.00  0.00    -0.082 C  
HETATM   14  C   UNL     1      -8.374   3.923  66.174  1.00  0.00    -0.108 C  
HETATM   15  C   UNL     1      -9.660   4.576  66.662  1.00  0.00    -0.203 C  
HETATM   16  O   UNL     1      -7.806   3.190  67.254  1.00  0.00    -0.076 OA 
HETATM   17  H   UNL     1      -8.348   2.451  67.501  1.00  0.00     0.000 HD 
HETATM   18  C   UNL     1      -9.165   5.765  67.480  1.00  0.00    -0.108 C  
HETATM   19  O   UNL     1      -8.915   5.355  68.827  1.00  0.00    -0.114 OA 
HETATM   20  C   UNL     1      -7.836   6.209  66.826  1.00  0.00    -0.104 C  
HETATM   21  H   UNL     1      -8.607   6.095  69.336  1.00  0.00     0.000 HD 
BRANCH  20  22
HETATM   22  C   UNL     1      -7.954   7.581  66.198  1.00  0.00    -0.111 C  
HETATM   23  C   UNL     1      -8.721   7.838  65.124  1.00  0.00     0.051 C  
BRANCH  23  24
HETATM   24  C   UNL     1      -8.834   9.139  64.372  1.00  0.00    -0.116 C  
HETATM   25  H   UNL     1      -9.534   9.749  62.636  1.00  0.00     0.000 HD 
HETATM   26  O   UNL     1      -9.463   8.929  63.110  1.00  0.00     0.742 OA 
BRANCH  24  27
HETATM   27  C   UNL     1      -9.648  10.199  65.125  1.00  0.00    -0.354 C  
BRANCH  27  28
HETATM   28  C   UNL     1      -8.782  11.249  65.828  1.00  0.00    -0.111 C  
BRANCH  28  29
HETATM   29  C   UNL     1      -9.619  12.170  66.682  1.00  0.00    -0.226 A  
HETATM   30  C   UNL     1     -10.711  12.848  66.126  1.00  0.00    -0.290 A  
HETATM   31  C   UNL     1     -11.461  13.735  66.900  1.00  0.00    -0.368 A  
HETATM   32  C   UNL     1     -11.124  13.951  68.234  1.00  0.00    -0.280 A  
HETATM   33  C   UNL     1     -10.041  13.278  68.797  1.00  0.00    -0.083 A  
HETATM   34  C   UNL     1      -9.290  12.391  68.025  1.00  0.00    -0.204 A  
ENDBRANCH  28  29
ENDBRANCH  27  28
ENDBRANCH  24  27
ENDBRANCH  23  24
ENDBRANCH  20  22
ENDBRANCH  12  13
ENDBRANCH  11  12
ENDBRANCH   9  10
ENDBRANCH   8   9
ENDBRANCH   7   8
ENDBRANCH   4   7
ENDBRANCH   2   3
TORSDOF 12
ENDMDL
MODEL      396
REMARK 921   NORMALIZED FREE ENERGY PREDICTED BY IDOCK:    5.94 KCAL/MOL
REMARK 922        TOTAL FREE ENERGY PREDICTED BY IDOCK:    7.28 KCAL/MOL
REMARK 923 INTER-LIGAND FREE ENERGY PREDICTED BY IDOCK:    5.97 KCAL/MOL
REMARK 924 INTRA-LIGAND FREE ENERGY PREDICTED BY IDOCK:    1.31 KCAL/MOL
REMARK 927      BINDING AFFINITY PREDICTED BY RF-SCORE:    0.00 PKD
ROOT
HETATM    1  C   UNL     1     -10.436   2.129  70.306  1.00  0.00     1.649 C  
HETATM    2  C   UNL     1     -11.232   3.421  70.288  1.00  0.00     5.747 C  
ENDROOT
BRANCH   2   3
HETATM    3  N   UNL     1     -10.898   4.235  69.141  1.00  0.00     1.766 N  
HETATM    4  C   UNL     1      -9.742   4.983  69.114  1.00  0.00    -0.173 C  
HETATM    5  H   UNL     1     -11.529   4.256  68.340  1.00  0.00     0.000 HD 
HETATM    6  O   UNL     1      -8.941   5.017  70.039  1.00  0.00    -0.106 OA 
BRANCH   4   7
HETATM    7  C   UNL     1      -9.553   5.748  67.819  1.00  0.00    -0.121 C  
BRANCH   7   8
HETATM    8  C   UNL     1     -10.216   7.126  67.891  1.00  0.00    -0.231 C  
BRANCH   8   9
HETATM    9  C   UNL     1     -10.308   7.686  69.310  1.00  0.00    -0.218 C  
BRANCH   9  10
HETATM   10  C   UNL     1      -9.991   9.154  69.362  1.00  0.00    -0.192 C  
HETATM   11  C   UNL     1      -9.404   9.891  68.406  1.00  0.00    -0.135 C  
BRANCH  11  12
HETATM   12  C   UNL     1      -8.899   9.406  67.075  1.00  0.00    -0.139 C  
BRANCH  12  13
HETATM   13  C   UNL     1      -7.944  10.393  66.387  1.00  0.00    -0.130 C  
HETATM   14  C   UNL     1      -6.477  10.293  66.828  1.00  0.00    -0.073 C  
HETATM   15  C   UNL     1      -5.715  10.907  65.661  1.00  0.00    -0.099 C  
HETATM   16  O   UNL     1      -6.061   8.939  66.972  1.00  0.00    -0.056 OA 
HETATM   17  H   UNL     1      -5.153   8.878  67.245  1.00  0.00     0.000 HD 
HETATM   18  C   UNL     1      -6.428  10.340  64.436  1.00  0.00    -0.087 C  
HETATM   19  O   UNL     1      -5.857   9.077  64.087  1.00  0.00    -0.069 OA 
HETATM   20  C   UNL     1      -7.901  10.137  64.856  1.00  0.00    -0.147 C  
HETATM   21  H   UNL     1      -6.301   8.724  63.324  1.00  0.00     0.000 HD 
BRANCH  20  22
HETATM   22  C   UNL     1      -8.830  11.065  64.103  1.00  0.00     0.024 C  
HETATM   23  C   UNL     1      -9.696  11.894  64.709  1.00  0.00    -0.143 C  
BRANCH  23  24
HETATM   24  C   UNL     1     -10.721  12.784  64.054  1.00  0.00    -0.426 C  
HETATM   25  H   UNL     1     -12.526  12.593  63.291  1.00  0.00     0.000 HD 
HETATM   26  O   UNL     1     -11.880  12.032  63.704  1.00  0.00    -0.451 OA 
BRANCH  24  27
HETATM   27  C   UNL     1     -11.172  13.944  64.952  1.00  0.00    -0.356 C  
BRANCH  27  28
HETATM   28  C   UNL     1     -10.024  14.608  65.717  1.00  0.00    -0.365 C  
BRANCH  28  29
HETATM   29  C   UNL     1      -9.756  13.906  67.025  1.00  0.00    -0.250 A  
HETATM   30  C   UNL     1      -8.508  13.317  67.268  1.00  0.00    -0.203 A  
HETATM   31  C   UNL     1      -8.270  12.628  68.458  1.00  0.00    -0.074 A  
HETATM   32  C   UNL     1      -9.278  12.522  69.414  1.00  0.00     1.217 A  
HETATM   33  C   UNL     1     -10.521  13.108  69.184  1.00  0.00     0.066 A  
HETATM   34  C   UNL     1     -10.761  13.797  67.995  1.00  0.00    -0.260 A  
ENDBRANCH  28  29
ENDBRANCH  27  28
ENDBRANCH  24  27
ENDBRANCH  23  24
ENDBRANCH  20  22
ENDBRANCH  12  13
ENDBRANCH  11  12
ENDBRANCH   9  10
ENDBRANCH   8   9
ENDBRANCH   7   8
ENDBRANCH   4   7
ENDBRANCH   2   3
TORSDOF 12
ENDMDL
MODEL      397
REMARK 921   NORMALIZED FREE ENERGY PREDICTED BY IDOCK:    6.06 KCAL/MOL
REMARK 922        TOTAL FREE ENERGY PREDICTED BY IDOCK:    7.48 KCAL/MOL
REMARK 923 INTER-LIGAND FREE ENERGY PREDICTED BY IDOCK:    4.50 KCAL/MOL
REMARK 924 INTRA-LIGAND FREE ENERGY PREDICTED BY IDOCK:    2.99 KCAL/MOL
REMARK 927      BINDING AFFINITY PREDICTED BY RF-SCORE:    0.00 PKD
ROOT
HETATM    1  C   UNL     1     -11.066   5.051  63.770  1.00  0.00     2.040 C  
HETATM    2  C   UNL     1     -11.209   4.536  65.190  1.00  0.00     0.296 C  
ENDROOT
BRANCH   2   3
HETATM    3  N   UNL     1     -10.563   5.412  66.141  1.00  0.00    -0.524 N  
HETATM    4  C   UNL     1      -9.227   5.725  66.025  1.00  0.00    -0.141 C  
HETATM    5  H   UNL     1     -11.105   5.804  66.911  1.00  0.00     0.000 HD 
HETATM    6  O   UNL     1      -8.509   5.286  65.135  1.00  0.00    -0.138 OA 
BRANCH   4   7
HETATM    7  C   UNL     1      -8.738   6.677  67.098  1.00  0.00    -0.111 C  
BRANCH   7   8
HETATM    8  C   UNL     1      -7.893   5.943  68.142  1.00  0.00    -0.105 C  
BRANCH   8   9
HETATM    9  C   UNL     1      -6.599   6.671  68.504  1.00  0.00    -0.051 C  
BRANCH   9  10
HETATM   10  C   UNL     1      -6.000   7.384  67.325  1.00  0.00    -0.045 C  
HETATM   11  C   UNL     1      -5.469   8.617  67.306  1.00  0.00    -0.038 C  
BRANCH  11  12
HETATM   12  C   UNL     1      -5.383   9.580  68.458  1.00  0.00    -0.033 C  
BRANCH  12  13
HETATM   13  C   UNL     1      -6.395  10.731  68.368  1.00  0.00    -0.053 C  
HETATM   14  C   UNL     1      -5.909  11.965  67.594  1.00  0.00    -0.083 C  
HETATM   15  C   UNL     1      -7.202  12.651  67.174  1.00  0.00    -0.040 C  
HETATM   16  O   UNL     1      -5.193  11.601  66.418  1.00  0.00    -0.248 OA 
HETATM   17  H   UNL     1      -4.893  12.364  65.939  1.00  0.00     0.000 HD 
HETATM   18  C   UNL     1      -8.094  11.490  66.741  1.00  0.00    -0.158 C  
HETATM   19  O   UNL     1      -7.859  11.189  65.364  1.00  0.00    -0.363 OA 
HETATM   20  C   UNL     1      -7.672  10.282  67.608  1.00  0.00    -0.090 C  
HETATM   21  H   UNL     1      -8.414  10.466  65.094  1.00  0.00     0.000 HD 
BRANCH  20  22
HETATM   22  C   UNL     1      -8.775   9.862  68.556  1.00  0.00    -0.121 C  
HETATM   23  C   UNL     1      -9.058   8.579  68.836  1.00  0.00    -0.146 C  
BRANCH  23  24
HETATM   24  C   UNL     1     -10.187   8.057  69.688  1.00  0.00    -0.208 C  
HETATM   25  H   UNL     1     -11.780   8.789  70.584  1.00  0.00     0.000 HD 
HETATM   26  O   UNL     1     -11.069   9.118  70.047  1.00  0.00    -0.235 OA 
BRANCH  24  27
HETATM   27  C   UNL     1     -11.020   6.977  68.986  1.00  0.00    -0.169 C  
BRANCH  27  28
HETATM   28  C   UNL     1     -12.531   7.171  69.143  1.00  0.00     2.589 C  
BRANCH  28  29
HETATM   29  C   UNL     1     -12.909   7.415  70.582  1.00  0.00     0.114 A  
HETATM   30  C   UNL     1     -12.468   6.541  71.585  1.00  0.00    -0.271 A  
HETATM   31  C   UNL     1     -12.851   6.736  72.912  1.00  0.00     1.209 A  
HETATM   32  C   UNL     1     -13.678   7.806  73.248  1.00  0.00     1.881 A  
HETATM   33  C   UNL     1     -14.118   8.684  72.258  1.00  0.00    -0.491 A  
HETATM   34  C   UNL     1     -13.736   8.490  70.931  1.00  0.00     0.232 A  
ENDBRANCH  28  29
ENDBRANCH  27  28
ENDBRANCH  24  27
ENDBRANCH  23  24
ENDBRANCH  20  22
ENDBRANCH  12  13
ENDBRANCH  11  12
ENDBRANCH   9  10
ENDBRANCH   8   9
ENDBRANCH   7   8
ENDBRANCH   4   7
ENDBRANCH   2   3
TORSDOF 12
ENDMDL
MODEL      398
REMARK 921   NORMALIZED FREE ENERGY PREDICTED BY IDOCK:    8.39 KCAL/MOL
REMARK 922        TOTAL FREE ENERGY PREDICTED BY IDOCK:   11.45 KCAL/MOL
REMARK 923 INTER-LIGAND FREE ENERGY PREDICTED BY IDOCK:    2.70 KCAL/MOL
REMARK 924 INTRA-LIGAND FREE ENERGY PREDICTED BY IDOCK:    8.75 KCAL/MOL
REMARK 927      BINDING AFFINITY PREDICTED BY RF-SCORE:    0.00 PKD
ROOT
HETATM    1  C   UNL     1      -6.571   2.855  70.162  1.00  0.00    -0.033 C  
HETATM    2  C   UNL     1      -6.448   4.337  70.461  1.00  0.00    -0.031 C  
ENDROOT
BRANCH   2   3
HETATM    3  N   UNL     1      -6.838   5.143  69.326  1.00  0.00    -0.052 N  
HETATM    4  C   UNL     1      -6.496   6.475  69.250  1.00  0.00    -0.040 C  
HETATM    5  H   UNL     1      -7.375   4.718  68.570  1.00  0.00     0.000 HD 
HETATM    6  O   UNL     1      -5.863   7.057  70.122  1.00  0.00    -0.023 OA 
BRANCH   4   7
HETATM    7  C   UNL     1      -6.970   7.144  67.975  1.00  0.00    -0.079 C  
BRANCH   7   8
HETATM    8  C   UNL     1      -5.921   8.124  67.445  1.00  0.00    -0.050 C  
BRANCH   8   9
HETATM    9  C   UNL     1      -6.379   8.903  66.213  1.00  0.00    -0.065 C  
BRANCH   9  10
HETATM   10  C   UNL     1      -5.299   9.008  65.174  1.00  0.00    -0.038 C  
HETATM   11  C   UNL     1      -5.126   8.221  64.101  1.00  0.00    -0.040 C  
BRANCH  11  12
HETATM   12  C   UNL     1      -5.958   7.030  63.712  1.00  0.00    -0.040 C  
BRANCH  12  13
HETATM   13  C   UNL     1      -7.469   7.286  63.800  1.00  0.00    -0.097 C  
HETATM   14  C   UNL     1      -8.354   6.110  63.360  1.00  0.00     0.078 C  
HETATM   15  C   UNL     1      -9.680   6.387  64.057  1.00  0.00     3.022 C  
HETATM   16  O   UNL     1      -7.851   4.866  63.833  1.00  0.00    -0.076 OA 
HETATM   17  H   UNL     1      -8.398   4.139  63.561  1.00  0.00     0.000 HD 
HETATM   18  C   UNL     1      -9.258   6.850  65.449  1.00  0.00     0.441 C  
HETATM   19  O   UNL     1      -9.094   5.717  66.306  1.00  0.00    -0.140 OA 
HETATM   20  C   UNL     1      -7.895   7.556  65.268  1.00  0.00    -0.120 C  
HETATM   21  H   UNL     1      -8.831   6.006  67.172  1.00  0.00     0.000 HD 
BRANCH  20  22
HETATM   22  C   UNL     1      -7.989   9.037  65.565  1.00  0.00    -0.106 C  
HETATM   23  C   UNL     1      -8.589   9.917  64.745  1.00  0.00    -0.191 C  
BRANCH  23  24
HETATM   24  C   UNL     1      -8.656  11.415  64.902  1.00  0.00     0.381 C  
HETATM   25  H   UNL     1      -9.022  12.974  63.758  1.00  0.00     0.000 HD 
HETATM   26  O   UNL     1      -8.980  12.030  63.658  1.00  0.00     0.322 OA 
BRANCH  24  27
HETATM   27  C   UNL     1      -9.702  11.865  65.930  1.00  0.00    -0.258 C  
BRANCH  27  28
HETATM   28  C   UNL     1      -9.105  12.224  67.294  1.00  0.00    -0.184 C  
BRANCH  28  29
HETATM   29  C   UNL     1     -10.184  12.492  68.314  1.00  0.00    -0.235 A  
HETATM   30  C   UNL     1     -11.164  13.462  68.066  1.00  0.00    -0.298 A  
HETATM   31  C   UNL     1     -12.138  13.744  69.024  1.00  0.00    -0.359 A  
HETATM   32  C   UNL     1     -12.139  13.060  70.238  1.00  0.00    -0.388 A  
HETATM   33  C   UNL     1     -11.170  12.091  70.492  1.00  0.00     0.932 A  
HETATM   34  C   UNL     1     -10.196  11.807  69.535  1.00  0.00     0.461 A  
ENDBRANCH  28  29
ENDBRANCH  27  28
ENDBRANCH  24  27
ENDBRANCH  23  24
ENDBRANCH  20  22
ENDBRANCH  12  13
ENDBRANCH  11  12
ENDBRANCH   9  10
ENDBRANCH   8   9
ENDBRANCH   7   8
ENDBRANCH   4   7
ENDBRANCH   2   3
TORSDOF 12
ENDMDL
MODEL      399
REMARK 921   NORMALIZED FREE ENERGY PREDICTED BY IDOCK:   11.07 KCAL/MOL
REMARK 922        TOTAL FREE ENERGY PREDICTED BY IDOCK:   16.00 KCAL/MOL
REMARK 923 INTER-LIGAND FREE ENERGY PREDICTED BY IDOCK:   -1.49 KCAL/MOL
REMARK 924 INTRA-LIGAND FREE ENERGY PREDICTED BY IDOCK:   17.49 KCAL/MOL
REMARK 927      BINDING AFFINITY PREDICTED BY RF-SCORE:    0.00 PKD
ROOT
HETATM    1  C   UNL     1     -11.849  11.074  66.276  1.00  0.00     1.177 C  
HETATM    2  C   UNL     1     -11.487  11.937  65.082  1.00  0.00    -0.243 C  
ENDROOT
BRANCH   2   3
HETATM    3  N   UNL     1     -10.078  11.851  64.770  1.00  0.00    -0.260 N  
HETATM    4  C   UNL     1      -9.249  10.996  65.462  1.00  0.00    -0.213 C  
HETATM    5  H   UNL     1      -9.692  12.433  64.027  1.00  0.00     0.000 HD 
HETATM    6  O   UNL     1      -9.636  10.275  66.372  1.00  0.00    -0.171 OA 
BRANCH   4   7
HETATM    7  C   UNL     1      -7.814  11.027  64.974  1.00  0.00     0.349 C  
BRANCH   7   8
HETATM    8  C   UNL     1      -6.843  10.649  66.096  1.00  0.00    -0.135 C  
BRANCH   8   9
HETATM    9  C   UNL     1      -7.051  11.451  67.380  1.00  0.00    -0.114 C  
BRANCH   9  10
HETATM   10  C   UNL     1      -7.177  10.566  68.588  1.00  0.00    -0.087 C  
HETATM   11  C   UNL     1      -6.845   9.269  68.681  1.00  0.00    -0.061 C  
BRANCH  11  12
HETATM   12  C   UNL     1      -6.299   8.396  67.585  1.00  0.00    -0.053 C  
BRANCH  12  13
HETATM   13  C   UNL     1      -7.387   7.808  66.675  1.00  0.00    -0.088 C  
HETATM   14  C   UNL     1      -8.047   8.811  65.717  1.00  0.00    -0.109 C  
HETATM   15  C   UNL     1      -8.605   7.927  64.610  1.00  0.00     0.122 C  
HETATM   16  O   UNL     1      -7.093   9.697  65.143  1.00  0.00    -0.103 OA 
HETATM   17  H   UNL     1      -7.501  10.318  64.551  1.00  0.00     0.000 HD 
HETATM   18  C   UNL     1      -7.493   6.909  64.375  1.00  0.00    -0.100 C  
HETATM   19  O   UNL     1      -6.556   7.427  63.427  1.00  0.00    -0.052 OA 
HETATM   20  C   UNL     1      -6.790   6.722  65.739  1.00  0.00    -0.056 C  
HETATM   21  H   UNL     1      -5.864   6.793  63.281  1.00  0.00     0.000 HD 
BRANCH  20  22
HETATM   22  C   UNL     1      -6.999   5.327  66.288  1.00  0.00    -0.067 C  
HETATM   23  C   UNL     1      -7.882   5.041  67.260  1.00  0.00    -0.096 C  
BRANCH  23  24
HETATM   24  C   UNL     1      -8.099   3.711  67.935  1.00  0.00    -0.084 C  
HETATM   25  H   UNL     1      -7.103   2.029  68.170  1.00  0.00     0.000 HD 
HETATM   26  O   UNL     1      -6.966   2.867  67.744  1.00  0.00    -0.048 OA 
BRANCH  24  27
HETATM   27  C   UNL     1      -8.336   3.836  69.446  1.00  0.00    -0.082 C  
BRANCH  27  28
HETATM   28  C   UNL     1      -8.165   5.262  69.976  1.00  0.00    -0.084 C  
BRANCH  28  29
HETATM   29  C   UNL     1      -8.594   5.368  71.418  1.00  0.00    -0.131 A  
HETATM   30  C   UNL     1      -9.232   4.290  72.046  1.00  0.00    -0.169 A  
HETATM   31  C   UNL     1      -9.671   4.399  73.366  1.00  0.00    -0.150 A  
HETATM   32  C   UNL     1      -9.477   5.586  74.069  1.00  0.00    -0.137 A  
HETATM   33  C   UNL     1      -8.839   6.663  73.454  1.00  0.00    -0.138 A  
HETATM   34  C   UNL     1      -8.400   6.556  72.135  1.00  0.00    -0.107 A  
ENDBRANCH  28  29
ENDBRANCH  27  28
ENDBRANCH  24  27
ENDBRANCH  23  24
ENDBRANCH  20  22
ENDBRANCH  12  13
ENDBRANCH  11  12
ENDBRANCH   9  10
ENDBRANCH   8   9
ENDBRANCH   7   8
ENDBRANCH   4   7
ENDBRANCH   2   3
TORSDOF 12
ENDMDL
MODEL      400
REMARK 921   NORMALIZED FREE ENERGY PREDICTED BY IDOCK:   11.97 KCAL/MOL
REMARK 922        TOTAL FREE ENERGY PREDICTED BY IDOCK:   17.53 KCAL/MOL
REMARK 923 INTER-LIGAND FREE ENERGY PREDICTED BY IDOCK:   13.80 KCAL/MOL
REMARK 924 INTRA-LIGAND FREE ENERGY PREDICTED BY IDOCK:    3.74 KCAL/MOL
REMARK 927      BINDING AFFINITY PREDICTED BY RF-SCORE:    0.00 PKD
ROOT
HETATM    1  C   UNL     1      -8.110  19.620  68.701  1.00  0.00    -0.324 C  
HETATM    2  C   UNL     1      -7.995  19.688  67.190  1.00  0.00    -0.275 C  
ENDROOT
BRANCH   2   3
HETATM    3  N   UNL     1      -9.274  19.478  66.549  1.00  0.00    -0.348 N  
HETATM    4  C   UNL     1     -10.452  19.662  67.238  1.00  0.00    -0.469 C  
HETATM    5  H   UNL     1      -9.304  19.189  65.571  1.00  0.00     0.000 HD 
HETATM    6  O   UNL     1     -10.497  19.997  68.415  1.00  0.00    -0.411 OA 
BRANCH   4   7
HETATM    7  C   UNL     1     -11.686  19.421  66.392  1.00  0.00     1.530 C  
BRANCH   7   8
HETATM    8  C   UNL     1     -12.844  18.893  67.243  1.00  0.00     6.333 C  
BRANCH   8   9
HETATM    9  C   UNL     1     -12.465  17.698  68.117  1.00  0.00     4.238 C  
BRANCH   9  10
HETATM   10  C   UNL     1     -13.025  16.408  67.588  1.00  0.00     3.999 C  
HETATM   11  C   UNL     1     -12.493  15.182  67.710  1.00  0.00     0.747 C  
BRANCH  11  12
HETATM   12  C   UNL     1     -11.194  14.825  68.379  1.00  0.00    -0.298 C  
BRANCH  12  13
HETATM   13  C   UNL     1     -11.321  14.633  69.897  1.00  0.00    -0.302 C  
HETATM   14  C   UNL     1     -12.178  15.685  70.616  1.00  0.00    -0.405 C  
HETATM   15  C   UNL     1     -12.600  14.981  71.899  1.00  0.00    -0.403 C  
HETATM   16  O   UNL     1     -13.350  16.006  69.875  1.00  0.00    -0.335 OA 
HETATM   17  H   UNL     1     -13.880  16.657  70.320  1.00  0.00     0.000 HD 
HETATM   18  C   UNL     1     -12.942  13.569  71.430  1.00  0.00    -0.339 C  
HETATM   19  O   UNL     1     -14.306  13.517  71.006  1.00  0.00     0.806 OA 
HETATM   20  C   UNL     1     -12.019  13.285  70.223  1.00  0.00    -0.372 C  
HETATM   21  H   UNL     1     -14.518  12.638  70.714  1.00  0.00     0.000 HD 
BRANCH  20  22
HETATM   22  C   UNL     1     -11.019  12.191  70.529  1.00  0.00     1.656 C  
HETATM   23  C   UNL     1     -10.986  11.017  69.876  1.00  0.00    -0.218 C  
BRANCH  23  24
HETATM   24  C   UNL     1     -10.096   9.835  70.164  1.00  0.00    -0.265 C  
HETATM   25  H   UNL     1     -10.198   8.170  71.208  1.00  0.00     0.000 HD 
HETATM   26  O   UNL     1     -10.759   8.915  71.027  1.00  0.00    -0.213 OA 
BRANCH  24  27
HETATM   27  C   UNL     1      -9.682   9.072  68.899  1.00  0.00    -0.166 C  
BRANCH  27  28
HETATM   28  C   UNL     1      -8.540   9.739  68.128  1.00  0.00    -0.118 C  
BRANCH  28  29
HETATM   29  C   UNL     1      -8.389   9.149  66.748  1.00  0.00    -0.123 A  
HETATM   30  C   UNL     1      -9.387   9.343  65.785  1.00  0.00    -0.301 A  
HETATM   31  C   UNL     1      -9.274   8.762  64.521  1.00  0.00     0.381 A  
HETATM   32  C   UNL     1      -8.162   7.982  64.211  1.00  0.00    -0.070 A  
HETATM   33  C   UNL     1      -7.161   7.786  65.162  1.00  0.00    -0.065 A  
HETATM   34  C   UNL     1      -7.273   8.366  66.425  1.00  0.00    -0.072 A  
ENDBRANCH  28  29
ENDBRANCH  27  28
ENDBRANCH  24  27
ENDBRANCH  23  24
ENDBRANCH  20  22
ENDBRANCH  12  13
ENDBRANCH  11  12
ENDBRANCH   9  10
ENDBRANCH   8   9
ENDBRANCH   7   8
ENDBRANCH   4   7
ENDBRANCH   2   3
TORSDOF 12
ENDMDL
MODEL      401
REMARK 921   NORMALIZED FREE ENERGY PREDICTED BY IDOCK:   12.95 KCAL/MOL
REMARK 922        TOTAL FREE ENERGY PREDICTED BY IDOCK:   19.20 KCAL/MOL
REMARK 923 INTER-LIGAND FREE ENERGY PREDICTED BY IDOCK:   -3.51 KCAL/MOL
REMARK 924 INTRA-LIGAND FREE ENERGY PREDICTED BY IDOCK:   22.71 KCAL/MOL
REMARK 927      BINDING AFFINITY PREDICTED BY RF-SCORE:    0.00 PKD
ROOT
HETATM    1  C   UNL     1      -7.227   2.065  68.558  1.00  0.00    -0.043 C  
HETATM    2  C   UNL     1      -8.493   2.809  68.177  1.00  0.00    -0.082 C  
ENDROOT
BRANCH   2   3
HETATM    3  N   UNL     1      -8.197   4.093  67.584  1.00  0.00    -0.094 N  
HETATM    4  C   UNL     1      -7.106   4.262  66.761  1.00  0.00    -0.067 C  
HETATM    5  H   UNL     1      -8.807   4.888  67.778  1.00  0.00     0.000 HD 
HETATM    6  O   UNL     1      -6.323   3.360  66.490  1.00  0.00    -0.031 OA 
BRANCH   4   7
HETATM    7  C   UNL     1      -6.977   5.670  66.215  1.00  0.00    -0.060 C  
BRANCH   7   8
HETATM    8  C   UNL     1      -5.527   6.155  66.279  1.00  0.00    -0.013 C  
BRANCH   8   9
HETATM    9  C   UNL     1      -5.393   7.636  66.632  1.00  0.00    -0.024 C  
BRANCH   9  10
HETATM   10  C   UNL     1      -6.091   8.521  65.640  1.00  0.00    -0.048 C  
HETATM   11  C   UNL     1      -7.100   9.373  65.882  1.00  0.00    -0.091 C  
BRANCH  11  12
HETATM   12  C   UNL     1      -7.785   9.609  67.200  1.00  0.00    -0.091 C  
BRANCH  12  13
HETATM   13  C   UNL     1      -8.572   8.393  67.707  1.00  0.00    -0.130 C  
HETATM   14  C   UNL     1     -10.018   8.296  67.197  1.00  0.00    -0.239 C  
HETATM   15  C   UNL     1     -10.347   6.817  67.349  1.00  0.00    -0.286 C  
HETATM   16  O   UNL     1     -10.115   8.638  65.819  1.00  0.00    -0.406 OA 
HETATM   17  H   UNL     1     -11.010   8.578  65.504  1.00  0.00     0.000 HD 
HETATM   18  C   UNL     1      -9.075   6.121  66.873  1.00  0.00    -0.127 C  
HETATM   19  O   UNL     1      -9.124   5.941  65.455  1.00  0.00    -0.309 OA 
HETATM   20  C   UNL     1      -7.910   7.073  67.228  1.00  0.00    -0.110 C  
HETATM   21  H   UNL     1      -8.331   5.508  65.159  1.00  0.00     0.000 HD 
BRANCH  20  22
HETATM   22  C   UNL     1      -7.006   6.479  68.287  1.00  0.00    -0.080 C  
HETATM   23  C   UNL     1      -6.476   7.196  69.293  1.00  0.00    -0.036 C  
BRANCH  23  24
HETATM   24  C   UNL     1      -5.498   6.723  70.337  1.00  0.00    -0.023 C  
HETATM   25  H   UNL     1      -4.845   7.337  72.089  1.00  0.00     0.000 HD 
HETATM   26  O   UNL     1      -5.461   7.636  71.431  1.00  0.00    -0.034 OA 
BRANCH  24  27
HETATM   27  C   UNL     1      -5.843   5.338  70.899  1.00  0.00    -0.021 C  
BRANCH  27  28
HETATM   28  C   UNL     1      -6.147   5.344  72.400  1.00  0.00    -0.031 C  
BRANCH  28  29
HETATM   29  C   UNL     1      -7.291   6.271  72.726  1.00  0.00    -0.092 A  
HETATM   30  C   UNL     1      -7.301   7.582  72.231  1.00  0.00    -0.072 A  
HETATM   31  C   UNL     1      -8.335   8.457  72.566  1.00  0.00    -0.213 A  
HETATM   32  C   UNL     1      -9.366   8.029  73.399  1.00  0.00    -0.323 A  
HETATM   33  C   UNL     1      -9.368   6.726  73.893  1.00  0.00    -0.220 A  
HETATM   34  C   UNL     1      -8.335   5.850  73.560  1.00  0.00    -0.113 A  
ENDBRANCH  28  29
ENDBRANCH  27  28
ENDBRANCH  24  27
ENDBRANCH  23  24
ENDBRANCH  20  22
ENDBRANCH  12  13
ENDBRANCH  11  12
ENDBRANCH   9  10
ENDBRANCH   8   9
ENDBRANCH   7   8
ENDBRANCH   4   7
ENDBRANCH   2   3
TORSDOF 12
ENDMDL
MODEL      402
REMARK 921   NORMALIZED FREE ENERGY PREDICTED BY IDOCK:   22.53 KCAL/MOL
REMARK 922        TOTAL FREE ENERGY PREDICTED BY IDOCK:   35.51 KCAL/MOL
REMARK 923 INTER-LIGAND FREE ENERGY PREDICTED BY IDOCK:    2.99 KCAL/MOL
REMARK 924 INTRA-LIGAND FREE ENERGY PREDICTED BY IDOCK:   32.51 KCAL/MOL
REMARK 927      BINDING AFFINITY PREDICTED BY RF-SCORE:    0.00 PKD
ROOT
HETATM    1  C   UNL     1      -6.852   1.778  67.622  1.00  0.00    -0.035 C  
HETATM    2  C   UNL     1      -8.135   2.493  67.241  1.00  0.00    -0.071 C  
ENDROOT
BRANCH   2   3
HETATM    3  N   UNL     1      -7.867   3.772  66.623  1.00  0.00    -0.088 N  
HETATM    4  C   UNL     1      -6.778   3.948  65.797  1.00  0.00    -0.045 C  
HETATM    5  H   UNL     1      -8.493   4.557  66.801  1.00  0.00     0.000 HD 
HETATM    6  O   UNL     1      -5.976   3.058  65.544  1.00  0.00    -0.018 OA 
BRANCH   4   7
HETATM    7  C   UNL     1      -6.680   5.348  65.224  1.00  0.00    -0.045 C  
BRANCH   7   8
HETATM    8  C   UNL     1      -5.247   5.878  65.307  1.00  0.00    -0.013 C  
BRANCH   8   9
HETATM    9  C   UNL     1      -5.162   7.355  65.688  1.00  0.00    -0.028 C  
BRANCH   9  10
HETATM   10  C   UNL     1      -5.350   8.259  64.503  1.00  0.00    -0.036 C  
HETATM   11  C   UNL     1      -6.421   9.020  64.225  1.00  0.00    -0.079 C  
BRANCH  11  12
HETATM   12  C   UNL     1      -7.692   9.115  65.023  1.00  0.00    -0.109 C  
BRANCH  12  13
HETATM   13  C   UNL     1      -8.404   7.767  65.201  1.00  0.00    -0.113 C  
HETATM   14  C   UNL     1      -9.430   7.425  64.111  1.00  0.00     2.768 C  
HETATM   15  C   UNL     1      -9.537   5.908  64.190  1.00  0.00     1.632 C  
HETATM   16  O   UNL     1      -8.958   7.774  62.814  1.00  0.00    -0.147 OA 
HETATM   17  H   UNL     1      -9.592   7.563  62.140  1.00  0.00     0.000 HD 
HETATM   18  C   UNL     1      -8.089   5.461  64.370  1.00  0.00    -0.123 C  
HETATM   19  O   UNL     1      -7.468   5.306  63.092  1.00  0.00    -0.048 OA 
HETATM   20  C   UNL     1      -7.386   6.597  65.147  1.00  0.00    -0.081 C  
HETATM   21  H   UNL     1      -6.567   5.028  63.205  1.00  0.00     0.000 HD 
BRANCH  20  22
HETATM   22  C   UNL     1      -6.965   6.151  66.531  1.00  0.00    -0.067 C  
HETATM   23  C   UNL     1      -7.079   6.926  67.623  1.00  0.00    -0.085 C  
BRANCH  23  24
HETATM   24  C   UNL     1      -6.608   6.613  69.020  1.00  0.00    -0.044 C  
HETATM   25  H   UNL     1      -6.946   7.276  70.842  1.00  0.00     0.000 HD 
HETATM   26  O   UNL     1      -7.243   7.473  69.962  1.00  0.00    -0.066 OA 
BRANCH  24  27
HETATM   27  C   UNL     1      -6.899   5.167  69.441  1.00  0.00    -0.053 C  
BRANCH  27  28
HETATM   28  C   UNL     1      -7.996   5.047  70.503  1.00  0.00    -0.081 C  
BRANCH  28  29
HETATM   29  C   UNL     1      -9.285   5.673  70.034  1.00  0.00    -0.172 A  
HETATM   30  C   UNL     1      -9.676   6.930  70.516  1.00  0.00    -0.177 A  
HETATM   31  C   UNL     1     -10.889   7.494  70.120  1.00  0.00    -0.259 A  
HETATM   32  C   UNL     1     -11.722   6.806  69.240  1.00  0.00     0.050 A  
HETATM   33  C   UNL     1     -11.340   5.558  68.751  1.00  0.00     0.884 A  
HETATM   34  C   UNL     1     -10.128   4.992  69.147  1.00  0.00    -0.257 A  
ENDBRANCH  28  29
ENDBRANCH  27  28
ENDBRANCH  24  27
ENDBRANCH  23  24
ENDBRANCH  20  22
ENDBRANCH  12  13
ENDBRANCH  11  12
ENDBRANCH   9  10
ENDBRANCH   8   9
ENDBRANCH   7   8
ENDBRANCH   4   7
ENDBRANCH   2   3
TORSDOF 12
ENDMDL
MODEL      403
REMARK 921   NORMALIZED FREE ENERGY PREDICTED BY IDOCK:   28.02 KCAL/MOL
REMARK 922        TOTAL FREE ENERGY PREDICTED BY IDOCK:   44.84 KCAL/MOL
REMARK 923 INTER-LIGAND FREE ENERGY PREDICTED BY IDOCK:   43.52 KCAL/MOL
REMARK 924 INTRA-LIGAND FREE ENERGY PREDICTED BY IDOCK:    1.32 KCAL/MOL
REMARK 927      BINDING AFFINITY PREDICTED BY RF-SCORE:    0.00 PKD
ROOT
HETATM    1  C   UNL     1      -9.162  14.785  73.812  1.00  0.00     9.732 C  
HETATM    2  C   UNL     1      -9.446  14.218  72.434  1.00  0.00     8.191 C  
ENDROOT
BRANCH   2   3
HETATM    3  N   UNL     1     -10.124  12.944  72.512  1.00  0.00    13.924 N  
HETATM    4  C   UNL     1     -11.420  12.856  72.969  1.00  0.00     7.369 C  
HETATM    5  H   UNL     1      -9.634  12.096  72.225  1.00  0.00     0.000 HD 
HETATM    6  O   UNL     1     -12.068  13.826  73.341  1.00  0.00     0.469 OA 
BRANCH   4   7
HETATM    7  C   UNL     1     -11.967  11.443  72.953  1.00  0.00     6.052 C  
BRANCH   7   8
HETATM    8  C   UNL     1     -11.931  10.854  71.541  1.00  0.00     0.043 C  
BRANCH   8   9
HETATM    9  C   UNL     1     -11.395   9.424  71.487  1.00  0.00    -0.464 C  
BRANCH   9  10
HETATM   10  C   UNL     1     -12.470   8.405  71.742  1.00  0.00    -0.375 C  
HETATM   11  C   UNL     1     -12.369   7.286  72.476  1.00  0.00     0.061 C  
BRANCH  11  12
HETATM   12  C   UNL     1     -11.143   6.779  73.185  1.00  0.00    -0.220 C  
BRANCH  12  13
HETATM   13  C   UNL     1     -10.044   6.291  72.231  1.00  0.00    -0.197 C  
HETATM   14  C   UNL     1      -9.871   4.767  72.163  1.00  0.00    -0.172 C  
HETATM   15  C   UNL     1      -9.194   4.548  70.817  1.00  0.00    -0.202 C  
HETATM   16  O   UNL     1     -11.125   4.094  72.149  1.00  0.00     0.248 OA 
HETATM   17  H   UNL     1     -11.018   3.151  72.107  1.00  0.00     0.000 HD 
HETATM   18  C   UNL     1      -9.933   5.509  69.889  1.00  0.00    -0.215 C  
HETATM   19  O   UNL     1     -11.097   4.869  69.359  1.00  0.00     0.774 OA 
HETATM   20  C   UNL     1     -10.363   6.705  70.769  1.00  0.00    -0.232 C  
HETATM   21  H   UNL     1     -11.557   5.468  68.782  1.00  0.00     0.000 HD 
BRANCH  20  22
HETATM   22  C   UNL     1      -9.645   7.977  70.373  1.00  0.00    -0.174 C  
HETATM   23  C   UNL     1      -8.645   8.010  69.474  1.00  0.00    -0.136 C  
BRANCH  23  24
HETATM   24  C   UNL     1      -7.810   9.201  69.081  1.00  0.00    -0.092 C  
HETATM   25  H   UNL     1      -6.301  10.220  69.831  1.00  0.00     0.000 HD 
HETATM   26  O   UNL     1      -6.828   9.469  70.079  1.00  0.00    -0.056 OA 
BRANCH  24  27
HETATM   27  C   UNL     1      -7.077   9.007  67.747  1.00  0.00    -0.079 C  
BRANCH  27  28
HETATM   28  C   UNL     1      -7.516   7.754  66.985  1.00  0.00    -0.095 C  
BRANCH  28  29
HETATM   29  C   UNL     1      -7.558   8.001  65.497  1.00  0.00    -0.085 A  
HETATM   30  C   UNL     1      -8.071   9.205  64.997  1.00  0.00    -0.130 A  
HETATM   31  C   UNL     1      -8.153   9.421  63.621  1.00  0.00    -0.154 A  
HETATM   32  C   UNL     1      -7.724   8.435  62.734  1.00  0.00    -0.125 A  
HETATM   33  C   UNL     1      -7.208   7.236  63.223  1.00  0.00    -0.075 A  
HETATM   34  C   UNL     1      -7.125   7.018  64.598  1.00  0.00    -0.061 A  
ENDBRANCH  28  29
ENDBRANCH  27  28
ENDBRANCH  24  27
ENDBRANCH  23  24
ENDBRANCH  20  22
ENDBRANCH  12  13
ENDBRANCH  11  12
ENDBRANCH   9  10
ENDBRANCH   8   9
ENDBRANCH   7   8
ENDBRANCH   4   7
ENDBRANCH   2   3
TORSDOF 12
ENDMDL
