MODEL        1
REMARK 921   NORMALIZED FREE ENERGY PREDICTED BY IDOCK:   -7.60 KCAL/MOL
REMARK 922        TOTAL FREE ENERGY PREDICTED BY IDOCK:  -11.54 KCAL/MOL
REMARK 923 INTER-LIGAND FREE ENERGY PREDICTED BY IDOCK:  -10.26 KCAL/MOL
REMARK 924 INTRA-LIGAND FREE ENERGY PREDICTED BY IDOCK:   -1.28 KCAL/MOL
REMARK 927      BINDING AFFINITY PREDICTED BY RF-SCORE:    0.00 PKD
ROOT
HETATM    1  C   UNL     1     -10.742  16.903  69.549  1.00  0.00    -0.205 C  
HETATM    2  N   UNL     1     -11.378  15.896  70.360  1.00  0.00    -0.356 NA 
HETATM    3  C   UNL     1     -11.843  16.079  71.630  1.00  0.00    -0.507 A  
HETATM    4  N   UNL     1     -12.351  14.971  72.121  1.00  0.00    -0.338 NA 
HETATM    5  C   UNL     1     -12.209  14.034  71.124  1.00  0.00    -0.338 A  
HETATM    6  C   UNL     1     -12.561  12.678  71.094  1.00  0.00    -0.258 A  
HETATM    7  F   UNL     1     -13.191  12.158  72.159  1.00  0.00    -0.578 F  
HETATM    8  C   UNL     1     -12.276  11.868  69.958  1.00  0.00    -0.217 A  
HETATM    9  C   UNL     1     -11.414  13.864  68.820  1.00  0.00    -0.327 A  
HETATM   10  C   UNL     1     -11.795  12.498  68.790  1.00  0.00    -0.347 A  
HETATM   11  C   UNL     1     -11.615  14.595  70.000  1.00  0.00    -0.284 A  
ENDROOT
BRANCH   8  12
HETATM   12  N   UNL     1     -12.584  10.461  69.998  1.00  0.00    -0.538 NA 
HETATM   13  H   UNL     1     -13.304  10.106  69.370  1.00  0.00     0.000 HD 
BRANCH  12  14
HETATM   14  C   UNL     1     -11.932   9.532  70.873  1.00  0.00    -0.295 A  
HETATM   15 BR   UNL     1      -9.921   6.753  74.077  1.00  0.00    -0.382 Br 
HETATM   16  C   UNL     1     -10.535   9.477  70.993  1.00  0.00    -0.377 A  
HETATM   17  C   UNL     1     -12.107   7.774  72.558  1.00  0.00    -0.251 A  
HETATM   18  C   UNL     1     -12.692   8.621  71.621  1.00  0.00    -0.341 A  
HETATM   19  C   UNL     1     -10.728   7.816  72.739  1.00  0.00    -0.356 A  
HETATM   20  C   UNL     1      -9.936   8.648  71.948  1.00  0.00    -0.392 A  
HETATM   21  F   UNL     1     -14.026   8.605  71.471  1.00  0.00    -0.393 F  
ENDBRANCH  12  14
ENDBRANCH   8  12
BRANCH  10  22
HETATM   22  C   UNL     1     -11.737  11.863  67.425  1.00  0.00    -0.256 C  
HETATM   23  H   UNL     1     -12.011  13.704  66.456  1.00  0.00     0.000 HD 
HETATM   24  N   UNL     1     -11.858  12.702  66.344  1.00  0.00    -0.409 N  
HETATM   25  O   UNL     1     -11.506  10.658  67.322  1.00  0.00    -0.412 OA 
BRANCH  24  26
HETATM   26  O   UNL     1     -11.757  12.099  65.062  1.00  0.00    -0.351 OA 
BRANCH  26  27
HETATM   27  C   UNL     1     -11.308  13.111  64.147  1.00  0.00    -0.398 C  
BRANCH  27  28
HETATM   28  C   UNL     1     -11.567  14.511  64.700  1.00  0.00    -0.408 C  
HETATM   29  O   UNL     1     -12.051  15.396  63.693  1.00  0.00    -0.945 OA 
HETATM   30  H   UNL     1     -12.212  16.267  64.036  1.00  0.00     0.000 HD 
ENDBRANCH  27  28
ENDBRANCH  26  27
ENDBRANCH  24  26
ENDBRANCH  10  22
TORSDOF 6
ENDMDL
MODEL        2
REMARK 921   NORMALIZED FREE ENERGY PREDICTED BY IDOCK:   -7.54 KCAL/MOL
REMARK 922        TOTAL FREE ENERGY PREDICTED BY IDOCK:  -11.47 KCAL/MOL
REMARK 923 INTER-LIGAND FREE ENERGY PREDICTED BY IDOCK:  -10.34 KCAL/MOL
REMARK 924 INTRA-LIGAND FREE ENERGY PREDICTED BY IDOCK:   -1.13 KCAL/MOL
REMARK 927      BINDING AFFINITY PREDICTED BY RF-SCORE:    0.00 PKD
ROOT
HETATM    1  C   UNL     1     -12.360  15.959  70.875  1.00  0.00    -0.329 C  
HETATM    2  N   UNL     1     -12.771  14.682  71.400  1.00  0.00    -0.312 NA 
HETATM    3  C   UNL     1     -13.502  14.491  72.537  1.00  0.00    -0.483 A  
HETATM    4  N   UNL     1     -13.702  13.214  72.772  1.00  0.00    -0.554 NA 
HETATM    5  C   UNL     1     -13.073  12.553  71.742  1.00  0.00    -0.347 A  
HETATM    6  C   UNL     1     -12.947  11.181  71.485  1.00  0.00    -0.437 A  
HETATM    7  F   UNL     1     -13.561  10.318  72.309  1.00  0.00    -0.486 F  
HETATM    8  C   UNL     1     -12.201  10.707  70.369  1.00  0.00    -0.345 A  
HETATM    9  C   UNL     1     -11.844  13.037  69.686  1.00  0.00    -0.385 A  
HETATM   10  C   UNL     1     -11.742  11.647  69.421  1.00  0.00    -0.405 A  
HETATM   11  C   UNL     1     -12.494  13.454  70.857  1.00  0.00    -0.359 A  
ENDROOT
BRANCH   8  12
HETATM   12  N   UNL     1     -12.031   9.288  70.183  1.00  0.00    -0.454 NA 
HETATM   13  H   UNL     1     -12.403   8.863  69.334  1.00  0.00     0.000 HD 
BRANCH  12  14
HETATM   14  C   UNL     1     -11.367   8.440  71.129  1.00  0.00    -0.268 A  
HETATM   15 BR   UNL     1      -9.497   5.793  74.525  1.00  0.00    -0.189 Br 
HETATM   16  C   UNL     1     -10.146   8.797  71.720  1.00  0.00    -0.403 A  
HETATM   17  C   UNL     1     -11.366   6.390  72.455  1.00  0.00    -0.299 A  
HETATM   18  C   UNL     1     -11.922   7.196  71.467  1.00  0.00    -0.326 A  
HETATM   19  C   UNL     1     -10.213   6.819  73.107  1.00  0.00    -0.230 A  
HETATM   20  C   UNL     1      -9.589   8.007  72.732  1.00  0.00    -0.345 A  
HETATM   21  F   UNL     1     -13.053   6.800  70.861  1.00  0.00    -0.374 F  
ENDBRANCH  12  14
ENDBRANCH   8  12
BRANCH  10  22
HETATM   22  C   UNL     1     -11.220  11.309  68.049  1.00  0.00    -0.287 C  
HETATM   23  H   UNL     1     -11.950  13.100  67.231  1.00  0.00     0.000 HD 
HETATM   24  N   UNL     1     -11.435  12.237  67.057  1.00  0.00    -0.336 N  
HETATM   25  O   UNL     1     -10.563  10.282  67.881  1.00  0.00    -0.203 OA 
BRANCH  24  26
HETATM   26  O   UNL     1     -10.901  11.928  65.778  1.00  0.00    -0.277 OA 
BRANCH  26  27
HETATM   27  C   UNL     1     -11.882  12.313  64.801  1.00  0.00    -0.364 C  
BRANCH  27  28
HETATM   28  C   UNL     1     -11.702  13.770  64.380  1.00  0.00    -0.408 C  
HETATM   29  O   UNL     1     -12.348  14.046  63.140  1.00  0.00    -1.133 OA 
HETATM   30  H   UNL     1     -12.236  14.952  62.878  1.00  0.00     0.000 HD 
ENDBRANCH  27  28
ENDBRANCH  26  27
ENDBRANCH  24  26
ENDBRANCH  10  22
TORSDOF 6
ENDMDL
MODEL        3
REMARK 921   NORMALIZED FREE ENERGY PREDICTED BY IDOCK:   -7.37 KCAL/MOL
REMARK 922        TOTAL FREE ENERGY PREDICTED BY IDOCK:  -11.23 KCAL/MOL
REMARK 923 INTER-LIGAND FREE ENERGY PREDICTED BY IDOCK:  -10.11 KCAL/MOL
REMARK 924 INTRA-LIGAND FREE ENERGY PREDICTED BY IDOCK:   -1.13 KCAL/MOL
REMARK 927      BINDING AFFINITY PREDICTED BY RF-SCORE:    0.00 PKD
ROOT
HETATM    1  C   UNL     1     -10.110  19.347  69.076  1.00  0.00    -0.343 C  
HETATM    2  N   UNL     1     -10.117  18.579  67.857  1.00  0.00    -0.350 NA 
HETATM    3  C   UNL     1      -9.664  19.013  66.645  1.00  0.00    -0.341 A  
HETATM    4  N   UNL     1      -9.822  18.098  65.716  1.00  0.00    -0.501 NA 
HETATM    5  C   UNL     1     -10.401  17.026  66.357  1.00  0.00    -0.303 A  
HETATM    6  C   UNL     1     -10.806  15.781  65.860  1.00  0.00    -0.268 A  
HETATM    7  F   UNL     1     -10.572  15.501  64.568  1.00  0.00    -0.394 F  
HETATM    8  C   UNL     1     -11.435  14.821  66.703  1.00  0.00    -0.335 A  
HETATM    9  C   UNL     1     -11.096  16.344  68.597  1.00  0.00    -0.352 A  
HETATM   10  C   UNL     1     -11.481  15.076  68.091  1.00  0.00    -0.355 A  
HETATM   11  C   UNL     1     -10.581  17.298  67.708  1.00  0.00    -0.367 A  
ENDROOT
BRANCH   8  12
HETATM   12  N   UNL     1     -11.907  13.583  66.136  1.00  0.00    -0.369 NA 
HETATM   13  H   UNL     1     -12.882  13.325  66.284  1.00  0.00     0.000 HD 
BRANCH  12  14
HETATM   14  C   UNL     1     -11.079  12.695  65.375  1.00  0.00    -0.292 A  
HETATM   15 BR   UNL     1      -8.704   9.495  62.895  1.00  0.00    -0.234 Br 
HETATM   16  C   UNL     1     -10.015  11.988  65.956  1.00  0.00    -0.258 A  
HETATM   17  C   UNL     1     -10.589  11.605  63.246  1.00  0.00    -0.420 A  
HETATM   18  C   UNL     1     -11.302  12.533  64.000  1.00  0.00    -0.405 A  
HETATM   19  C   UNL     1      -9.612  10.835  63.870  1.00  0.00    -0.293 A  
HETATM   20  C   UNL     1      -9.307  11.035  65.216  1.00  0.00    -0.245 A  
HETATM   21  F   UNL     1     -12.267  13.252  63.406  1.00  0.00    -0.547 F  
ENDBRANCH  12  14
ENDBRANCH   8  12
BRANCH  10  22
HETATM   22  C   UNL     1     -11.820  14.057  69.147  1.00  0.00    -0.350 C  
HETATM   23  H   UNL     1     -12.739  15.495  70.369  1.00  0.00     0.000 HD 
HETATM   24  N   UNL     1     -12.500  14.511  70.252  1.00  0.00    -0.347 N  
HETATM   25  O   UNL     1     -11.559  12.869  68.956  1.00  0.00    -0.282 OA 
BRANCH  24  26
HETATM   26  O   UNL     1     -12.853  13.534  71.221  1.00  0.00    -0.346 OA 
BRANCH  26  27
HETATM   27  C   UNL     1     -13.621  14.199  72.237  1.00  0.00    -0.500 C  
BRANCH  27  28
HETATM   28  C   UNL     1     -12.819  15.320  72.894  1.00  0.00    -0.438 C  
HETATM   29  O   UNL     1     -13.667  16.280  73.520  1.00  0.00    -0.873 OA 
HETATM   30  H   UNL     1     -13.168  16.978  73.928  1.00  0.00     0.000 HD 
ENDBRANCH  27  28
ENDBRANCH  26  27
ENDBRANCH  24  26
ENDBRANCH  10  22
TORSDOF 6
ENDMDL
MODEL        4
REMARK 921   NORMALIZED FREE ENERGY PREDICTED BY IDOCK:   -7.26 KCAL/MOL
REMARK 922        TOTAL FREE ENERGY PREDICTED BY IDOCK:  -11.08 KCAL/MOL
REMARK 923 INTER-LIGAND FREE ENERGY PREDICTED BY IDOCK:   -9.80 KCAL/MOL
REMARK 924 INTRA-LIGAND FREE ENERGY PREDICTED BY IDOCK:   -1.28 KCAL/MOL
REMARK 927      BINDING AFFINITY PREDICTED BY RF-SCORE:    0.00 PKD
ROOT
HETATM    1  C   UNL     1     -11.135  10.766  67.690  1.00  0.00    -0.319 C  
HETATM    2  N   UNL     1     -10.973  11.988  66.944  1.00  0.00    -0.266 NA 
HETATM    3  C   UNL     1     -10.666  12.070  65.616  1.00  0.00    -0.272 A  
HETATM    4  N   UNL     1     -10.562  13.320  65.223  1.00  0.00    -0.304 NA 
HETATM    5  C   UNL     1     -10.814  14.076  66.344  1.00  0.00    -0.299 A  
HETATM    6  C   UNL     1     -10.826  15.465  66.520  1.00  0.00    -0.298 A  
HETATM    7  F   UNL     1     -10.619  16.247  65.448  1.00  0.00    -0.351 F  
HETATM    8  C   UNL     1     -11.069  16.044  67.798  1.00  0.00    -0.273 A  
HETATM    9  C   UNL     1     -11.443  13.787  68.687  1.00  0.00    -0.336 A  
HETATM   10  C   UNL     1     -11.477  15.196  68.851  1.00  0.00    -0.337 A  
HETATM   11  C   UNL     1     -11.092  13.262  67.436  1.00  0.00    -0.278 A  
ENDROOT
BRANCH   8  12
HETATM   12  N   UNL     1     -10.996  17.475  67.952  1.00  0.00    -0.243 NA 
HETATM   13  H   UNL     1     -11.868  18.000  68.005  1.00  0.00     0.000 HD 
BRANCH  12  14
HETATM   14  C   UNL     1      -9.763  18.201  68.034  1.00  0.00    -0.311 A  
HETATM   15 BR   UNL     1      -5.670  20.492  67.871  1.00  0.00    -0.302 Br 
HETATM   16  C   UNL     1      -8.616  17.654  68.628  1.00  0.00    -0.264 A  
HETATM   17  C   UNL     1      -8.484  20.212  67.506  1.00  0.00    -0.394 A  
HETATM   18  C   UNL     1      -9.686  19.511  67.539  1.00  0.00    -0.347 A  
HETATM   19  C   UNL     1      -7.334  19.604  68.000  1.00  0.00    -0.285 A  
HETATM   20  C   UNL     1      -7.396  18.338  68.579  1.00  0.00    -0.297 A  
HETATM   21  F   UNL     1     -10.789  20.083  67.031  1.00  0.00    -0.537 F  
ENDBRANCH  12  14
ENDBRANCH   8  12
BRANCH  10  22
HETATM   22  C   UNL     1     -12.067  15.660  70.157  1.00  0.00    -0.377 C  
HETATM   23  H   UNL     1     -13.723  14.385  69.967  1.00  0.00     0.000 HD 
HETATM   24  N   UNL     1     -13.249  15.077  70.547  1.00  0.00    -0.274 N  
HETATM   25  O   UNL     1     -11.448  16.463  70.856  1.00  0.00    -0.380 OA 
BRANCH  24  26
HETATM   26  O   UNL     1     -13.773  15.490  71.800  1.00  0.00    -0.476 OA 
BRANCH  26  27
HETATM   27  C   UNL     1     -13.405  14.492  72.766  1.00  0.00    -0.507 C  
BRANCH  27  28
HETATM   28  C   UNL     1     -12.586  15.098  73.904  1.00  0.00    -0.549 C  
HETATM   29  O   UNL     1     -13.040  16.406  74.244  1.00  0.00    -0.922 OA 
HETATM   30  H   UNL     1     -12.530  16.783  74.951  1.00  0.00     0.000 HD 
ENDBRANCH  27  28
ENDBRANCH  26  27
ENDBRANCH  24  26
ENDBRANCH  10  22
TORSDOF 6
ENDMDL
MODEL        5
REMARK 921   NORMALIZED FREE ENERGY PREDICTED BY IDOCK:   -7.15 KCAL/MOL
REMARK 922        TOTAL FREE ENERGY PREDICTED BY IDOCK:  -10.94 KCAL/MOL
REMARK 923 INTER-LIGAND FREE ENERGY PREDICTED BY IDOCK:   -9.63 KCAL/MOL
REMARK 924 INTRA-LIGAND FREE ENERGY PREDICTED BY IDOCK:   -1.30 KCAL/MOL
REMARK 927      BINDING AFFINITY PREDICTED BY RF-SCORE:    0.00 PKD
ROOT
HETATM    1  C   UNL     1     -13.150  10.497  71.345  1.00  0.00    -0.410 C  
HETATM    2  N   UNL     1     -12.983  11.928  71.335  1.00  0.00    -0.356 NA 
HETATM    3  C   UNL     1     -13.387  12.779  72.322  1.00  0.00    -0.458 A  
HETATM    4  N   UNL     1     -13.119  14.029  72.020  1.00  0.00    -0.375 NA 
HETATM    5  C   UNL     1     -12.515  13.982  70.784  1.00  0.00    -0.372 A  
HETATM    6  C   UNL     1     -12.031  15.013  69.969  1.00  0.00    -0.332 A  
HETATM    7  F   UNL     1     -12.085  16.272  70.431  1.00  0.00    -0.312 F  
HETATM    8  C   UNL     1     -11.476  14.739  68.686  1.00  0.00    -0.302 A  
HETATM    9  C   UNL     1     -11.766  12.343  69.134  1.00  0.00    -0.376 A  
HETATM   10  C   UNL     1     -11.256  13.392  68.326  1.00  0.00    -0.310 A  
HETATM   11  C   UNL     1     -12.402  12.670  70.340  1.00  0.00    -0.237 A  
ENDROOT
BRANCH   8  12
HETATM   12  N   UNL     1     -11.060  15.834  67.847  1.00  0.00    -0.333 NA 
HETATM   13  H   UNL     1     -11.557  15.986  66.970  1.00  0.00     0.000 HD 
BRANCH  12  14
HETATM   14  C   UNL     1      -9.985  16.722  68.178  1.00  0.00    -0.270 A  
HETATM   15 BR   UNL     1      -6.413  19.697  68.827  1.00  0.00    -0.332 Br 
HETATM   16  C   UNL     1      -8.731  16.250  68.593  1.00  0.00    -0.226 A  
HETATM   17  C   UNL     1      -9.135  19.005  68.336  1.00  0.00    -0.391 A  
HETATM   18  C   UNL     1     -10.180  18.110  68.123  1.00  0.00    -0.388 A  
HETATM   19  C   UNL     1      -7.871  18.509  68.637  1.00  0.00    -0.314 A  
HETATM   20  C   UNL     1      -7.667  17.138  68.786  1.00  0.00    -0.259 A  
HETATM   21  F   UNL     1     -11.392  18.587  67.799  1.00  0.00    -0.250 F  
ENDBRANCH  12  14
ENDBRANCH   8  12
BRANCH  10  22
HETATM   22  C   UNL     1     -10.410  12.933  67.167  1.00  0.00    -0.238 C  
HETATM   23  H   UNL     1     -12.043  12.013  66.221  1.00  0.00     0.000 HD 
HETATM   24  N   UNL     1     -11.049  12.237  66.169  1.00  0.00    -0.297 N  
HETATM   25  O   UNL     1      -9.224  13.259  67.109  1.00  0.00    -0.218 OA 
BRANCH  24  26
HETATM   26  O   UNL     1     -10.251  11.848  65.060  1.00  0.00    -0.261 OA 
BRANCH  26  27
HETATM   27  C   UNL     1     -10.624  12.683  63.952  1.00  0.00    -0.428 C  
BRANCH  27  28
HETATM   28  C   UNL     1     -12.140  12.732  63.780  1.00  0.00    -0.517 C  
HETATM   29  O   UNL     1     -12.573  13.985  63.256  1.00  0.00    -1.073 OA 
HETATM   30  H   UNL     1     -13.516  14.016  63.149  1.00  0.00     0.000 HD 
ENDBRANCH  27  28
ENDBRANCH  26  27
ENDBRANCH  24  26
ENDBRANCH  10  22
TORSDOF 6
ENDMDL
MODEL        6
REMARK 921   NORMALIZED FREE ENERGY PREDICTED BY IDOCK:   -7.09 KCAL/MOL
REMARK 922        TOTAL FREE ENERGY PREDICTED BY IDOCK:  -10.86 KCAL/MOL
REMARK 923 INTER-LIGAND FREE ENERGY PREDICTED BY IDOCK:   -9.80 KCAL/MOL
REMARK 924 INTRA-LIGAND FREE ENERGY PREDICTED BY IDOCK:   -1.06 KCAL/MOL
REMARK 927      BINDING AFFINITY PREDICTED BY RF-SCORE:    0.00 PKD
ROOT
HETATM    1  C   UNL     1     -11.160  10.860  67.402  1.00  0.00    -0.307 C  
HETATM    2  N   UNL     1     -10.986  12.128  66.740  1.00  0.00    -0.266 NA 
HETATM    3  C   UNL     1     -10.664  12.296  65.424  1.00  0.00    -0.284 A  
HETATM    4  N   UNL     1     -10.552  13.568  65.114  1.00  0.00    -0.336 NA 
HETATM    5  C   UNL     1     -10.815  14.249  66.280  1.00  0.00    -0.310 A  
HETATM    6  C   UNL     1     -10.826  15.624  66.546  1.00  0.00    -0.260 A  
HETATM    7  F   UNL     1     -10.605  16.474  65.530  1.00  0.00    -0.347 F  
HETATM    8  C   UNL     1     -11.082  16.119  67.857  1.00  0.00    -0.293 A  
HETATM    9  C   UNL     1     -11.473  13.810  68.592  1.00  0.00    -0.336 A  
HETATM   10  C   UNL     1     -11.505  15.205  68.847  1.00  0.00    -0.337 A  
HETATM   11  C   UNL     1     -11.108  13.367  67.313  1.00  0.00    -0.282 A  
ENDROOT
BRANCH   8  12
HETATM   12  N   UNL     1     -11.008  17.537  68.105  1.00  0.00    -0.238 NA 
HETATM   13  H   UNL     1     -11.850  18.017  68.421  1.00  0.00     0.000 HD 
BRANCH  12  14
HETATM   14  C   UNL     1      -9.813  18.309  67.931  1.00  0.00    -0.317 A  
HETATM   15 BR   UNL     1      -5.960  20.985  67.779  1.00  0.00    -0.419 Br 
HETATM   16  C   UNL     1      -9.791  19.484  67.165  1.00  0.00    -0.465 A  
HETATM   17  C   UNL     1      -7.453  18.652  68.454  1.00  0.00    -0.320 A  
HETATM   18  C   UNL     1      -8.610  17.880  68.512  1.00  0.00    -0.293 A  
HETATM   19  C   UNL     1      -7.486  19.870  67.782  1.00  0.00    -0.291 A  
HETATM   20  C   UNL     1      -8.642  20.281  67.120  1.00  0.00    -0.417 A  
HETATM   21  F   UNL     1      -8.589  16.722  69.189  1.00  0.00    -0.245 F  
ENDBRANCH  12  14
ENDBRANCH   8  12
BRANCH  10  22
HETATM   22  C   UNL     1     -12.108  15.585  70.174  1.00  0.00    -0.378 C  
HETATM   23  H   UNL     1     -13.694  14.228  69.944  1.00  0.00     0.000 HD 
HETATM   24  N   UNL     1     -13.253  14.922  70.547  1.00  0.00    -0.263 N  
HETATM   25  O   UNL     1     -11.529  16.393  70.900  1.00  0.00    -0.380 OA 
BRANCH  24  26
HETATM   26  O   UNL     1     -13.789  15.256  71.820  1.00  0.00    -0.435 OA 
BRANCH  26  27
HETATM   27  C   UNL     1     -13.241  14.329  72.771  1.00  0.00    -0.522 C  
BRANCH  27  28
HETATM   28  C   UNL     1     -12.474  15.055  73.874  1.00  0.00    -0.523 C  
HETATM   29  O   UNL     1     -13.076  16.305  74.201  1.00  0.00    -0.934 OA 
HETATM   30  H   UNL     1     -12.598  16.757  74.887  1.00  0.00     0.000 HD 
ENDBRANCH  27  28
ENDBRANCH  26  27
ENDBRANCH  24  26
ENDBRANCH  10  22
TORSDOF 6
ENDMDL
MODEL        7
REMARK 921   NORMALIZED FREE ENERGY PREDICTED BY IDOCK:   -7.04 KCAL/MOL
REMARK 922        TOTAL FREE ENERGY PREDICTED BY IDOCK:  -10.79 KCAL/MOL
REMARK 923 INTER-LIGAND FREE ENERGY PREDICTED BY IDOCK:   -9.74 KCAL/MOL
REMARK 924 INTRA-LIGAND FREE ENERGY PREDICTED BY IDOCK:   -1.04 KCAL/MOL
REMARK 927      BINDING AFFINITY PREDICTED BY RF-SCORE:    0.00 PKD
ROOT
HETATM    1  C   UNL     1     -12.466  15.764  70.796  1.00  0.00    -0.374 C  
HETATM    2  N   UNL     1     -12.804  14.475  71.343  1.00  0.00    -0.316 NA 
HETATM    3  C   UNL     1     -13.479  14.263  72.510  1.00  0.00    -0.515 A  
HETATM    4  N   UNL     1     -13.619  12.980  72.760  1.00  0.00    -0.523 NA 
HETATM    5  C   UNL     1     -13.008  12.338  71.707  1.00  0.00    -0.325 A  
HETATM    6  C   UNL     1     -12.838  10.971  71.452  1.00  0.00    -0.443 A  
HETATM    7  F   UNL     1     -13.383  10.089  72.304  1.00  0.00    -0.486 F  
HETATM    8  C   UNL     1     -12.122  10.519  70.307  1.00  0.00    -0.318 A  
HETATM    9  C   UNL     1     -11.886  12.858  69.600  1.00  0.00    -0.387 A  
HETATM   10  C   UNL     1     -11.741  11.471  69.336  1.00  0.00    -0.413 A  
HETATM   11  C   UNL     1     -12.503  13.256  70.794  1.00  0.00    -0.324 A  
ENDROOT
BRANCH   8  12
HETATM   12  N   UNL     1     -11.904   9.107  70.121  1.00  0.00    -0.460 NA 
HETATM   13  H   UNL     1     -12.216   8.681  69.249  1.00  0.00     0.000 HD 
BRANCH  12  14
HETATM   14  C   UNL     1     -11.272   8.269  71.096  1.00  0.00    -0.258 A  
HETATM   15 BR   UNL     1      -8.979   5.335  73.954  1.00  0.00    -0.119 Br 
HETATM   16  C   UNL     1     -11.940   7.191  71.696  1.00  0.00    -0.353 A  
HETATM   17  C   UNL     1      -9.270   7.685  72.367  1.00  0.00    -0.201 A  
HETATM   18  C   UNL     1      -9.955   8.534  71.501  1.00  0.00    -0.244 A  
HETATM   19  C   UNL     1      -9.919   6.558  72.862  1.00  0.00    -0.174 A  
HETATM   20  C   UNL     1     -11.256   6.316  72.548  1.00  0.00    -0.316 A  
HETATM   21  F   UNL     1      -9.319   9.602  70.996  1.00  0.00    -0.292 F  
ENDBRANCH  12  14
ENDBRANCH   8  12
BRANCH  10  22
HETATM   22  C   UNL     1     -11.264  11.146  67.945  1.00  0.00    -0.302 C  
HETATM   23  H   UNL     1     -12.155  12.867  67.139  1.00  0.00     0.000 HD 
HETATM   24  N   UNL     1     -11.591  12.038  66.952  1.00  0.00    -0.343 N  
HETATM   25  O   UNL     1     -10.546  10.163  67.759  1.00  0.00    -0.218 OA 
BRANCH  24  26
HETATM   26  O   UNL     1     -11.099  11.744  65.652  1.00  0.00    -0.305 OA 
BRANCH  26  27
HETATM   27  C   UNL     1     -11.255  12.932  64.858  1.00  0.00    -0.300 C  
BRANCH  27  28
HETATM   28  C   UNL     1     -12.121  12.666  63.629  1.00  0.00    -0.547 C  
HETATM   29  O   UNL     1     -11.741  11.465  62.963  1.00  0.00    -0.887 OA 
HETATM   30  H   UNL     1     -12.279  11.300  62.198  1.00  0.00     0.000 HD 
ENDBRANCH  27  28
ENDBRANCH  26  27
ENDBRANCH  24  26
ENDBRANCH  10  22
TORSDOF 6
ENDMDL
MODEL        8
REMARK 921   NORMALIZED FREE ENERGY PREDICTED BY IDOCK:   -6.93 KCAL/MOL
REMARK 922        TOTAL FREE ENERGY PREDICTED BY IDOCK:  -10.64 KCAL/MOL
REMARK 923 INTER-LIGAND FREE ENERGY PREDICTED BY IDOCK:   -9.39 KCAL/MOL
REMARK 924 INTRA-LIGAND FREE ENERGY PREDICTED BY IDOCK:   -1.25 KCAL/MOL
REMARK 927      BINDING AFFINITY PREDICTED BY RF-SCORE:    0.00 PKD
ROOT
HETATM    1  C   UNL     1     -12.863  10.248  71.635  1.00  0.00    -0.463 C  
HETATM    2  N   UNL     1     -12.864  11.675  71.436  1.00  0.00    -0.399 NA 
HETATM    3  C   UNL     1     -13.347  12.597  72.319  1.00  0.00    -0.422 A  
HETATM    4  N   UNL     1     -13.232  13.819  71.849  1.00  0.00    -0.375 NA 
HETATM    5  C   UNL     1     -12.650  13.679  70.610  1.00  0.00    -0.296 A  
HETATM    6  C   UNL     1     -12.305  14.642  69.654  1.00  0.00    -0.230 A  
HETATM    7  F   UNL     1     -12.497  15.936  69.952  1.00  0.00    -0.363 F  
HETATM    8  C   UNL     1     -11.746  14.267  68.399  1.00  0.00    -0.338 A  
HETATM    9  C   UNL     1     -11.745  11.933  69.160  1.00  0.00    -0.380 A  
HETATM   10  C   UNL     1     -11.377  12.917  68.207  1.00  0.00    -0.326 A  
HETATM   11  C   UNL     1     -12.393  12.341  70.334  1.00  0.00    -0.228 A  
ENDROOT
BRANCH   8  12
HETATM   12  N   UNL     1     -11.477  15.282  67.412  1.00  0.00    -0.292 NA 
HETATM   13  H   UNL     1     -12.185  15.464  66.701  1.00  0.00     0.000 HD 
BRANCH  12  14
HETATM   14  C   UNL     1     -10.268  16.050  67.376  1.00  0.00    -0.273 A  
HETATM   15 BR   UNL     1      -6.097  18.203  67.404  1.00  0.00    -0.171 Br 
HETATM   16  C   UNL     1      -9.973  17.019  68.347  1.00  0.00    -0.289 A  
HETATM   17  C   UNL     1      -8.120  16.516  66.313  1.00  0.00    -0.341 A  
HETATM   18  C   UNL     1      -9.351  15.866  66.331  1.00  0.00    -0.297 A  
HETATM   19  C   UNL     1      -7.803  17.390  67.348  1.00  0.00    -0.196 A  
HETATM   20  C   UNL     1      -8.729  17.661  68.354  1.00  0.00    -0.284 A  
HETATM   21  F   UNL     1      -9.644  14.997  65.351  1.00  0.00    -0.354 F  
ENDBRANCH  12  14
ENDBRANCH   8  12
BRANCH  10  22
HETATM   22  C   UNL     1     -10.505  12.409  67.088  1.00  0.00    -0.219 C  
HETATM   23  H   UNL     1     -12.149  12.126  65.813  1.00  0.00     0.000 HD 
HETATM   24  N   UNL     1     -11.136  12.069  65.915  1.00  0.00    -0.313 N  
HETATM   25  O   UNL     1      -9.282  12.395  67.225  1.00  0.00    -0.176 OA 
BRANCH  24  26
HETATM   26  O   UNL     1     -10.300  11.633  64.853  1.00  0.00    -0.256 OA 
BRANCH  26  27
HETATM   27  C   UNL     1     -10.627  12.425  63.699  1.00  0.00    -0.445 C  
BRANCH  27  28
HETATM   28  C   UNL     1     -12.139  12.561  63.531  1.00  0.00    -0.562 C  
HETATM   29  O   UNL     1     -12.505  13.854  63.056  1.00  0.00    -1.099 OA 
HETATM   30  H   UNL     1     -13.445  13.938  62.952  1.00  0.00     0.000 HD 
ENDBRANCH  27  28
ENDBRANCH  26  27
ENDBRANCH  24  26
ENDBRANCH  10  22
TORSDOF 6
ENDMDL
MODEL        9
REMARK 921   NORMALIZED FREE ENERGY PREDICTED BY IDOCK:   -6.90 KCAL/MOL
REMARK 922        TOTAL FREE ENERGY PREDICTED BY IDOCK:  -10.60 KCAL/MOL
REMARK 923 INTER-LIGAND FREE ENERGY PREDICTED BY IDOCK:   -8.97 KCAL/MOL
REMARK 924 INTRA-LIGAND FREE ENERGY PREDICTED BY IDOCK:   -1.63 KCAL/MOL
REMARK 927      BINDING AFFINITY PREDICTED BY RF-SCORE:    0.00 PKD
ROOT
HETATM    1  C   UNL     1      -7.992   8.083  64.578  1.00  0.00    -0.151 C  
HETATM    2  N   UNL     1      -8.782   9.188  64.096  1.00  0.00    -0.179 NA 
HETATM    3  C   UNL     1      -8.873   9.587  62.793  1.00  0.00    -0.238 A  
HETATM    4  N   UNL     1      -9.650  10.638  62.665  1.00  0.00    -0.288 NA 
HETATM    5  C   UNL     1     -10.080  10.929  63.940  1.00  0.00    -0.361 A  
HETATM    6  C   UNL     1     -10.915  11.952  64.406  1.00  0.00    -0.337 A  
HETATM    7  F   UNL     1     -11.464  12.787  63.510  1.00  0.00    -0.444 F  
HETATM    8  C   UNL     1     -11.196  12.099  65.794  1.00  0.00    -0.339 A  
HETATM    9  C   UNL     1      -9.896  10.060  66.216  1.00  0.00    -0.297 A  
HETATM   10  C   UNL     1     -10.763  11.085  66.676  1.00  0.00    -0.305 A  
HETATM   11  C   UNL     1      -9.561  10.021  64.855  1.00  0.00    -0.310 A  
ENDROOT
BRANCH   8  12
HETATM   12  N   UNL     1     -11.998  13.210  66.240  1.00  0.00    -0.406 NA 
HETATM   13  H   UNL     1     -13.011  13.095  66.267  1.00  0.00     0.000 HD 
BRANCH  12  14
HETATM   14  C   UNL     1     -11.448  14.469  66.649  1.00  0.00    -0.366 A  
HETATM   15 BR   UNL     1     -10.061  18.757  67.961  1.00  0.00    -0.446 Br 
HETATM   16  C   UNL     1     -10.711  15.279  65.772  1.00  0.00    -0.357 A  
HETATM   17  C   UNL     1     -11.188  16.171  68.379  1.00  0.00    -0.358 A  
HETATM   18  C   UNL     1     -11.615  14.911  67.970  1.00  0.00    -0.341 A  
HETATM   19  C   UNL     1     -10.556  17.003  67.460  1.00  0.00    -0.310 A  
HETATM   20  C   UNL     1     -10.297  16.557  66.165  1.00  0.00    -0.344 A  
HETATM   21  F   UNL     1     -12.254  14.122  68.847  1.00  0.00    -0.368 F  
ENDBRANCH  12  14
ENDBRANCH   8  12
BRANCH  10  22
HETATM   22  C   UNL     1     -11.229  10.918  68.099  1.00  0.00    -0.301 C  
HETATM   23  H   UNL     1      -9.313  10.371  68.758  1.00  0.00     0.000 HD 
HETATM   24  N   UNL     1     -10.281  10.552  69.024  1.00  0.00    -0.205 N  
HETATM   25  O   UNL     1     -12.393  11.187  68.396  1.00  0.00    -0.556 OA 
BRANCH  24  26
HETATM   26  O   UNL     1     -10.722  10.440  70.370  1.00  0.00    -0.269 OA 
BRANCH  26  27
HETATM   27  C   UNL     1     -10.765   9.040  70.689  1.00  0.00    -0.239 C  
BRANCH  27  28
HETATM   28  C   UNL     1     -12.141   8.634  71.215  1.00  0.00    -0.290 C  
HETATM   29  O   UNL     1     -13.169   9.486  70.718  1.00  0.00    -0.568 OA 
HETATM   30  H   UNL     1     -14.024   9.234  71.046  1.00  0.00     0.000 HD 
ENDBRANCH  27  28
ENDBRANCH  26  27
ENDBRANCH  24  26
ENDBRANCH  10  22
TORSDOF 6
ENDMDL
MODEL       10
REMARK 921   NORMALIZED FREE ENERGY PREDICTED BY IDOCK:   -6.90 KCAL/MOL
REMARK 922        TOTAL FREE ENERGY PREDICTED BY IDOCK:  -10.60 KCAL/MOL
REMARK 923 INTER-LIGAND FREE ENERGY PREDICTED BY IDOCK:   -9.02 KCAL/MOL
REMARK 924 INTRA-LIGAND FREE ENERGY PREDICTED BY IDOCK:   -1.58 KCAL/MOL
REMARK 927      BINDING AFFINITY PREDICTED BY RF-SCORE:    0.00 PKD
ROOT
HETATM    1  C   UNL     1     -10.911   8.606  70.878  1.00  0.00    -0.253 C  
HETATM    2  N   UNL     1     -10.963   9.322  69.628  1.00  0.00    -0.213 NA 
HETATM    3  C   UNL     1     -10.633   8.809  68.407  1.00  0.00    -0.137 A  
HETATM    4  N   UNL     1     -10.759   9.708  67.457  1.00  0.00    -0.281 NA 
HETATM    5  C   UNL     1     -11.190  10.850  68.093  1.00  0.00    -0.301 A  
HETATM    6  C   UNL     1     -11.476  12.122  67.582  1.00  0.00    -0.331 A  
HETATM    7  F   UNL     1     -11.388  12.312  66.256  1.00  0.00    -0.311 F  
HETATM    8  C   UNL     1     -11.870  13.189  68.438  1.00  0.00    -0.351 A  
HETATM    9  C   UNL     1     -11.831  11.617  70.322  1.00  0.00    -0.414 A  
HETATM   10  C   UNL     1     -12.142  12.895  69.792  1.00  0.00    -0.312 A  
HETATM   11  C   UNL     1     -11.343  10.628  69.456  1.00  0.00    -0.277 A  
ENDROOT
BRANCH   8  12
HETATM   12  N   UNL     1     -12.079  14.502  67.883  1.00  0.00    -0.596 NA 
HETATM   13  H   UNL     1     -13.031  14.776  67.637  1.00  0.00     0.000 HD 
BRANCH  12  14
HETATM   14  C   UNL     1     -11.024  15.444  67.656  1.00  0.00    -0.315 A  
HETATM   15 BR   UNL     1      -7.302  18.181  66.824  1.00  0.00    -0.251 Br 
HETATM   16  C   UNL     1     -10.370  16.098  68.710  1.00  0.00    -0.248 A  
HETATM   17  C   UNL     1      -9.548  16.588  66.083  1.00  0.00    -0.344 A  
HETATM   18  C   UNL     1     -10.635  15.760  66.345  1.00  0.00    -0.307 A  
HETATM   19  C   UNL     1      -8.845  17.138  67.150  1.00  0.00    -0.220 A  
HETATM   20  C   UNL     1      -9.261  16.914  68.462  1.00  0.00    -0.260 A  
HETATM   21  F   UNL     1     -11.294  15.202  65.317  1.00  0.00    -0.334 F  
ENDBRANCH  12  14
ENDBRANCH   8  12
BRANCH  10  22
HETATM   22  C   UNL     1     -12.854  13.813  70.751  1.00  0.00    -0.232 C  
HETATM   23  H   UNL     1     -12.762  12.408  72.308  1.00  0.00     0.000 HD 
HETATM   24  N   UNL     1     -13.054  13.345  72.028  1.00  0.00    -0.380 N  
HETATM   25  O   UNL     1     -13.152  14.955  70.397  1.00  0.00    -0.284 OA 
BRANCH  24  26
HETATM   26  O   UNL     1     -13.686  14.235  72.935  1.00  0.00    -0.629 OA 
BRANCH  26  27
HETATM   27  C   UNL     1     -12.655  14.827  73.742  1.00  0.00    -0.327 C  
BRANCH  27  28
HETATM   28  C   UNL     1     -12.574  16.335  73.520  1.00  0.00    -0.517 C  
HETATM   29  O   UNL     1     -11.794  16.660  72.372  1.00  0.00    -0.594 OA 
HETATM   30  H   UNL     1     -11.743  17.598  72.234  1.00  0.00     0.000 HD 
ENDBRANCH  27  28
ENDBRANCH  26  27
ENDBRANCH  24  26
ENDBRANCH  10  22
TORSDOF 6
ENDMDL
MODEL       11
REMARK 921   NORMALIZED FREE ENERGY PREDICTED BY IDOCK:   -6.87 KCAL/MOL
REMARK 922        TOTAL FREE ENERGY PREDICTED BY IDOCK:  -10.56 KCAL/MOL
REMARK 923 INTER-LIGAND FREE ENERGY PREDICTED BY IDOCK:   -9.04 KCAL/MOL
REMARK 924 INTRA-LIGAND FREE ENERGY PREDICTED BY IDOCK:   -1.52 KCAL/MOL
REMARK 927      BINDING AFFINITY PREDICTED BY RF-SCORE:    0.00 PKD
ROOT
HETATM    1  C   UNL     1      -9.563  16.928  67.369  1.00  0.00    -0.241 C  
HETATM    2  N   UNL     1     -10.353  16.197  68.326  1.00  0.00    -0.257 NA 
HETATM    3  C   UNL     1     -10.829  16.694  69.505  1.00  0.00    -0.285 A  
HETATM    4  N   UNL     1     -11.497  15.783  70.176  1.00  0.00    -0.330 NA 
HETATM    5  C   UNL     1     -11.449  14.650  69.397  1.00  0.00    -0.296 A  
HETATM    6  C   UNL     1     -11.978  13.372  69.619  1.00  0.00    -0.324 A  
HETATM    7  F   UNL     1     -12.705  13.164  70.727  1.00  0.00    -0.380 F  
HETATM    8  C   UNL     1     -11.768  12.316  68.686  1.00  0.00    -0.328 A  
HETATM    9  C   UNL     1     -10.612  13.912  67.224  1.00  0.00    -0.276 A  
HETATM   10  C   UNL     1     -11.171  12.628  67.445  1.00  0.00    -0.337 A  
HETATM   11  C   UNL     1     -10.751  14.889  68.220  1.00  0.00    -0.249 A  
ENDROOT
BRANCH   8  12
HETATM   12  N   UNL     1     -12.262  10.997  68.988  1.00  0.00    -0.669 NA 
HETATM   13  H   UNL     1     -12.970  10.594  68.375  1.00  0.00     0.000 HD 
BRANCH  12  14
HETATM   14  C   UNL     1     -11.813  10.220  70.105  1.00  0.00    -0.263 A  
HETATM   15 BR   UNL     1     -10.323   7.326  73.487  1.00  0.00    -0.400 Br 
HETATM   16  C   UNL     1     -12.686   9.798  71.119  1.00  0.00    -0.433 A  
HETATM   17  C   UNL     1      -9.996   9.045  71.237  1.00  0.00    -0.381 A  
HETATM   18  C   UNL     1     -10.456   9.884  70.225  1.00  0.00    -0.291 A  
HETATM   19  C   UNL     1     -10.903   8.549  72.168  1.00  0.00    -0.357 A  
HETATM   20  C   UNL     1     -12.241   8.936  72.127  1.00  0.00    -0.437 A  
HETATM   21  F   UNL     1      -9.588  10.336  69.307  1.00  0.00    -0.181 F  
ENDBRANCH  12  14
ENDBRANCH   8  12
BRANCH  10  22
HETATM   22  C   UNL     1     -11.155  11.723  66.241  1.00  0.00    -0.311 C  
HETATM   23  H   UNL     1     -11.731  13.276  64.952  1.00  0.00     0.000 HD 
HETATM   24  N   UNL     1     -11.469  12.294  65.031  1.00  0.00    -0.329 N  
HETATM   25  O   UNL     1     -10.790  10.553  66.360  1.00  0.00    -0.146 OA 
BRANCH  24  26
HETATM   26  O   UNL     1     -11.408  11.442  63.896  1.00  0.00    -0.370 OA 
BRANCH  26  27
HETATM   27  C   UNL     1     -10.153  11.690  63.242  1.00  0.00    -0.423 C  
BRANCH  27  28
HETATM   28  C   UNL     1      -9.423  10.386  62.931  1.00  0.00    -0.325 C  
HETATM   29  O   UNL     1      -9.368   9.526  64.066  1.00  0.00    -0.421 OA 
HETATM   30  H   UNL     1      -8.913   8.715  63.873  1.00  0.00     0.000 HD 
ENDBRANCH  27  28
ENDBRANCH  26  27
ENDBRANCH  24  26
ENDBRANCH  10  22
TORSDOF 6
ENDMDL
MODEL       12
REMARK 921   NORMALIZED FREE ENERGY PREDICTED BY IDOCK:   -6.82 KCAL/MOL
REMARK 922        TOTAL FREE ENERGY PREDICTED BY IDOCK:  -10.49 KCAL/MOL
REMARK 923 INTER-LIGAND FREE ENERGY PREDICTED BY IDOCK:   -9.38 KCAL/MOL
REMARK 924 INTRA-LIGAND FREE ENERGY PREDICTED BY IDOCK:   -1.11 KCAL/MOL
REMARK 927      BINDING AFFINITY PREDICTED BY RF-SCORE:    0.00 PKD
ROOT
HETATM    1  C   UNL     1     -12.660  12.768  70.872  1.00  0.00    -0.255 C  
HETATM    2  N   UNL     1     -12.091  14.082  70.712  1.00  0.00    -0.347 NA 
HETATM    3  C   UNL     1     -11.793  14.945  71.727  1.00  0.00    -0.356 A  
HETATM    4  N   UNL     1     -11.308  16.077  71.269  1.00  0.00    -0.381 NA 
HETATM    5  C   UNL     1     -11.292  15.938  69.900  1.00  0.00    -0.348 A  
HETATM    6  C   UNL     1     -10.890  16.833  68.900  1.00  0.00    -0.301 A  
HETATM    7  F   UNL     1     -10.376  18.016  69.271  1.00  0.00    -0.369 F  
HETATM    8  C   UNL     1     -11.003  16.496  67.521  1.00  0.00    -0.166 A  
HETATM    9  C   UNL     1     -11.791  14.269  68.187  1.00  0.00    -0.374 A  
HETATM   10  C   UNL     1     -11.359  15.173  67.182  1.00  0.00    -0.291 A  
HETATM   11  C   UNL     1     -11.764  14.686  69.526  1.00  0.00    -0.324 A  
ENDROOT
BRANCH   8  12
HETATM   12  N   UNL     1     -10.651  17.474  66.523  1.00  0.00    -0.249 NA 
HETATM   13  H   UNL     1     -11.216  17.524  65.676  1.00  0.00     0.000 HD 
BRANCH  12  14
HETATM   14  C   UNL     1      -9.549  18.380  66.657  1.00  0.00    -0.320 A  
HETATM   15 BR   UNL     1      -5.864  21.165  67.492  1.00  0.00    -0.432 Br 
HETATM   16  C   UNL     1      -9.734  19.740  66.944  1.00  0.00    -0.504 A  
HETATM   17  C   UNL     1      -7.134  18.742  66.690  1.00  0.00    -0.231 A  
HETATM   18  C   UNL     1      -8.236  17.921  66.469  1.00  0.00    -0.269 A  
HETATM   19  C   UNL     1      -7.342  20.060  67.084  1.00  0.00    -0.258 A  
HETATM   20  C   UNL     1      -8.635  20.570  67.193  1.00  0.00    -0.364 A  
HETATM   21  F   UNL     1      -8.036  16.640  66.122  1.00  0.00    -0.303 F  
ENDBRANCH  12  14
ENDBRANCH   8  12
BRANCH  10  22
HETATM   22  C   UNL     1     -11.226  14.565  65.810  1.00  0.00    -0.334 C  
HETATM   23  H   UNL     1     -13.284  14.169  65.687  1.00  0.00     0.000 HD 
HETATM   24  N   UNL     1     -12.382  14.120  65.213  1.00  0.00    -0.445 N  
HETATM   25  O   UNL     1     -10.131  14.562  65.247  1.00  0.00    -0.369 OA 
BRANCH  24  26
HETATM   26  O   UNL     1     -12.251  13.589  63.902  1.00  0.00    -0.566 OA 
BRANCH  26  27
HETATM   27  C   UNL     1     -12.083  12.168  64.032  1.00  0.00    -0.443 C  
BRANCH  27  28
HETATM   28  C   UNL     1     -10.896  11.673  63.208  1.00  0.00    -0.304 C  
HETATM   29  O   UNL     1      -9.656  11.924  63.865  1.00  0.00    -0.481 OA 
HETATM   30  H   UNL     1      -8.918  11.617  63.353  1.00  0.00     0.000 HD 
ENDBRANCH  27  28
ENDBRANCH  26  27
ENDBRANCH  24  26
ENDBRANCH  10  22
TORSDOF 6
ENDMDL
MODEL       13
REMARK 921   NORMALIZED FREE ENERGY PREDICTED BY IDOCK:   -6.79 KCAL/MOL
REMARK 922        TOTAL FREE ENERGY PREDICTED BY IDOCK:  -10.46 KCAL/MOL
REMARK 923 INTER-LIGAND FREE ENERGY PREDICTED BY IDOCK:   -9.69 KCAL/MOL
REMARK 924 INTRA-LIGAND FREE ENERGY PREDICTED BY IDOCK:   -0.77 KCAL/MOL
REMARK 927      BINDING AFFINITY PREDICTED BY RF-SCORE:    0.00 PKD
ROOT
HETATM    1  C   UNL     1     -10.687  16.001  65.525  1.00  0.00    -0.361 C  
HETATM    2  N   UNL     1     -10.716  14.568  65.674  1.00  0.00    -0.311 NA 
HETATM    3  C   UNL     1     -10.266  13.667  64.752  1.00  0.00    -0.337 A  
HETATM    4  N   UNL     1     -10.446  12.431  65.159  1.00  0.00    -0.284 NA 
HETATM    5  C   UNL     1     -11.037  12.539  66.397  1.00  0.00    -0.290 A  
HETATM    6  C   UNL     1     -11.467  11.548  67.289  1.00  0.00    -0.263 A  
HETATM    7  F   UNL     1     -11.247  10.263  66.970  1.00  0.00    -0.300 F  
HETATM    8  C   UNL     1     -12.105  11.888  68.516  1.00  0.00    -0.059 A  
HETATM    9  C   UNL     1     -11.726  14.256  67.994  1.00  0.00    -0.386 A  
HETATM   10  C   UNL     1     -12.136  13.246  68.902  1.00  0.00    -0.260 A  
HETATM   11  C   UNL     1     -11.202  13.873  66.751  1.00  0.00    -0.318 A  
ENDROOT
BRANCH   8  12
HETATM   12  N   UNL     1     -12.601  10.838  69.370  1.00  0.00    -0.635 NA 
HETATM   13  H   UNL     1     -13.600  10.631  69.349  1.00  0.00     0.000 HD 
BRANCH  12  14
HETATM   14  C   UNL     1     -11.768  10.070  70.246  1.00  0.00    -0.251 A  
HETATM   15 BR   UNL     1      -9.034   7.904  73.387  1.00  0.00    -0.348 Br 
HETATM   16  C   UNL     1     -10.409   9.847  69.975  1.00  0.00    -0.320 A  
HETATM   17  C   UNL     1     -11.517   8.821  72.329  1.00  0.00    -0.376 A  
HETATM   18  C   UNL     1     -12.312   9.487  71.400  1.00  0.00    -0.364 A  
HETATM   19  C   UNL     1     -10.151   8.710  72.092  1.00  0.00    -0.318 A  
HETATM   20  C   UNL     1      -9.595   9.201  70.912  1.00  0.00    -0.347 A  
HETATM   21  F   UNL     1     -13.625   9.624  71.643  1.00  0.00    -0.395 F  
ENDBRANCH  12  14
ENDBRANCH   8  12
BRANCH  10  22
HETATM   22  C   UNL     1     -12.482  13.747  70.279  1.00  0.00    -0.289 C  
HETATM   23  H   UNL     1     -12.816  15.699  69.585  1.00  0.00     0.000 HD 
HETATM   24  N   UNL     1     -12.825  15.073  70.390  1.00  0.00    -0.321 N  
HETATM   25  O   UNL     1     -12.529  12.957  71.223  1.00  0.00    -0.323 OA 
BRANCH  24  26
HETATM   26  O   UNL     1     -13.193  15.524  71.686  1.00  0.00    -0.437 OA 
BRANCH  26  27
HETATM   27  C   UNL     1     -11.986  15.921  72.358  1.00  0.00    -0.518 C  
BRANCH  27  28
HETATM   28  C   UNL     1     -12.072  15.648  73.858  1.00  0.00    -0.484 C  
HETATM   29  O   UNL     1     -13.298  16.118  74.412  1.00  0.00    -0.794 OA 
HETATM   30  H   UNL     1     -13.352  15.949  75.344  1.00  0.00     0.000 HD 
ENDBRANCH  27  28
ENDBRANCH  26  27
ENDBRANCH  24  26
ENDBRANCH  10  22
TORSDOF 6
ENDMDL
MODEL       14
REMARK 921   NORMALIZED FREE ENERGY PREDICTED BY IDOCK:   -6.76 KCAL/MOL
REMARK 922        TOTAL FREE ENERGY PREDICTED BY IDOCK:  -10.42 KCAL/MOL
REMARK 923 INTER-LIGAND FREE ENERGY PREDICTED BY IDOCK:   -8.95 KCAL/MOL
REMARK 924 INTRA-LIGAND FREE ENERGY PREDICTED BY IDOCK:   -1.47 KCAL/MOL
REMARK 927      BINDING AFFINITY PREDICTED BY RF-SCORE:    0.00 PKD
ROOT
HETATM    1  C   UNL     1     -12.248  16.013  71.844  1.00  0.00    -0.489 C  
HETATM    2  N   UNL     1     -12.570  14.613  71.734  1.00  0.00    -0.326 NA 
HETATM    3  C   UNL     1     -13.178  13.862  72.699  1.00  0.00    -0.494 A  
HETATM    4  N   UNL     1     -13.319  12.613  72.319  1.00  0.00    -0.508 NA 
HETATM    5  C   UNL     1     -12.780  12.555  71.054  1.00  0.00    -0.225 A  
HETATM    6  C   UNL     1     -12.644  11.475  70.173  1.00  0.00    -0.071 A  
HETATM    7  F   UNL     1     -13.149  10.286  70.536  1.00  0.00    -0.405 F  
HETATM    8  C   UNL     1     -12.003  11.631  68.910  1.00  0.00    -0.292 A  
HETATM    9  C   UNL     1     -11.779  14.029  69.382  1.00  0.00    -0.365 A  
HETATM   10  C   UNL     1     -11.667  12.935  68.486  1.00  0.00    -0.374 A  
HETATM   11  C   UNL     1     -12.318  13.804  70.657  1.00  0.00    -0.375 A  
ENDROOT
BRANCH   8  12
HETATM   12  N   UNL     1     -11.815  10.479  68.066  1.00  0.00    -0.740 NA 
HETATM   13  H   UNL     1     -12.604  10.155  67.507  1.00  0.00     0.000 HD 
BRANCH  12  14
HETATM   14  C   UNL     1     -10.577   9.762  67.968  1.00  0.00    -0.243 A  
HETATM   15 BR   UNL     1      -6.387   7.649  68.001  1.00  0.00    -0.051 Br 
HETATM   16  C   UNL     1      -9.624  10.056  66.982  1.00  0.00    -0.212 A  
HETATM   17  C   UNL     1      -9.073   8.060  68.862  1.00  0.00    -0.144 A  
HETATM   18  C   UNL     1     -10.303   8.711  68.856  1.00  0.00    -0.211 A  
HETATM   19  C   UNL     1      -8.100   8.445  67.945  1.00  0.00    -0.123 A  
HETATM   20  C   UNL     1      -8.374   9.425  66.993  1.00  0.00    -0.127 A  
HETATM   21  F   UNL     1     -11.230   8.364  69.762  1.00  0.00    -0.225 F  
ENDBRANCH  12  14
ENDBRANCH   8  12
BRANCH  10  22
HETATM   22  C   UNL     1     -11.278  13.315  67.081  1.00  0.00    -0.299 C  
HETATM   23  H   UNL     1     -13.272  13.665  66.527  1.00  0.00     0.000 HD 
HETATM   24  N   UNL     1     -12.296  13.679  66.232  1.00  0.00    -0.430 N  
HETATM   25  O   UNL     1     -10.088  13.367  66.770  1.00  0.00    -0.250 OA 
BRANCH  24  26
HETATM   26  O   UNL     1     -11.914  14.078  64.923  1.00  0.00    -0.364 OA 
BRANCH  26  27
HETATM   27  C   UNL     1     -12.247  12.999  64.035  1.00  0.00    -0.417 C  
BRANCH  27  28
HETATM   28  C   UNL     1     -10.992  12.341  63.466  1.00  0.00    -0.459 C  
HETATM   29  O   UNL     1      -9.815  13.071  63.800  1.00  0.00    -0.730 OA 
HETATM   30  H   UNL     1      -9.034  12.662  63.446  1.00  0.00     0.000 HD 
ENDBRANCH  27  28
ENDBRANCH  26  27
ENDBRANCH  24  26
ENDBRANCH  10  22
TORSDOF 6
ENDMDL
MODEL       15
REMARK 921   NORMALIZED FREE ENERGY PREDICTED BY IDOCK:   -6.72 KCAL/MOL
REMARK 922        TOTAL FREE ENERGY PREDICTED BY IDOCK:  -10.36 KCAL/MOL
REMARK 923 INTER-LIGAND FREE ENERGY PREDICTED BY IDOCK:   -9.21 KCAL/MOL
REMARK 924 INTRA-LIGAND FREE ENERGY PREDICTED BY IDOCK:   -1.15 KCAL/MOL
REMARK 927      BINDING AFFINITY PREDICTED BY RF-SCORE:    0.00 PKD
ROOT
HETATM    1  C   UNL     1      -8.074   7.695  71.511  1.00  0.00    -0.098 C  
HETATM    2  N   UNL     1      -8.513   8.147  70.215  1.00  0.00    -0.124 NA 
HETATM    3  C   UNL     1      -7.961   7.784  69.021  1.00  0.00    -0.123 A  
HETATM    4  N   UNL     1      -8.561   8.376  68.013  1.00  0.00    -0.134 NA 
HETATM    5  C   UNL     1      -9.543   9.155  68.583  1.00  0.00    -0.152 A  
HETATM    6  C   UNL     1     -10.478  10.013  67.992  1.00  0.00    -0.218 A  
HETATM    7  F   UNL     1     -10.514  10.096  66.652  1.00  0.00    -0.277 F  
HETATM    8  C   UNL     1     -11.387  10.771  68.785  1.00  0.00    -0.288 A  
HETATM    9  C   UNL     1     -10.489   9.656  70.778  1.00  0.00    -0.375 A  
HETATM   10  C   UNL     1     -11.449  10.504  70.170  1.00  0.00    -0.405 A  
HETATM   11  C   UNL     1      -9.544   9.015  69.965  1.00  0.00    -0.186 A  
ENDROOT
BRANCH   8  12
HETATM   12  N   UNL     1     -12.282  11.700  68.142  1.00  0.00    -0.455 NA 
HETATM   13  H   UNL     1     -13.252  11.419  68.005  1.00  0.00     0.000 HD 
BRANCH  12  14
HETATM   14  C   UNL     1     -11.881  12.998  67.686  1.00  0.00    -0.351 A  
HETATM   15 BR   UNL     1     -10.192  17.061  66.051  1.00  0.00    -0.294 Br 
HETATM   16  C   UNL     1     -11.441  13.994  68.570  1.00  0.00    -0.336 A  
HETATM   17  C   UNL     1     -11.476  14.525  65.825  1.00  0.00    -0.342 A  
HETATM   18  C   UNL     1     -11.952  13.315  66.322  1.00  0.00    -0.417 A  
HETATM   19  C   UNL     1     -10.940  15.455  66.711  1.00  0.00    -0.282 A  
HETATM   20  C   UNL     1     -10.938  15.205  68.082  1.00  0.00    -0.287 A  
HETATM   21  F   UNL     1     -12.437  12.403  65.464  1.00  0.00    -0.492 F  
ENDBRANCH  12  14
ENDBRANCH   8  12
BRANCH  10  22
HETATM   22  C   UNL     1     -12.543  10.974  71.093  1.00  0.00    -0.418 C  
HETATM   23  H   UNL     1     -11.860  12.958  71.041  1.00  0.00     0.000 HD 
HETATM   24  N   UNL     1     -12.566  12.314  71.397  1.00  0.00    -0.266 N  
HETATM   25  O   UNL     1     -13.408  10.182  71.469  1.00  0.00    -0.370 OA 
BRANCH  24  26
HETATM   26  O   UNL     1     -13.628  12.754  72.232  1.00  0.00    -0.556 OA 
BRANCH  26  27
HETATM   27  C   UNL     1     -13.316  14.093  72.650  1.00  0.00    -0.541 C  
BRANCH  27  28
HETATM   28  C   UNL     1     -14.248  15.109  71.994  1.00  0.00    -0.577 C  
HETATM   29  O   UNL     1     -13.683  15.655  70.805  1.00  0.00    -0.843 OA 
HETATM   30  H   UNL     1     -14.262  16.287  70.397  1.00  0.00     0.000 HD 
ENDBRANCH  27  28
ENDBRANCH  26  27
ENDBRANCH  24  26
ENDBRANCH  10  22
TORSDOF 6
ENDMDL
MODEL       16
REMARK 921   NORMALIZED FREE ENERGY PREDICTED BY IDOCK:   -6.70 KCAL/MOL
REMARK 922        TOTAL FREE ENERGY PREDICTED BY IDOCK:  -10.33 KCAL/MOL
REMARK 923 INTER-LIGAND FREE ENERGY PREDICTED BY IDOCK:   -9.09 KCAL/MOL
REMARK 924 INTRA-LIGAND FREE ENERGY PREDICTED BY IDOCK:   -1.24 KCAL/MOL
REMARK 927      BINDING AFFINITY PREDICTED BY RF-SCORE:    0.00 PKD
ROOT
HETATM    1  C   UNL     1      -9.045  19.626  68.557  1.00  0.00    -0.312 C  
HETATM    2  N   UNL     1      -9.385  18.544  67.669  1.00  0.00    -0.279 NA 
HETATM    3  C   UNL     1      -9.021  18.452  66.357  1.00  0.00    -0.249 A  
HETATM    4  N   UNL     1      -9.498  17.362  65.799  1.00  0.00    -0.519 NA 
HETATM    5  C   UNL     1     -10.199  16.722  66.796  1.00  0.00    -0.304 A  
HETATM    6  C   UNL     1     -10.926  15.526  66.770  1.00  0.00    -0.257 A  
HETATM    7  F   UNL     1     -10.938  14.809  65.635  1.00  0.00    -0.303 F  
HETATM    8  C   UNL     1     -11.625  15.064  67.922  1.00  0.00    -0.333 A  
HETATM    9  C   UNL     1     -10.709  16.967  69.172  1.00  0.00    -0.298 A  
HETATM   10  C   UNL     1     -11.423  15.741  69.144  1.00  0.00    -0.383 A  
HETATM   11  C   UNL     1     -10.128  17.437  67.986  1.00  0.00    -0.326 A  
ENDROOT
BRANCH   8  12
HETATM   12  N   UNL     1     -12.424  13.868  67.832  1.00  0.00    -0.358 NA 
HETATM   13  H   UNL     1     -13.437  13.968  67.775  1.00  0.00     0.000 HD 
BRANCH  12  14
HETATM   14  C   UNL     1     -11.872  12.546  67.819  1.00  0.00    -0.313 A  
HETATM   15 BR   UNL     1      -9.711   8.383  67.988  1.00  0.00    -0.197 Br 
HETATM   16  C   UNL     1     -11.329  11.978  66.658  1.00  0.00    -0.399 A  
HETATM   17  C   UNL     1     -11.277  10.519  69.043  1.00  0.00    -0.316 A  
HETATM   18  C   UNL     1     -11.893  11.766  68.985  1.00  0.00    -0.317 A  
HETATM   19  C   UNL     1     -10.645  10.024  67.906  1.00  0.00    -0.250 A  
HETATM   20  C   UNL     1     -10.684  10.736  66.709  1.00  0.00    -0.291 A  
HETATM   21  F   UNL     1     -12.473  12.259  70.091  1.00  0.00    -0.299 F  
ENDBRANCH  12  14
ENDBRANCH   8  12
BRANCH  10  22
HETATM   22  C   UNL     1     -11.823  15.220  70.499  1.00  0.00    -0.324 C  
HETATM   23  H   UNL     1     -13.811  15.850  70.256  1.00  0.00     0.000 HD 
HETATM   24  N   UNL     1     -13.140  15.376  70.861  1.00  0.00    -0.475 N  
HETATM   25  O   UNL     1     -11.002  14.612  71.187  1.00  0.00     0.028 OA 
BRANCH  24  26
HETATM   26  O   UNL     1     -13.516  14.841  72.122  1.00  0.00    -0.333 OA 
BRANCH  26  27
HETATM   27  C   UNL     1     -13.673  15.947  73.025  1.00  0.00    -0.481 C  
BRANCH  27  28
HETATM   28  C   UNL     1     -12.649  15.888  74.157  1.00  0.00    -0.604 C  
HETATM   29  O   UNL     1     -11.997  14.622  74.214  1.00  0.00    -0.602 OA 
HETATM   30  H   UNL     1     -11.361  14.585  74.918  1.00  0.00     0.000 HD 
ENDBRANCH  27  28
ENDBRANCH  26  27
ENDBRANCH  24  26
ENDBRANCH  10  22
TORSDOF 6
ENDMDL
MODEL       17
REMARK 921   NORMALIZED FREE ENERGY PREDICTED BY IDOCK:   -6.68 KCAL/MOL
REMARK 922        TOTAL FREE ENERGY PREDICTED BY IDOCK:  -10.30 KCAL/MOL
REMARK 923 INTER-LIGAND FREE ENERGY PREDICTED BY IDOCK:   -9.24 KCAL/MOL
REMARK 924 INTRA-LIGAND FREE ENERGY PREDICTED BY IDOCK:   -1.06 KCAL/MOL
REMARK 927      BINDING AFFINITY PREDICTED BY RF-SCORE:    0.00 PKD
ROOT
HETATM    1  C   UNL     1     -10.070  14.183  67.244  1.00  0.00    -0.256 C  
HETATM    2  N   UNL     1      -9.967  12.755  67.408  1.00  0.00    -0.210 NA 
HETATM    3  C   UNL     1      -9.166  11.929  66.674  1.00  0.00    -0.205 A  
HETATM    4  N   UNL     1      -9.305  10.674  67.039  1.00  0.00    -0.155 NA 
HETATM    5  C   UNL     1     -10.236  10.692  68.052  1.00  0.00    -0.175 A  
HETATM    6  C   UNL     1     -10.781   9.644  68.804  1.00  0.00    -0.206 A  
HETATM    7  F   UNL     1     -10.326   8.399  68.589  1.00  0.00    -0.200 F  
HETATM    8  C   UNL     1     -11.781   9.885  69.788  1.00  0.00    -0.021 A  
HETATM    9  C   UNL     1     -11.556  12.289  69.347  1.00  0.00    -0.378 A  
HETATM   10  C   UNL     1     -12.085  11.224  70.120  1.00  0.00    -0.448 A  
HETATM   11  C   UNL     1     -10.655  11.991  68.315  1.00  0.00    -0.212 A  
ENDROOT
BRANCH   8  12
HETATM   12  N   UNL     1     -12.372   8.771  70.485  1.00  0.00    -0.440 NA 
HETATM   13  H   UNL     1     -13.378   8.626  70.400  1.00  0.00     0.000 HD 
BRANCH  12  14
HETATM   14  C   UNL     1     -11.622   7.855  71.293  1.00  0.00    -0.276 A  
HETATM   15 BR   UNL     1      -9.553   4.669  74.050  1.00  0.00    -0.147 Br 
HETATM   16  C   UNL     1     -11.063   8.232  72.523  1.00  0.00    -0.439 A  
HETATM   17  C   UNL     1     -10.769   5.594  71.642  1.00  0.00    -0.313 A  
HETATM   18  C   UNL     1     -11.401   6.544  70.845  1.00  0.00    -0.337 A  
HETATM   19  C   UNL     1     -10.321   5.964  72.907  1.00  0.00    -0.200 A  
HETATM   20  C   UNL     1     -10.446   7.282  73.344  1.00  0.00    -0.423 A  
HETATM   21  F   UNL     1     -11.864   6.179  69.639  1.00  0.00    -0.482 F  
ENDBRANCH  12  14
ENDBRANCH   8  12
BRANCH  10  22
HETATM   22  C   UNL     1     -12.871  11.659  71.329  1.00  0.00    -0.328 C  
HETATM   23  H   UNL     1     -12.698  13.689  70.824  1.00  0.00     0.000 HD 
HETATM   24  N   UNL     1     -13.081  13.009  71.481  1.00  0.00    -0.355 N  
HETATM   25  O   UNL     1     -13.359  10.812  72.078  1.00  0.00    -0.447 OA 
BRANCH  24  26
HETATM   26  O   UNL     1     -13.860  13.405  72.600  1.00  0.00    -0.726 OA 
BRANCH  26  27
HETATM   27  C   UNL     1     -13.737  14.831  72.723  1.00  0.00    -0.386 C  
BRANCH  27  28
HETATM   28  C   UNL     1     -12.614  15.210  73.685  1.00  0.00    -0.569 C  
HETATM   29  O   UNL     1     -12.917  16.399  74.410  1.00  0.00    -0.913 OA 
HETATM   30  H   UNL     1     -12.218  16.635  75.008  1.00  0.00     0.000 HD 
ENDBRANCH  27  28
ENDBRANCH  26  27
ENDBRANCH  24  26
ENDBRANCH  10  22
TORSDOF 6
ENDMDL
MODEL       18
REMARK 921   NORMALIZED FREE ENERGY PREDICTED BY IDOCK:   -6.66 KCAL/MOL
REMARK 922        TOTAL FREE ENERGY PREDICTED BY IDOCK:  -10.28 KCAL/MOL
REMARK 923 INTER-LIGAND FREE ENERGY PREDICTED BY IDOCK:   -9.01 KCAL/MOL
REMARK 924 INTRA-LIGAND FREE ENERGY PREDICTED BY IDOCK:   -1.27 KCAL/MOL
REMARK 927      BINDING AFFINITY PREDICTED BY RF-SCORE:    0.00 PKD
ROOT
HETATM    1  C   UNL     1     -11.580   8.544  70.969  1.00  0.00    -0.279 C  
HETATM    2  N   UNL     1     -12.046   9.904  71.058  1.00  0.00    -0.332 NA 
HETATM    3  C   UNL     1     -12.729  10.440  72.112  1.00  0.00    -0.134 A  
HETATM    4  N   UNL     1     -13.039  11.698  71.894  1.00  0.00    -0.455 NA 
HETATM    5  C   UNL     1     -12.535  11.986  70.646  1.00  0.00    -0.247 A  
HETATM    6  C   UNL     1     -12.583  13.169  69.898  1.00  0.00     0.118 A  
HETATM    7  F   UNL     1     -13.151  14.252  70.450  1.00  0.00    -0.386 F  
HETATM    8  C   UNL     1     -12.027  13.234  68.588  1.00  0.00    -0.310 A  
HETATM    9  C   UNL     1     -11.236  10.928  68.868  1.00  0.00    -0.327 A  
HETATM   10  C   UNL     1     -11.267  12.137  68.127  1.00  0.00    -0.320 A  
HETATM   11  C   UNL     1     -11.891  10.879  70.107  1.00  0.00    -0.353 A  
ENDROOT
BRANCH   8  12
HETATM   12  N   UNL     1     -12.165  14.446  67.821  1.00  0.00    -0.624 NA 
HETATM   13  H   UNL     1     -12.941  14.516  67.163  1.00  0.00     0.000 HD 
BRANCH  12  14
HETATM   14  C   UNL     1     -11.271  15.560  67.933  1.00  0.00    -0.325 A  
HETATM   15 BR   UNL     1      -8.015  18.913  68.373  1.00  0.00    -0.384 Br 
HETATM   16  C   UNL     1     -11.242  16.380  69.070  1.00  0.00    -0.291 A  
HETATM   17  C   UNL     1      -9.455  16.884  66.979  1.00  0.00    -0.251 A  
HETATM   18  C   UNL     1     -10.409  15.877  66.871  1.00  0.00    -0.291 A  
HETATM   19  C   UNL     1      -9.371  17.612  68.162  1.00  0.00    -0.279 A  
HETATM   20  C   UNL     1     -10.271  17.380  69.201  1.00  0.00    -0.273 A  
HETATM   21  F   UNL     1     -10.469  15.152  65.744  1.00  0.00    -0.274 F  
ENDBRANCH  12  14
ENDBRANCH   8  12
BRANCH  10  22
HETATM   22  C   UNL     1     -10.365  12.155  66.921  1.00  0.00    -0.212 C  
HETATM   23  H   UNL     1     -11.945  11.697  65.618  1.00  0.00     0.000 HD 
HETATM   24  N   UNL     1     -10.951  11.911  65.702  1.00  0.00    -0.297 N  
HETATM   25  O   UNL     1      -9.179  12.461  67.050  1.00  0.00    -0.194 OA 
BRANCH  24  26
HETATM   26  O   UNL     1     -10.099  11.974  64.568  1.00  0.00    -0.271 OA 
BRANCH  26  27
HETATM   27  C   UNL     1     -10.940  12.002  63.403  1.00  0.00    -0.403 C  
BRANCH  27  28
HETATM   28  C   UNL     1     -12.284  12.661  63.706  1.00  0.00    -0.514 C  
HETATM   29  O   UNL     1     -12.404  13.932  63.073  1.00  0.00    -1.101 OA 
HETATM   30  H   UNL     1     -13.240  14.342  63.262  1.00  0.00     0.000 HD 
ENDBRANCH  27  28
ENDBRANCH  26  27
ENDBRANCH  24  26
ENDBRANCH  10  22
TORSDOF 6
ENDMDL
MODEL       19
REMARK 921   NORMALIZED FREE ENERGY PREDICTED BY IDOCK:   -6.66 KCAL/MOL
REMARK 922        TOTAL FREE ENERGY PREDICTED BY IDOCK:  -10.28 KCAL/MOL
REMARK 923 INTER-LIGAND FREE ENERGY PREDICTED BY IDOCK:   -8.72 KCAL/MOL
REMARK 924 INTRA-LIGAND FREE ENERGY PREDICTED BY IDOCK:   -1.56 KCAL/MOL
REMARK 927      BINDING AFFINITY PREDICTED BY RF-SCORE:    0.00 PKD
ROOT
HETATM    1  C   UNL     1      -6.777   7.870  67.095  1.00  0.00    -0.068 C  
HETATM    2  N   UNL     1      -7.654   8.062  68.222  1.00  0.00    -0.106 NA 
HETATM    3  C   UNL     1      -7.520   7.461  69.440  1.00  0.00    -0.091 A  
HETATM    4  N   UNL     1      -8.484   7.815  70.260  1.00  0.00    -0.131 NA 
HETATM    5  C   UNL     1      -9.273   8.682  69.539  1.00  0.00    -0.150 A  
HETATM    6  C   UNL     1     -10.446   9.357  69.900  1.00  0.00    -0.233 A  
HETATM    7  F   UNL     1     -10.899   9.224  71.156  1.00  0.00    -0.297 F  
HETATM    8  C   UNL     1     -11.138  10.183  68.968  1.00  0.00    -0.205 A  
HETATM    9  C   UNL     1      -9.348   9.753  67.344  1.00  0.00    -0.155 A  
HETATM   10  C   UNL     1     -10.521  10.452  67.726  1.00  0.00    -0.268 A  
HETATM   11  C   UNL     1      -8.762   8.867  68.260  1.00  0.00    -0.134 A  
ENDROOT
BRANCH   8  12
HETATM   12  N   UNL     1     -12.382  10.798  69.355  1.00  0.00    -0.631 NA 
HETATM   13  H   UNL     1     -13.250  10.396  69.002  1.00  0.00     0.000 HD 
BRANCH  12  14
HETATM   14  C   UNL     1     -12.465  11.946  70.209  1.00  0.00    -0.121 A  
HETATM   15 BR   UNL     1     -13.171  15.724  72.904  1.00  0.00    -0.670 Br 
HETATM   16  C   UNL     1     -11.974  13.201  69.819  1.00  0.00    -0.382 A  
HETATM   17  C   UNL     1     -13.217  12.935  72.310  1.00  0.00    -0.519 A  
HETATM   18  C   UNL     1     -13.023  11.827  71.491  1.00  0.00    -0.341 A  
HETATM   19  C   UNL     1     -12.823  14.190  71.855  1.00  0.00    -0.341 A  
HETATM   20  C   UNL     1     -12.185  14.327  70.623  1.00  0.00    -0.427 A  
HETATM   21  F   UNL     1     -13.434  10.622  71.915  1.00  0.00    -0.470 F  
ENDBRANCH  12  14
ENDBRANCH   8  12
BRANCH  10  22
HETATM   22  C   UNL     1     -10.949  11.529  66.764  1.00  0.00    -0.294 C  
HETATM   23  H   UNL     1      -9.048  11.619  65.878  1.00  0.00     0.000 HD 
HETATM   24  N   UNL     1     -10.003  11.976  65.871  1.00  0.00    -0.231 N  
HETATM   25  O   UNL     1     -12.121  11.907  66.750  1.00  0.00    -0.593 OA 
BRANCH  24  26
HETATM   26  O   UNL     1     -10.429  12.960  64.940  1.00  0.00    -0.305 OA 
BRANCH  26  27
HETATM   27  C   UNL     1     -10.668  12.290  63.691  1.00  0.00    -0.467 C  
BRANCH  27  28
HETATM   28  C   UNL     1     -12.121  12.447  63.247  1.00  0.00    -0.421 C  
HETATM   29  O   UNL     1     -12.928  13.021  64.273  1.00  0.00    -0.666 OA 
HETATM   30  H   UNL     1     -13.832  13.118  63.997  1.00  0.00     0.000 HD 
ENDBRANCH  27  28
ENDBRANCH  26  27
ENDBRANCH  24  26
ENDBRANCH  10  22
TORSDOF 6
ENDMDL
MODEL       20
REMARK 921   NORMALIZED FREE ENERGY PREDICTED BY IDOCK:   -6.64 KCAL/MOL
REMARK 922        TOTAL FREE ENERGY PREDICTED BY IDOCK:  -10.25 KCAL/MOL
REMARK 923 INTER-LIGAND FREE ENERGY PREDICTED BY IDOCK:   -9.23 KCAL/MOL
REMARK 924 INTRA-LIGAND FREE ENERGY PREDICTED BY IDOCK:   -1.02 KCAL/MOL
REMARK 927      BINDING AFFINITY PREDICTED BY RF-SCORE:    0.00 PKD
ROOT
HETATM    1  C   UNL     1     -10.491  17.392  68.231  1.00  0.00    -0.385 C  
HETATM    2  N   UNL     1     -11.024  16.390  69.118  1.00  0.00    -0.321 NA 
HETATM    3  C   UNL     1     -11.375  16.591  70.421  1.00  0.00    -0.055 A  
HETATM    4  N   UNL     1     -11.807  15.484  70.980  1.00  0.00    -0.342 NA 
HETATM    5  C   UNL     1     -11.733  14.527  69.994  1.00  0.00    -0.301 A  
HETATM    6  C   UNL     1     -12.051  13.163  70.026  1.00  0.00    -0.305 A  
HETATM    7  F   UNL     1     -12.567  12.653  71.155  1.00  0.00    -0.432 F  
HETATM    8  C   UNL     1     -11.851  12.333  68.886  1.00  0.00    -0.303 A  
HETATM    9  C   UNL     1     -11.149  14.323  67.631  1.00  0.00    -0.305 A  
HETATM   10  C   UNL     1     -11.496  12.948  67.665  1.00  0.00    -0.383 A  
HETATM   11  C   UNL     1     -11.260  15.075  68.808  1.00  0.00    -0.277 A  
ENDROOT
BRANCH   8  12
HETATM   12  N   UNL     1     -12.117  10.921  68.983  1.00  0.00    -0.670 NA 
HETATM   13  H   UNL     1     -12.774  10.506  68.322  1.00  0.00     0.000 HD 
BRANCH  12  14
HETATM   14  C   UNL     1     -11.510  10.066  69.959  1.00  0.00    -0.248 A  
HETATM   15 BR   UNL     1      -9.539   7.609  73.440  1.00  0.00    -0.352 Br 
HETATM   16  C   UNL     1     -10.144   9.747  69.922  1.00  0.00    -0.288 A  
HETATM   17  C   UNL     1     -11.723   8.745  72.001  1.00  0.00    -0.442 A  
HETATM   18  C   UNL     1     -12.291   9.495  70.975  1.00  0.00    -0.282 A  
HETATM   19  C   UNL     1     -10.348   8.535  72.003  1.00  0.00    -0.338 A  
HETATM   20  C   UNL     1      -9.557   9.014  70.960  1.00  0.00    -0.348 A  
HETATM   21  F   UNL     1     -13.612   9.727  70.991  1.00  0.00    -0.424 F  
ENDBRANCH  12  14
ENDBRANCH   8  12
BRANCH  10  22
HETATM   22  C   UNL     1     -11.547  12.282  66.314  1.00  0.00    -0.385 C  
HETATM   23  H   UNL     1      -9.668  11.387  66.583  1.00  0.00     0.000 HD 
HETATM   24  N   UNL     1     -10.475  11.494  65.969  1.00  0.00    -0.244 N  
HETATM   25  O   UNL     1     -12.556  12.393  65.616  1.00  0.00    -0.575 OA 
BRANCH  24  26
HETATM   26  O   UNL     1     -10.554  10.836  64.713  1.00  0.00    -0.310 OA 
BRANCH  26  27
HETATM   27  C   UNL     1      -9.461   9.904  64.650  1.00  0.00    -0.278 C  
BRANCH  27  28
HETATM   28  C   UNL     1      -9.420   9.015  65.891  1.00  0.00    -0.249 C  
HETATM   29  O   UNL     1      -9.186   7.649  65.555  1.00  0.00    -0.385 OA 
HETATM   30  H   UNL     1      -9.161   7.096  66.327  1.00  0.00     0.000 HD 
ENDBRANCH  27  28
ENDBRANCH  26  27
ENDBRANCH  24  26
ENDBRANCH  10  22
TORSDOF 6
ENDMDL
MODEL       21
REMARK 921   NORMALIZED FREE ENERGY PREDICTED BY IDOCK:   -6.60 KCAL/MOL
REMARK 922        TOTAL FREE ENERGY PREDICTED BY IDOCK:  -10.19 KCAL/MOL
REMARK 923 INTER-LIGAND FREE ENERGY PREDICTED BY IDOCK:   -8.73 KCAL/MOL
REMARK 924 INTRA-LIGAND FREE ENERGY PREDICTED BY IDOCK:   -1.47 KCAL/MOL
REMARK 927      BINDING AFFINITY PREDICTED BY RF-SCORE:    0.00 PKD
ROOT
HETATM    1  C   UNL     1      -9.756  18.013  66.512  1.00  0.00    -0.338 C  
HETATM    2  N   UNL     1     -10.334  17.196  67.548  1.00  0.00    -0.331 NA 
HETATM    3  C   UNL     1     -10.508  17.572  68.849  1.00  0.00    -0.286 A  
HETATM    4  N   UNL     1     -11.039  16.606  69.563  1.00  0.00    -0.239 NA 
HETATM    5  C   UNL     1     -11.217  15.561  68.685  1.00  0.00    -0.325 A  
HETATM    6  C   UNL     1     -11.731  14.275  68.894  1.00  0.00    -0.328 A  
HETATM    7  F   UNL     1     -12.193  13.962  70.115  1.00  0.00    -0.338 F  
HETATM    8  C   UNL     1     -11.782  13.321  67.838  1.00  0.00    -0.357 A  
HETATM    9  C   UNL     1     -10.929  15.046  66.314  1.00  0.00    -0.338 A  
HETATM   10  C   UNL     1     -11.473  13.754  66.529  1.00  0.00    -0.364 A  
HETATM   11  C   UNL     1     -10.797  15.913  67.408  1.00  0.00    -0.291 A  
ENDROOT
BRANCH   8  12
HETATM   12  N   UNL     1     -12.246  11.985  68.113  1.00  0.00    -0.337 NA 
HETATM   13  H   UNL     1     -13.251  11.813  68.110  1.00  0.00     0.000 HD 
BRANCH  12  14
HETATM   14  C   UNL     1     -11.371  10.885  68.391  1.00  0.00    -0.304 A  
HETATM   15 BR   UNL     1      -8.179   7.580  69.349  1.00  0.00    -0.131 Br 
HETATM   16  C   UNL     1     -10.896  10.038  67.378  1.00  0.00    -0.313 A  
HETATM   17  C   UNL     1     -10.061   9.616  70.014  1.00  0.00    -0.293 A  
HETATM   18  C   UNL     1     -10.989  10.609  69.712  1.00  0.00    -0.280 A  
HETATM   19  C   UNL     1      -9.518   8.861  68.978  1.00  0.00    -0.156 A  
HETATM   20  C   UNL     1      -9.944   9.053  67.665  1.00  0.00    -0.252 A  
HETATM   21  F   UNL     1     -11.488  11.360  70.706  1.00  0.00    -0.328 F  
ENDBRANCH  12  14
ENDBRANCH   8  12
BRANCH  10  22
HETATM   22  C   UNL     1     -11.770  12.982  65.270  1.00  0.00    -0.353 C  
HETATM   23  H   UNL     1      -9.750  12.959  64.700  1.00  0.00     0.000 HD 
HETATM   24  N   UNL     1     -10.698  12.663  64.471  1.00  0.00    -0.320 N  
HETATM   25  O   UNL     1     -12.918  12.599  65.044  1.00  0.00    -0.812 OA 
BRANCH  24  26
HETATM   26  O   UNL     1     -10.983  11.897  63.309  1.00  0.00    -0.377 OA 
BRANCH  26  27
HETATM   27  C   UNL     1      -9.769  11.228  62.930  1.00  0.00    -0.323 C  
BRANCH  27  28
HETATM   28  C   UNL     1      -9.263  10.322  64.050  1.00  0.00    -0.271 C  
HETATM   29  O   UNL     1      -7.930  10.650  64.434  1.00  0.00    -0.339 OA 
HETATM   30  H   UNL     1      -7.615  10.087  65.130  1.00  0.00     0.000 HD 
ENDBRANCH  27  28
ENDBRANCH  26  27
ENDBRANCH  24  26
ENDBRANCH  10  22
TORSDOF 6
ENDMDL
MODEL       22
REMARK 921   NORMALIZED FREE ENERGY PREDICTED BY IDOCK:   -6.52 KCAL/MOL
REMARK 922        TOTAL FREE ENERGY PREDICTED BY IDOCK:  -10.09 KCAL/MOL
REMARK 923 INTER-LIGAND FREE ENERGY PREDICTED BY IDOCK:   -8.71 KCAL/MOL
REMARK 924 INTRA-LIGAND FREE ENERGY PREDICTED BY IDOCK:   -1.38 KCAL/MOL
REMARK 927      BINDING AFFINITY PREDICTED BY RF-SCORE:    0.00 PKD
ROOT
HETATM    1  C   UNL     1      -7.992   8.085  64.579  1.00  0.00    -0.151 C  
HETATM    2  N   UNL     1      -8.779   9.189  64.092  1.00  0.00    -0.179 NA 
HETATM    3  C   UNL     1      -8.867   9.585  62.789  1.00  0.00    -0.238 A  
HETATM    4  N   UNL     1      -9.644  10.636  62.656  1.00  0.00    -0.288 NA 
HETATM    5  C   UNL     1     -10.076  10.931  63.929  1.00  0.00    -0.361 A  
HETATM    6  C   UNL     1     -10.911  11.956  64.391  1.00  0.00    -0.337 A  
HETATM    7  F   UNL     1     -11.457  12.789  63.491  1.00  0.00    -0.444 F  
HETATM    8  C   UNL     1     -11.195  12.106  65.778  1.00  0.00    -0.339 A  
HETATM    9  C   UNL     1      -9.898  10.068  66.208  1.00  0.00    -0.297 A  
HETATM   10  C   UNL     1     -10.764  11.094  66.663  1.00  0.00    -0.322 A  
HETATM   11  C   UNL     1      -9.560  10.025  64.848  1.00  0.00    -0.310 A  
ENDROOT
BRANCH   8  12
HETATM   12  N   UNL     1     -11.997  13.220  66.219  1.00  0.00    -0.403 NA 
HETATM   13  H   UNL     1     -13.010  13.106  66.243  1.00  0.00     0.000 HD 
BRANCH  12  14
HETATM   14  C   UNL     1     -11.447  14.479  66.627  1.00  0.00    -0.366 A  
HETATM   15 BR   UNL     1      -9.245  18.432  67.873  1.00  0.00    -0.304 Br 
HETATM   16  C   UNL     1     -11.360  14.851  67.976  1.00  0.00    -0.337 A  
HETATM   17  C   UNL     1     -10.370  16.583  66.017  1.00  0.00    -0.358 A  
HETATM   18  C   UNL     1     -11.004  15.396  65.662  1.00  0.00    -0.326 A  
HETATM   19  C   UNL     1     -10.195  16.879  67.365  1.00  0.00    -0.298 A  
HETATM   20  C   UNL     1     -10.703  16.030  68.347  1.00  0.00    -0.289 A  
HETATM   21  F   UNL     1     -11.142  15.093  64.362  1.00  0.00    -0.337 F  
ENDBRANCH  12  14
ENDBRANCH   8  12
BRANCH  10  22
HETATM   22  C   UNL     1     -11.233  10.931  68.086  1.00  0.00    -0.301 C  
HETATM   23  H   UNL     1      -9.318  10.387  68.751  1.00  0.00     0.000 HD 
HETATM   24  N   UNL     1     -10.287  10.568  69.014  1.00  0.00    -0.200 N  
HETATM   25  O   UNL     1     -12.398  11.202  68.380  1.00  0.00    -0.556 OA 
BRANCH  24  26
HETATM   26  O   UNL     1     -10.731  10.460  70.359  1.00  0.00    -0.269 OA 
BRANCH  26  27
HETATM   27  C   UNL     1     -10.775   9.061  70.683  1.00  0.00    -0.239 C  
BRANCH  27  28
HETATM   28  C   UNL     1     -12.150   8.657  71.208  1.00  0.00    -0.290 C  
HETATM   29  O   UNL     1     -13.179   9.507  70.706  1.00  0.00    -0.568 OA 
HETATM   30  H   UNL     1     -14.034   9.256  71.033  1.00  0.00     0.000 HD 
ENDBRANCH  27  28
ENDBRANCH  26  27
ENDBRANCH  24  26
ENDBRANCH  10  22
TORSDOF 6
ENDMDL
MODEL       23
REMARK 921   NORMALIZED FREE ENERGY PREDICTED BY IDOCK:   -6.49 KCAL/MOL
REMARK 922        TOTAL FREE ENERGY PREDICTED BY IDOCK:  -10.04 KCAL/MOL
REMARK 923 INTER-LIGAND FREE ENERGY PREDICTED BY IDOCK:   -8.91 KCAL/MOL
REMARK 924 INTRA-LIGAND FREE ENERGY PREDICTED BY IDOCK:   -1.13 KCAL/MOL
REMARK 927      BINDING AFFINITY PREDICTED BY RF-SCORE:    0.00 PKD
ROOT
HETATM    1  C   UNL     1     -12.287  15.268  63.997  1.00  0.00     0.071 C  
HETATM    2  N   UNL     1     -11.817  13.981  64.441  1.00  0.00    -0.426 NA 
HETATM    3  C   UNL     1     -11.692  12.870  63.657  1.00  0.00    -0.508 A  
HETATM    4  N   UNL     1     -11.260  11.839  64.348  1.00  0.00    -0.326 NA 
HETATM    5  C   UNL     1     -11.098  12.306  65.633  1.00  0.00    -0.317 A  
HETATM    6  C   UNL     1     -10.675  11.645  66.793  1.00  0.00    -0.260 A  
HETATM    7  F   UNL     1     -10.300  10.359  66.696  1.00  0.00    -0.258 F  
HETATM    8  C   UNL     1     -10.623  12.318  68.047  1.00  0.00    -0.216 A  
HETATM    9  C   UNL     1     -11.286  14.385  66.902  1.00  0.00    -0.357 A  
HETATM   10  C   UNL     1     -10.834  13.714  68.067  1.00  0.00    -0.261 A  
HETATM   11  C   UNL     1     -11.425  13.654  65.713  1.00  0.00    -0.315 A  
ENDROOT
BRANCH   8  12
HETATM   12  N   UNL     1     -10.257  11.582  69.230  1.00  0.00    -0.425 NA 
HETATM   13  H   UNL     1      -9.308  11.686  69.590  1.00  0.00     0.000 HD 
BRANCH  12  14
HETATM   14  C   UNL     1     -11.154  10.710  69.930  1.00  0.00    -0.298 A  
HETATM   15 BR   UNL     1     -14.233   7.716  71.824  1.00  0.00    -0.552 Br 
HETATM   16  C   UNL     1     -12.319  11.184  70.550  1.00  0.00    -0.454 A  
HETATM   17  C   UNL     1     -11.755   8.446  70.617  1.00  0.00    -0.159 A  
HETATM   18  C   UNL     1     -10.862   9.342  70.037  1.00  0.00    -0.241 A  
HETATM   19  C   UNL     1     -12.958   8.925  71.127  1.00  0.00    -0.119 A  
HETATM   20  C   UNL     1     -13.237  10.291  71.115  1.00  0.00    -0.429 A  
HETATM   21  F   UNL     1      -9.717   8.877  69.515  1.00  0.00    -0.164 F  
ENDBRANCH  12  14
ENDBRANCH   8  12
BRANCH  10  22
HETATM   22  C   UNL     1     -10.517  14.621  69.227  1.00  0.00    -0.209 C  
HETATM   23  H   UNL     1     -12.392  14.294  70.113  1.00  0.00     0.000 HD 
HETATM   24  N   UNL     1     -11.487  14.758  70.191  1.00  0.00    -0.261 N  
HETATM   25  O   UNL     1      -9.399  15.130  69.317  1.00  0.00    -0.218 OA 
BRANCH  24  26
HETATM   26  O   UNL     1     -11.160  15.580  71.303  1.00  0.00    -0.355 OA 
BRANCH  26  27
HETATM   27  C   UNL     1     -12.383  15.853  72.005  1.00  0.00    -0.475 C  
BRANCH  27  28
HETATM   28  C   UNL     1     -12.167  15.847  73.517  1.00  0.00    -0.523 C  
HETATM   29  O   UNL     1     -13.295  16.370  74.214  1.00  0.00    -0.859 OA 
HETATM   30  H   UNL     1     -13.161  16.366  75.154  1.00  0.00     0.000 HD 
ENDBRANCH  27  28
ENDBRANCH  26  27
ENDBRANCH  24  26
ENDBRANCH  10  22
TORSDOF 6
ENDMDL
MODEL       24
REMARK 921   NORMALIZED FREE ENERGY PREDICTED BY IDOCK:   -6.47 KCAL/MOL
REMARK 922        TOTAL FREE ENERGY PREDICTED BY IDOCK:  -10.02 KCAL/MOL
REMARK 923 INTER-LIGAND FREE ENERGY PREDICTED BY IDOCK:   -9.71 KCAL/MOL
REMARK 924 INTRA-LIGAND FREE ENERGY PREDICTED BY IDOCK:   -0.31 KCAL/MOL
REMARK 927      BINDING AFFINITY PREDICTED BY RF-SCORE:    0.00 PKD
ROOT
HETATM    1  C   UNL     1      -9.977  19.290  68.930  1.00  0.00    -0.427 C  
HETATM    2  N   UNL     1     -10.032  18.407  67.792  1.00  0.00    -0.330 NA 
HETATM    3  C   UNL     1      -9.512  18.672  66.558  1.00  0.00    -0.322 A  
HETATM    4  N   UNL     1      -9.737  17.687  65.719  1.00  0.00    -0.538 NA 
HETATM    5  C   UNL     1     -10.432  16.745  66.443  1.00  0.00    -0.269 A  
HETATM    6  C   UNL     1     -10.945  15.500  66.058  1.00  0.00    -0.251 A  
HETATM    7  F   UNL     1     -10.711  15.071  64.808  1.00  0.00    -0.381 F  
HETATM    8  C   UNL     1     -11.684  14.694  66.971  1.00  0.00    -0.362 A  
HETATM    9  C   UNL     1     -11.240  16.361  68.716  1.00  0.00    -0.313 A  
HETATM   10  C   UNL     1     -11.736  15.091  68.325  1.00  0.00    -0.338 A  
HETATM   11  C   UNL     1     -10.615  17.167  67.754  1.00  0.00    -0.360 A  
ENDROOT
BRANCH   8  12
HETATM   12  N   UNL     1     -12.261  13.456  66.513  1.00  0.00    -0.386 NA 
HETATM   13  H   UNL     1     -13.180  13.190  66.869  1.00  0.00     0.000 HD 
BRANCH  12  14
HETATM   14  C   UNL     1     -11.615  12.576  65.585  1.00  0.00    -0.389 A  
HETATM   15 BR   UNL     1      -9.159   9.985  62.537  1.00  0.00    -0.329 Br 
HETATM   16  C   UNL     1     -12.010  12.491  64.242  1.00  0.00    -0.484 A  
HETATM   17  C   UNL     1      -9.851  10.951  65.129  1.00  0.00    -0.329 A  
HETATM   18  C   UNL     1     -10.572  11.743  66.018  1.00  0.00    -0.260 A  
HETATM   19  C   UNL     1     -10.190  10.969  63.780  1.00  0.00    -0.364 A  
HETATM   20  C   UNL     1     -11.277  11.718  63.333  1.00  0.00    -0.440 A  
HETATM   21  F   UNL     1     -10.224  11.753  67.314  1.00  0.00    -0.205 F  
ENDBRANCH  12  14
ENDBRANCH   8  12
BRANCH  10  22
HETATM   22  C   UNL     1     -12.195  14.220  69.465  1.00  0.00    -0.297 C  
HETATM   23  H   UNL     1     -11.080  12.579  68.780  1.00  0.00     0.000 HD 
HETATM   24  N   UNL     1     -11.703  12.938  69.504  1.00  0.00    -0.319 N  
HETATM   25  O   UNL     1     -12.910  14.696  70.347  1.00  0.00    -0.342 OA 
BRANCH  24  26
HETATM   26  O   UNL     1     -12.108  12.139  70.607  1.00  0.00    -0.365 OA 
BRANCH  26  27
HETATM   27  C   UNL     1     -12.315  10.805  70.115  1.00  0.00    -0.325 C  
BRANCH  27  28
HETATM   28  C   UNL     1     -13.069   9.951  71.132  1.00  0.00    -0.370 C  
HETATM   29  O   UNL     1     -13.380  10.685  72.313  1.00  0.00    -0.616 OA 
HETATM   30  H   UNL     1     -13.848  10.154  72.945  1.00  0.00     0.000 HD 
ENDBRANCH  27  28
ENDBRANCH  26  27
ENDBRANCH  24  26
ENDBRANCH  10  22
TORSDOF 6
ENDMDL
MODEL       25
REMARK 921   NORMALIZED FREE ENERGY PREDICTED BY IDOCK:   -6.46 KCAL/MOL
REMARK 922        TOTAL FREE ENERGY PREDICTED BY IDOCK:  -10.01 KCAL/MOL
REMARK 923 INTER-LIGAND FREE ENERGY PREDICTED BY IDOCK:   -8.85 KCAL/MOL
REMARK 924 INTRA-LIGAND FREE ENERGY PREDICTED BY IDOCK:   -1.17 KCAL/MOL
REMARK 927      BINDING AFFINITY PREDICTED BY RF-SCORE:    0.00 PKD
ROOT
HETATM    1  C   UNL     1     -10.166  19.778  66.000  1.00  0.00    -0.501 C  
HETATM    2  N   UNL     1      -9.661  18.763  66.888  1.00  0.00    -0.298 NA 
HETATM    3  C   UNL     1      -8.825  18.980  67.945  1.00  0.00    -0.301 A  
HETATM    4  N   UNL     1      -8.518  17.857  68.555  1.00  0.00    -0.302 NA 
HETATM    5  C   UNL     1      -9.186  16.874  67.862  1.00  0.00    -0.234 A  
HETATM    6  C   UNL     1      -9.217  15.487  68.055  1.00  0.00    -0.187 A  
HETATM    7  F   UNL     1      -8.552  14.972  69.101  1.00  0.00    -0.174 F  
HETATM    8  C   UNL     1      -9.950  14.637  67.178  1.00  0.00    -0.240 A  
HETATM    9  C   UNL     1     -10.747  16.635  65.997  1.00  0.00    -0.153 A  
HETATM   10  C   UNL     1     -10.792  15.234  66.215  1.00  0.00    -0.312 A  
HETATM   11  C   UNL     1      -9.926  17.420  66.819  1.00  0.00    -0.307 A  
ENDROOT
BRANCH   8  12
HETATM   12  N   UNL     1      -9.893  13.209  67.365  1.00  0.00    -0.222 NA 
HETATM   13  H   UNL     1      -9.368  12.654  66.690  1.00  0.00     0.000 HD 
BRANCH  12  14
HETATM   14  C   UNL     1     -10.534  12.527  68.450  1.00  0.00    -0.240 A  
HETATM   15 BR   UNL     1     -12.868  10.068  71.696  1.00  0.00    -0.574 Br 
HETATM   16  C   UNL     1     -11.522  13.140  69.235  1.00  0.00    -0.348 A  
HETATM   17  C   UNL     1     -10.826  10.481  69.750  1.00  0.00    -0.335 A  
HETATM   18  C   UNL     1     -10.158  11.215  68.774  1.00  0.00    -0.201 A  
HETATM   19  C   UNL     1     -11.878  11.076  70.440  1.00  0.00    -0.367 A  
HETATM   20  C   UNL     1     -12.217  12.407  70.203  1.00  0.00    -0.303 A  
HETATM   21  F   UNL     1      -9.166  10.631  68.084  1.00  0.00    -0.136 F  
ENDBRANCH  12  14
ENDBRANCH   8  12
BRANCH  10  22
HETATM   22  C   UNL     1     -11.855  14.513  65.429  1.00  0.00    -0.344 C  
HETATM   23  H   UNL     1     -10.784  14.703  63.633  1.00  0.00     0.000 HD 
HETATM   24  N   UNL     1     -11.622  14.337  64.085  1.00  0.00    -0.262 N  
HETATM   25  O   UNL     1     -12.833  14.042  66.011  1.00  0.00    -0.438 OA 
BRANCH  24  26
HETATM   26  O   UNL     1     -12.610  13.617  63.362  1.00  0.00    -0.799 OA 
BRANCH  26  27
HETATM   27  C   UNL     1     -12.233  12.231  63.389  1.00  0.00    -0.527 C  
BRANCH  27  28
HETATM   28  C   UNL     1     -10.738  12.068  63.653  1.00  0.00    -0.449 C  
HETATM   29  O   UNL     1     -10.488  11.284  64.816  1.00  0.00    -0.292 OA 
HETATM   30  H   UNL     1      -9.558  11.183  64.981  1.00  0.00     0.000 HD 
ENDBRANCH  27  28
ENDBRANCH  26  27
ENDBRANCH  24  26
ENDBRANCH  10  22
TORSDOF 6
ENDMDL
MODEL       26
REMARK 921   NORMALIZED FREE ENERGY PREDICTED BY IDOCK:   -6.35 KCAL/MOL
REMARK 922        TOTAL FREE ENERGY PREDICTED BY IDOCK:   -9.86 KCAL/MOL
REMARK 923 INTER-LIGAND FREE ENERGY PREDICTED BY IDOCK:   -8.86 KCAL/MOL
REMARK 924 INTRA-LIGAND FREE ENERGY PREDICTED BY IDOCK:   -1.00 KCAL/MOL
REMARK 927      BINDING AFFINITY PREDICTED BY RF-SCORE:    0.00 PKD
ROOT
HETATM    1  C   UNL     1     -10.462  10.159  67.387  1.00  0.00    -0.256 C  
HETATM    2  N   UNL     1     -10.556  11.280  66.486  1.00  0.00    -0.257 NA 
HETATM    3  C   UNL     1     -10.524  11.206  65.124  1.00  0.00    -0.277 A  
HETATM    4  N   UNL     1     -10.607  12.397  64.575  1.00  0.00    -0.303 NA 
HETATM    5  C   UNL     1     -10.698  13.277  65.629  1.00  0.00    -0.282 A  
HETATM    6  C   UNL     1     -10.794  14.674  65.641  1.00  0.00    -0.331 A  
HETATM    7  F   UNL     1     -10.870  15.319  64.466  1.00  0.00    -0.383 F  
HETATM    8  C   UNL     1     -10.831  15.400  66.866  1.00  0.00    -0.313 A  
HETATM    9  C   UNL     1     -10.828  13.260  68.069  1.00  0.00    -0.261 A  
HETATM   10  C   UNL     1     -10.950  14.674  68.071  1.00  0.00    -0.274 A  
HETATM   11  C   UNL     1     -10.685  12.598  66.841  1.00  0.00    -0.242 A  
ENDROOT
BRANCH   8  12
HETATM   12  N   UNL     1     -10.852  16.840  66.834  1.00  0.00    -0.118 NA 
HETATM   13  H   UNL     1     -11.669  17.302  66.436  1.00  0.00     0.000 HD 
BRANCH  12  14
HETATM   14  C   UNL     1      -9.787  17.659  67.333  1.00  0.00    -0.305 A  
HETATM   15 BR   UNL     1      -6.162  19.986  69.196  1.00  0.00    -0.369 Br 
HETATM   16  C   UNL     1      -9.998  18.637  68.316  1.00  0.00    -0.424 A  
HETATM   17  C   UNL     1      -7.411  18.217  67.341  1.00  0.00    -0.218 A  
HETATM   18  C   UNL     1      -8.491  17.517  66.814  1.00  0.00    -0.250 A  
HETATM   19  C   UNL     1      -7.627  19.102  68.394  1.00  0.00    -0.312 A  
HETATM   20  C   UNL     1      -8.916  19.331  68.871  1.00  0.00    -0.344 A  
HETATM   21  F   UNL     1      -8.278  16.638  65.822  1.00  0.00    -0.319 F  
ENDBRANCH  12  14
ENDBRANCH   8  12
BRANCH  10  22
HETATM   22  C   UNL     1     -11.309  15.268  69.408  1.00  0.00    -0.294 C  
HETATM   23  H   UNL     1     -13.365  15.003  69.075  1.00  0.00     0.000 HD 
HETATM   24  N   UNL     1     -12.646  15.321  69.724  1.00  0.00    -0.182 N  
HETATM   25  O   UNL     1     -10.417  15.601  70.188  1.00  0.00    -0.305 OA 
BRANCH  24  26
HETATM   26  O   UNL     1     -12.971  15.843  71.005  1.00  0.00    -0.477 OA 
BRANCH  26  27
HETATM   27  C   UNL     1     -14.006  15.011  71.554  1.00  0.00    -0.501 C  
BRANCH  27  28
HETATM   28  C   UNL     1     -13.477  14.157  72.705  1.00  0.00    -0.534 C  
HETATM   29  O   UNL     1     -14.033  12.845  72.687  1.00  0.00    -0.727 OA 
HETATM   30  H   UNL     1     -13.705  12.313  73.403  1.00  0.00     0.000 HD 
ENDBRANCH  27  28
ENDBRANCH  26  27
ENDBRANCH  24  26
ENDBRANCH  10  22
TORSDOF 6
ENDMDL
MODEL       27
REMARK 921   NORMALIZED FREE ENERGY PREDICTED BY IDOCK:   -6.34 KCAL/MOL
REMARK 922        TOTAL FREE ENERGY PREDICTED BY IDOCK:   -9.85 KCAL/MOL
REMARK 923 INTER-LIGAND FREE ENERGY PREDICTED BY IDOCK:   -8.31 KCAL/MOL
REMARK 924 INTRA-LIGAND FREE ENERGY PREDICTED BY IDOCK:   -1.54 KCAL/MOL
REMARK 927      BINDING AFFINITY PREDICTED BY RF-SCORE:    0.00 PKD
ROOT
HETATM    1  C   UNL     1     -11.726  14.469  64.648  1.00  0.00    -0.431 C  
HETATM    2  N   UNL     1     -11.338  13.112  64.939  1.00  0.00    -0.301 NA 
HETATM    3  C   UNL     1     -10.863  12.212  64.030  1.00  0.00    -0.383 A  
HETATM    4  N   UNL     1     -10.616  11.049  64.589  1.00  0.00    -0.326 NA 
HETATM    5  C   UNL     1     -10.947  11.206  65.915  1.00  0.00    -0.103 A  
HETATM    6  C   UNL     1     -10.901  10.294  66.977  1.00  0.00    -0.181 A  
HETATM    7  F   UNL     1     -10.415   9.064  66.743  1.00  0.00    -0.318 F  
HETATM    8  C   UNL     1     -11.340  10.659  68.282  1.00  0.00    -0.289 A  
HETATM    9  C   UNL     1     -11.726  12.937  67.453  1.00  0.00    -0.428 A  
HETATM   10  C   UNL     1     -11.654  12.014  68.527  1.00  0.00    -0.363 A  
HETATM   11  C   UNL     1     -11.387  12.500  66.164  1.00  0.00    -0.343 A  
ENDROOT
BRANCH   8  12
HETATM   12  N   UNL     1     -11.349   9.669  69.328  1.00  0.00    -0.448 NA 
HETATM   13  H   UNL     1     -12.242   9.426  69.756  1.00  0.00     0.000 HD 
BRANCH  12  14
HETATM   14  C   UNL     1     -10.170   9.006  69.802  1.00  0.00    -0.205 A  
HETATM   15 BR   UNL     1      -6.512   6.799  71.745  1.00  0.00    -0.049 Br 
HETATM   16  C   UNL     1      -8.992   9.707  70.102  1.00  0.00    -0.273 A  
HETATM   17  C   UNL     1      -9.073   6.940  70.500  1.00  0.00    -0.156 A  
HETATM   18  C   UNL     1     -10.160   7.611  69.947  1.00  0.00    -0.198 A  
HETATM   19  C   UNL     1      -7.957   7.672  70.895  1.00  0.00    -0.094 A  
HETATM   20  C   UNL     1      -7.902   9.048  70.682  1.00  0.00    -0.147 A  
HETATM   21  F   UNL     1     -11.250   6.910  69.597  1.00  0.00    -0.278 F  
ENDBRANCH  12  14
ENDBRANCH   8  12
BRANCH  10  22
HETATM   22  C   UNL     1     -11.831  12.627  69.892  1.00  0.00    -0.294 C  
HETATM   23  H   UNL     1     -11.618  14.577  69.143  1.00  0.00     0.000 HD 
HETATM   24  N   UNL     1     -11.790  13.999  69.966  1.00  0.00    -0.306 N  
HETATM   25  O   UNL     1     -12.082  11.906  70.858  1.00  0.00    -0.321 OA 
BRANCH  24  26
HETATM   26  O   UNL     1     -12.002  14.569  71.250  1.00  0.00    -0.338 OA 
BRANCH  26  27
HETATM   27  C   UNL     1     -13.212  15.340  71.180  1.00  0.00    -0.498 C  
BRANCH  27  28
HETATM   28  C   UNL     1     -14.246  14.840  72.186  1.00  0.00    -0.515 C  
HETATM   29  O   UNL     1     -14.091  13.449  72.457  1.00  0.00    -0.726 OA 
HETATM   30  H   UNL     1     -14.735  13.138  73.082  1.00  0.00     0.000 HD 
ENDBRANCH  27  28
ENDBRANCH  26  27
ENDBRANCH  24  26
ENDBRANCH  10  22
TORSDOF 6
ENDMDL
MODEL       28
REMARK 921   NORMALIZED FREE ENERGY PREDICTED BY IDOCK:   -6.33 KCAL/MOL
REMARK 922        TOTAL FREE ENERGY PREDICTED BY IDOCK:   -9.83 KCAL/MOL
REMARK 923 INTER-LIGAND FREE ENERGY PREDICTED BY IDOCK:   -8.87 KCAL/MOL
REMARK 924 INTRA-LIGAND FREE ENERGY PREDICTED BY IDOCK:   -0.96 KCAL/MOL
REMARK 927      BINDING AFFINITY PREDICTED BY RF-SCORE:    0.00 PKD
ROOT
HETATM    1  C   UNL     1     -12.011  12.680  65.911  1.00  0.00    -0.438 C  
HETATM    2  N   UNL     1     -11.029  11.878  66.596  1.00  0.00    -0.277 NA 
HETATM    3  C   UNL     1      -9.859  11.427  66.056  1.00  0.00    -0.223 A  
HETATM    4  N   UNL     1      -9.181  10.701  66.916  1.00  0.00    -0.154 NA 
HETATM    5  C   UNL     1      -9.946  10.682  68.059  1.00  0.00    -0.160 A  
HETATM    6  C   UNL     1      -9.726  10.051  69.290  1.00  0.00    -0.215 A  
HETATM    7  F   UNL     1      -8.575   9.384  69.469  1.00  0.00    -0.122 F  
HETATM    8  C   UNL     1     -10.687  10.126  70.338  1.00  0.00    -0.266 A  
HETATM    9  C   UNL     1     -12.028  11.621  68.927  1.00  0.00    -0.355 A  
HETATM   10  C   UNL     1     -11.785  10.999  70.179  1.00  0.00    -0.442 A  
HETATM   11  C   UNL     1     -11.105  11.429  67.889  1.00  0.00    -0.261 A  
ENDROOT
BRANCH   8  12
HETATM   12  N   UNL     1     -10.458   9.399  71.561  1.00  0.00    -0.310 NA 
HETATM   13  H   UNL     1     -10.312   9.931  72.419  1.00  0.00     0.000 HD 
BRANCH  12  14
HETATM   14  C   UNL     1     -10.424   7.969  71.637  1.00  0.00    -0.219 A  
HETATM   15 BR   UNL     1      -9.876   3.310  71.800  1.00  0.00    -0.198 Br 
HETATM   16  C   UNL     1     -10.917   7.157  70.605  1.00  0.00    -0.283 A  
HETATM   17  C   UNL     1      -9.767   5.957  72.854  1.00  0.00    -0.164 A  
HETATM   18  C   UNL     1      -9.913   7.339  72.782  1.00  0.00    -0.194 A  
HETATM   19  C   UNL     1     -10.161   5.178  71.771  1.00  0.00    -0.209 A  
HETATM   20  C   UNL     1     -10.754   5.767  70.655  1.00  0.00    -0.351 A  
HETATM   21  F   UNL     1      -9.501   8.094  73.813  1.00  0.00    -0.322 F  
ENDBRANCH  12  14
ENDBRANCH   8  12
BRANCH  10  22
HETATM   22  C   UNL     1     -12.712  11.434  71.284  1.00  0.00    -0.393 C  
HETATM   23  H   UNL     1     -12.572  13.454  70.729  1.00  0.00     0.000 HD 
HETATM   24  N   UNL     1     -12.993  12.777  71.365  1.00  0.00    -0.329 N  
HETATM   25  O   UNL     1     -13.241  10.589  72.006  1.00  0.00    -0.464 OA 
BRANCH  24  26
HETATM   26  O   UNL     1     -13.903  13.171  72.383  1.00  0.00    -0.577 OA 
BRANCH  26  27
HETATM   27  C   UNL     1     -13.903  14.607  72.423  1.00  0.00    -0.475 C  
BRANCH  27  28
HETATM   28  C   UNL     1     -12.843  15.135  73.387  1.00  0.00    -0.537 C  
HETATM   29  O   UNL     1     -13.331  16.225  74.165  1.00  0.00    -0.929 OA 
HETATM   30  H   UNL     1     -12.672  16.554  74.764  1.00  0.00     0.000 HD 
ENDBRANCH  27  28
ENDBRANCH  26  27
ENDBRANCH  24  26
ENDBRANCH  10  22
TORSDOF 6
ENDMDL
MODEL       29
REMARK 921   NORMALIZED FREE ENERGY PREDICTED BY IDOCK:   -6.31 KCAL/MOL
REMARK 922        TOTAL FREE ENERGY PREDICTED BY IDOCK:   -9.80 KCAL/MOL
REMARK 923 INTER-LIGAND FREE ENERGY PREDICTED BY IDOCK:   -8.63 KCAL/MOL
REMARK 924 INTRA-LIGAND FREE ENERGY PREDICTED BY IDOCK:   -1.18 KCAL/MOL
REMARK 927      BINDING AFFINITY PREDICTED BY RF-SCORE:    0.00 PKD
ROOT
HETATM    1  C   UNL     1     -12.082  15.891  73.239  1.00  0.00    -0.496 C  
HETATM    2  N   UNL     1     -12.321  15.141  72.033  1.00  0.00    -0.333 NA 
HETATM    3  C   UNL     1     -13.038  13.982  71.950  1.00  0.00    -0.386 A  
HETATM    4  N   UNL     1     -13.064  13.518  70.722  1.00  0.00    -0.085 NA 
HETATM    5  C   UNL     1     -12.332  14.416  69.979  1.00  0.00    -0.336 A  
HETATM    6  C   UNL     1     -12.013  14.421  68.615  1.00  0.00    -0.297 A  
HETATM    7  F   UNL     1     -12.517  13.449  67.838  1.00  0.00    -0.286 F  
HETATM    8  C   UNL     1     -11.191  15.439  68.055  1.00  0.00    -0.325 A  
HETATM    9  C   UNL     1     -11.148  16.535  70.250  1.00  0.00    -0.171 A  
HETATM   10  C   UNL     1     -10.850  16.546  68.864  1.00  0.00    -0.336 A  
HETATM   11  C   UNL     1     -11.869  15.455  70.778  1.00  0.00    -0.353 A  
ENDROOT
BRANCH   8  12
HETATM   12  N   UNL     1     -10.823  15.366  66.663  1.00  0.00    -0.311 NA 
HETATM   13  H   UNL     1     -10.856  16.221  66.109  1.00  0.00     0.000 HD 
BRANCH  12  14
HETATM   14  C   UNL     1     -10.413  14.155  66.016  1.00  0.00    -0.304 A  
HETATM   15 BR   UNL     1      -9.460  10.015  64.020  1.00  0.00    -0.223 Br 
HETATM   16  C   UNL     1      -9.465  13.291  66.584  1.00  0.00    -0.262 A  
HETATM   17  C   UNL     1     -10.648  12.604  64.145  1.00  0.00    -0.434 A  
HETATM   18  C   UNL     1     -10.940  13.818  64.760  1.00  0.00    -0.392 A  
HETATM   19  C   UNL     1      -9.790  11.713  64.783  1.00  0.00    -0.229 A  
HETATM   20  C   UNL     1      -9.181  12.057  65.989  1.00  0.00    -0.152 A  
HETATM   21  F   UNL     1     -11.794  14.663  64.163  1.00  0.00    -0.403 F  
ENDBRANCH  12  14
ENDBRANCH   8  12
BRANCH  10  22
HETATM   22  C   UNL     1     -10.263  17.838  68.359  1.00  0.00    -0.384 C  
HETATM   23  H   UNL     1      -8.507  17.584  69.480  1.00  0.00     0.000 HD 
HETATM   24  N   UNL     1      -9.008  18.168  68.811  1.00  0.00    -0.264 N  
HETATM   25  O   UNL     1     -10.873  18.498  67.517  1.00  0.00    -0.422 OA 
BRANCH  24  26
HETATM   26  O   UNL     1      -8.446  19.366  68.295  1.00  0.00    -0.320 OA 
BRANCH  26  27
HETATM   27  C   UNL     1      -7.441  18.990  67.340  1.00  0.00    -0.229 C  
BRANCH  27  28
HETATM   28  C   UNL     1      -7.750  19.559  65.957  1.00  0.00    -0.312 C  
HETATM   29  O   UNL     1      -8.897  20.406  65.978  1.00  0.00    -0.581 OA 
HETATM   30  H   UNL     1      -9.090  20.760  65.118  1.00  0.00     0.000 HD 
ENDBRANCH  27  28
ENDBRANCH  26  27
ENDBRANCH  24  26
ENDBRANCH  10  22
TORSDOF 6
ENDMDL
MODEL       30
REMARK 921   NORMALIZED FREE ENERGY PREDICTED BY IDOCK:   -6.28 KCAL/MOL
REMARK 922        TOTAL FREE ENERGY PREDICTED BY IDOCK:   -9.77 KCAL/MOL
REMARK 923 INTER-LIGAND FREE ENERGY PREDICTED BY IDOCK:   -8.29 KCAL/MOL
REMARK 924 INTRA-LIGAND FREE ENERGY PREDICTED BY IDOCK:   -1.47 KCAL/MOL
REMARK 927      BINDING AFFINITY PREDICTED BY RF-SCORE:    0.00 PKD
ROOT
HETATM    1  C   UNL     1     -12.441  12.693  64.150  1.00  0.00    -0.403 C  
HETATM    2  N   UNL     1     -11.490  11.888  64.873  1.00  0.00    -0.289 NA 
HETATM    3  C   UNL     1     -10.599  11.019  64.311  1.00  0.00    -0.331 A  
HETATM    4  N   UNL     1      -9.878  10.411  65.225  1.00  0.00    -0.275 NA 
HETATM    5  C   UNL     1     -10.322  10.910  66.429  1.00  0.00    -0.251 A  
HETATM    6  C   UNL     1      -9.924  10.612  67.738  1.00  0.00    -0.167 A  
HETATM    7  F   UNL     1      -8.913   9.747  67.918  1.00  0.00    -0.119 F  
HETATM    8  C   UNL     1     -10.559  11.221  68.858  1.00  0.00    -0.207 A  
HETATM    9  C   UNL     1     -11.902  12.558  67.298  1.00  0.00    -0.381 A  
HETATM   10  C   UNL     1     -11.476  12.268  68.620  1.00  0.00    -0.355 A  
HETATM   11  C   UNL     1     -11.323  11.853  66.233  1.00  0.00    -0.334 A  
ENDROOT
BRANCH   8  12
HETATM   12  N   UNL     1     -10.172  10.830  70.190  1.00  0.00    -0.310 NA 
HETATM   13  H   UNL     1      -9.713  11.521  70.782  1.00  0.00     0.000 HD 
BRANCH  12  14
HETATM   14  C   UNL     1     -10.398   9.521  70.727  1.00  0.00    -0.306 A  
HETATM   15 BR   UNL     1     -11.200   5.429  72.882  1.00  0.00    -0.364 Br 
HETATM   16  C   UNL     1      -9.347   8.622  70.964  1.00  0.00    -0.254 A  
HETATM   17  C   UNL     1     -11.960   7.871  71.622  1.00  0.00    -0.329 A  
HETATM   18  C   UNL     1     -11.705   9.092  71.004  1.00  0.00    -0.301 A  
HETATM   19  C   UNL     1     -10.890   7.043  71.949  1.00  0.00    -0.224 A  
HETATM   20  C   UNL     1      -9.588   7.402  71.606  1.00  0.00    -0.165 A  
HETATM   21  F   UNL     1     -12.733   9.906  70.719  1.00  0.00    -0.347 F  
ENDBRANCH  12  14
ENDBRANCH   8  12
BRANCH  10  22
HETATM   22  C   UNL     1     -11.996  13.218  69.667  1.00  0.00    -0.314 C  
HETATM   23  H   UNL     1     -11.924  14.852  68.351  1.00  0.00     0.000 HD 
HETATM   24  N   UNL     1     -12.166  14.528  69.288  1.00  0.00    -0.273 N  
HETATM   25  O   UNL     1     -12.323  12.788  70.773  1.00  0.00    -0.368 OA 
BRANCH  24  26
HETATM   26  O   UNL     1     -12.699  15.405  70.269  1.00  0.00    -0.375 OA 
BRANCH  26  27
HETATM   27  C   UNL     1     -11.588  15.976  70.980  1.00  0.00    -0.431 C  
BRANCH  27  28
HETATM   28  C   UNL     1     -11.748  15.804  72.489  1.00  0.00    -0.462 C  
HETATM   29  O   UNL     1     -12.842  14.950  72.811  1.00  0.00    -0.360 OA 
HETATM   30  H   UNL     1     -12.942  14.843  73.749  1.00  0.00     0.000 HD 
ENDBRANCH  27  28
ENDBRANCH  26  27
ENDBRANCH  24  26
ENDBRANCH  10  22
TORSDOF 6
ENDMDL
MODEL       31
REMARK 921   NORMALIZED FREE ENERGY PREDICTED BY IDOCK:   -6.26 KCAL/MOL
REMARK 922        TOTAL FREE ENERGY PREDICTED BY IDOCK:   -9.73 KCAL/MOL
REMARK 923 INTER-LIGAND FREE ENERGY PREDICTED BY IDOCK:   -9.19 KCAL/MOL
REMARK 924 INTRA-LIGAND FREE ENERGY PREDICTED BY IDOCK:   -0.54 KCAL/MOL
REMARK 927      BINDING AFFINITY PREDICTED BY RF-SCORE:    0.00 PKD
ROOT
HETATM    1  C   UNL     1     -10.015   7.455  69.153  1.00  0.00    -0.173 C  
HETATM    2  N   UNL     1     -10.552   8.602  69.840  1.00  0.00    -0.223 NA 
HETATM    3  C   UNL     1     -10.809   8.674  71.179  1.00  0.00    -0.259 A  
HETATM    4  N   UNL     1     -11.317   9.840  71.510  1.00  0.00    -0.345 NA 
HETATM    5  C   UNL     1     -11.391  10.550  70.333  1.00  0.00    -0.328 A  
HETATM    6  C   UNL     1     -11.865  11.844  70.081  1.00  0.00    -0.308 A  
HETATM    7  F   UNL     1     -12.280  12.587  71.120  1.00  0.00    -0.425 F  
HETATM    8  C   UNL     1     -11.893  12.373  68.759  1.00  0.00    -0.311 A  
HETATM    9  C   UNL     1     -10.807  10.318  67.972  1.00  0.00    -0.325 A  
HETATM   10  C   UNL     1     -11.267  11.638  67.730  1.00  0.00    -0.333 A  
HETATM   11  C   UNL     1     -10.900   9.799  69.272  1.00  0.00    -0.216 A  
ENDROOT
BRANCH   8  12
HETATM   12  N   UNL     1     -12.460  13.679  68.532  1.00  0.00    -0.205 NA 
HETATM   13  H   UNL     1     -13.454  13.742  68.314  1.00  0.00     0.000 HD 
BRANCH  12  14
HETATM   14  C   UNL     1     -11.702  14.893  68.595  1.00  0.00    -0.330 A  
HETATM   15 BR   UNL     1      -9.606  19.086  68.833  1.00  0.00    -0.383 Br 
HETATM   16  C   UNL     1     -11.095  15.451  67.461  1.00  0.00    -0.315 A  
HETATM   17  C   UNL     1     -10.882  16.777  69.914  1.00  0.00    -0.106 A  
HETATM   18  C   UNL     1     -11.522  15.544  69.825  1.00  0.00    -0.331 A  
HETATM   19  C   UNL     1     -10.385  17.366  68.755  1.00  0.00    -0.357 A  
HETATM   20  C   UNL     1     -10.471  16.702  67.532  1.00  0.00    -0.317 A  
HETATM   21  F   UNL     1     -12.031  14.991  70.937  1.00  0.00    -0.282 F  
ENDBRANCH  12  14
ENDBRANCH   8  12
BRANCH  10  22
HETATM   22  C   UNL     1     -10.931  12.175  66.363  1.00  0.00    -0.288 C  
HETATM   23  H   UNL     1     -12.943  12.160  65.764  1.00  0.00     0.000 HD 
HETATM   24  N   UNL     1     -11.983  12.386  65.503  1.00  0.00    -0.423 N  
HETATM   25  O   UNL     1      -9.769  12.480  66.094  1.00  0.00    -0.254 OA 
BRANCH  24  26
HETATM   26  O   UNL     1     -11.661  12.934  64.233  1.00  0.00    -0.336 OA 
BRANCH  26  27
HETATM   27  C   UNL     1     -12.252  14.242  64.171  1.00  0.00    -0.378 C  
BRANCH  27  28
HETATM   28  C   UNL     1     -11.193  15.335  64.291  1.00  0.00    -0.028 C  
HETATM   29  O   UNL     1     -11.658  16.581  63.776  1.00  0.00    -1.617 OA 
HETATM   30  H   UNL     1     -10.999  17.260  63.851  1.00  0.00     0.000 HD 
ENDBRANCH  27  28
ENDBRANCH  26  27
ENDBRANCH  24  26
ENDBRANCH  10  22
TORSDOF 6
ENDMDL
MODEL       32
REMARK 921   NORMALIZED FREE ENERGY PREDICTED BY IDOCK:   -6.25 KCAL/MOL
REMARK 922        TOTAL FREE ENERGY PREDICTED BY IDOCK:   -9.73 KCAL/MOL
REMARK 923 INTER-LIGAND FREE ENERGY PREDICTED BY IDOCK:   -8.63 KCAL/MOL
REMARK 924 INTRA-LIGAND FREE ENERGY PREDICTED BY IDOCK:   -1.10 KCAL/MOL
REMARK 927      BINDING AFFINITY PREDICTED BY RF-SCORE:    0.00 PKD
ROOT
HETATM    1  C   UNL     1     -12.525   9.512  71.164  1.00  0.00    -0.315 C  
HETATM    2  N   UNL     1     -11.204   9.712  70.625  1.00  0.00    -0.294 NA 
HETATM    3  C   UNL     1     -10.094   8.993  70.963  1.00  0.00    -0.282 A  
HETATM    4  N   UNL     1      -9.030   9.422  70.323  1.00  0.00    -0.223 NA 
HETATM    5  C   UNL     1      -9.473  10.462  69.538  1.00  0.00    -0.139 A  
HETATM    6  C   UNL     1      -8.774  11.299  68.658  1.00  0.00    -0.136 A  
HETATM    7  F   UNL     1      -7.466  11.069  68.461  1.00  0.00    -0.082 F  
HETATM    8  C   UNL     1      -9.432  12.359  67.971  1.00  0.00    -0.208 A  
HETATM    9  C   UNL     1     -11.550  11.613  68.961  1.00  0.00    -0.379 A  
HETATM   10  C   UNL     1     -10.839  12.439  68.054  1.00  0.00    -0.251 A  
HETATM   11  C   UNL     1     -10.840  10.653  69.698  1.00  0.00    -0.268 A  
ENDROOT
BRANCH   8  12
HETATM   12  N   UNL     1      -8.662  13.245  67.135  1.00  0.00    -0.214 NA 
HETATM   13  H   UNL     1      -8.117  12.839  66.374  1.00  0.00     0.000 HD 
BRANCH  12  14
HETATM   14  C   UNL     1      -8.620  14.666  67.314  1.00  0.00    -0.214 A  
HETATM   15 BR   UNL     1      -8.138  19.325  67.621  1.00  0.00    -0.318 Br 
HETATM   16  C   UNL     1      -8.108  15.254  68.480  1.00  0.00    -0.143 A  
HETATM   17  C   UNL     1      -9.014  16.898  66.407  1.00  0.00    -0.317 A  
HETATM   18  C   UNL     1      -9.129  15.514  66.319  1.00  0.00    -0.334 A  
HETATM   19  C   UNL     1      -8.401  17.455  67.525  1.00  0.00    -0.206 A  
HETATM   20  C   UNL     1      -7.965  16.643  68.571  1.00  0.00    -0.224 A  
HETATM   21  F   UNL     1      -9.690  14.974  65.226  1.00  0.00    -0.355 F  
ENDBRANCH  12  14
ENDBRANCH   8  12
BRANCH  10  22
HETATM   22  C   UNL     1     -11.711  13.285  67.163  1.00  0.00    -0.376 C  
HETATM   23  H   UNL     1     -11.720  11.836  65.644  1.00  0.00     0.000 HD 
HETATM   24  N   UNL     1     -12.060  12.749  65.946  1.00  0.00    -0.444 N  
HETATM   25  O   UNL     1     -12.142  14.362  67.574  1.00  0.00    -0.377 OA 
BRANCH  24  26
HETATM   26  O   UNL     1     -12.918  13.535  65.133  1.00  0.00    -0.721 OA 
BRANCH  26  27
HETATM   27  C   UNL     1     -12.275  13.689  63.857  1.00  0.00    -0.374 C  
BRANCH  27  28
HETATM   28  C   UNL     1     -11.500  12.431  63.472  1.00  0.00    -0.483 C  
HETATM   29  O   UNL     1     -12.355  11.429  62.926  1.00  0.00    -0.954 OA 
HETATM   30  H   UNL     1     -11.874  10.647  62.687  1.00  0.00     0.000 HD 
ENDBRANCH  27  28
ENDBRANCH  26  27
ENDBRANCH  24  26
ENDBRANCH  10  22
TORSDOF 6
ENDMDL
MODEL       33
REMARK 921   NORMALIZED FREE ENERGY PREDICTED BY IDOCK:   -6.22 KCAL/MOL
REMARK 922        TOTAL FREE ENERGY PREDICTED BY IDOCK:   -9.68 KCAL/MOL
REMARK 923 INTER-LIGAND FREE ENERGY PREDICTED BY IDOCK:   -8.52 KCAL/MOL
REMARK 924 INTRA-LIGAND FREE ENERGY PREDICTED BY IDOCK:   -1.16 KCAL/MOL
REMARK 927      BINDING AFFINITY PREDICTED BY RF-SCORE:    0.00 PKD
ROOT
HETATM    1  C   UNL     1     -11.945  12.475  63.363  1.00  0.00    -0.514 C  
HETATM    2  N   UNL     1     -11.976  12.792  64.768  1.00  0.00    -0.377 NA 
HETATM    3  C   UNL     1     -12.660  13.831  65.330  1.00  0.00    -0.497 A  
HETATM    4  N   UNL     1     -12.478  13.879  66.631  1.00  0.00    -0.358 NA 
HETATM    5  C   UNL     1     -11.641  12.825  66.919  1.00  0.00    -0.366 A  
HETATM    6  C   UNL     1     -11.102  12.401  68.140  1.00  0.00    -0.247 A  
HETATM    7  F   UNL     1     -11.462  13.051  69.258  1.00  0.00    -0.286 F  
HETATM    8  C   UNL     1     -10.206  11.295  68.206  1.00  0.00    -0.186 A  
HETATM    9  C   UNL     1     -10.535  10.958  65.797  1.00  0.00    -0.275 A  
HETATM   10  C   UNL     1     -10.013  10.520  67.041  1.00  0.00    -0.244 A  
HETATM   11  C   UNL     1     -11.325  12.116  65.767  1.00  0.00    -0.354 A  
ENDROOT
BRANCH   8  12
HETATM   12  N   UNL     1      -9.613  10.939  69.470  1.00  0.00    -0.423 NA 
HETATM   13  H   UNL     1      -8.844  11.510  69.820  1.00  0.00     0.000 HD 
BRANCH  12  14
HETATM   14  C   UNL     1     -10.046   9.827  70.262  1.00  0.00    -0.266 A  
HETATM   15 BR   UNL     1     -11.349   5.921  72.516  1.00  0.00    -0.344 Br 
HETATM   16  C   UNL     1     -11.404   9.538  70.460  1.00  0.00    -0.343 A  
HETATM   17  C   UNL     1      -9.474   7.857  71.586  1.00  0.00    -0.194 A  
HETATM   18  C   UNL     1      -9.100   9.005  70.894  1.00  0.00    -0.250 A  
HETATM   19  C   UNL     1     -10.823   7.529  71.673  1.00  0.00    -0.219 A  
HETATM   20  C   UNL     1     -11.792   8.373  71.132  1.00  0.00    -0.314 A  
HETATM   21  F   UNL     1      -7.797   9.303  70.779  1.00  0.00    -0.114 F  
ENDBRANCH  12  14
ENDBRANCH   8  12
BRANCH  10  22
HETATM   22  C   UNL     1      -9.362   9.162  67.004  1.00  0.00    -0.148 C  
HETATM   23  H   UNL     1     -11.144   8.224  66.414  1.00  0.00     0.000 HD 
HETATM   24  N   UNL     1     -10.154   8.104  66.628  1.00  0.00    -0.283 N  
HETATM   25  O   UNL     1      -8.155   9.057  67.223  1.00  0.00    -0.103 OA 
BRANCH  24  26
HETATM   26  O   UNL     1      -9.520   6.836  66.553  1.00  0.00    -0.164 OA 
BRANCH  26  27
HETATM   27  C   UNL     1     -10.527   5.840  66.793  1.00  0.00    -0.287 C  
BRANCH  27  28
HETATM   28  C   UNL     1     -10.387   4.665  65.827  1.00  0.00    -0.264 C  
HETATM   29  O   UNL     1     -11.537   4.524  64.997  1.00  0.00    -1.101 OA 
HETATM   30  H   UNL     1     -11.450   3.793  64.396  1.00  0.00     0.000 HD 
ENDBRANCH  27  28
ENDBRANCH  26  27
ENDBRANCH  24  26
ENDBRANCH  10  22
TORSDOF 6
ENDMDL
MODEL       34
REMARK 921   NORMALIZED FREE ENERGY PREDICTED BY IDOCK:   -6.21 KCAL/MOL
REMARK 922        TOTAL FREE ENERGY PREDICTED BY IDOCK:   -9.67 KCAL/MOL
REMARK 923 INTER-LIGAND FREE ENERGY PREDICTED BY IDOCK:   -8.49 KCAL/MOL
REMARK 924 INTRA-LIGAND FREE ENERGY PREDICTED BY IDOCK:   -1.17 KCAL/MOL
REMARK 927      BINDING AFFINITY PREDICTED BY RF-SCORE:    0.00 PKD
ROOT
HETATM    1  C   UNL     1     -12.421   9.465  71.213  1.00  0.00    -0.335 C  
HETATM    2  N   UNL     1     -11.113   9.705  70.659  1.00  0.00    -0.292 NA 
HETATM    3  C   UNL     1      -9.966   9.066  71.031  1.00  0.00    -0.279 A  
HETATM    4  N   UNL     1      -8.927   9.514  70.364  1.00  0.00    -0.251 NA 
HETATM    5  C   UNL     1      -9.425  10.483  69.524  1.00  0.00    -0.080 A  
HETATM    6  C   UNL     1      -8.773  11.305  68.596  1.00  0.00    -0.136 A  
HETATM    7  F   UNL     1      -7.455  11.134  68.407  1.00  0.00    -0.082 F  
HETATM    8  C   UNL     1      -9.487  12.289  67.854  1.00  0.00    -0.200 A  
HETATM    9  C   UNL     1     -11.561  11.488  68.893  1.00  0.00    -0.384 A  
HETATM   10  C   UNL     1     -10.896  12.299  67.938  1.00  0.00    -0.252 A  
HETATM   11  C   UNL     1     -10.801  10.610  69.678  1.00  0.00    -0.268 A  
ENDROOT
BRANCH   8  12
HETATM   12  N   UNL     1      -8.766  13.166  66.966  1.00  0.00    -0.290 NA 
HETATM   13  H   UNL     1      -8.302  12.757  66.155  1.00  0.00     0.000 HD 
BRANCH  12  14
HETATM   14  C   UNL     1      -8.665  14.582  67.162  1.00  0.00    -0.219 A  
HETATM   15 BR   UNL     1      -8.665  19.181  68.099  1.00  0.00    -0.375 Br 
HETATM   16  C   UNL     1      -9.162  15.500  66.225  1.00  0.00    -0.364 A  
HETATM   17  C   UNL     1      -7.998  16.452  68.583  1.00  0.00    -0.220 A  
HETATM   18  C   UNL     1      -8.026  15.088  68.304  1.00  0.00    -0.128 A  
HETATM   19  C   UNL     1      -8.597  17.336  67.692  1.00  0.00    -0.217 A  
HETATM   20  C   UNL     1      -9.161  16.871  66.505  1.00  0.00    -0.295 A  
HETATM   21  F   UNL     1      -7.479  14.231  69.180  1.00  0.00    -0.121 F  
ENDBRANCH  12  14
ENDBRANCH   8  12
BRANCH  10  22
HETATM   22  C   UNL     1     -11.813  13.046  67.005  1.00  0.00    -0.377 C  
HETATM   23  H   UNL     1     -11.536  11.645  65.466  1.00  0.00     0.000 HD 
HETATM   24  N   UNL     1     -12.010  12.499  65.759  1.00  0.00    -0.435 N  
HETATM   25  O   UNL     1     -12.407  14.048  67.403  1.00  0.00    -0.322 OA 
BRANCH  24  26
HETATM   26  O   UNL     1     -12.911  13.187  64.903  1.00  0.00    -0.734 OA 
BRANCH  26  27
HETATM   27  C   UNL     1     -12.126  14.040  64.054  1.00  0.00    -0.376 C  
BRANCH  27  28
HETATM   28  C   UNL     1     -12.533  15.504  64.209  1.00  0.00     0.128 C  
HETATM   29  O   UNL     1     -11.530  16.387  63.714  1.00  0.00    -1.590 OA 
HETATM   30  H   UNL     1     -11.783  17.297  63.811  1.00  0.00     0.000 HD 
ENDBRANCH  27  28
ENDBRANCH  26  27
ENDBRANCH  24  26
ENDBRANCH  10  22
TORSDOF 6
ENDMDL
MODEL       35
REMARK 921   NORMALIZED FREE ENERGY PREDICTED BY IDOCK:   -6.21 KCAL/MOL
REMARK 922        TOTAL FREE ENERGY PREDICTED BY IDOCK:   -9.67 KCAL/MOL
REMARK 923 INTER-LIGAND FREE ENERGY PREDICTED BY IDOCK:   -8.43 KCAL/MOL
REMARK 924 INTRA-LIGAND FREE ENERGY PREDICTED BY IDOCK:   -1.24 KCAL/MOL
REMARK 927      BINDING AFFINITY PREDICTED BY RF-SCORE:    0.00 PKD
ROOT
HETATM    1  C   UNL     1     -12.698  16.018  73.373  1.00  0.00    -0.558 C  
HETATM    2  N   UNL     1     -12.737  14.896  72.469  1.00  0.00    -0.343 NA 
HETATM    3  C   UNL     1     -13.379  13.714  72.701  1.00  0.00    -0.480 A  
HETATM    4  N   UNL     1     -13.216  12.874  71.704  1.00  0.00    -0.371 NA 
HETATM    5  C   UNL     1     -12.437  13.544  70.788  1.00  0.00    -0.353 A  
HETATM    6  C   UNL     1     -11.939  13.134  69.545  1.00  0.00    -0.294 A  
HETATM    7  F   UNL     1     -12.285  11.920  69.087  1.00  0.00    -0.324 F  
HETATM    8  C   UNL     1     -11.100  13.984  68.770  1.00  0.00    -0.264 A  
HETATM    9  C   UNL     1     -11.405  15.735  70.463  1.00  0.00    -0.400 A  
HETATM   10  C   UNL     1     -10.925  15.320  69.195  1.00  0.00    -0.251 A  
HETATM   11  C   UNL     1     -12.136  14.824  71.239  1.00  0.00    -0.341 A  
ENDROOT
BRANCH   8  12
HETATM   12  N   UNL     1     -10.546  13.495  67.533  1.00  0.00    -0.243 NA 
HETATM   13  H   UNL     1     -10.524  14.125  66.732  1.00  0.00     0.000 HD 
BRANCH  12  14
HETATM   14  C   UNL     1     -10.024  12.171  67.368  1.00  0.00    -0.199 A  
HETATM   15 BR   UNL     1      -8.674   7.687  67.046  1.00  0.00    -0.136 Br 
HETATM   16  C   UNL     1      -8.952  11.692  68.136  1.00  0.00    -0.182 A  
HETATM   17  C   UNL     1     -10.160   9.994  66.272  1.00  0.00    -0.310 A  
HETATM   18  C   UNL     1     -10.567  11.319  66.395  1.00  0.00    -0.266 A  
HETATM   19  C   UNL     1      -9.170   9.509  67.122  1.00  0.00    -0.134 A  
HETATM   20  C   UNL     1      -8.550  10.355  68.039  1.00  0.00    -0.123 A  
HETATM   21  F   UNL     1     -11.546  11.778  65.599  1.00  0.00    -0.377 F  
ENDBRANCH  12  14
ENDBRANCH   8  12
BRANCH  10  22
HETATM   22  C   UNL     1     -10.341  16.425  68.354  1.00  0.00    -0.282 C  
HETATM   23  H   UNL     1      -9.753  17.522  70.045  1.00  0.00     0.000 HD 
HETATM   24  N   UNL     1      -9.761  17.475  69.026  1.00  0.00    -0.233 N  
HETATM   25  O   UNL     1     -10.326  16.318  67.128  1.00  0.00    -0.277 OA 
BRANCH  24  26
HETATM   26  O   UNL     1      -9.174  18.490  68.224  1.00  0.00    -0.302 OA 
BRANCH  26  27
HETATM   27  C   UNL     1     -10.098  19.590  68.185  1.00  0.00    -0.429 C  
BRANCH  27  28
HETATM   28  C   UNL     1     -10.278  20.111  66.760  1.00  0.00    -0.430 C  
HETATM   29  O   UNL     1     -10.390  19.047  65.818  1.00  0.00    -0.526 OA 
HETATM   30  H   UNL     1     -10.501  19.371  64.933  1.00  0.00     0.000 HD 
ENDBRANCH  27  28
ENDBRANCH  26  27
ENDBRANCH  24  26
ENDBRANCH  10  22
TORSDOF 6
ENDMDL
MODEL       36
REMARK 921   NORMALIZED FREE ENERGY PREDICTED BY IDOCK:   -6.13 KCAL/MOL
REMARK 922        TOTAL FREE ENERGY PREDICTED BY IDOCK:   -9.56 KCAL/MOL
REMARK 923 INTER-LIGAND FREE ENERGY PREDICTED BY IDOCK:   -8.94 KCAL/MOL
REMARK 924 INTRA-LIGAND FREE ENERGY PREDICTED BY IDOCK:   -0.62 KCAL/MOL
REMARK 927      BINDING AFFINITY PREDICTED BY RF-SCORE:    0.00 PKD
ROOT
HETATM    1  C   UNL     1     -12.360  15.911  70.919  1.00  0.00    -0.329 C  
HETATM    2  N   UNL     1     -12.778  14.642  71.457  1.00  0.00    -0.319 NA 
HETATM    3  C   UNL     1     -13.474  14.464  72.619  1.00  0.00    -0.509 A  
HETATM    4  N   UNL     1     -13.690  13.191  72.860  1.00  0.00    -0.434 NA 
HETATM    5  C   UNL     1     -13.110  12.519  71.809  1.00  0.00    -0.347 A  
HETATM    6  C   UNL     1     -13.020  11.145  71.548  1.00  0.00    -0.437 A  
HETATM    7  F   UNL     1     -13.623  10.293  72.393  1.00  0.00    -0.478 F  
HETATM    8  C   UNL     1     -12.323  10.657  70.407  1.00  0.00    -0.343 A  
HETATM    9  C   UNL     1     -11.944  12.980  69.713  1.00  0.00    -0.377 A  
HETATM   10  C   UNL     1     -11.879  11.589  69.444  1.00  0.00    -0.417 A  
HETATM   11  C   UNL     1     -12.545  13.409  70.905  1.00  0.00    -0.327 A  
ENDROOT
BRANCH   8  12
HETATM   12  N   UNL     1     -12.188   9.235  70.216  1.00  0.00    -0.432 NA 
HETATM   13  H   UNL     1     -12.564   8.824  69.361  1.00  0.00     0.000 HD 
BRANCH  12  14
HETATM   14  C   UNL     1     -11.553   8.366  71.162  1.00  0.00    -0.279 A  
HETATM   15 BR   UNL     1      -9.815   5.599  74.532  1.00  0.00    -0.281 Br 
HETATM   16  C   UNL     1     -10.437   8.770  71.911  1.00  0.00    -0.423 A  
HETATM   17  C   UNL     1     -11.503   6.217  72.319  1.00  0.00    -0.360 A  
HETATM   18  C   UNL     1     -12.024   7.057  71.339  1.00  0.00    -0.340 A  
HETATM   19  C   UNL     1     -10.469   6.681  73.126  1.00  0.00    -0.253 A  
HETATM   20  C   UNL     1      -9.920   7.944  72.916  1.00  0.00    -0.360 A  
HETATM   21  F   UNL     1     -13.044   6.623  70.582  1.00  0.00    -0.273 F  
ENDBRANCH  12  14
ENDBRANCH   8  12
BRANCH  10  22
HETATM   22  C   UNL     1     -11.411  11.242  68.055  1.00  0.00    -0.298 C  
HETATM   23  H   UNL     1     -10.053   9.810  68.771  1.00  0.00     0.000 HD 
HETATM   24  N   UNL     1     -10.453  10.262  67.948  1.00  0.00    -0.196 N  
HETATM   25  O   UNL     1     -11.946  11.771  67.080  1.00  0.00    -0.610 OA 
BRANCH  24  26
HETATM   26  O   UNL     1     -10.052   9.911  66.632  1.00  0.00    -0.212 OA 
BRANCH  26  27
HETATM   27  C   UNL     1      -8.685  10.327  66.478  1.00  0.00    -0.131 C  
BRANCH  27  28
HETATM   28  C   UNL     1      -7.757   9.126  66.305  1.00  0.00    -0.096 C  
HETATM   29  O   UNL     1      -6.957   9.240  65.132  1.00  0.00    -0.082 OA 
HETATM   30  H   UNL     1      -6.380   8.493  65.024  1.00  0.00     0.000 HD 
ENDBRANCH  27  28
ENDBRANCH  26  27
ENDBRANCH  24  26
ENDBRANCH  10  22
TORSDOF 6
ENDMDL
MODEL       37
REMARK 921   NORMALIZED FREE ENERGY PREDICTED BY IDOCK:   -6.11 KCAL/MOL
REMARK 922        TOTAL FREE ENERGY PREDICTED BY IDOCK:   -9.54 KCAL/MOL
REMARK 923 INTER-LIGAND FREE ENERGY PREDICTED BY IDOCK:   -8.33 KCAL/MOL
REMARK 924 INTRA-LIGAND FREE ENERGY PREDICTED BY IDOCK:   -1.21 KCAL/MOL
REMARK 927      BINDING AFFINITY PREDICTED BY RF-SCORE:    0.00 PKD
ROOT
HETATM    1  C   UNL     1     -10.208  19.932  68.750  1.00  0.00    -0.339 C  
HETATM    2  N   UNL     1      -9.310  18.811  68.645  1.00  0.00    -0.349 NA 
HETATM    3  C   UNL     1      -7.971  18.890  68.391  1.00  0.00    -0.338 A  
HETATM    4  N   UNL     1      -7.421  17.699  68.331  1.00  0.00    -0.243 NA 
HETATM    5  C   UNL     1      -8.449  16.813  68.555  1.00  0.00    -0.244 A  
HETATM    6  C   UNL     1      -8.451  15.412  68.592  1.00  0.00    -0.170 A  
HETATM    7  F   UNL     1      -7.282  14.768  68.444  1.00  0.00    -0.099 F  
HETATM    8  C   UNL     1      -9.656  14.682  68.798  1.00  0.00    -0.210 A  
HETATM    9  C   UNL     1     -10.834  16.816  69.087  1.00  0.00    -0.287 A  
HETATM   10  C   UNL     1     -10.822  15.398  69.146  1.00  0.00    -0.249 A  
HETATM   11  C   UNL     1      -9.644  17.488  68.773  1.00  0.00    -0.277 A  
ENDROOT
BRANCH   8  12
HETATM   12  N   UNL     1      -9.627  13.242  68.751  1.00  0.00    -0.410 NA 
HETATM   13  H   UNL     1      -9.781  12.728  69.618  1.00  0.00     0.000 HD 
BRANCH  12  14
HETATM   14  C   UNL     1      -9.393  12.494  67.552  1.00  0.00    -0.187 A  
HETATM   15 BR   UNL     1      -8.915   9.741  63.780  1.00  0.00    -0.259 Br 
HETATM   16  C   UNL     1      -8.219  11.752  67.355  1.00  0.00    -0.160 A  
HETATM   17  C   UNL     1     -10.200  11.719  65.382  1.00  0.00    -0.301 A  
HETATM   18  C   UNL     1     -10.340  12.513  66.517  1.00  0.00    -0.237 A  
HETATM   19  C   UNL     1      -9.078  10.906  65.260  1.00  0.00    -0.197 A  
HETATM   20  C   UNL     1      -8.077  10.932  66.230  1.00  0.00    -0.165 A  
HETATM   21  F   UNL     1     -11.438  13.272  66.651  1.00  0.00    -0.309 F  
ENDBRANCH  12  14
ENDBRANCH   8  12
BRANCH  10  22
HETATM   22  C   UNL     1     -12.083  14.784  69.695  1.00  0.00    -0.304 C  
HETATM   23  H   UNL     1     -12.417  16.404  70.988  1.00  0.00     0.000 HD 
HETATM   24  N   UNL     1     -12.763  15.508  70.646  1.00  0.00    -0.457 N  
HETATM   25  O   UNL     1     -12.499  13.724  69.229  1.00  0.00    -0.241 OA 
BRANCH  24  26
HETATM   26  O   UNL     1     -13.974  14.940  71.124  1.00  0.00    -0.406 OA 
BRANCH  26  27
HETATM   27  C   UNL     1     -14.116  15.335  72.499  1.00  0.00    -0.472 C  
BRANCH  27  28
HETATM   28  C   UNL     1     -12.831  15.964  73.030  1.00  0.00    -0.513 C  
HETATM   29  O   UNL     1     -12.893  16.186  74.437  1.00  0.00    -0.904 OA 
HETATM   30  H   UNL     1     -12.094  16.577  74.768  1.00  0.00     0.000 HD 
ENDBRANCH  27  28
ENDBRANCH  26  27
ENDBRANCH  24  26
ENDBRANCH  10  22
TORSDOF 6
ENDMDL
MODEL       38
REMARK 921   NORMALIZED FREE ENERGY PREDICTED BY IDOCK:   -6.10 KCAL/MOL
REMARK 922        TOTAL FREE ENERGY PREDICTED BY IDOCK:   -9.52 KCAL/MOL
REMARK 923 INTER-LIGAND FREE ENERGY PREDICTED BY IDOCK:   -8.38 KCAL/MOL
REMARK 924 INTRA-LIGAND FREE ENERGY PREDICTED BY IDOCK:   -1.14 KCAL/MOL
REMARK 927      BINDING AFFINITY PREDICTED BY RF-SCORE:    0.00 PKD
ROOT
HETATM    1  C   UNL     1      -9.993   9.060  67.333  1.00  0.00    -0.209 C  
HETATM    2  N   UNL     1     -10.160  10.181  66.443  1.00  0.00    -0.231 NA 
HETATM    3  C   UNL     1     -10.088  10.128  65.081  1.00  0.00    -0.259 A  
HETATM    4  N   UNL     1     -10.259  11.315  64.544  1.00  0.00    -0.290 NA 
HETATM    5  C   UNL     1     -10.452  12.169  65.605  1.00  0.00    -0.255 A  
HETATM    6  C   UNL     1     -10.668  13.553  65.630  1.00  0.00    -0.281 A  
HETATM    7  F   UNL     1     -10.769  14.205  64.461  1.00  0.00    -0.396 F  
HETATM    8  C   UNL     1     -10.797  14.256  66.861  1.00  0.00    -0.298 A  
HETATM    9  C   UNL     1     -10.641  12.109  68.040  1.00  0.00    -0.232 A  
HETATM   10  C   UNL     1     -10.884  13.507  68.055  1.00  0.00    -0.266 A  
HETATM   11  C   UNL     1     -10.411  11.478  66.810  1.00  0.00    -0.226 A  
ENDROOT
BRANCH   8  12
HETATM   12  N   UNL     1     -10.942  15.690  66.845  1.00  0.00    -0.288 NA 
HETATM   13  H   UNL     1     -11.882  16.081  66.898  1.00  0.00     0.000 HD 
BRANCH  12  14
HETATM   14  C   UNL     1      -9.835  16.596  66.759  1.00  0.00    -0.273 A  
HETATM   15 BR   UNL     1      -6.409  19.740  66.118  1.00  0.00    -0.211 Br 
HETATM   16  C   UNL     1      -8.580  16.194  66.280  1.00  0.00    -0.373 A  
HETATM   17  C   UNL     1      -8.965  18.861  67.027  1.00  0.00    -0.306 A  
HETATM   18  C   UNL     1      -9.980  17.924  67.189  1.00  0.00    -0.327 A  
HETATM   19  C   UNL     1      -7.765  18.464  66.446  1.00  0.00    -0.262 A  
HETATM   20  C   UNL     1      -7.558  17.132  66.089  1.00  0.00    -0.304 A  
HETATM   21  F   UNL     1     -11.150  18.314  67.719  1.00  0.00    -0.389 F  
ENDBRANCH  12  14
ENDBRANCH   8  12
BRANCH  10  22
HETATM   22  C   UNL     1     -11.326  14.051  69.388  1.00  0.00    -0.268 C  
HETATM   23  H   UNL     1     -12.479  12.346  69.803  1.00  0.00     0.000 HD 
HETATM   24  N   UNL     1     -12.154  13.252  70.141  1.00  0.00    -0.348 N  
HETATM   25  O   UNL     1     -10.880  15.126  69.788  1.00  0.00    -0.261 OA 
BRANCH  24  26
HETATM   26  O   UNL     1     -12.529  13.755  71.415  1.00  0.00    -0.351 OA 
BRANCH  26  27
HETATM   27  C   UNL     1     -13.359  12.761  72.039  1.00  0.00    -0.466 C  
BRANCH  27  28
HETATM   28  C   UNL     1     -12.976  11.355  71.584  1.00  0.00    -0.418 C  
HETATM   29  O   UNL     1     -13.574  10.353  72.404  1.00  0.00    -0.593 OA 
HETATM   30  H   UNL     1     -13.336   9.478  72.121  1.00  0.00     0.000 HD 
ENDBRANCH  27  28
ENDBRANCH  26  27
ENDBRANCH  24  26
ENDBRANCH  10  22
TORSDOF 6
ENDMDL
MODEL       39
REMARK 921   NORMALIZED FREE ENERGY PREDICTED BY IDOCK:   -6.08 KCAL/MOL
REMARK 922        TOTAL FREE ENERGY PREDICTED BY IDOCK:   -9.49 KCAL/MOL
REMARK 923 INTER-LIGAND FREE ENERGY PREDICTED BY IDOCK:   -8.53 KCAL/MOL
REMARK 924 INTRA-LIGAND FREE ENERGY PREDICTED BY IDOCK:   -0.97 KCAL/MOL
REMARK 927      BINDING AFFINITY PREDICTED BY RF-SCORE:    0.00 PKD
ROOT
HETATM    1  C   UNL     1      -8.668   9.660  65.646  1.00  0.00    -0.141 C  
HETATM    2  N   UNL     1      -9.503  10.061  66.750  1.00  0.00    -0.163 NA 
HETATM    3  C   UNL     1      -9.906   9.252  67.773  1.00  0.00    -0.171 A  
HETATM    4  N   UNL     1     -10.679   9.894  68.619  1.00  0.00    -0.223 NA 
HETATM    5  C   UNL     1     -10.779  11.173  68.120  1.00  0.00    -0.204 A  
HETATM    6  C   UNL     1     -11.486  12.283  68.599  1.00  0.00    -0.307 A  
HETATM    7  F   UNL     1     -12.152  12.164  69.759  1.00  0.00    -0.338 F  
HETATM    8  C   UNL     1     -11.488  13.518  67.890  1.00  0.00    -0.318 A  
HETATM    9  C   UNL     1      -9.919  12.532  66.281  1.00  0.00    -0.263 A  
HETATM   10  C   UNL     1     -10.618  13.658  66.786  1.00  0.00    -0.273 A  
HETATM   11  C   UNL     1     -10.034  11.308  66.954  1.00  0.00    -0.207 A  
ENDROOT
BRANCH   8  12
HETATM   12  N   UNL     1     -12.290  14.611  68.376  1.00  0.00    -0.606 NA 
HETATM   13  H   UNL     1     -12.818  15.162  67.699  1.00  0.00     0.000 HD 
BRANCH  12  14
HETATM   14  C   UNL     1     -12.387  14.968  69.760  1.00  0.00    -0.240 A  
HETATM   15 BR   UNL     1     -12.467  15.770  74.385  1.00  0.00    -0.703 Br 
HETATM   16  C   UNL     1     -13.569  14.787  70.495  1.00  0.00     0.116 A  
HETATM   17  C   UNL     1     -11.306  15.811  71.781  1.00  0.00    -0.393 A  
HETATM   18  C   UNL     1     -11.289  15.546  70.415  1.00  0.00    -0.342 A  
HETATM   19  C   UNL     1     -12.454  15.518  72.511  1.00  0.00    -0.409 A  
HETATM   20  C   UNL     1     -13.592  15.026  71.874  1.00  0.00    -0.520 A  
HETATM   21  F   UNL     1     -10.171  15.796  69.715  1.00  0.00    -0.233 F  
ENDBRANCH  12  14
ENDBRANCH   8  12
BRANCH  10  22
HETATM   22  C   UNL     1     -10.265  14.963  66.124  1.00  0.00    -0.300 C  
HETATM   23  H   UNL     1      -8.337  14.968  66.955  1.00  0.00     0.000 HD 
HETATM   24  N   UNL     1      -8.998  15.449  66.346  1.00  0.00    -0.303 N  
HETATM   25  O   UNL     1     -11.068  15.497  65.358  1.00  0.00    -0.337 OA 
BRANCH  24  26
HETATM   26  O   UNL     1      -8.660  16.658  65.681  1.00  0.00    -0.388 OA 
BRANCH  26  27
HETATM   27  C   UNL     1      -8.788  17.722  66.638  1.00  0.00    -0.264 C  
BRANCH  27  28
HETATM   28  C   UNL     1     -10.182  18.343  66.594  1.00  0.00    -0.394 C  
HETATM   29  O   UNL     1     -10.723  18.336  65.275  1.00  0.00    -0.605 OA 
HETATM   30  H   UNL     1     -11.590  18.723  65.247  1.00  0.00     0.000 HD 
ENDBRANCH  27  28
ENDBRANCH  26  27
ENDBRANCH  24  26
ENDBRANCH  10  22
TORSDOF 6
ENDMDL
MODEL       40
REMARK 921   NORMALIZED FREE ENERGY PREDICTED BY IDOCK:   -6.06 KCAL/MOL
REMARK 922        TOTAL FREE ENERGY PREDICTED BY IDOCK:   -9.46 KCAL/MOL
REMARK 923 INTER-LIGAND FREE ENERGY PREDICTED BY IDOCK:   -8.56 KCAL/MOL
REMARK 924 INTRA-LIGAND FREE ENERGY PREDICTED BY IDOCK:   -0.90 KCAL/MOL
REMARK 927      BINDING AFFINITY PREDICTED BY RF-SCORE:    0.00 PKD
ROOT
HETATM    1  C   UNL     1      -6.865   7.905  68.623  1.00  0.00    -0.063 C  
HETATM    2  N   UNL     1      -8.115   8.221  69.266  1.00  0.00    -0.114 NA 
HETATM    3  C   UNL     1      -8.757   7.435  70.179  1.00  0.00    -0.143 A  
HETATM    4  N   UNL     1      -9.887   7.977  70.571  1.00  0.00    -0.182 NA 
HETATM    5  C   UNL     1      -9.978   9.164  69.882  1.00  0.00    -0.197 A  
HETATM    6  C   UNL     1     -10.977  10.147  69.891  1.00  0.00    -0.293 A  
HETATM    7  F   UNL     1     -12.016   9.994  70.727  1.00  0.00    -0.317 F  
HETATM    8  C   UNL     1     -10.890  11.293  69.051  1.00  0.00    -0.222 A  
HETATM    9  C   UNL     1      -8.687  10.511  68.305  1.00  0.00    -0.135 A  
HETATM   10  C   UNL     1      -9.691  11.513  68.339  1.00  0.00    -0.202 A  
HETATM   11  C   UNL     1      -8.868   9.349  69.067  1.00  0.00    -0.141 A  
ENDROOT
BRANCH   8  12
HETATM   12  N   UNL     1     -11.976  12.241  69.034  1.00  0.00    -0.284 NA 
HETATM   13  H   UNL     1     -12.601  12.245  68.228  1.00  0.00     0.000 HD 
BRANCH  12  14
HETATM   14  C   UNL     1     -12.224  13.180  70.088  1.00  0.00    -0.290 A  
HETATM   15 BR   UNL     1     -12.605  16.219  73.644  1.00  0.00    -0.606 Br 
HETATM   16  C   UNL     1     -12.880  12.812  71.272  1.00  0.00    -0.355 A  
HETATM   17  C   UNL     1     -11.963  15.438  70.978  1.00  0.00    -0.409 A  
HETATM   18  C   UNL     1     -11.834  14.519  69.940  1.00  0.00    -0.317 A  
HETATM   19  C   UNL     1     -12.516  15.021  72.185  1.00  0.00    -0.344 A  
HETATM   20  C   UNL     1     -12.993  13.719  72.332  1.00  0.00    -0.440 A  
HETATM   21  F   UNL     1     -11.270  14.912  68.788  1.00  0.00    -0.234 F  
ENDBRANCH  12  14
ENDBRANCH   8  12
BRANCH  10  22
HETATM   22  C   UNL     1      -9.310  12.804  67.662  1.00  0.00    -0.191 C  
HETATM   23  H   UNL     1     -10.522  12.393  65.997  1.00  0.00     0.000 HD 
HETATM   24  N   UNL     1      -9.888  13.058  66.441  1.00  0.00    -0.265 N  
HETATM   25  O   UNL     1      -8.580  13.606  68.243  1.00  0.00    -0.164 OA 
BRANCH  24  26
HETATM   26  O   UNL     1      -9.557  14.298  65.832  1.00  0.00    -0.274 OA 
BRANCH  26  27
HETATM   27  C   UNL     1     -10.559  14.566  64.837  1.00  0.00    -0.427 C  
BRANCH  27  28
HETATM   28  C   UNL     1     -11.108  15.985  64.972  1.00  0.00    -0.336 C  
HETATM   29  O   UNL     1     -11.539  16.507  63.718  1.00  0.00    -1.617 OA 
HETATM   30  H   UNL     1     -11.880  17.389  63.802  1.00  0.00     0.000 HD 
ENDBRANCH  27  28
ENDBRANCH  26  27
ENDBRANCH  24  26
ENDBRANCH  10  22
TORSDOF 6
ENDMDL
MODEL       41
REMARK 921   NORMALIZED FREE ENERGY PREDICTED BY IDOCK:   -6.03 KCAL/MOL
REMARK 922        TOTAL FREE ENERGY PREDICTED BY IDOCK:   -9.43 KCAL/MOL
REMARK 923 INTER-LIGAND FREE ENERGY PREDICTED BY IDOCK:   -8.44 KCAL/MOL
REMARK 924 INTRA-LIGAND FREE ENERGY PREDICTED BY IDOCK:   -0.98 KCAL/MOL
REMARK 927      BINDING AFFINITY PREDICTED BY RF-SCORE:    0.00 PKD
ROOT
HETATM    1  C   UNL     1     -14.154   8.864  72.687  1.00  0.00    -0.267 C  
HETATM    2  N   UNL     1     -13.083   8.587  71.765  1.00  0.00    -0.343 NA 
HETATM    3  C   UNL     1     -12.582   7.349  71.481  1.00  0.00    -0.367 A  
HETATM    4  N   UNL     1     -11.593   7.416  70.619  1.00  0.00    -0.288 NA 
HETATM    5  C   UNL     1     -11.449   8.755  70.334  1.00  0.00    -0.144 A  
HETATM    6  C   UNL     1     -10.544   9.412  69.491  1.00  0.00    -0.222 A  
HETATM    7  F   UNL     1      -9.684   8.672  68.775  1.00  0.00    -0.156 F  
HETATM    8  C   UNL     1     -10.542  10.832  69.378  1.00  0.00    -0.221 A  
HETATM    9  C   UNL     1     -12.493  10.899  70.865  1.00  0.00    -0.507 A  
HETATM   10  C   UNL     1     -11.588  11.555  69.991  1.00  0.00    -0.364 A  
HETATM   11  C   UNL     1     -12.386   9.510  71.028  1.00  0.00    -0.282 A  
ENDROOT
BRANCH   8  12
HETATM   12  N   UNL     1      -9.544  11.474  68.560  1.00  0.00    -0.201 NA 
HETATM   13  H   UNL     1      -8.977  12.211  68.980  1.00  0.00     0.000 HD 
BRANCH  12  14
HETATM   14  C   UNL     1      -9.306  11.134  67.189  1.00  0.00    -0.165 A  
HETATM   15 BR   UNL     1      -8.699   9.622  62.787  1.00  0.00    -0.246 Br 
HETATM   16  C   UNL     1      -8.022  10.833  66.709  1.00  0.00    -0.138 A  
HETATM   17  C   UNL     1     -10.199  10.702  64.958  1.00  0.00    -0.380 A  
HETATM   18  C   UNL     1     -10.368  11.126  66.273  1.00  0.00    -0.249 A  
HETATM   19  C   UNL     1      -8.935  10.301  64.535  1.00  0.00    -0.219 A  
HETATM   20  C   UNL     1      -7.842  10.382  65.396  1.00  0.00    -0.143 A  
HETATM   21  F   UNL     1     -11.593  11.481  66.691  1.00  0.00    -0.374 F  
ENDBRANCH  12  14
ENDBRANCH   8  12
BRANCH  10  22
HETATM   22  C   UNL     1     -11.916  13.000  69.722  1.00  0.00    -0.308 C  
HETATM   23  H   UNL     1     -12.859  13.228  71.583  1.00  0.00     0.000 HD 
HETATM   24  N   UNL     1     -12.576  13.683  70.715  1.00  0.00    -0.340 N  
HETATM   25  O   UNL     1     -11.520  13.533  68.684  1.00  0.00    -0.264 OA 
BRANCH  24  26
HETATM   26  O   UNL     1     -12.840  15.057  70.469  1.00  0.00    -0.357 OA 
BRANCH  26  27
HETATM   27  C   UNL     1     -13.520  15.575  71.624  1.00  0.00    -0.494 C  
BRANCH  27  28
HETATM   28  C   UNL     1     -12.533  15.942  72.729  1.00  0.00    -0.466 C  
HETATM   29  O   UNL     1     -13.195  16.208  73.963  1.00  0.00    -0.935 OA 
HETATM   30  H   UNL     1     -12.581  16.437  74.650  1.00  0.00     0.000 HD 
ENDBRANCH  27  28
ENDBRANCH  26  27
ENDBRANCH  24  26
ENDBRANCH  10  22
TORSDOF 6
ENDMDL
MODEL       42
REMARK 921   NORMALIZED FREE ENERGY PREDICTED BY IDOCK:   -6.00 KCAL/MOL
REMARK 922        TOTAL FREE ENERGY PREDICTED BY IDOCK:   -9.39 KCAL/MOL
REMARK 923 INTER-LIGAND FREE ENERGY PREDICTED BY IDOCK:   -8.34 KCAL/MOL
REMARK 924 INTRA-LIGAND FREE ENERGY PREDICTED BY IDOCK:   -1.05 KCAL/MOL
REMARK 927      BINDING AFFINITY PREDICTED BY RF-SCORE:    0.00 PKD
ROOT
HETATM    1  C   UNL     1     -10.457  11.073  62.722  1.00  0.00     0.259 C  
HETATM    2  N   UNL     1     -10.072  11.018  64.109  1.00  0.00    -0.315 NA 
HETATM    3  C   UNL     1      -9.747   9.885  64.797  1.00  0.00    -0.235 A  
HETATM    4  N   UNL     1      -9.461  10.149  66.052  1.00  0.00    -0.184 NA 
HETATM    5  C   UNL     1      -9.606  11.511  66.179  1.00  0.00    -0.225 A  
HETATM    6  C   UNL     1      -9.444  12.342  67.294  1.00  0.00    -0.191 A  
HETATM    7  F   UNL     1      -9.028  11.793  68.446  1.00  0.00    -0.164 F  
HETATM    8  C   UNL     1      -9.695  13.742  67.213  1.00  0.00    -0.242 A  
HETATM    9  C   UNL     1     -10.125  13.469  64.812  1.00  0.00    -0.267 A  
HETATM   10  C   UNL     1      -9.936  14.306  65.941  1.00  0.00    -0.340 A  
HETATM   11  C   UNL     1      -9.973  12.083  64.967  1.00  0.00    -0.233 A  
ENDROOT
BRANCH   8  12
HETATM   12  N   UNL     1      -9.592  14.550  68.402  1.00  0.00    -0.208 NA 
HETATM   13  H   UNL     1      -8.702  15.009  68.598  1.00  0.00     0.000 HD 
BRANCH  12  14
HETATM   14  C   UNL     1     -10.671  14.742  69.324  1.00  0.00    -0.256 A  
HETATM   15 BR   UNL     1     -13.904  15.356  72.672  1.00  0.00    -0.602 Br 
HETATM   16  C   UNL     1     -11.566  13.712  69.648  1.00  0.00    -0.342 A  
HETATM   17  C   UNL     1     -11.846  16.203  70.888  1.00  0.00    -0.318 A  
HETATM   18  C   UNL     1     -10.876  16.000  69.911  1.00  0.00    -0.351 A  
HETATM   19  C   UNL     1     -12.651  15.134  71.274  1.00  0.00    -0.353 A  
HETATM   20  C   UNL     1     -12.530  13.896  70.646  1.00  0.00    -0.436 A  
HETATM   21  F   UNL     1     -10.077  17.021  69.563  1.00  0.00    -0.244 F  
ENDBRANCH  12  14
ENDBRANCH   8  12
BRANCH  10  22
HETATM   22  C   UNL     1      -9.911  15.780  65.629  1.00  0.00    -0.345 C  
HETATM   23  H   UNL     1      -8.086  16.054  66.629  1.00  0.00     0.000 HD 
HETATM   24  N   UNL     1      -8.826  16.492  66.081  1.00  0.00    -0.322 N  
HETATM   25  O   UNL     1     -10.796  16.271  64.927  1.00  0.00    -0.625 OA 
BRANCH  24  26
HETATM   26  O   UNL     1      -8.792  17.872  65.744  1.00  0.00    -0.495 OA 
BRANCH  26  27
HETATM   27  C   UNL     1      -9.304  18.600  66.872  1.00  0.00    -0.304 C  
BRANCH  27  28
HETATM   28  C   UNL     1     -10.435  19.539  66.458  1.00  0.00    -0.493 C  
HETATM   29  O   UNL     1     -11.033  19.137  65.228  1.00  0.00    -0.512 OA 
HETATM   30  H   UNL     1     -11.735  19.721  64.970  1.00  0.00     0.000 HD 
ENDBRANCH  27  28
ENDBRANCH  26  27
ENDBRANCH  24  26
ENDBRANCH  10  22
TORSDOF 6
ENDMDL
MODEL       43
REMARK 921   NORMALIZED FREE ENERGY PREDICTED BY IDOCK:   -6.00 KCAL/MOL
REMARK 922        TOTAL FREE ENERGY PREDICTED BY IDOCK:   -9.39 KCAL/MOL
REMARK 923 INTER-LIGAND FREE ENERGY PREDICTED BY IDOCK:   -8.13 KCAL/MOL
REMARK 924 INTRA-LIGAND FREE ENERGY PREDICTED BY IDOCK:   -1.26 KCAL/MOL
REMARK 927      BINDING AFFINITY PREDICTED BY RF-SCORE:    0.00 PKD
ROOT
HETATM    1  C   UNL     1      -9.874   8.969  65.989  1.00  0.00    -0.242 C  
HETATM    2  N   UNL     1     -10.070  10.315  65.515  1.00  0.00    -0.293 NA 
HETATM    3  C   UNL     1      -9.899  10.733  64.226  1.00  0.00    -0.326 A  
HETATM    4  N   UNL     1     -10.129  12.021  64.104  1.00  0.00    -0.313 NA 
HETATM    5  C   UNL     1     -10.463  12.452  65.367  1.00  0.00    -0.277 A  
HETATM    6  C   UNL     1     -10.792  13.731  65.833  1.00  0.00    -0.283 A  
HETATM    7  F   UNL     1     -10.865  14.736  64.946  1.00  0.00    -0.346 F  
HETATM    8  C   UNL     1     -11.063  13.965  67.212  1.00  0.00    -0.299 A  
HETATM    9  C   UNL     1     -10.814  11.557  67.613  1.00  0.00    -0.277 A  
HETATM   10  C   UNL     1     -11.171  12.851  68.072  1.00  0.00    -0.305 A  
HETATM   11  C   UNL     1     -10.449  11.395  66.269  1.00  0.00    -0.255 A  
ENDROOT
BRANCH   8  12
HETATM   12  N   UNL     1     -11.322  15.309  67.663  1.00  0.00    -0.329 NA 
HETATM   13  H   UNL     1     -12.260  15.535  67.995  1.00  0.00     0.000 HD 
BRANCH  12  14
HETATM   14  C   UNL     1     -10.333  16.346  67.671  1.00  0.00    -0.284 A  
HETATM   15 BR   UNL     1      -7.311  19.918  68.045  1.00  0.00    -0.328 Br 
HETATM   16  C   UNL     1     -10.332  17.380  66.724  1.00  0.00    -0.305 A  
HETATM   17  C   UNL     1      -8.390  17.371  68.736  1.00  0.00    -0.223 A  
HETATM   18  C   UNL     1      -9.308  16.330  68.629  1.00  0.00    -0.219 A  
HETATM   19  C   UNL     1      -8.478  18.443  67.853  1.00  0.00    -0.261 A  
HETATM   20  C   UNL     1      -9.430  18.445  66.836  1.00  0.00    -0.291 A  
HETATM   21  F   UNL     1      -9.245  15.312  69.501  1.00  0.00    -0.220 F  
ENDBRANCH  12  14
ENDBRANCH   8  12
BRANCH  10  22
HETATM   22  C   UNL     1     -11.747  12.884  69.463  1.00  0.00    -0.323 C  
HETATM   23  H   UNL     1     -12.026  10.804  69.496  1.00  0.00     0.000 HD 
HETATM   24  N   UNL     1     -12.112  11.678  70.013  1.00  0.00    -0.324 N  
HETATM   25  O   UNL     1     -11.795  13.949  70.080  1.00  0.00    -0.291 OA 
BRANCH  24  26
HETATM   26  O   UNL     1     -12.613  11.716  71.342  1.00  0.00    -0.349 OA 
BRANCH  26  27
HETATM   27  C   UNL     1     -12.992  10.376  71.693  1.00  0.00    -0.475 C  
BRANCH  27  28
HETATM   28  C   UNL     1     -11.971   9.360  71.186  1.00  0.00    -0.337 C  
HETATM   29  O   UNL     1     -11.490   8.524  72.237  1.00  0.00    -0.355 OA 
HETATM   30  H   UNL     1     -10.854   7.893  71.921  1.00  0.00     0.000 HD 
ENDBRANCH  27  28
ENDBRANCH  26  27
ENDBRANCH  24  26
ENDBRANCH  10  22
TORSDOF 6
ENDMDL
MODEL       44
REMARK 921   NORMALIZED FREE ENERGY PREDICTED BY IDOCK:   -5.96 KCAL/MOL
REMARK 922        TOTAL FREE ENERGY PREDICTED BY IDOCK:   -9.34 KCAL/MOL
REMARK 923 INTER-LIGAND FREE ENERGY PREDICTED BY IDOCK:   -7.82 KCAL/MOL
REMARK 924 INTRA-LIGAND FREE ENERGY PREDICTED BY IDOCK:   -1.52 KCAL/MOL
REMARK 927      BINDING AFFINITY PREDICTED BY RF-SCORE:    0.00 PKD
ROOT
HETATM    1  C   UNL     1      -7.014   9.782  63.476  1.00  0.00    -0.116 C  
HETATM    2  N   UNL     1      -8.294  10.406  63.694  1.00  0.00    -0.169 NA 
HETATM    3  C   UNL     1      -8.965  11.174  62.787  1.00  0.00    -0.289 A  
HETATM    4  N   UNL     1     -10.096  11.625  63.280  1.00  0.00    -0.417 NA 
HETATM    5  C   UNL     1     -10.157  11.125  64.561  1.00  0.00    -0.308 A  
HETATM    6  C   UNL     1     -11.129  11.292  65.556  1.00  0.00    -0.067 A  
HETATM    7  F   UNL     1     -12.232  11.998  65.260  1.00  0.00    -0.418 F  
HETATM    8  C   UNL     1     -10.968  10.715  66.847  1.00  0.00    -0.161 A  
HETATM    9  C   UNL     1      -8.894   9.665  66.058  1.00  0.00    -0.178 A  
HETATM   10  C   UNL     1      -9.895   9.819  67.052  1.00  0.00    -0.245 A  
HETATM   11  C   UNL     1      -9.044  10.342  64.839  1.00  0.00    -0.213 A  
ENDROOT
BRANCH   8  12
HETATM   12  N   UNL     1     -11.954  10.974  67.866  1.00  0.00    -0.727 NA 
HETATM   13  H   UNL     1     -12.703  10.295  67.998  1.00  0.00     0.000 HD 
BRANCH  12  14
HETATM   14  C   UNL     1     -11.938  12.135  68.705  1.00  0.00    -0.239 A  
HETATM   15 BR   UNL     1     -12.329  15.897  71.486  1.00  0.00    -0.462 Br 
HETATM   16  C   UNL     1     -11.765  13.427  68.186  1.00  0.00    -0.397 A  
HETATM   17  C   UNL     1     -12.161  13.104  70.935  1.00  0.00    -0.330 A  
HETATM   18  C   UNL     1     -12.068  11.998  70.096  1.00  0.00    -0.298 A  
HETATM   19  C   UNL     1     -12.099  14.380  70.382  1.00  0.00    -0.331 A  
HETATM   20  C   UNL     1     -11.882  14.548  69.016  1.00  0.00    -0.354 A  
HETATM   21  F   UNL     1     -12.162  10.768  70.624  1.00  0.00    -0.343 F  
ENDBRANCH  12  14
ENDBRANCH   8  12
BRANCH  10  22
HETATM   22  C   UNL     1      -9.753   8.894  68.232  1.00  0.00    -0.157 C  
HETATM   23  H   UNL     1      -9.585   7.202  67.000  1.00  0.00     0.000 HD 
HETATM   24  N   UNL     1      -9.584   7.558  67.956  1.00  0.00    -0.142 N  
HETATM   25  O   UNL     1      -9.710   9.359  69.371  1.00  0.00    -0.164 OA 
BRANCH  24  26
HETATM   26  O   UNL     1      -9.407   6.700  69.074  1.00  0.00    -0.135 OA 
BRANCH  26  27
HETATM   27  C   UNL     1     -10.611   5.929  69.216  1.00  0.00    -0.308 C  
BRANCH  27  28
HETATM   28  C   UNL     1     -11.327   6.254  70.525  1.00  0.00    -0.361 C  
HETATM   29  O   UNL     1     -11.973   7.524  70.473  1.00  0.00    -0.488 OA 
HETATM   30  H   UNL     1     -12.418   7.726  71.287  1.00  0.00     0.000 HD 
ENDBRANCH  27  28
ENDBRANCH  26  27
ENDBRANCH  24  26
ENDBRANCH  10  22
TORSDOF 6
ENDMDL
MODEL       45
REMARK 921   NORMALIZED FREE ENERGY PREDICTED BY IDOCK:   -5.95 KCAL/MOL
REMARK 922        TOTAL FREE ENERGY PREDICTED BY IDOCK:   -9.32 KCAL/MOL
REMARK 923 INTER-LIGAND FREE ENERGY PREDICTED BY IDOCK:   -8.49 KCAL/MOL
REMARK 924 INTRA-LIGAND FREE ENERGY PREDICTED BY IDOCK:   -0.83 KCAL/MOL
REMARK 927      BINDING AFFINITY PREDICTED BY RF-SCORE:    0.00 PKD
ROOT
HETATM    1  C   UNL     1      -9.009   7.796  67.477  1.00  0.00    -0.123 C  
HETATM    2  N   UNL     1      -9.551   8.882  66.701  1.00  0.00    -0.198 NA 
HETATM    3  C   UNL     1      -9.412   9.038  65.352  1.00  0.00    -0.092 A  
HETATM    4  N   UNL     1      -9.996  10.137  64.932  1.00  0.00    -0.329 NA 
HETATM    5  C   UNL     1     -10.535  10.715  66.058  1.00  0.00    -0.183 A  
HETATM    6  C   UNL     1     -11.256  11.906  66.212  1.00  0.00    -0.337 A  
HETATM    7  F   UNL     1     -11.550  12.622  65.115  1.00  0.00    -0.334 F  
HETATM    8  C   UNL     1     -11.686  12.346  67.497  1.00  0.00    -0.357 A  
HETATM    9  C   UNL     1     -10.780  10.273  68.449  1.00  0.00    -0.263 A  
HETATM   10  C   UNL     1     -11.530  11.469  68.592  1.00  0.00    -0.354 A  
HETATM   11  C   UNL     1     -10.284   9.936  67.182  1.00  0.00    -0.228 A  
ENDROOT
BRANCH   8  12
HETATM   12  N   UNL     1     -12.358  13.615  67.622  1.00  0.00    -0.350 NA 
HETATM   13  H   UNL     1     -13.376  13.631  67.559  1.00  0.00     0.000 HD 
BRANCH  12  14
HETATM   14  C   UNL     1     -11.672  14.856  67.829  1.00  0.00    -0.317 A  
HETATM   15 BR   UNL     1      -9.048  18.698  68.448  1.00  0.00    -0.365 Br 
HETATM   16  C   UNL     1     -11.527  15.422  69.105  1.00  0.00    -0.344 A  
HETATM   17  C   UNL     1     -10.389  16.714  66.901  1.00  0.00    -0.299 A  
HETATM   18  C   UNL     1     -11.149  15.560  66.734  1.00  0.00    -0.206 A  
HETATM   19  C   UNL     1     -10.164  17.195  68.187  1.00  0.00    -0.332 A  
HETATM   20  C   UNL     1     -10.744  16.567  69.288  1.00  0.00    -0.331 A  
HETATM   21  F   UNL     1     -11.339  15.077  65.497  1.00  0.00    -0.338 F  
ENDBRANCH  12  14
ENDBRANCH   8  12
BRANCH  10  22
HETATM   22  C   UNL     1     -12.195  11.633  69.934  1.00  0.00    -0.239 C  
HETATM   23  H   UNL     1     -12.240   9.561  70.267  1.00  0.00     0.000 HD 
HETATM   24  N   UNL     1     -12.456  10.484  70.642  1.00  0.00    -0.341 N  
HETATM   25  O   UNL     1     -12.402  12.762  70.379  1.00  0.00    -0.318 OA 
BRANCH  24  26
HETATM   26  O   UNL     1     -13.043  10.653  71.925  1.00  0.00    -0.469 OA 
BRANCH  26  27
HETATM   27  C   UNL     1     -13.591   9.383  72.314  1.00  0.00    -0.462 C  
BRANCH  27  28
HETATM   28  C   UNL     1     -12.628   8.242  71.993  1.00  0.00    -0.349 C  
HETATM   29  O   UNL     1     -11.762   7.956  73.088  1.00  0.00    -0.630 OA 
HETATM   30  H   UNL     1     -11.163   7.247  72.888  1.00  0.00     0.000 HD 
ENDBRANCH  27  28
ENDBRANCH  26  27
ENDBRANCH  24  26
ENDBRANCH  10  22
TORSDOF 6
ENDMDL
MODEL       46
REMARK 921   NORMALIZED FREE ENERGY PREDICTED BY IDOCK:   -5.93 KCAL/MOL
REMARK 922        TOTAL FREE ENERGY PREDICTED BY IDOCK:   -9.29 KCAL/MOL
REMARK 923 INTER-LIGAND FREE ENERGY PREDICTED BY IDOCK:   -8.10 KCAL/MOL
REMARK 924 INTRA-LIGAND FREE ENERGY PREDICTED BY IDOCK:   -1.19 KCAL/MOL
REMARK 927      BINDING AFFINITY PREDICTED BY RF-SCORE:    0.00 PKD
ROOT
HETATM    1  C   UNL     1     -10.274   7.662  68.850  1.00  0.00    -0.210 C  
HETATM    2  N   UNL     1     -10.667   8.942  69.382  1.00  0.00    -0.214 NA 
HETATM    3  C   UNL     1     -10.800   9.242  70.707  1.00  0.00    -0.284 A  
HETATM    4  N   UNL     1     -11.193  10.483  70.883  1.00  0.00    -0.145 NA 
HETATM    5  C   UNL     1     -11.318  11.007  69.616  1.00  0.00    -0.292 A  
HETATM    6  C   UNL     1     -11.717  12.282  69.196  1.00  0.00    -0.323 A  
HETATM    7  F   UNL     1     -11.985  13.208  70.129  1.00  0.00    -0.364 F  
HETATM    8  C   UNL     1     -11.822  12.602  67.812  1.00  0.00    -0.323 A  
HETATM    9  C   UNL     1     -10.959  10.365  67.287  1.00  0.00    -0.306 A  
HETATM   10  C   UNL     1     -11.341  11.666  66.870  1.00  0.00    -0.364 A  
HETATM   11  C   UNL     1     -10.975  10.063  68.656  1.00  0.00    -0.204 A  
ENDROOT
BRANCH   8  12
HETATM   12  N   UNL     1     -12.311  13.900  67.421  1.00  0.00    -0.482 NA 
HETATM   13  H   UNL     1     -13.295  13.989  67.168  1.00  0.00     0.000 HD 
BRANCH  12  14
HETATM   14  C   UNL     1     -11.489  15.072  67.367  1.00  0.00    -0.317 A  
HETATM   15 BR   UNL     1      -9.159  19.136  67.062  1.00  0.00    -0.350 Br 
HETATM   16  C   UNL     1     -10.573  15.292  66.328  1.00  0.00    -0.312 A  
HETATM   17  C   UNL     1     -10.861  17.228  68.325  1.00  0.00    -0.287 A  
HETATM   18  C   UNL     1     -11.564  16.029  68.391  1.00  0.00    -0.279 A  
HETATM   19  C   UNL     1     -10.042  17.472  67.227  1.00  0.00    -0.327 A  
HETATM   20  C   UNL     1      -9.878  16.504  66.238  1.00  0.00    -0.336 A  
HETATM   21  F   UNL     1     -12.380  15.807  69.433  1.00  0.00    -0.359 F  
ENDBRANCH  12  14
ENDBRANCH   8  12
BRANCH  10  22
HETATM   22  C   UNL     1     -11.088  11.956  65.414  1.00  0.00    -0.306 C  
HETATM   23  H   UNL     1      -9.364  10.760  65.381  1.00  0.00     0.000 HD 
HETATM   24  N   UNL     1      -9.994  11.352  64.841  1.00  0.00    -0.252 N  
HETATM   25  O   UNL     1     -11.893  12.637  64.777  1.00  0.00    -0.342 OA 
BRANCH  24  26
HETATM   26  O   UNL     1      -9.790  11.597  63.457  1.00  0.00    -0.329 OA 
BRANCH  26  27
HETATM   27  C   UNL     1      -9.169  10.425  62.903  1.00  0.00    -0.302 C  
BRANCH  27  28
HETATM   28  C   UNL     1      -7.772  10.212  63.482  1.00  0.00    -0.144 C  
HETATM   29  O   UNL     1      -6.774  10.879  62.712  1.00  0.00    -0.351 OA 
HETATM   30  H   UNL     1      -5.905  10.746  63.072  1.00  0.00     0.000 HD 
ENDBRANCH  27  28
ENDBRANCH  26  27
ENDBRANCH  24  26
ENDBRANCH  10  22
TORSDOF 6
ENDMDL
MODEL       47
REMARK 921   NORMALIZED FREE ENERGY PREDICTED BY IDOCK:   -5.91 KCAL/MOL
REMARK 922        TOTAL FREE ENERGY PREDICTED BY IDOCK:   -9.26 KCAL/MOL
REMARK 923 INTER-LIGAND FREE ENERGY PREDICTED BY IDOCK:   -8.12 KCAL/MOL
REMARK 924 INTRA-LIGAND FREE ENERGY PREDICTED BY IDOCK:   -1.14 KCAL/MOL
REMARK 927      BINDING AFFINITY PREDICTED BY RF-SCORE:    0.00 PKD
ROOT
HETATM    1  C   UNL     1     -10.280  19.687  68.032  1.00  0.00    -0.457 C  
HETATM    2  N   UNL     1      -9.243  18.686  68.023  1.00  0.00    -0.297 NA 
HETATM    3  C   UNL     1      -7.947  18.886  68.401  1.00  0.00    -0.338 A  
HETATM    4  N   UNL     1      -7.231  17.792  68.261  1.00  0.00    -0.228 NA 
HETATM    5  C   UNL     1      -8.104  16.847  67.773  1.00  0.00    -0.181 A  
HETATM    6  C   UNL     1      -7.891  15.508  67.423  1.00  0.00    -0.186 A  
HETATM    7  F   UNL     1      -6.672  14.982  67.623  1.00  0.00    -0.136 F  
HETATM    8  C   UNL     1      -8.941  14.710  66.886  1.00  0.00    -0.253 A  
HETATM    9  C   UNL     1     -10.469  16.604  67.208  1.00  0.00    -0.313 A  
HETATM   10  C   UNL     1     -10.249  15.242  66.880  1.00  0.00    -0.268 A  
HETATM   11  C   UNL     1      -9.380  17.380  67.631  1.00  0.00    -0.245 A  
ENDROOT
BRANCH   8  12
HETATM   12  N   UNL     1      -8.661  13.360  66.467  1.00  0.00    -0.445 NA 
HETATM   13  H   UNL     1      -8.532  13.181  65.471  1.00  0.00     0.000 HD 
BRANCH  12  14
HETATM   14  C   UNL     1      -8.554  12.256  67.374  1.00  0.00    -0.178 A  
HETATM   15 BR   UNL     1      -8.490   8.855  70.608  1.00  0.00    -0.237 Br 
HETATM   16  C   UNL     1      -7.427  12.067  68.187  1.00  0.00    -0.112 A  
HETATM   17  C   UNL     1      -9.567  10.277  68.384  1.00  0.00    -0.155 A  
HETATM   18  C   UNL     1      -9.583  11.305  67.445  1.00  0.00    -0.169 A  
HETATM   19  C   UNL     1      -8.487  10.177  69.256  1.00  0.00    -0.163 A  
HETATM   20  C   UNL     1      -7.409  11.053  69.151  1.00  0.00    -0.121 A  
HETATM   21  F   UNL     1     -10.640  11.424  66.626  1.00  0.00    -0.253 F  
ENDBRANCH  12  14
ENDBRANCH   8  12
BRANCH  10  22
HETATM   22  C   UNL     1     -11.506  14.445  66.644  1.00  0.00    -0.363 C  
HETATM   23  H   UNL     1     -11.258  14.498  64.561  1.00  0.00     0.000 HD 
HETATM   24  N   UNL     1     -11.826  14.161  65.338  1.00  0.00    -0.349 N  
HETATM   25  O   UNL     1     -12.145  14.013  67.605  1.00  0.00    -0.382 OA 
BRANCH  24  26
HETATM   26  O   UNL     1     -12.988  13.372  65.130  1.00  0.00    -0.710 OA 
BRANCH  26  27
HETATM   27  C   UNL     1     -12.622  12.296  64.250  1.00  0.00    -0.372 C  
BRANCH  27  28
HETATM   28  C   UNL     1     -11.235  12.518  63.650  1.00  0.00    -0.483 C  
HETATM   29  O   UNL     1     -10.718  11.329  63.060  1.00  0.00    -0.733 OA 
HETATM   30  H   UNL     1      -9.855  11.467  62.687  1.00  0.00     0.000 HD 
ENDBRANCH  27  28
ENDBRANCH  26  27
ENDBRANCH  24  26
ENDBRANCH  10  22
TORSDOF 6
ENDMDL
MODEL       48
REMARK 921   NORMALIZED FREE ENERGY PREDICTED BY IDOCK:   -5.85 KCAL/MOL
REMARK 922        TOTAL FREE ENERGY PREDICTED BY IDOCK:   -9.18 KCAL/MOL
REMARK 923 INTER-LIGAND FREE ENERGY PREDICTED BY IDOCK:   -8.19 KCAL/MOL
REMARK 924 INTRA-LIGAND FREE ENERGY PREDICTED BY IDOCK:   -1.00 KCAL/MOL
REMARK 927      BINDING AFFINITY PREDICTED BY RF-SCORE:    0.00 PKD
ROOT
HETATM    1  C   UNL     1     -12.757  13.612  65.267  1.00  0.00    -0.430 C  
HETATM    2  N   UNL     1     -11.832  12.565  64.914  1.00  0.00    -0.366 NA 
HETATM    3  C   UNL     1     -11.344  12.328  63.662  1.00  0.00    -0.470 A  
HETATM    4  N   UNL     1     -10.538  11.290  63.647  1.00  0.00    -0.384 NA 
HETATM    5  C   UNL     1     -10.504  10.839  64.947  1.00  0.00    -0.254 A  
HETATM    6  C   UNL     1      -9.822   9.756  65.515  1.00  0.00    -0.308 A  
HETATM    7  F   UNL     1      -9.009   9.030  64.732  1.00  0.00    -0.228 F  
HETATM    8  C   UNL     1      -9.968   9.436  66.895  1.00  0.00    -0.229 A  
HETATM    9  C   UNL     1     -11.385  11.424  67.150  1.00  0.00    -0.327 A  
HETATM   10  C   UNL     1     -10.672  10.339  67.722  1.00  0.00    -0.324 A  
HETATM   11  C   UNL     1     -11.296  11.634  65.766  1.00  0.00    -0.182 A  
ENDROOT
BRANCH   8  12
HETATM   12  N   UNL     1      -9.311   8.267  67.424  1.00  0.00    -0.139 NA 
HETATM   13  H   UNL     1      -8.766   8.366  68.281  1.00  0.00     0.000 HD 
BRANCH  12  14
HETATM   14  C   UNL     1      -9.380   6.974  66.811  1.00  0.00    -0.156 A  
HETATM   15 BR   UNL     1      -9.619   2.948  64.409  1.00  0.00    -0.135 Br 
HETATM   16  C   UNL     1     -10.558   6.212  66.813  1.00  0.00    -0.351 A  
HETATM   17  C   UNL     1      -8.290   5.216  65.514  1.00  0.00    -0.126 A  
HETATM   18  C   UNL     1      -8.240   6.420  66.210  1.00  0.00    -0.118 A  
HETATM   19  C   UNL     1      -9.499   4.531  65.435  1.00  0.00    -0.172 A  
HETATM   20  C   UNL     1     -10.628   5.011  66.097  1.00  0.00    -0.321 A  
HETATM   21  F   UNL     1      -7.083   7.098  66.257  1.00  0.00    -0.065 F  
ENDBRANCH  12  14
ENDBRANCH   8  12
BRANCH  10  22
HETATM   22  C   UNL     1     -10.659  10.324  69.228  1.00  0.00    -0.230 C  
HETATM   23  H   UNL     1     -12.746  10.522  69.338  1.00  0.00     0.000 HD 
HETATM   24  N   UNL     1     -11.876  10.417  69.860  1.00  0.00    -0.255 N  
HETATM   25  O   UNL     1      -9.598  10.149  69.828  1.00  0.00    -0.222 OA 
BRANCH  24  26
HETATM   26  O   UNL     1     -11.856  10.357  71.279  1.00  0.00    -0.350 OA 
BRANCH  26  27
HETATM   27  C   UNL     1     -12.215   9.017  71.655  1.00  0.00    -0.348 C  
BRANCH  27  28
HETATM   28  C   UNL     1     -13.700   8.917  71.997  1.00  0.00    -0.459 C  
HETATM   29  O   UNL     1     -13.922   8.954  73.405  1.00  0.00    -1.236 OA 
HETATM   30  H   UNL     1     -14.845   8.891  73.618  1.00  0.00     0.000 HD 
ENDBRANCH  27  28
ENDBRANCH  26  27
ENDBRANCH  24  26
ENDBRANCH  10  22
TORSDOF 6
ENDMDL
MODEL       49
REMARK 921   NORMALIZED FREE ENERGY PREDICTED BY IDOCK:   -5.85 KCAL/MOL
REMARK 922        TOTAL FREE ENERGY PREDICTED BY IDOCK:   -9.18 KCAL/MOL
REMARK 923 INTER-LIGAND FREE ENERGY PREDICTED BY IDOCK:   -7.94 KCAL/MOL
REMARK 924 INTRA-LIGAND FREE ENERGY PREDICTED BY IDOCK:   -1.24 KCAL/MOL
REMARK 927      BINDING AFFINITY PREDICTED BY RF-SCORE:    0.00 PKD
ROOT
HETATM    1  C   UNL     1     -11.560  13.153  63.231  1.00  0.00    -0.100 C  
HETATM    2  N   UNL     1     -11.028  12.207  64.178  1.00  0.00    -0.330 NA 
HETATM    3  C   UNL     1     -10.448  11.012  63.864  1.00  0.00    -0.354 A  
HETATM    4  N   UNL     1     -10.081  10.357  64.942  1.00  0.00    -0.334 NA 
HETATM    5  C   UNL     1     -10.438  11.164  65.997  1.00  0.00    -0.256 A  
HETATM    6  C   UNL     1     -10.301  10.970  67.377  1.00  0.00    -0.207 A  
HETATM    7  F   UNL     1      -9.681   9.860  67.808  1.00  0.00    -0.155 F  
HETATM    8  C   UNL     1     -10.789  11.930  68.308  1.00  0.00    -0.224 A  
HETATM    9  C   UNL     1     -11.417  13.363  66.417  1.00  0.00    -0.359 A  
HETATM   10  C   UNL     1     -11.252  13.169  67.812  1.00  0.00    -0.308 A  
HETATM   11  C   UNL     1     -11.020  12.342  65.542  1.00  0.00    -0.298 A  
ENDROOT
BRANCH   8  12
HETATM   12  N   UNL     1     -10.699  11.657  69.720  1.00  0.00    -0.414 NA 
HETATM   13  H   UNL     1     -10.029  12.191  70.274  1.00  0.00     0.000 HD 
BRANCH  12  14
HETATM   14  C   UNL     1     -11.499  10.674  70.389  1.00  0.00    -0.334 A  
HETATM   15 BR   UNL     1     -14.105   7.217  72.203  1.00  0.00    -0.124 Br 
HETATM   16  C   UNL     1     -12.870  10.859  70.615  1.00  0.00    -0.340 A  
HETATM   17  C   UNL     1     -11.664   8.471  71.429  1.00  0.00    -0.346 A  
HETATM   18  C   UNL     1     -10.907   9.495  70.868  1.00  0.00    -0.337 A  
HETATM   19  C   UNL     1     -13.042   8.633  71.542  1.00  0.00    -0.305 A  
HETATM   20  C   UNL     1     -13.647   9.828  71.156  1.00  0.00    -0.233 A  
HETATM   21  F   UNL     1      -9.583   9.326  70.728  1.00  0.00    -0.243 F  
ENDBRANCH  12  14
ENDBRANCH   8  12
BRANCH  10  22
HETATM   22  C   UNL     1     -11.507  14.395  68.649  1.00  0.00    -0.287 C  
HETATM   23  H   UNL     1     -10.091  15.525  67.588  1.00  0.00     0.000 HD 
HETATM   24  N   UNL     1     -10.788  15.523  68.333  1.00  0.00    -0.262 N  
HETATM   25  O   UNL     1     -12.387  14.375  69.510  1.00  0.00    -0.305 OA 
BRANCH  24  26
HETATM   26  O   UNL     1     -11.068  16.686  69.099  1.00  0.00    -0.296 OA 
BRANCH  26  27
HETATM   27  C   UNL     1      -9.921  17.546  69.005  1.00  0.00    -0.260 C  
BRANCH  27  28
HETATM   28  C   UNL     1     -10.248  18.823  68.233  1.00  0.00    -0.375 C  
HETATM   29  O   UNL     1     -10.624  19.885  69.105  1.00  0.00    -0.549 OA 
HETATM   30  H   UNL     1     -10.828  20.679  68.626  1.00  0.00     0.000 HD 
ENDBRANCH  27  28
ENDBRANCH  26  27
ENDBRANCH  24  26
ENDBRANCH  10  22
TORSDOF 6
ENDMDL
MODEL       50
REMARK 921   NORMALIZED FREE ENERGY PREDICTED BY IDOCK:   -5.83 KCAL/MOL
REMARK 922        TOTAL FREE ENERGY PREDICTED BY IDOCK:   -9.16 KCAL/MOL
REMARK 923 INTER-LIGAND FREE ENERGY PREDICTED BY IDOCK:   -7.95 KCAL/MOL
REMARK 924 INTRA-LIGAND FREE ENERGY PREDICTED BY IDOCK:   -1.21 KCAL/MOL
REMARK 927      BINDING AFFINITY PREDICTED BY RF-SCORE:    0.00 PKD
ROOT
HETATM    1  C   UNL     1      -7.211   9.275  64.024  1.00  0.00    -0.098 C  
HETATM    2  N   UNL     1      -7.759   9.167  65.353  1.00  0.00    -0.097 NA 
HETATM    3  C   UNL     1      -7.282   8.358  66.343  1.00  0.00    -0.072 A  
HETATM    4  N   UNL     1      -8.003   8.460  67.437  1.00  0.00    -0.105 NA 
HETATM    5  C   UNL     1      -8.987   9.375  67.139  1.00  0.00    -0.130 A  
HETATM    6  C   UNL     1     -10.043   9.860  67.920  1.00  0.00    -0.173 A  
HETATM    7  F   UNL     1     -10.138   9.448  69.194  1.00  0.00    -0.172 F  
HETATM    8  C   UNL     1     -10.988  10.784  67.390  1.00  0.00    -0.300 A  
HETATM    9  C   UNL     1      -9.686  10.836  65.310  1.00  0.00    -0.308 A  
HETATM   10  C   UNL     1     -10.738  11.341  66.117  1.00  0.00    -0.307 A  
HETATM   11  C   UNL     1      -8.845   9.847  65.840  1.00  0.00    -0.148 A  
ENDROOT
BRANCH   8  12
HETATM   12  N   UNL     1     -12.104  11.199  68.202  1.00  0.00    -0.737 NA 
HETATM   13  H   UNL     1     -12.982  10.686  68.115  1.00  0.00     0.000 HD 
BRANCH  12  14
HETATM   14  C   UNL     1     -12.048  12.294  69.124  1.00  0.00    -0.161 A  
HETATM   15 BR   UNL     1     -12.304  15.912  72.103  1.00  0.00    -0.579 Br 
HETATM   16  C   UNL     1     -11.581  13.562  68.747  1.00  0.00    -0.362 A  
HETATM   17  C   UNL     1     -12.496  13.166  71.360  1.00  0.00    -0.270 A  
HETATM   18  C   UNL     1     -12.437  12.107  70.459  1.00  0.00    -0.198 A  
HETATM   19  C   UNL     1     -12.134  14.439  70.931  1.00  0.00    -0.344 A  
HETATM   20  C   UNL     1     -11.658  14.640  69.636  1.00  0.00    -0.349 A  
HETATM   21  F   UNL     1     -12.819  10.885  70.863  1.00  0.00    -0.385 F  
ENDBRANCH  12  14
ENDBRANCH   8  12
BRANCH  10  22
HETATM   22  C   UNL     1     -11.446  12.540  65.542  1.00  0.00    -0.350 C  
HETATM   23  H   UNL     1      -9.671  13.657  65.447  1.00  0.00     0.000 HD 
HETATM   24  N   UNL     1     -10.673  13.639  65.254  1.00  0.00    -0.320 N  
HETATM   25  O   UNL     1     -12.647  12.472  65.278  1.00  0.00    -0.645 OA 
BRANCH  24  26
HETATM   26  O   UNL     1     -11.343  14.748  64.672  1.00  0.00    -0.389 OA 
BRANCH  26  27
HETATM   27  C   UNL     1     -10.676  15.936  65.127  1.00  0.00    -0.429 C  
BRANCH  27  28
HETATM   28  C   UNL     1      -9.335  15.605  65.779  1.00  0.00    -0.268 C  
HETATM   29  O   UNL     1      -8.731  16.757  66.361  1.00  0.00    -0.256 OA 
HETATM   30  H   UNL     1      -7.897  16.551  66.766  1.00  0.00     0.000 HD 
ENDBRANCH  27  28
ENDBRANCH  26  27
ENDBRANCH  24  26
ENDBRANCH  10  22
TORSDOF 6
ENDMDL
MODEL       51
REMARK 921   NORMALIZED FREE ENERGY PREDICTED BY IDOCK:   -5.82 KCAL/MOL
REMARK 922        TOTAL FREE ENERGY PREDICTED BY IDOCK:   -9.15 KCAL/MOL
REMARK 923 INTER-LIGAND FREE ENERGY PREDICTED BY IDOCK:   -7.79 KCAL/MOL
REMARK 924 INTRA-LIGAND FREE ENERGY PREDICTED BY IDOCK:   -1.35 KCAL/MOL
REMARK 927      BINDING AFFINITY PREDICTED BY RF-SCORE:    0.00 PKD
ROOT
HETATM    1  C   UNL     1      -8.969  20.187  67.511  1.00  0.00    -0.343 C  
HETATM    2  N   UNL     1      -9.608  19.158  66.731  1.00  0.00    -0.316 NA 
HETATM    3  C   UNL     1     -10.632  19.353  65.849  1.00  0.00    -0.459 A  
HETATM    4  N   UNL     1     -11.022  18.221  65.307  1.00  0.00    -0.429 NA 
HETATM    5  C   UNL     1     -10.215  17.255  65.862  1.00  0.00    -0.261 A  
HETATM    6  C   UNL     1     -10.190  15.869  65.665  1.00  0.00    -0.379 A  
HETATM    7  F   UNL     1     -11.027  15.336  64.761  1.00  0.00    -0.371 F  
HETATM    8  C   UNL     1      -9.288  15.038  66.390  1.00  0.00    -0.303 A  
HETATM    9  C   UNL     1      -8.328  17.057  67.402  1.00  0.00    -0.206 A  
HETATM   10  C   UNL     1      -8.294  15.657  67.179  1.00  0.00    -0.237 A  
HETATM   11  C   UNL     1      -9.306  17.821  66.749  1.00  0.00    -0.280 A  
ENDROOT
BRANCH   8  12
HETATM   12  N   UNL     1      -9.347  13.609  66.215  1.00  0.00    -0.463 NA 
HETATM   13  H   UNL     1      -8.959  13.210  65.361  1.00  0.00     0.000 HD 
BRANCH  12  14
HETATM   14  C   UNL     1      -9.922  12.717  67.178  1.00  0.00    -0.217 A  
HETATM   15 BR   UNL     1     -11.821  10.140  70.611  1.00  0.00    -0.461 Br 
HETATM   16  C   UNL     1      -9.151  11.769  67.868  1.00  0.00    -0.181 A  
HETATM   17  C   UNL     1     -11.882  11.979  68.433  1.00  0.00    -0.360 A  
HETATM   18  C   UNL     1     -11.301  12.754  67.434  1.00  0.00    -0.313 A  
HETATM   19  C   UNL     1     -11.076  11.125  69.180  1.00  0.00    -0.248 A  
HETATM   20  C   UNL     1      -9.718  11.001  68.891  1.00  0.00    -0.184 A  
HETATM   21  F   UNL     1     -12.071  13.602  66.735  1.00  0.00    -0.382 F  
ENDBRANCH  12  14
ENDBRANCH   8  12
BRANCH  10  22
HETATM   22  C   UNL     1      -7.087  14.962  67.753  1.00  0.00    -0.174 C  
HETATM   23  H   UNL     1      -7.108  16.155  69.480  1.00  0.00     0.000 HD 
HETATM   24  N   UNL     1      -6.655  15.386  68.987  1.00  0.00    -0.117 N  
HETATM   25  O   UNL     1      -6.591  14.006  67.155  1.00  0.00    -0.179 OA 
BRANCH  24  26
HETATM   26  O   UNL     1      -5.544  14.694  69.538  1.00  0.00    -0.091 OA 
BRANCH  26  27
HETATM   27  C   UNL     1      -5.969  14.132  70.790  1.00  0.00    -0.198 C  
BRANCH  27  28
HETATM   28  C   UNL     1      -5.616  12.649  70.881  1.00  0.00    -0.139 C  
HETATM   29  O   UNL     1      -6.650  11.825  70.348  1.00  0.00    -0.503 OA 
HETATM   30  H   UNL     1      -6.430  10.903  70.405  1.00  0.00     0.000 HD 
ENDBRANCH  27  28
ENDBRANCH  26  27
ENDBRANCH  24  26
ENDBRANCH  10  22
TORSDOF 6
ENDMDL
MODEL       52
REMARK 921   NORMALIZED FREE ENERGY PREDICTED BY IDOCK:   -5.81 KCAL/MOL
REMARK 922        TOTAL FREE ENERGY PREDICTED BY IDOCK:   -9.12 KCAL/MOL
REMARK 923 INTER-LIGAND FREE ENERGY PREDICTED BY IDOCK:   -8.07 KCAL/MOL
REMARK 924 INTRA-LIGAND FREE ENERGY PREDICTED BY IDOCK:   -1.06 KCAL/MOL
REMARK 927      BINDING AFFINITY PREDICTED BY RF-SCORE:    0.00 PKD
ROOT
HETATM    1  C   UNL     1      -7.615   7.014  71.497  1.00  0.00    -0.089 C  
HETATM    2  N   UNL     1      -8.860   7.708  71.707  1.00  0.00    -0.114 NA 
HETATM    3  C   UNL     1      -9.657   7.589  72.810  1.00  0.00    -0.178 A  
HETATM    4  N   UNL     1     -10.738   8.328  72.705  1.00  0.00    -0.346 NA 
HETATM    5  C   UNL     1     -10.634   8.951  71.482  1.00  0.00    -0.329 A  
HETATM    6  C   UNL     1     -11.504   9.840  70.839  1.00  0.00    -0.369 A  
HETATM    7  F   UNL     1     -12.611  10.233  71.488  1.00  0.00    -0.403 F  
HETATM    8  C   UNL     1     -11.219  10.336  69.534  1.00  0.00    -0.261 A  
HETATM    9  C   UNL     1      -9.079   9.136  69.607  1.00  0.00    -0.163 A  
HETATM   10  C   UNL     1      -9.954  10.055  68.973  1.00  0.00    -0.203 A  
HETATM   11  C   UNL     1      -9.454   8.590  70.843  1.00  0.00    -0.180 A  
ENDROOT
BRANCH   8  12
HETATM   12  N   UNL     1     -12.177  11.188  68.876  1.00  0.00    -0.638 NA 
HETATM   13  H   UNL     1     -13.044  10.770  68.539  1.00  0.00     0.000 HD 
BRANCH  12  14
HETATM   14  C   UNL     1     -11.977  12.591  68.669  1.00  0.00    -0.224 A  
HETATM   15 BR   UNL     1     -10.898  17.093  67.892  1.00  0.00    -0.209 Br 
HETATM   16  C   UNL     1     -11.873  13.494  69.738  1.00  0.00    -0.395 A  
HETATM   17  C   UNL     1     -11.614  14.443  67.120  1.00  0.00    -0.406 A  
HETATM   18  C   UNL     1     -11.909  13.106  67.365  1.00  0.00    -0.361 A  
HETATM   19  C   UNL     1     -11.404  15.298  68.198  1.00  0.00    -0.338 A  
HETATM   20  C   UNL     1     -11.552  14.836  69.505  1.00  0.00    -0.339 A  
HETATM   21  F   UNL     1     -12.078  12.273  66.326  1.00  0.00    -0.442 F  
ENDBRANCH  12  14
ENDBRANCH   8  12
BRANCH  10  22
HETATM   22  C   UNL     1      -9.372  10.742  67.765  1.00  0.00    -0.152 C  
HETATM   23  H   UNL     1     -10.257   9.370  66.446  1.00  0.00     0.000 HD 
HETATM   24  N   UNL     1      -9.684  10.209  66.537  1.00  0.00    -0.190 N  
HETATM   25  O   UNL     1      -8.722  11.778  67.905  1.00  0.00    -0.150 OA 
BRANCH  24  26
HETATM   26  O   UNL     1      -9.166  10.889  65.403  1.00  0.00    -0.195 OA 
BRANCH  26  27
HETATM   27  C   UNL     1     -10.041  10.605  64.299  1.00  0.00    -0.343 C  
BRANCH  27  28
HETATM   28  C   UNL     1      -9.952  11.690  63.228  1.00  0.00    -0.419 C  
HETATM   29  O   UNL     1      -8.657  11.743  62.635  1.00  0.00    -0.630 OA 
HETATM   30  H   UNL     1      -8.601  12.418  61.969  1.00  0.00     0.000 HD 
ENDBRANCH  27  28
ENDBRANCH  26  27
ENDBRANCH  24  26
ENDBRANCH  10  22
TORSDOF 6
ENDMDL
MODEL       53
REMARK 921   NORMALIZED FREE ENERGY PREDICTED BY IDOCK:   -5.80 KCAL/MOL
REMARK 922        TOTAL FREE ENERGY PREDICTED BY IDOCK:   -9.12 KCAL/MOL
REMARK 923 INTER-LIGAND FREE ENERGY PREDICTED BY IDOCK:   -8.15 KCAL/MOL
REMARK 924 INTRA-LIGAND FREE ENERGY PREDICTED BY IDOCK:   -0.97 KCAL/MOL
REMARK 927      BINDING AFFINITY PREDICTED BY RF-SCORE:    0.00 PKD
ROOT
HETATM    1  C   UNL     1      -7.596   7.670  67.892  1.00  0.00    -0.117 C  
HETATM    2  N   UNL     1      -8.228   8.405  66.826  1.00  0.00    -0.101 NA 
HETATM    3  C   UNL     1      -7.927   8.292  65.499  1.00  0.00    -0.120 A  
HETATM    4  N   UNL     1      -8.655   9.107  64.770  1.00  0.00    -0.179 NA 
HETATM    5  C   UNL     1      -9.461   9.773  65.664  1.00  0.00    -0.246 A  
HETATM    6  C   UNL     1     -10.425  10.767  65.454  1.00  0.00    -0.202 A  
HETATM    7  F   UNL     1     -10.695  11.139  64.192  1.00  0.00    -0.385 F  
HETATM    8  C   UNL     1     -11.120  11.362  66.545  1.00  0.00    -0.251 A  
HETATM    9  C   UNL     1      -9.960   9.815  68.056  1.00  0.00    -0.185 A  
HETATM   10  C   UNL     1     -10.951  10.804  67.831  1.00  0.00    -0.344 A  
HETATM   11  C   UNL     1      -9.224   9.337  66.962  1.00  0.00    -0.138 A  
ENDROOT
BRANCH   8  12
HETATM   12  N   UNL     1     -12.048  12.436  66.292  1.00  0.00    -0.630 NA 
HETATM   13  H   UNL     1     -13.022  12.198  66.106  1.00  0.00     0.000 HD 
BRANCH  12  14
HETATM   14  C   UNL     1     -11.675  13.819  66.287  1.00  0.00    -0.376 A  
HETATM   15 BR   UNL     1     -10.070  18.226  66.087  1.00  0.00    -0.315 Br 
HETATM   16  C   UNL     1     -11.284  14.489  67.456  1.00  0.00    -0.333 A  
HETATM   17  C   UNL     1     -11.275  15.870  65.024  1.00  0.00    -0.296 A  
HETATM   18  C   UNL     1     -11.726  14.555  65.093  1.00  0.00    -0.376 A  
HETATM   19  C   UNL     1     -10.785  16.478  66.176  1.00  0.00    -0.155 A  
HETATM   20  C   UNL     1     -10.805  15.803  67.395  1.00  0.00    -0.306 A  
HETATM   21  F   UNL     1     -12.166  13.956  63.976  1.00  0.00    -0.458 F  
ENDBRANCH  12  14
ENDBRANCH   8  12
BRANCH  10  22
HETATM   22  C   UNL     1     -11.825  11.096  69.023  1.00  0.00    -0.348 C  
HETATM   23  H   UNL     1     -10.798  12.874  69.456  1.00  0.00     0.000 HD 
HETATM   24  N   UNL     1     -11.565  12.254  69.715  1.00  0.00    -0.275 N  
HETATM   25  O   UNL     1     -12.772  10.353  69.282  1.00  0.00    -0.022 OA 
BRANCH  24  26
HETATM   26  O   UNL     1     -12.423  12.542  70.810  1.00  0.00    -0.350 OA 
BRANCH  26  27
HETATM   27  C   UNL     1     -12.370  13.960  71.033  1.00  0.00    -0.376 C  
BRANCH  27  28
HETATM   28  C   UNL     1     -13.664  14.471  71.662  1.00  0.00    -0.407 C  
HETATM   29  O   UNL     1     -14.220  15.556  70.923  1.00  0.00    -0.853 OA 
HETATM   30  H   UNL     1     -15.024  15.874  71.314  1.00  0.00     0.000 HD 
ENDBRANCH  27  28
ENDBRANCH  26  27
ENDBRANCH  24  26
ENDBRANCH  10  22
TORSDOF 6
ENDMDL
MODEL       54
REMARK 921   NORMALIZED FREE ENERGY PREDICTED BY IDOCK:   -5.79 KCAL/MOL
REMARK 922        TOTAL FREE ENERGY PREDICTED BY IDOCK:   -9.10 KCAL/MOL
REMARK 923 INTER-LIGAND FREE ENERGY PREDICTED BY IDOCK:   -8.00 KCAL/MOL
REMARK 924 INTRA-LIGAND FREE ENERGY PREDICTED BY IDOCK:   -1.10 KCAL/MOL
REMARK 927      BINDING AFFINITY PREDICTED BY RF-SCORE:    0.00 PKD
ROOT
HETATM    1  C   UNL     1     -10.861   5.607  72.320  1.00  0.00    -0.242 C  
HETATM    2  N   UNL     1     -10.061   6.342  71.373  1.00  0.00    -0.189 NA 
HETATM    3  C   UNL     1      -8.947   5.868  70.741  1.00  0.00    -0.149 A  
HETATM    4  N   UNL     1      -8.419   6.777  69.953  1.00  0.00    -0.138 NA 
HETATM    5  C   UNL     1      -9.226   7.883  70.081  1.00  0.00    -0.153 A  
HETATM    6  C   UNL     1      -9.136   9.148  69.487  1.00  0.00    -0.155 A  
HETATM    7  F   UNL     1      -8.157   9.367  68.595  1.00  0.00    -0.098 F  
HETATM    8  C   UNL     1     -10.068  10.178  69.801  1.00  0.00    -0.231 A  
HETATM    9  C   UNL     1     -11.278   8.576  71.212  1.00  0.00    -0.321 A  
HETATM   10  C   UNL     1     -11.193   9.846  70.587  1.00  0.00    -0.416 A  
HETATM   11  C   UNL     1     -10.276   7.629  70.956  1.00  0.00    -0.194 A  
ENDROOT
BRANCH   8  12
HETATM   12  N   UNL     1      -9.894  11.489  69.227  1.00  0.00    -0.403 NA 
HETATM   13  H   UNL     1      -9.411  12.198  69.779  1.00  0.00     0.000 HD 
BRANCH  12  14
HETATM   14  C   UNL     1     -10.364  11.850  67.923  1.00  0.00    -0.198 A  
HETATM   15 BR   UNL     1     -12.286  12.833  63.755  1.00  0.00    -0.581 Br 
HETATM   16  C   UNL     1      -9.943  11.175  66.767  1.00  0.00    -0.242 A  
HETATM   17  C   UNL     1     -11.809  13.246  66.535  1.00  0.00    -0.450 A  
HETATM   18  C   UNL     1     -11.249  12.928  67.769  1.00  0.00    -0.280 A  
HETATM   19  C   UNL     1     -11.461  12.490  65.420  1.00  0.00    -0.344 A  
HETATM   20  C   UNL     1     -10.517  11.469  65.524  1.00  0.00    -0.327 A  
HETATM   21  F   UNL     1     -11.610  13.635  68.851  1.00  0.00    -0.270 F  
ENDBRANCH  12  14
ENDBRANCH   8  12
BRANCH  10  22
HETATM   22  C   UNL     1     -12.416  10.710  70.755  1.00  0.00    -0.385 C  
HETATM   23  H   UNL     1     -11.808  11.359  72.657  1.00  0.00     0.000 HD 
HETATM   24  N   UNL     1     -12.513  11.428  71.923  1.00  0.00    -0.001 N  
HETATM   25  O   UNL     1     -13.226  10.808  69.833  1.00  0.00    -0.017 OA 
BRANCH  24  26
HETATM   26  O   UNL     1     -13.648  12.272  72.052  1.00  0.00    -0.400 OA 
BRANCH  26  27
HETATM   27  C   UNL     1     -13.193  13.626  71.895  1.00  0.00    -0.411 C  
BRANCH  27  28
HETATM   28  C   UNL     1     -14.356  14.613  71.964  1.00  0.00    -0.558 C  
HETATM   29  O   UNL     1     -14.304  15.567  70.905  1.00  0.00    -0.852 OA 
HETATM   30  H   UNL     1     -15.027  16.181  70.948  1.00  0.00     0.000 HD 
ENDBRANCH  27  28
ENDBRANCH  26  27
ENDBRANCH  24  26
ENDBRANCH  10  22
TORSDOF 6
ENDMDL
MODEL       55
REMARK 921   NORMALIZED FREE ENERGY PREDICTED BY IDOCK:   -5.79 KCAL/MOL
REMARK 922        TOTAL FREE ENERGY PREDICTED BY IDOCK:   -9.10 KCAL/MOL
REMARK 923 INTER-LIGAND FREE ENERGY PREDICTED BY IDOCK:   -8.50 KCAL/MOL
REMARK 924 INTRA-LIGAND FREE ENERGY PREDICTED BY IDOCK:   -0.60 KCAL/MOL
REMARK 927      BINDING AFFINITY PREDICTED BY RF-SCORE:    0.00 PKD
ROOT
HETATM    1  C   UNL     1     -13.465  15.662  71.540  1.00  0.00    -0.416 C  
HETATM    2  N   UNL     1     -13.264  14.236  71.552  1.00  0.00    -0.332 NA 
HETATM    3  C   UNL     1     -13.876  13.358  72.399  1.00  0.00    -0.564 A  
HETATM    4  N   UNL     1     -13.476  12.125  72.186  1.00  0.00    -0.429 NA 
HETATM    5  C   UNL     1     -12.567  12.211  71.156  1.00  0.00    -0.260 A  
HETATM    6  C   UNL     1     -11.811  11.215  70.525  1.00  0.00    -0.351 A  
HETATM    7  F   UNL     1     -11.995   9.939  70.899  1.00  0.00    -0.323 F  
HETATM    8  C   UNL     1     -10.881  11.537  69.495  1.00  0.00    -0.064 A  
HETATM    9  C   UNL     1     -11.608  13.877  69.648  1.00  0.00    -0.347 A  
HETATM   10  C   UNL     1     -10.865  12.858  68.997  1.00  0.00    -0.188 A  
HETATM   11  C   UNL     1     -12.429  13.526  70.729  1.00  0.00    -0.353 A  
ENDROOT
BRANCH   8  12
HETATM   12  N   UNL     1     -10.068  10.493  68.925  1.00  0.00    -0.192 NA 
HETATM   13  H   UNL     1      -9.704  10.626  67.981  1.00  0.00     0.000 HD 
BRANCH  12  14
HETATM   14  C   UNL     1      -9.743   9.278  69.611  1.00  0.00    -0.182 A  
HETATM   15 BR   UNL     1      -9.092   5.306  72.026  1.00  0.00    -0.154 Br 
HETATM   16  C   UNL     1      -8.925   9.263  70.750  1.00  0.00    -0.292 A  
HETATM   17  C   UNL     1     -10.017   6.861  69.822  1.00  0.00    -0.187 A  
HETATM   18  C   UNL     1     -10.222   8.051  69.129  1.00  0.00    -0.217 A  
HETATM   19  C   UNL     1      -9.295   6.889  71.012  1.00  0.00    -0.156 A  
HETATM   20  C   UNL     1      -8.731   8.078  71.470  1.00  0.00    -0.168 A  
HETATM   21  F   UNL     1     -10.947   8.031  68.000  1.00  0.00    -0.195 F  
ENDBRANCH  12  14
ENDBRANCH   8  12
BRANCH  10  22
HETATM   22  C   UNL     1     -10.185  13.295  67.726  1.00  0.00    -0.228 C  
HETATM   23  H   UNL     1     -12.004  13.844  66.834  1.00  0.00     0.000 HD 
HETATM   24  N   UNL     1     -10.990  13.797  66.732  1.00  0.00    -0.301 N  
HETATM   25  O   UNL     1      -8.956  13.269  67.650  1.00  0.00    -0.178 OA 
BRANCH  24  26
HETATM   26  O   UNL     1     -10.334  14.247  65.555  1.00  0.00    -0.317 OA 
BRANCH  26  27
HETATM   27  C   UNL     1     -11.215  13.987  64.449  1.00  0.00    -0.306 C  
BRANCH  27  28
HETATM   28  C   UNL     1     -12.283  15.071  64.325  1.00  0.00    -0.293 C  
HETATM   29  O   UNL     1     -11.744  16.290  63.821  1.00  0.00    -1.511 OA 
HETATM   30  H   UNL     1     -12.408  16.964  63.744  1.00  0.00     0.000 HD 
ENDBRANCH  27  28
ENDBRANCH  26  27
ENDBRANCH  24  26
ENDBRANCH  10  22
TORSDOF 6
ENDMDL
MODEL       56
REMARK 921   NORMALIZED FREE ENERGY PREDICTED BY IDOCK:   -5.77 KCAL/MOL
REMARK 922        TOTAL FREE ENERGY PREDICTED BY IDOCK:   -9.07 KCAL/MOL
REMARK 923 INTER-LIGAND FREE ENERGY PREDICTED BY IDOCK:   -8.54 KCAL/MOL
REMARK 924 INTRA-LIGAND FREE ENERGY PREDICTED BY IDOCK:   -0.53 KCAL/MOL
REMARK 927      BINDING AFFINITY PREDICTED BY RF-SCORE:    0.00 PKD
ROOT
HETATM    1  C   UNL     1     -13.578   9.454  72.301  1.00  0.00    -0.462 C  
HETATM    2  N   UNL     1     -12.460   9.097  71.467  1.00  0.00    -0.329 NA 
HETATM    3  C   UNL     1     -11.830   7.886  71.462  1.00  0.00    -0.289 A  
HETATM    4  N   UNL     1     -10.830   7.866  70.611  1.00  0.00    -0.233 NA 
HETATM    5  C   UNL     1     -10.814   9.118  70.041  1.00  0.00    -0.234 A  
HETATM    6  C   UNL     1      -9.957   9.668  69.079  1.00  0.00    -0.185 A  
HETATM    7  F   UNL     1      -9.008   8.883  68.545  1.00  0.00    -0.131 F  
HETATM    8  C   UNL     1     -10.093  11.022  68.659  1.00  0.00    -0.197 A  
HETATM    9  C   UNL     1     -12.080  11.207  70.088  1.00  0.00    -0.443 A  
HETATM   10  C   UNL     1     -11.222  11.749  69.096  1.00  0.00    -0.324 A  
HETATM   11  C   UNL     1     -11.840   9.906  70.550  1.00  0.00    -0.270 A  
ENDROOT
BRANCH   8  12
HETATM   12  N   UNL     1      -9.143  11.572  67.725  1.00  0.00    -0.160 NA 
HETATM   13  H   UNL     1      -8.741  12.487  67.928  1.00  0.00     0.000 HD 
BRANCH  12  14
HETATM   14  C   UNL     1      -8.732  10.903  66.527  1.00  0.00    -0.163 A  
HETATM   15 BR   UNL     1      -7.570   8.341  62.770  1.00  0.00    -0.127 Br 
HETATM   16  C   UNL     1      -7.397  10.538  66.298  1.00  0.00    -0.133 A  
HETATM   17  C   UNL     1      -9.336   9.881  64.393  1.00  0.00    -0.326 A  
HETATM   18  C   UNL     1      -9.672  10.620  65.524  1.00  0.00    -0.237 A  
HETATM   19  C   UNL     1      -8.027   9.434  64.243  1.00  0.00    -0.133 A  
HETATM   20  C   UNL     1      -7.051   9.775  65.178  1.00  0.00    -0.121 A  
HETATM   21  F   UNL     1     -10.942  11.022  65.687  1.00  0.00    -0.296 F  
ENDBRANCH  12  14
ENDBRANCH   8  12
BRANCH  10  22
HETATM   22  C   UNL     1     -11.686  13.059  68.516  1.00  0.00    -0.342 C  
HETATM   23  H   UNL     1     -11.766  12.275  66.571  1.00  0.00     0.000 HD 
HETATM   24  N   UNL     1     -11.924  13.090  67.163  1.00  0.00    -0.360 N  
HETATM   25  O   UNL     1     -11.911  14.012  69.263  1.00  0.00    -0.317 OA 
BRANCH  24  26
HETATM   26  O   UNL     1     -12.402  14.319  66.634  1.00  0.00    -0.446 OA 
BRANCH  26  27
HETATM   27  C   UNL     1     -12.054  14.347  65.240  1.00  0.00    -0.380 C  
BRANCH  27  28
HETATM   28  C   UNL     1     -11.231  15.587  64.900  1.00  0.00    -0.389 C  
HETATM   29  O   UNL     1     -11.769  16.290  63.782  1.00  0.00    -1.511 OA 
HETATM   30  H   UNL     1     -11.256  17.061  63.571  1.00  0.00     0.000 HD 
ENDBRANCH  27  28
ENDBRANCH  26  27
ENDBRANCH  24  26
ENDBRANCH  10  22
TORSDOF 6
ENDMDL
MODEL       57
REMARK 921   NORMALIZED FREE ENERGY PREDICTED BY IDOCK:   -5.74 KCAL/MOL
REMARK 922        TOTAL FREE ENERGY PREDICTED BY IDOCK:   -9.03 KCAL/MOL
REMARK 923 INTER-LIGAND FREE ENERGY PREDICTED BY IDOCK:   -7.70 KCAL/MOL
REMARK 924 INTRA-LIGAND FREE ENERGY PREDICTED BY IDOCK:   -1.34 KCAL/MOL
REMARK 927      BINDING AFFINITY PREDICTED BY RF-SCORE:    0.00 PKD
ROOT
HETATM    1  C   UNL     1      -9.327  18.544  68.123  1.00  0.00    -0.314 C  
HETATM    2  N   UNL     1      -9.915  17.875  66.991  1.00  0.00    -0.310 NA 
HETATM    3  C   UNL     1     -10.350  18.483  65.849  1.00  0.00    -0.315 A  
HETATM    4  N   UNL     1     -10.860  17.615  65.005  1.00  0.00    -0.733 NA 
HETATM    5  C   UNL     1     -10.748  16.394  65.629  1.00  0.00    -0.270 A  
HETATM    6  C   UNL     1     -11.138  15.118  65.205  1.00  0.00    -0.403 A  
HETATM    7  F   UNL     1     -11.666  14.986  63.977  1.00  0.00    -0.293 F  
HETATM    8  C   UNL     1     -10.967  13.978  66.042  1.00  0.00    -0.298 A  
HETATM    9  C   UNL     1      -9.853  15.422  67.684  1.00  0.00    -0.220 A  
HETATM   10  C   UNL     1     -10.230  14.130  67.237  1.00  0.00    -0.256 A  
HETATM   11  C   UNL     1     -10.141  16.528  66.872  1.00  0.00    -0.281 A  
ENDROOT
BRANCH   8  12
HETATM   12  N   UNL     1     -11.453  12.696  65.600  1.00  0.00    -0.332 NA 
HETATM   13  H   UNL     1     -12.404  12.426  65.853  1.00  0.00     0.000 HD 
BRANCH  12  14
HETATM   14  C   UNL     1     -10.674  11.779  64.822  1.00  0.00    -0.302 A  
HETATM   15 BR   UNL     1      -7.766   8.908  62.512  1.00  0.00    -0.120 Br 
HETATM   16  C   UNL     1     -10.309  12.051  63.495  1.00  0.00    -0.492 A  
HETATM   17  C   UNL     1      -9.434   9.680  64.692  1.00  0.00    -0.221 A  
HETATM   18  C   UNL     1     -10.277  10.552  65.375  1.00  0.00    -0.270 A  
HETATM   19  C   UNL     1      -8.994  10.024  63.417  1.00  0.00    -0.257 A  
HETATM   20  C   UNL     1      -9.442  11.194  62.807  1.00  0.00    -0.357 A  
HETATM   21  F   UNL     1     -10.674  10.237  66.617  1.00  0.00    -0.296 F  
ENDBRANCH  12  14
ENDBRANCH   8  12
BRANCH  10  22
HETATM   22  C   UNL     1      -9.693  12.997  68.072  1.00  0.00    -0.224 C  
HETATM   23  H   UNL     1      -7.745  13.258  67.335  1.00  0.00     0.000 HD 
HETATM   24  N   UNL     1      -8.348  12.734  67.969  1.00  0.00    -0.163 N  
HETATM   25  O   UNL     1     -10.437  12.414  68.861  1.00  0.00    -0.190 OA 
BRANCH  24  26
HETATM   26  O   UNL     1      -7.844  11.693  68.794  1.00  0.00    -0.136 OA 
BRANCH  26  27
HETATM   27  C   UNL     1      -6.815  11.020  68.050  1.00  0.00    -0.067 C  
BRANCH  27  28
HETATM   28  C   UNL     1      -6.093  11.981  67.109  1.00  0.00    -0.155 C  
HETATM   29  O   UNL     1      -6.170  11.550  65.752  1.00  0.00    -0.423 OA 
HETATM   30  H   UNL     1      -5.720  12.148  65.167  1.00  0.00     0.000 HD 
ENDBRANCH  27  28
ENDBRANCH  26  27
ENDBRANCH  24  26
ENDBRANCH  10  22
TORSDOF 6
ENDMDL
MODEL       58
REMARK 921   NORMALIZED FREE ENERGY PREDICTED BY IDOCK:   -5.72 KCAL/MOL
REMARK 922        TOTAL FREE ENERGY PREDICTED BY IDOCK:   -9.01 KCAL/MOL
REMARK 923 INTER-LIGAND FREE ENERGY PREDICTED BY IDOCK:   -7.52 KCAL/MOL
REMARK 924 INTRA-LIGAND FREE ENERGY PREDICTED BY IDOCK:   -1.50 KCAL/MOL
REMARK 927      BINDING AFFINITY PREDICTED BY RF-SCORE:    0.00 PKD
ROOT
HETATM    1  C   UNL     1      -7.864   5.735  71.920  1.00  0.00    -0.106 C  
HETATM    2  N   UNL     1      -9.076   6.401  72.325  1.00  0.00    -0.140 NA 
HETATM    3  C   UNL     1      -9.777   6.144  73.467  1.00  0.00    -0.164 A  
HETATM    4  N   UNL     1     -10.852   6.895  73.552  1.00  0.00    -0.295 NA 
HETATM    5  C   UNL     1     -10.843   7.670  72.415  1.00  0.00    -0.289 A  
HETATM    6  C   UNL     1     -11.751   8.639  71.968  1.00  0.00    -0.369 A  
HETATM    7  F   UNL     1     -12.793   8.949  72.756  1.00  0.00    -0.466 F  
HETATM    8  C   UNL     1     -11.570   9.297  70.719  1.00  0.00    -0.285 A  
HETATM    9  C   UNL     1      -9.450   8.089  70.452  1.00  0.00    -0.166 A  
HETATM   10  C   UNL     1     -10.362   9.086  70.019  1.00  0.00    -0.226 A  
HETATM   11  C   UNL     1      -9.727   7.390  71.635  1.00  0.00    -0.154 A  
ENDROOT
BRANCH   8  12
HETATM   12  N   UNL     1     -12.568  10.231  70.260  1.00  0.00    -0.525 NA 
HETATM   13  H   UNL     1     -13.208   9.932  69.526  1.00  0.00     0.000 HD 
BRANCH  12  14
HETATM   14  C   UNL     1     -12.708  11.558  70.782  1.00  0.00    -0.227 A  
HETATM   15 BR   UNL     1     -12.737  15.886  72.599  1.00  0.00    -0.569 Br 
HETATM   16  C   UNL     1     -13.352  11.815  72.001  1.00  0.00    -0.417 A  
HETATM   17  C   UNL     1     -12.243  13.946  70.569  1.00  0.00    -0.443 A  
HETATM   18  C   UNL     1     -12.220  12.654  70.053  1.00  0.00    -0.197 A  
HETATM   19  C   UNL     1     -12.788  14.159  71.831  1.00  0.00    -0.341 A  
HETATM   20  C   UNL     1     -13.360  13.106  72.542  1.00  0.00    -0.525 A  
HETATM   21  F   UNL     1     -11.664  12.441  68.850  1.00  0.00    -0.282 F  
ENDBRANCH  12  14
ENDBRANCH   8  12
BRANCH  10  22
HETATM   22  C   UNL     1      -9.874   9.921  68.863  1.00  0.00    -0.176 C  
HETATM   23  H   UNL     1      -8.095  10.422  69.858  1.00  0.00     0.000 HD 
HETATM   24  N   UNL     1      -8.642  10.514  69.002  1.00  0.00    -0.153 N  
HETATM   25  O   UNL     1     -10.537   9.975  67.827  1.00  0.00    -0.224 OA 
BRANCH  24  26
HETATM   26  O   UNL     1      -8.173  11.262  67.890  1.00  0.00    -0.115 OA 
BRANCH  26  27
HETATM   27  C   UNL     1      -8.396  12.651  68.184  1.00  0.00    -0.175 C  
BRANCH  27  28
HETATM   28  C   UNL     1      -9.072  13.363  67.014  1.00  0.00    -0.243 C  
HETATM   29  O   UNL     1      -9.870  12.470  66.241  1.00  0.00    -0.243 OA 
HETATM   30  H   UNL     1     -10.290  12.913  65.513  1.00  0.00     0.000 HD 
ENDBRANCH  27  28
ENDBRANCH  26  27
ENDBRANCH  24  26
ENDBRANCH  10  22
TORSDOF 6
ENDMDL
MODEL       59
REMARK 921   NORMALIZED FREE ENERGY PREDICTED BY IDOCK:   -5.72 KCAL/MOL
REMARK 922        TOTAL FREE ENERGY PREDICTED BY IDOCK:   -9.01 KCAL/MOL
REMARK 923 INTER-LIGAND FREE ENERGY PREDICTED BY IDOCK:   -7.54 KCAL/MOL
REMARK 924 INTRA-LIGAND FREE ENERGY PREDICTED BY IDOCK:   -1.47 KCAL/MOL
REMARK 927      BINDING AFFINITY PREDICTED BY RF-SCORE:    0.00 PKD
ROOT
HETATM    1  C   UNL     1      -6.030   7.832  68.538  1.00  0.00    -0.032 C  
HETATM    2  N   UNL     1      -7.065   8.631  67.933  1.00  0.00    -0.081 NA 
HETATM    3  C   UNL     1      -6.965   9.284  66.738  1.00  0.00    -0.081 A  
HETATM    4  N   UNL     1      -8.063   9.949  66.460  1.00  0.00    -0.116 NA 
HETATM    5  C   UNL     1      -8.908   9.716  67.520  1.00  0.00    -0.125 A  
HETATM    6  C   UNL     1     -10.205  10.182  67.769  1.00  0.00    -0.191 A  
HETATM    7  F   UNL     1     -10.801  10.941  66.836  1.00  0.00    -0.282 F  
HETATM    8  C   UNL     1     -10.890   9.848  68.972  1.00  0.00    -0.215 A  
HETATM    9  C   UNL     1      -8.985   8.432  69.598  1.00  0.00    -0.145 A  
HETATM   10  C   UNL     1     -10.308   8.889  69.830  1.00  0.00    -0.213 A  
HETATM   11  C   UNL     1      -8.310   8.876  68.452  1.00  0.00    -0.125 A  
ENDROOT
BRANCH   8  12
HETATM   12  N   UNL     1     -12.193  10.411  69.224  1.00  0.00    -0.653 NA 
HETATM   13  H   UNL     1     -13.005   9.950  68.814  1.00  0.00     0.000 HD 
BRANCH  12  14
HETATM   14  C   UNL     1     -12.408  11.583  70.018  1.00  0.00    -0.213 A  
HETATM   15 BR   UNL     1     -13.542  15.401  72.502  1.00  0.00    -0.678 Br 
HETATM   16  C   UNL     1     -12.011  12.858  69.587  1.00  0.00    -0.358 A  
HETATM   17  C   UNL     1     -13.326  12.596  72.041  1.00  0.00    -0.555 A  
HETATM   18  C   UNL     1     -13.005  11.473  71.283  1.00  0.00    -0.297 A  
HETATM   19  C   UNL     1     -13.023  13.858  71.541  1.00  0.00    -0.358 A  
HETATM   20  C   UNL     1     -12.350  13.996  70.329  1.00  0.00    -0.425 A  
HETATM   21  F   UNL     1     -13.329  10.257  71.749  1.00  0.00    -0.443 F  
ENDBRANCH  12  14
ENDBRANCH   8  12
BRANCH  10  22
HETATM   22  C   UNL     1     -11.019   8.197  70.963  1.00  0.00    -0.244 C  
HETATM   23  H   UNL     1      -9.726   9.018  72.398  1.00  0.00     0.000 HD 
HETATM   24  N   UNL     1     -10.542   8.430  72.231  1.00  0.00    -0.323 N  
HETATM   25  O   UNL     1     -12.029   7.530  70.734  1.00  0.00    -0.277 OA 
BRANCH  24  26
HETATM   26  O   UNL     1     -11.247   7.807  73.295  1.00  0.00    -0.350 OA 
BRANCH  26  27
HETATM   27  C   UNL     1     -10.362   6.841  73.886  1.00  0.00    -0.368 C  
BRANCH  27  28
HETATM   28  C   UNL     1     -10.568   5.456  73.275  1.00  0.00    -0.249 C  
HETATM   29  O   UNL     1      -9.460   5.065  72.468  1.00  0.00    -0.140 OA 
HETATM   30  H   UNL     1      -9.588   4.204  72.088  1.00  0.00     0.000 HD 
ENDBRANCH  27  28
ENDBRANCH  26  27
ENDBRANCH  24  26
ENDBRANCH  10  22
TORSDOF 6
ENDMDL
MODEL       60
REMARK 921   NORMALIZED FREE ENERGY PREDICTED BY IDOCK:   -5.70 KCAL/MOL
REMARK 922        TOTAL FREE ENERGY PREDICTED BY IDOCK:   -8.98 KCAL/MOL
REMARK 923 INTER-LIGAND FREE ENERGY PREDICTED BY IDOCK:   -7.94 KCAL/MOL
REMARK 924 INTRA-LIGAND FREE ENERGY PREDICTED BY IDOCK:   -1.04 KCAL/MOL
REMARK 927      BINDING AFFINITY PREDICTED BY RF-SCORE:    0.00 PKD
ROOT
HETATM    1  C   UNL     1      -6.400   6.334  69.985  1.00  0.00    -0.035 C  
HETATM    2  N   UNL     1      -7.439   6.932  70.785  1.00  0.00    -0.081 NA 
HETATM    3  C   UNL     1      -7.532   6.860  72.145  1.00  0.00    -0.091 A  
HETATM    4  N   UNL     1      -8.600   7.484  72.588  1.00  0.00    -0.112 NA 
HETATM    5  C   UNL     1      -9.223   7.978  71.465  1.00  0.00    -0.147 A  
HETATM    6  C   UNL     1     -10.409   8.712  71.332  1.00  0.00    -0.261 A  
HETATM    7  F   UNL     1     -11.066   9.072  72.446  1.00  0.00    -0.406 F  
HETATM    8  C   UNL     1     -10.903   9.089  70.051  1.00  0.00    -0.231 A  
HETATM    9  C   UNL     1      -8.893   8.101  69.047  1.00  0.00    -0.144 A  
HETATM   10  C   UNL     1     -10.082   8.864  68.924  1.00  0.00    -0.209 A  
HETATM   11  C   UNL     1      -8.504   7.659  70.320  1.00  0.00    -0.134 A  
ENDROOT
BRANCH   8  12
HETATM   12  N   UNL     1     -12.166   9.776  69.953  1.00  0.00    -0.411 NA 
HETATM   13  H   UNL     1     -12.940   9.301  69.488  1.00  0.00     0.000 HD 
BRANCH  12  14
HETATM   14  C   UNL     1     -12.394  11.091  70.475  1.00  0.00    -0.373 A  
HETATM   15 BR   UNL     1     -13.550  15.373  72.012  1.00  0.00    -0.631 Br 
HETATM   16  C   UNL     1     -11.852  12.235  69.871  1.00  0.00    -0.383 A  
HETATM   17  C   UNL     1     -13.486  12.524  72.122  1.00  0.00    -0.523 A  
HETATM   18  C   UNL     1     -13.154  11.261  71.641  1.00  0.00    -0.408 A  
HETATM   19  C   UNL     1     -13.028  13.648  71.441  1.00  0.00    -0.347 A  
HETATM   20  C   UNL     1     -12.197  13.511  70.330  1.00  0.00    -0.426 A  
HETATM   21  F   UNL     1     -13.624  10.177  72.278  1.00  0.00    -0.485 F  
ENDBRANCH  12  14
ENDBRANCH   8  12
BRANCH  10  22
HETATM   22  C   UNL     1     -10.300   9.467  67.561  1.00  0.00    -0.255 C  
HETATM   23  H   UNL     1      -9.552  11.333  68.165  1.00  0.00     0.000 HD 
HETATM   24  N   UNL     1      -9.929  10.780  67.396  1.00  0.00    -0.180 N  
HETATM   25  O   UNL     1     -10.714   8.761  66.640  1.00  0.00    -0.171 OA 
BRANCH  24  26
HETATM   26  O   UNL     1     -10.098  11.325  66.095  1.00  0.00    -0.220 OA 
BRANCH  26  27
HETATM   27  C   UNL     1     -11.249  12.185  66.138  1.00  0.00    -0.338 C  
BRANCH  27  28
HETATM   28  C   UNL     1     -11.267  13.146  64.952  1.00  0.00    -0.310 C  
HETATM   29  O   UNL     1      -9.969  13.316  64.389  1.00  0.00    -0.629 OA 
HETATM   30  H   UNL     1      -9.980  13.914  63.652  1.00  0.00     0.000 HD 
ENDBRANCH  27  28
ENDBRANCH  26  27
ENDBRANCH  24  26
ENDBRANCH  10  22
TORSDOF 6
ENDMDL
MODEL       61
REMARK 921   NORMALIZED FREE ENERGY PREDICTED BY IDOCK:   -5.68 KCAL/MOL
REMARK 922        TOTAL FREE ENERGY PREDICTED BY IDOCK:   -8.96 KCAL/MOL
REMARK 923 INTER-LIGAND FREE ENERGY PREDICTED BY IDOCK:   -7.44 KCAL/MOL
REMARK 924 INTRA-LIGAND FREE ENERGY PREDICTED BY IDOCK:   -1.52 KCAL/MOL
REMARK 927      BINDING AFFINITY PREDICTED BY RF-SCORE:    0.00 PKD
ROOT
HETATM    1  C   UNL     1     -13.069  10.049  71.867  1.00  0.00    -0.460 C  
HETATM    2  N   UNL     1     -12.866  11.400  71.412  1.00  0.00    -0.422 NA 
HETATM    3  C   UNL     1     -13.141  12.528  72.131  1.00  0.00    -0.323 A  
HETATM    4  N   UNL     1     -12.872  13.615  71.443  1.00  0.00    -0.355 NA 
HETATM    5  C   UNL     1     -12.402  13.169  70.229  1.00  0.00    -0.249 A  
HETATM    6  C   UNL     1     -11.978  13.883  69.101  1.00  0.00    -0.363 A  
HETATM    7  F   UNL     1     -11.950  15.223  69.166  1.00  0.00    -0.307 F  
HETATM    8  C   UNL     1     -11.568  13.210  67.915  1.00  0.00    -0.336 A  
HETATM    9  C   UNL     1     -11.874  11.075  69.086  1.00  0.00    -0.407 A  
HETATM   10  C   UNL     1     -11.424  11.806  67.957  1.00  0.00    -0.388 A  
HETATM   11  C   UNL     1     -12.372  11.780  70.191  1.00  0.00    -0.195 A  
ENDROOT
BRANCH   8  12
HETATM   12  N   UNL     1     -11.213  13.981  66.751  1.00  0.00    -0.307 NA 
HETATM   13  H   UNL     1     -11.675  13.764  65.868  1.00  0.00     0.000 HD 
BRANCH  12  14
HETATM   14  C   UNL     1     -10.245  15.038  66.766  1.00  0.00    -0.260 A  
HETATM   15 BR   UNL     1      -7.065  18.455  67.259  1.00  0.00    -0.213 Br 
HETATM   16  C   UNL     1     -10.605  16.380  66.572  1.00  0.00    -0.235 A  
HETATM   17  C   UNL     1      -7.928  15.744  67.074  1.00  0.00    -0.272 A  
HETATM   18  C   UNL     1      -8.886  14.742  66.949  1.00  0.00    -0.248 A  
HETATM   19  C   UNL     1      -8.327  17.074  66.989  1.00  0.00    -0.203 A  
HETATM   20  C   UNL     1      -9.656  17.398  66.719  1.00  0.00    -0.283 A  
HETATM   21  F   UNL     1      -8.507  13.459  67.065  1.00  0.00    -0.193 F  
ENDBRANCH  12  14
ENDBRANCH   8  12
BRANCH  10  22
HETATM   22  C   UNL     1     -10.717  10.977  66.917  1.00  0.00    -0.274 C  
HETATM   23  H   UNL     1      -9.992   9.628  68.353  1.00  0.00     0.000 HD 
HETATM   24  N   UNL     1     -10.041   9.866  67.362  1.00  0.00    -0.192 N  
HETATM   25  O   UNL     1     -10.832  11.263  65.725  1.00  0.00    -0.261 OA 
BRANCH  24  26
HETATM   26  O   UNL     1      -9.414   9.067  66.369  1.00  0.00    -0.187 OA 
BRANCH  26  27
HETATM   27  C   UNL     1      -7.999   9.119  66.610  1.00  0.00    -0.104 C  
BRANCH  27  28
HETATM   28  C   UNL     1      -7.339  10.232  65.798  1.00  0.00    -0.140 C  
HETATM   29  O   UNL     1      -8.054  10.505  64.596  1.00  0.00    -0.263 OA 
HETATM   30  H   UNL     1      -7.643  11.196  64.091  1.00  0.00     0.000 HD 
ENDBRANCH  27  28
ENDBRANCH  26  27
ENDBRANCH  24  26
ENDBRANCH  10  22
TORSDOF 6
ENDMDL
MODEL       62
REMARK 921   NORMALIZED FREE ENERGY PREDICTED BY IDOCK:   -5.67 KCAL/MOL
REMARK 922        TOTAL FREE ENERGY PREDICTED BY IDOCK:   -8.95 KCAL/MOL
REMARK 923 INTER-LIGAND FREE ENERGY PREDICTED BY IDOCK:   -8.24 KCAL/MOL
REMARK 924 INTRA-LIGAND FREE ENERGY PREDICTED BY IDOCK:   -0.71 KCAL/MOL
REMARK 927      BINDING AFFINITY PREDICTED BY RF-SCORE:    0.00 PKD
ROOT
HETATM    1  C   UNL     1     -12.792  13.806  65.508  1.00  0.00    -0.419 C  
HETATM    2  N   UNL     1     -11.908  12.797  64.982  1.00  0.00    -0.359 NA 
HETATM    3  C   UNL     1     -11.607  12.618  63.662  1.00  0.00    -0.503 A  
HETATM    4  N   UNL     1     -10.791  11.603  63.488  1.00  0.00    -0.417 NA 
HETATM    5  C   UNL     1     -10.556  11.106  64.750  1.00  0.00    -0.303 A  
HETATM    6  C   UNL     1      -9.775  10.021  65.168  1.00  0.00    -0.311 A  
HETATM    7  F   UNL     1      -9.073   9.345  64.245  1.00  0.00    -0.251 F  
HETATM    8  C   UNL     1      -9.708   9.648  66.541  1.00  0.00    -0.212 A  
HETATM    9  C   UNL     1     -11.111  11.588  67.080  1.00  0.00    -0.365 A  
HETATM   10  C   UNL     1     -10.299  10.502  67.497  1.00  0.00    -0.265 A  
HETATM   11  C   UNL     1     -11.233  11.850  65.708  1.00  0.00    -0.312 A  
ENDROOT
BRANCH   8  12
HETATM   12  N   UNL     1      -8.955   8.478  66.920  1.00  0.00    -0.138 NA 
HETATM   13  H   UNL     1      -8.125   8.241  66.377  1.00  0.00     0.000 HD 
BRANCH  12  14
HETATM   14  C   UNL     1      -9.310   7.630  68.019  1.00  0.00    -0.140 A  
HETATM   15 BR   UNL     1     -10.746   5.177  71.754  1.00  0.00    -0.143 Br 
HETATM   16  C   UNL     1      -8.457   7.436  69.115  1.00  0.00    -0.133 A  
HETATM   17  C   UNL     1     -10.960   6.189  69.096  1.00  0.00    -0.450 A  
HETATM   18  C   UNL     1     -10.531   6.939  68.006  1.00  0.00    -0.211 A  
HETATM   19  C   UNL     1     -10.142   6.102  70.220  1.00  0.00    -0.188 A  
HETATM   20  C   UNL     1      -8.886   6.704  70.228  1.00  0.00    -0.152 A  
HETATM   21  F   UNL     1     -11.333   7.052  66.935  1.00  0.00    -0.461 F  
ENDBRANCH  12  14
ENDBRANCH   8  12
BRANCH  10  22
HETATM   22  C   UNL     1     -10.062  10.433  68.983  1.00  0.00    -0.213 C  
HETATM   23  H   UNL     1     -12.037   9.831  69.361  1.00  0.00     0.000 HD 
HETATM   24  N   UNL     1     -11.123  10.038  69.763  1.00  0.00    -0.261 N  
HETATM   25  O   UNL     1      -8.935  10.644  69.433  1.00  0.00    -0.139 OA 
BRANCH  24  26
HETATM   26  O   UNL     1     -10.876   9.934  71.158  1.00  0.00    -0.309 OA 
BRANCH  26  27
HETATM   27  C   UNL     1     -11.841   9.014  71.694  1.00  0.00    -0.360 C  
BRANCH  27  28
HETATM   28  C   UNL     1     -13.092   9.743  72.180  1.00  0.00    -0.422 C  
HETATM   29  O   UNL     1     -14.021   8.851  72.789  1.00  0.00    -0.799 OA 
HETATM   30  H   UNL     1     -14.799   9.304  73.091  1.00  0.00     0.000 HD 
ENDBRANCH  27  28
ENDBRANCH  26  27
ENDBRANCH  24  26
ENDBRANCH  10  22
TORSDOF 6
ENDMDL
MODEL       63
REMARK 921   NORMALIZED FREE ENERGY PREDICTED BY IDOCK:   -5.63 KCAL/MOL
REMARK 922        TOTAL FREE ENERGY PREDICTED BY IDOCK:   -8.89 KCAL/MOL
REMARK 923 INTER-LIGAND FREE ENERGY PREDICTED BY IDOCK:   -7.71 KCAL/MOL
REMARK 924 INTRA-LIGAND FREE ENERGY PREDICTED BY IDOCK:   -1.18 KCAL/MOL
REMARK 927      BINDING AFFINITY PREDICTED BY RF-SCORE:    0.00 PKD
ROOT
HETATM    1  C   UNL     1      -7.534  10.084  63.018  1.00  0.00    -0.138 C  
HETATM    2  N   UNL     1      -7.733   9.115  64.065  1.00  0.00    -0.116 NA 
HETATM    3  C   UNL     1      -7.048   7.942  64.198  1.00  0.00    -0.075 A  
HETATM    4  N   UNL     1      -7.466   7.256  65.238  1.00  0.00    -0.083 NA 
HETATM    5  C   UNL     1      -8.464   8.019  65.798  1.00  0.00    -0.147 A  
HETATM    6  C   UNL     1      -9.274   7.778  66.916  1.00  0.00    -0.152 A  
HETATM    7  F   UNL     1      -9.057   6.664  67.633  1.00  0.00    -0.117 F  
HETATM    8  C   UNL     1     -10.293   8.696  67.299  1.00  0.00    -0.296 A  
HETATM    9  C   UNL     1      -9.555  10.184  65.492  1.00  0.00    -0.310 A  
HETATM   10  C   UNL     1     -10.354   9.943  66.639  1.00  0.00    -0.275 A  
HETATM   11  C   UNL     1      -8.639   9.201  65.089  1.00  0.00    -0.176 A  
ENDROOT
BRANCH   8  12
HETATM   12  N   UNL     1     -11.155   8.373  68.408  1.00  0.00    -0.338 NA 
HETATM   13  H   UNL     1     -12.163   8.384  68.255  1.00  0.00     0.000 HD 
BRANCH  12  14
HETATM   14  C   UNL     1     -10.672   8.038  69.715  1.00  0.00    -0.231 A  
HETATM   15 BR   UNL     1      -9.512   6.957  74.133  1.00  0.00    -0.291 Br 
HETATM   16  C   UNL     1     -10.017   8.974  70.529  1.00  0.00    -0.263 A  
HETATM   17  C   UNL     1     -10.459   6.391  71.504  1.00  0.00    -0.256 A  
HETATM   18  C   UNL     1     -10.820   6.732  70.203  1.00  0.00    -0.266 A  
HETATM   19  C   UNL     1      -9.913   7.367  72.331  1.00  0.00    -0.180 A  
HETATM   20  C   UNL     1      -9.671   8.651  71.846  1.00  0.00    -0.383 A  
HETATM   21  F   UNL     1     -11.378   5.799  69.415  1.00  0.00    -0.437 F  
ENDBRANCH  12  14
ENDBRANCH   8  12
BRANCH  10  22
HETATM   22  C   UNL     1     -11.146  11.134  67.111  1.00  0.00    -0.287 C  
HETATM   23  H   UNL     1     -11.232  11.956  65.182  1.00  0.00     0.000 HD 
HETATM   24  N   UNL     1     -11.509  12.055  66.158  1.00  0.00    -0.357 N  
HETATM   25  O   UNL     1     -11.505  11.202  68.287  1.00  0.00    -0.269 OA 
BRANCH  24  26
HETATM   26  O   UNL     1     -12.293  13.151  66.606  1.00  0.00    -0.330 OA 
BRANCH  26  27
HETATM   27  C   UNL     1     -12.526  14.002  65.472  1.00  0.00    -0.509 C  
BRANCH  27  28
HETATM   28  C   UNL     1     -11.610  13.634  64.307  1.00  0.00    -0.382 C  
HETATM   29  O   UNL     1     -12.305  13.649  63.062  1.00  0.00    -1.041 OA 
HETATM   30  H   UNL     1     -11.736  13.421  62.338  1.00  0.00     0.000 HD 
ENDBRANCH  27  28
ENDBRANCH  26  27
ENDBRANCH  24  26
ENDBRANCH  10  22
TORSDOF 6
ENDMDL
MODEL       64
REMARK 921   NORMALIZED FREE ENERGY PREDICTED BY IDOCK:   -5.62 KCAL/MOL
REMARK 922        TOTAL FREE ENERGY PREDICTED BY IDOCK:   -8.87 KCAL/MOL
REMARK 923 INTER-LIGAND FREE ENERGY PREDICTED BY IDOCK:   -7.95 KCAL/MOL
REMARK 924 INTRA-LIGAND FREE ENERGY PREDICTED BY IDOCK:   -0.93 KCAL/MOL
REMARK 927      BINDING AFFINITY PREDICTED BY RF-SCORE:    0.00 PKD
ROOT
HETATM    1  C   UNL     1     -13.017  12.238  64.114  1.00  0.00    -0.169 C  
HETATM    2  N   UNL     1     -11.677  12.190  64.642  1.00  0.00    -0.347 NA 
HETATM    3  C   UNL     1     -10.629  11.518  64.082  1.00  0.00    -0.363 A  
HETATM    4  N   UNL     1      -9.538  11.640  64.804  1.00  0.00    -0.183 NA 
HETATM    5  C   UNL     1      -9.898  12.426  65.875  1.00  0.00    -0.252 A  
HETATM    6  C   UNL     1      -9.146  12.870  66.970  1.00  0.00    -0.228 A  
HETATM    7  F   UNL     1      -7.841  12.559  67.017  1.00  0.00    -0.163 F  
HETATM    8  C   UNL     1      -9.739  13.648  68.005  1.00  0.00    -0.226 A  
HETATM    9  C   UNL     1     -11.833  13.653  66.724  1.00  0.00    -0.452 A  
HETATM   10  C   UNL     1     -11.058  14.118  67.817  1.00  0.00    -0.292 A  
HETATM   11  C   UNL     1     -11.234  12.799  65.787  1.00  0.00    -0.307 A  
ENDROOT
BRANCH   8  12
HETATM   12  N   UNL     1      -8.950  14.019  69.152  1.00  0.00    -0.361 NA 
HETATM   13  H   UNL     1      -9.021  13.445  69.993  1.00  0.00     0.000 HD 
BRANCH  12  14
HETATM   14  C   UNL     1      -8.072  15.150  69.176  1.00  0.00    -0.214 A  
HETATM   15 BR   UNL     1      -5.342  18.938  69.667  1.00  0.00    -0.215 Br 
HETATM   16  C   UNL     1      -8.362  16.333  68.479  1.00  0.00    -0.204 A  
HETATM   17  C   UNL     1      -6.033  16.194  70.022  1.00  0.00    -0.164 A  
HETATM   18  C   UNL     1      -6.864  15.086  69.888  1.00  0.00    -0.162 A  
HETATM   19  C   UNL     1      -6.399  17.391  69.413  1.00  0.00    -0.246 A  
HETATM   20  C   UNL     1      -7.547  17.462  68.626  1.00  0.00    -0.265 A  
HETATM   21  F   UNL     1      -6.530  13.941  70.503  1.00  0.00    -0.139 F  
ENDBRANCH  12  14
ENDBRANCH   8  12
BRANCH  10  22
HETATM   22  C   UNL     1     -11.720  15.189  68.643  1.00  0.00    -0.341 C  
HETATM   23  H   UNL     1     -12.401  13.801  70.063  1.00  0.00     0.000 HD 
HETATM   24  N   UNL     1     -12.353  14.783  69.794  1.00  0.00    -0.282 N  
HETATM   25  O   UNL     1     -11.607  16.371  68.316  1.00  0.00    -0.255 OA 
BRANCH  24  26
HETATM   26  O   UNL     1     -12.937  15.807  70.588  1.00  0.00    -0.479 OA 
BRANCH  26  27
HETATM   27  C   UNL     1     -13.774  15.165  71.563  1.00  0.00    -0.494 C  
BRANCH  27  28
HETATM   28  C   UNL     1     -13.117  13.900  72.112  1.00  0.00    -0.406 C  
HETATM   29  O   UNL     1     -14.051  13.079  72.808  1.00  0.00    -0.737 OA 
HETATM   30  H   UNL     1     -13.642  12.292  73.150  1.00  0.00     0.000 HD 
ENDBRANCH  27  28
ENDBRANCH  26  27
ENDBRANCH  24  26
ENDBRANCH  10  22
TORSDOF 6
ENDMDL
MODEL       65
REMARK 921   NORMALIZED FREE ENERGY PREDICTED BY IDOCK:   -5.62 KCAL/MOL
REMARK 922        TOTAL FREE ENERGY PREDICTED BY IDOCK:   -8.87 KCAL/MOL
REMARK 923 INTER-LIGAND FREE ENERGY PREDICTED BY IDOCK:   -7.72 KCAL/MOL
REMARK 924 INTRA-LIGAND FREE ENERGY PREDICTED BY IDOCK:   -1.15 KCAL/MOL
REMARK 927      BINDING AFFINITY PREDICTED BY RF-SCORE:    0.00 PKD
ROOT
HETATM    1  C   UNL     1     -10.746  19.648  67.166  1.00  0.00    -0.464 C  
HETATM    2  N   UNL     1      -9.774  18.613  66.921  1.00  0.00    -0.301 NA 
HETATM    3  C   UNL     1      -8.617  18.764  66.213  1.00  0.00    -0.234 A  
HETATM    4  N   UNL     1      -7.946  17.637  66.140  1.00  0.00    -0.470 NA 
HETATM    5  C   UNL     1      -8.702  16.719  66.833  1.00  0.00    -0.216 A  
HETATM    6  C   UNL     1      -8.484  15.356  67.071  1.00  0.00    -0.231 A  
HETATM    7  F   UNL     1      -7.345  14.804  66.625  1.00  0.00     0.056 F  
HETATM    8  C   UNL     1      -9.434  14.572  67.785  1.00  0.00    -0.210 A  
HETATM    9  C   UNL     1     -10.758  16.607  68.149  1.00  0.00    -0.349 A  
HETATM   10  C   UNL     1     -10.517  15.232  68.406  1.00  0.00    -0.236 A  
HETATM   11  C   UNL     1      -9.849  17.313  67.349  1.00  0.00    -0.272 A  
ENDROOT
BRANCH   8  12
HETATM   12  N   UNL     1      -9.209  13.157  67.942  1.00  0.00    -0.199 NA 
HETATM   13  H   UNL     1      -9.056  12.794  68.882  1.00  0.00     0.000 HD 
BRANCH  12  14
HETATM   14  C   UNL     1      -9.188  12.233  66.847  1.00  0.00    -0.209 A  
HETATM   15 BR   UNL     1      -8.833   9.480  63.062  1.00  0.00    -0.216 Br 
HETATM   16  C   UNL     1     -10.248  12.138  65.933  1.00  0.00    -0.272 A  
HETATM   17  C   UNL     1      -7.990  10.527  65.577  1.00  0.00    -0.145 A  
HETATM   18  C   UNL     1      -8.098  11.366  66.682  1.00  0.00    -0.155 A  
HETATM   19  C   UNL     1      -9.004  10.531  64.624  1.00  0.00    -0.207 A  
HETATM   20  C   UNL     1     -10.141  11.316  64.805  1.00  0.00    -0.338 A  
HETATM   21  F   UNL     1      -7.104  11.387  67.584  1.00  0.00    -0.078 F  
ENDBRANCH  12  14
ENDBRANCH   8  12
BRANCH  10  22
HETATM   22  C   UNL     1     -11.426  14.621  69.440  1.00  0.00    -0.296 C  
HETATM   23  H   UNL     1     -10.673  15.853  70.963  1.00  0.00     0.000 HD 
HETATM   24  N   UNL     1     -11.341  15.122  70.717  1.00  0.00    -0.299 N  
HETATM   25  O   UNL     1     -12.253  13.774  69.102  1.00  0.00    -0.344 OA 
BRANCH  24  26
HETATM   26  O   UNL     1     -12.233  14.569  71.673  1.00  0.00    -0.335 OA 
BRANCH  26  27
HETATM   27  C   UNL     1     -13.110  15.625  72.099  1.00  0.00    -0.458 C  
BRANCH  27  28
HETATM   28  C   UNL     1     -12.517  16.399  73.273  1.00  0.00    -0.402 C  
HETATM   29  O   UNL     1     -12.846  15.798  74.523  1.00  0.00    -0.843 OA 
HETATM   30  H   UNL     1     -12.478  16.280  75.254  1.00  0.00     0.000 HD 
ENDBRANCH  27  28
ENDBRANCH  26  27
ENDBRANCH  24  26
ENDBRANCH  10  22
TORSDOF 6
ENDMDL
MODEL       66
REMARK 921   NORMALIZED FREE ENERGY PREDICTED BY IDOCK:   -5.62 KCAL/MOL
REMARK 922        TOTAL FREE ENERGY PREDICTED BY IDOCK:   -8.87 KCAL/MOL
REMARK 923 INTER-LIGAND FREE ENERGY PREDICTED BY IDOCK:   -8.20 KCAL/MOL
REMARK 924 INTRA-LIGAND FREE ENERGY PREDICTED BY IDOCK:   -0.67 KCAL/MOL
REMARK 927      BINDING AFFINITY PREDICTED BY RF-SCORE:    0.00 PKD
ROOT
HETATM    1  C   UNL     1     -13.000  12.255  71.663  1.00  0.00    -0.311 C  
HETATM    2  N   UNL     1     -12.698  13.560  71.132  1.00  0.00    -0.354 NA 
HETATM    3  C   UNL     1     -12.929  14.746  71.767  1.00  0.00    -0.332 A  
HETATM    4  N   UNL     1     -12.570  15.768  71.023  1.00  0.00    -0.454 NA 
HETATM    5  C   UNL     1     -12.085  15.217  69.859  1.00  0.00    -0.343 A  
HETATM    6  C   UNL     1     -11.578  15.830  68.706  1.00  0.00    -0.395 A  
HETATM    7  F   UNL     1     -11.470  17.168  68.688  1.00  0.00    -0.155 F  
HETATM    8  C   UNL     1     -11.168  15.058  67.582  1.00  0.00    -0.326 A  
HETATM    9  C   UNL     1     -11.645  13.026  68.872  1.00  0.00    -0.355 A  
HETATM   10  C   UNL     1     -11.111  13.654  67.718  1.00  0.00    -0.293 A  
HETATM   11  C   UNL     1     -12.139  13.829  69.910  1.00  0.00    -0.348 A  
ENDROOT
BRANCH   8  12
HETATM   12  N   UNL     1     -10.725  15.730  66.387  1.00  0.00    -0.303 NA 
HETATM   13  H   UNL     1     -11.060  15.387  65.487  1.00  0.00     0.000 HD 
BRANCH  12  14
HETATM   14  C   UNL     1      -9.838  16.856  66.393  1.00  0.00    -0.305 A  
HETATM   15 BR   UNL     1      -6.918  20.502  66.859  1.00  0.00    -0.356 Br 
HETATM   16  C   UNL     1     -10.296  18.166  66.190  1.00  0.00    -0.394 A  
HETATM   17  C   UNL     1      -7.579  17.733  66.693  1.00  0.00    -0.271 A  
HETATM   18  C   UNL     1      -8.460  16.662  66.577  1.00  0.00    -0.292 A  
HETATM   19  C   UNL     1      -8.075  19.029  66.600  1.00  0.00    -0.274 A  
HETATM   20  C   UNL     1      -9.424  19.252  66.329  1.00  0.00    -0.387 A  
HETATM   21  F   UNL     1      -7.988  15.412  66.701  1.00  0.00    -0.257 F  
ENDBRANCH  12  14
ENDBRANCH   8  12
BRANCH  10  22
HETATM   22  C   UNL     1     -10.419  12.719  66.761  1.00  0.00    -0.241 C  
HETATM   23  H   UNL     1     -11.982  11.321  66.853  1.00  0.00     0.000 HD 
HETATM   24  N   UNL     1     -11.080  11.557  66.441  1.00  0.00    -0.292 N  
HETATM   25  O   UNL     1      -9.352  13.053  66.244  1.00  0.00    -0.230 OA 
BRANCH  24  26
HETATM   26  O   UNL     1     -10.438  10.704  65.504  1.00  0.00    -0.248 OA 
BRANCH  26  27
HETATM   27  C   UNL     1      -9.546   9.853  66.242  1.00  0.00    -0.209 C  
BRANCH  27  28
HETATM   28  C   UNL     1     -10.268   8.610  66.758  1.00  0.00    -0.291 C  
HETATM   29  O   UNL     1     -10.149   8.479  68.173  1.00  0.00    -0.185 OA 
HETATM   30  H   UNL     1     -10.597   7.705  68.494  1.00  0.00     0.000 HD 
ENDBRANCH  27  28
ENDBRANCH  26  27
ENDBRANCH  24  26
ENDBRANCH  10  22
TORSDOF 6
ENDMDL
MODEL       67
REMARK 921   NORMALIZED FREE ENERGY PREDICTED BY IDOCK:   -5.59 KCAL/MOL
REMARK 922        TOTAL FREE ENERGY PREDICTED BY IDOCK:   -8.83 KCAL/MOL
REMARK 923 INTER-LIGAND FREE ENERGY PREDICTED BY IDOCK:   -7.73 KCAL/MOL
REMARK 924 INTRA-LIGAND FREE ENERGY PREDICTED BY IDOCK:   -1.10 KCAL/MOL
REMARK 927      BINDING AFFINITY PREDICTED BY RF-SCORE:    0.00 PKD
ROOT
HETATM    1  C   UNL     1      -7.016  17.688  68.760  1.00  0.00    -0.245 C  
HETATM    2  N   UNL     1      -7.229  16.323  68.350  1.00  0.00    -0.146 NA 
HETATM    3  C   UNL     1      -6.304  15.527  67.738  1.00  0.00    -0.161 A  
HETATM    4  N   UNL     1      -6.796  14.341  67.463  1.00  0.00    -0.217 NA 
HETATM    5  C   UNL     1      -8.095  14.373  67.918  1.00  0.00    -0.151 A  
HETATM    6  C   UNL     1      -9.096  13.394  67.878  1.00  0.00    -0.208 A  
HETATM    7  F   UNL     1      -8.790  12.187  67.377  1.00  0.00    -0.157 F  
HETATM    8  C   UNL     1     -10.405  13.658  68.373  1.00  0.00    -0.248 A  
HETATM    9  C   UNL     1      -9.625  15.872  69.092  1.00  0.00    -0.253 A  
HETATM   10  C   UNL     1     -10.626  14.867  69.069  1.00  0.00    -0.245 A  
HETATM   11  C   UNL     1      -8.385  15.603  68.495  1.00  0.00    -0.166 A  
ENDROOT
BRANCH   8  12
HETATM   12  N   UNL     1     -11.427  12.651  68.243  1.00  0.00    -0.289 NA 
HETATM   13  H   UNL     1     -12.226  12.849  67.641  1.00  0.00     0.000 HD 
BRANCH  12  14
HETATM   14  C   UNL     1     -11.382  11.386  68.914  1.00  0.00    -0.270 A  
HETATM   15 BR   UNL     1     -10.888   7.401  71.345  1.00  0.00    -0.259 Br 
HETATM   16  C   UNL     1     -10.868  10.235  68.299  1.00  0.00    -0.300 A  
HETATM   17  C   UNL     1     -11.771  10.082  70.941  1.00  0.00    -0.462 A  
HETATM   18  C   UNL     1     -11.889  11.264  70.217  1.00  0.00    -0.357 A  
HETATM   19  C   UNL     1     -11.155   8.984  70.347  1.00  0.00    -0.244 A  
HETATM   20  C   UNL     1     -10.721   9.047  69.024  1.00  0.00    -0.163 A  
HETATM   21  F   UNL     1     -12.452  12.334  70.800  1.00  0.00    -0.411 F  
ENDBRANCH  12  14
ENDBRANCH   8  12
BRANCH  10  22
HETATM   22  C   UNL     1     -11.836  15.169  69.914  1.00  0.00    -0.330 C  
HETATM   23  H   UNL     1     -10.666  15.955  71.470  1.00  0.00     0.000 HD 
HETATM   24  N   UNL     1     -11.609  15.759  71.135  1.00  0.00    -0.384 N  
HETATM   25  O   UNL     1     -12.963  14.963  69.463  1.00  0.00     0.159 OA 
BRANCH  24  26
HETATM   26  O   UNL     1     -12.759  16.080  71.904  1.00  0.00    -0.453 OA 
BRANCH  26  27
HETATM   27  C   UNL     1     -12.912  15.049  72.894  1.00  0.00    -0.463 C  
BRANCH  27  28
HETATM   28  C   UNL     1     -12.314  15.474  74.233  1.00  0.00    -0.671 C  
HETATM   29  O   UNL     1     -12.561  16.850  74.511  1.00  0.00    -0.631 OA 
HETATM   30  H   UNL     1     -12.189  17.114  75.343  1.00  0.00     0.000 HD 
ENDBRANCH  27  28
ENDBRANCH  26  27
ENDBRANCH  24  26
ENDBRANCH  10  22
TORSDOF 6
ENDMDL
MODEL       68
REMARK 921   NORMALIZED FREE ENERGY PREDICTED BY IDOCK:   -5.58 KCAL/MOL
REMARK 922        TOTAL FREE ENERGY PREDICTED BY IDOCK:   -8.82 KCAL/MOL
REMARK 923 INTER-LIGAND FREE ENERGY PREDICTED BY IDOCK:   -7.87 KCAL/MOL
REMARK 924 INTRA-LIGAND FREE ENERGY PREDICTED BY IDOCK:   -0.95 KCAL/MOL
REMARK 927      BINDING AFFINITY PREDICTED BY RF-SCORE:    0.00 PKD
ROOT
HETATM    1  C   UNL     1     -13.362   9.540  72.365  1.00  0.00    -0.384 C  
HETATM    2  N   UNL     1     -12.112   9.350  71.673  1.00  0.00    -0.365 NA 
HETATM    3  C   UNL     1     -11.262   8.296  71.849  1.00  0.00    -0.300 A  
HETATM    4  N   UNL     1     -10.192   8.410  71.096  1.00  0.00    -0.194 NA 
HETATM    5  C   UNL     1     -10.359   9.588  70.404  1.00  0.00    -0.276 A  
HETATM    6  C   UNL     1      -9.527  10.219  69.470  1.00  0.00    -0.185 A  
HETATM    7  F   UNL     1      -8.392   9.603  69.106  1.00  0.00    -0.106 F  
HETATM    8  C   UNL     1      -9.879  11.477  68.902  1.00  0.00    -0.075 A  
HETATM    9  C   UNL     1     -12.005  11.371  70.123  1.00  0.00    -0.460 A  
HETATM   10  C   UNL     1     -11.168  11.991  69.160  1.00  0.00    -0.305 A  
HETATM   11  C   UNL     1     -11.567  10.189  70.736  1.00  0.00    -0.357 A  
ENDROOT
BRANCH   8  12
HETATM   12  N   UNL     1      -8.960  12.130  68.004  1.00  0.00    -0.182 NA 
HETATM   13  H   UNL     1      -8.862  11.758  67.060  1.00  0.00     0.000 HD 
BRANCH  12  14
HETATM   14  C   UNL     1      -8.176  13.273  68.367  1.00  0.00    -0.134 A  
HETATM   15 BR   UNL     1      -5.760  16.964  69.970  1.00  0.00    -0.208 Br 
HETATM   16  C   UNL     1      -8.570  14.579  68.040  1.00  0.00    -0.162 A  
HETATM   17  C   UNL     1      -6.220  14.189  69.505  1.00  0.00    -0.119 A  
HETATM   18  C   UNL     1      -6.959  13.104  69.044  1.00  0.00    -0.063 A  
HETATM   19  C   UNL     1      -6.689  15.477  69.264  1.00  0.00    -0.154 A  
HETATM   20  C   UNL     1      -7.849  15.679  68.518  1.00  0.00    -0.133 A  
HETATM   21  F   UNL     1      -6.525  11.860  69.305  1.00  0.00    -0.076 F  
ENDBRANCH  12  14
ENDBRANCH   8  12
BRANCH  10  22
HETATM   22  C   UNL     1     -11.813  13.127  68.410  1.00  0.00    -0.351 C  
HETATM   23  H   UNL     1     -11.365  12.271  66.547  1.00  0.00     0.000 HD 
HETATM   24  N   UNL     1     -11.810  13.046  67.038  1.00  0.00    -0.381 N  
HETATM   25  O   UNL     1     -12.382  14.026  69.032  1.00  0.00    -0.307 OA 
BRANCH  24  26
HETATM   26  O   UNL     1     -12.459  14.100  66.342  1.00  0.00    -0.461 OA 
BRANCH  26  27
HETATM   27  C   UNL     1     -11.492  14.685  65.454  1.00  0.00    -0.352 C  
BRANCH  27  28
HETATM   28  C   UNL     1     -12.141  15.141  64.149  1.00  0.00    -0.176 C  
HETATM   29  O   UNL     1     -11.632  16.399  63.716  1.00  0.00    -1.605 OA 
HETATM   30  H   UNL     1     -12.036  16.683  62.905  1.00  0.00     0.000 HD 
ENDBRANCH  27  28
ENDBRANCH  26  27
ENDBRANCH  24  26
ENDBRANCH  10  22
TORSDOF 6
ENDMDL
MODEL       69
REMARK 921   NORMALIZED FREE ENERGY PREDICTED BY IDOCK:   -5.54 KCAL/MOL
REMARK 922        TOTAL FREE ENERGY PREDICTED BY IDOCK:   -8.77 KCAL/MOL
REMARK 923 INTER-LIGAND FREE ENERGY PREDICTED BY IDOCK:   -7.75 KCAL/MOL
REMARK 924 INTRA-LIGAND FREE ENERGY PREDICTED BY IDOCK:   -1.01 KCAL/MOL
REMARK 927      BINDING AFFINITY PREDICTED BY RF-SCORE:    0.00 PKD
ROOT
HETATM    1  C   UNL     1      -6.532  19.141  69.187  1.00  0.00    -0.288 C  
HETATM    2  N   UNL     1      -6.366  17.721  69.007  1.00  0.00    -0.214 NA 
HETATM    3  C   UNL     1      -5.177  17.083  68.796  1.00  0.00    -0.129 A  
HETATM    4  N   UNL     1      -5.345  15.789  68.645  1.00  0.00    -0.096 NA 
HETATM    5  C   UNL     1      -6.700  15.583  68.764  1.00  0.00    -0.114 A  
HETATM    6  C   UNL     1      -7.451  14.404  68.677  1.00  0.00    -0.126 A  
HETATM    7  F   UNL     1      -6.800  13.243  68.503  1.00  0.00    -0.075 F  
HETATM    8  C   UNL     1      -8.871  14.425  68.787  1.00  0.00    -0.131 A  
HETATM    9  C   UNL     1      -8.745  16.835  69.233  1.00  0.00     0.024 A  
HETATM   10  C   UNL     1      -9.495  15.633  69.167  1.00  0.00    -0.256 A  
HETATM   11  C   UNL     1      -7.362  16.780  69.009  1.00  0.00    -0.231 A  
ENDROOT
BRANCH   8  12
HETATM   12  N   UNL     1      -9.612  13.201  68.614  1.00  0.00    -0.401 NA 
HETATM   13  H   UNL     1      -9.633  12.536  69.387  1.00  0.00     0.000 HD 
BRANCH  12  14
HETATM   14  C   UNL     1     -10.321  12.867  67.415  1.00  0.00    -0.233 A  
HETATM   15 BR   UNL     1     -12.384  12.068  63.275  1.00  0.00    -0.379 Br 
HETATM   16  C   UNL     1     -11.620  13.333  67.164  1.00  0.00    -0.402 A  
HETATM   17  C   UNL     1     -10.339  11.761  65.238  1.00  0.00    -0.317 A  
HETATM   18  C   UNL     1      -9.729  12.026  66.461  1.00  0.00    -0.216 A  
HETATM   19  C   UNL     1     -11.582  12.326  64.967  1.00  0.00    -0.343 A  
HETATM   20  C   UNL     1     -12.235  13.094  65.930  1.00  0.00    -0.497 A  
HETATM   21  F   UNL     1      -8.516  11.509  66.710  1.00  0.00    -0.145 F  
ENDBRANCH  12  14
ENDBRANCH   8  12
BRANCH  10  22
HETATM   22  C   UNL     1     -10.924  15.761  69.627  1.00  0.00    -0.306 C  
HETATM   23  H   UNL     1     -10.487  14.940  71.509  1.00  0.00     0.000 HD 
HETATM   24  N   UNL     1     -11.204  15.346  70.907  1.00  0.00    -0.342 N  
HETATM   25  O   UNL     1     -11.756  16.296  68.894  1.00  0.00    -0.313 OA 
BRANCH  24  26
HETATM   26  O   UNL     1     -12.544  15.512  71.346  1.00  0.00    -0.366 OA 
BRANCH  26  27
HETATM   27  C   UNL     1     -12.733  14.647  72.478  1.00  0.00    -0.363 C  
BRANCH  27  28
HETATM   28  C   UNL     1     -12.446  15.377  73.788  1.00  0.00    -0.620 C  
HETATM   29  O   UNL     1     -13.502  16.268  74.139  1.00  0.00    -0.871 OA 
HETATM   30  H   UNL     1     -13.324  16.723  74.953  1.00  0.00     0.000 HD 
ENDBRANCH  27  28
ENDBRANCH  26  27
ENDBRANCH  24  26
ENDBRANCH  10  22
TORSDOF 6
ENDMDL
MODEL       70
REMARK 921   NORMALIZED FREE ENERGY PREDICTED BY IDOCK:   -5.52 KCAL/MOL
REMARK 922        TOTAL FREE ENERGY PREDICTED BY IDOCK:   -8.74 KCAL/MOL
REMARK 923 INTER-LIGAND FREE ENERGY PREDICTED BY IDOCK:   -7.60 KCAL/MOL
REMARK 924 INTRA-LIGAND FREE ENERGY PREDICTED BY IDOCK:   -1.14 KCAL/MOL
REMARK 927      BINDING AFFINITY PREDICTED BY RF-SCORE:    0.00 PKD
ROOT
HETATM    1  C   UNL     1      -6.795   8.641  67.880  1.00  0.00    -0.067 C  
HETATM    2  N   UNL     1      -6.756  10.031  68.254  1.00  0.00    -0.055 NA 
HETATM    3  C   UNL     1      -5.710  10.657  68.868  1.00  0.00    -0.040 A  
HETATM    4  N   UNL     1      -5.977  11.922  69.104  1.00  0.00    -0.066 NA 
HETATM    5  C   UNL     1      -7.250  12.120  68.621  1.00  0.00    -0.109 A  
HETATM    6  C   UNL     1      -8.051  13.269  68.616  1.00  0.00    -0.028 A  
HETATM    7  F   UNL     1      -7.534  14.411  69.096  1.00  0.00    -0.120 F  
HETATM    8  C   UNL     1      -9.377  13.240  68.098  1.00  0.00    -0.220 A  
HETATM    9  C   UNL     1      -9.013  10.902  67.448  1.00  0.00    -0.136 A  
HETATM   10  C   UNL     1      -9.808  12.076  67.425  1.00  0.00    -0.191 A  
HETATM   11  C   UNL     1      -7.755  10.951  68.066  1.00  0.00    -0.101 A  
ENDROOT
BRANCH   8  12
HETATM   12  N   UNL     1     -10.195  14.423  68.182  1.00  0.00    -0.228 NA 
HETATM   13  H   UNL     1     -10.158  15.091  67.412  1.00  0.00     0.000 HD 
BRANCH  12  14
HETATM   14  C   UNL     1     -11.058  14.713  69.288  1.00  0.00    -0.269 A  
HETATM   15 BR   UNL     1     -13.535  15.590  73.177  1.00  0.00    -0.524 Br 
HETATM   16  C   UNL     1     -12.014  13.794  69.747  1.00  0.00    -0.406 A  
HETATM   17  C   UNL     1     -11.730  16.242  71.069  1.00  0.00    -0.317 A  
HETATM   18  C   UNL     1     -10.984  15.959  69.929  1.00  0.00    -0.343 A  
HETATM   19  C   UNL     1     -12.591  15.271  71.571  1.00  0.00    -0.373 A  
HETATM   20  C   UNL     1     -12.752  14.056  70.906  1.00  0.00    -0.420 A  
HETATM   21  F   UNL     1     -10.128  16.882  69.463  1.00  0.00    -0.251 F  
ENDBRANCH  12  14
ENDBRANCH   8  12
BRANCH  10  22
HETATM   22  C   UNL     1     -11.038  11.981  66.560  1.00  0.00    -0.314 C  
HETATM   23  H   UNL     1     -10.144  13.081  65.011  1.00  0.00     0.000 HD 
HETATM   24  N   UNL     1     -10.973  12.574  65.322  1.00  0.00    -0.286 N  
HETATM   25  O   UNL     1     -12.005  11.324  66.944  1.00  0.00    -0.327 OA 
BRANCH  24  26
HETATM   26  O   UNL     1     -12.122  12.441  64.498  1.00  0.00    -0.392 OA 
BRANCH  26  27
HETATM   27  C   UNL     1     -12.164  13.589  63.635  1.00  0.00    -0.375 C  
BRANCH  27  28
HETATM   28  C   UNL     1     -11.604  14.827  64.332  1.00  0.00    -0.295 C  
HETATM   29  O   UNL     1     -11.952  16.025  63.643  1.00  0.00    -1.344 OA 
HETATM   30  H   UNL     1     -11.603  16.794  64.076  1.00  0.00     0.000 HD 
ENDBRANCH  27  28
ENDBRANCH  26  27
ENDBRANCH  24  26
ENDBRANCH  10  22
TORSDOF 6
ENDMDL
MODEL       71
REMARK 921   NORMALIZED FREE ENERGY PREDICTED BY IDOCK:   -5.49 KCAL/MOL
REMARK 922        TOTAL FREE ENERGY PREDICTED BY IDOCK:   -8.70 KCAL/MOL
REMARK 923 INTER-LIGAND FREE ENERGY PREDICTED BY IDOCK:   -7.22 KCAL/MOL
REMARK 924 INTRA-LIGAND FREE ENERGY PREDICTED BY IDOCK:   -1.48 KCAL/MOL
REMARK 927      BINDING AFFINITY PREDICTED BY RF-SCORE:    0.00 PKD
ROOT
HETATM    1  C   UNL     1      -7.062   5.821  68.145  1.00  0.00    -0.074 C  
HETATM    2  N   UNL     1      -7.764   6.730  67.276  1.00  0.00    -0.107 NA 
HETATM    3  C   UNL     1      -7.591   6.827  65.925  1.00  0.00    -0.087 A  
HETATM    4  N   UNL     1      -8.354   7.763  65.408  1.00  0.00    -0.142 NA 
HETATM    5  C   UNL     1      -9.051   8.291  66.471  1.00  0.00    -0.178 A  
HETATM    6  C   UNL     1      -9.995   9.325  66.514  1.00  0.00    -0.274 A  
HETATM    7  F   UNL     1     -10.367   9.900  65.360  1.00  0.00    -0.368 F  
HETATM    8  C   UNL     1     -10.566   9.749  67.748  1.00  0.00    -0.266 A  
HETATM    9  C   UNL     1      -9.324   7.957  68.875  1.00  0.00    -0.150 A  
HETATM   10  C   UNL     1     -10.298   8.988  68.907  1.00  0.00    -0.232 A  
HETATM   11  C   UNL     1      -8.709   7.647  67.654  1.00  0.00    -0.122 A  
ENDROOT
BRANCH   8  12
HETATM   12  N   UNL     1     -11.475  10.867  67.759  1.00  0.00    -0.513 NA 
HETATM   13  H   UNL     1     -12.426  10.713  68.094  1.00  0.00     0.000 HD 
BRANCH  12  14
HETATM   14  C   UNL     1     -11.115  12.185  67.326  1.00  0.00    -0.287 A  
HETATM   15 BR   UNL     1     -10.118  16.651  66.283  1.00  0.00    -0.358 Br 
HETATM   16  C   UNL     1     -11.828  12.858  66.323  1.00  0.00    -0.477 A  
HETATM   17  C   UNL     1      -9.680  14.145  67.569  1.00  0.00    -0.234 A  
HETATM   18  C   UNL     1     -10.002  12.828  67.886  1.00  0.00    -0.229 A  
HETATM   19  C   UNL     1     -10.470  14.831  66.652  1.00  0.00    -0.286 A  
HETATM   20  C   UNL     1     -11.530  14.190  66.012  1.00  0.00    -0.343 A  
HETATM   21  F   UNL     1      -9.261  12.176  68.796  1.00  0.00    -0.155 F  
ENDBRANCH  12  14
ENDBRANCH   8  12
BRANCH  10  22
HETATM   22  C   UNL     1     -11.048   9.101  70.209  1.00  0.00    -0.239 C  
HETATM   23  H   UNL     1     -11.285   7.020  70.356  1.00  0.00     0.000 HD 
HETATM   24  N   UNL     1     -11.454   7.926  70.794  1.00  0.00    -0.276 N  
HETATM   25  O   UNL     1     -11.196  10.204  70.735  1.00  0.00    -0.321 OA 
BRANCH  24  26
HETATM   26  O   UNL     1     -12.122   8.041  72.043  1.00  0.00    -0.301 OA 
BRANCH  26  27
HETATM   27  C   UNL     1     -13.525   7.854  71.796  1.00  0.00    -0.335 C  
BRANCH  27  28
HETATM   28  C   UNL     1     -14.351   8.978  72.417  1.00  0.00    -0.241 C  
HETATM   29  O   UNL     1     -13.606  10.189  72.518  1.00  0.00    -0.627 OA 
HETATM   30  H   UNL     1     -14.120  10.887  72.905  1.00  0.00     0.000 HD 
ENDBRANCH  27  28
ENDBRANCH  26  27
ENDBRANCH  24  26
ENDBRANCH  10  22
TORSDOF 6
ENDMDL
MODEL       72
REMARK 921   NORMALIZED FREE ENERGY PREDICTED BY IDOCK:   -5.49 KCAL/MOL
REMARK 922        TOTAL FREE ENERGY PREDICTED BY IDOCK:   -8.70 KCAL/MOL
REMARK 923 INTER-LIGAND FREE ENERGY PREDICTED BY IDOCK:   -7.48 KCAL/MOL
REMARK 924 INTRA-LIGAND FREE ENERGY PREDICTED BY IDOCK:   -1.21 KCAL/MOL
REMARK 927      BINDING AFFINITY PREDICTED BY RF-SCORE:    0.00 PKD
ROOT
HETATM    1  C   UNL     1     -12.551   8.796  72.397  1.00  0.00    -0.363 C  
HETATM    2  N   UNL     1     -11.853   8.930  71.143  1.00  0.00    -0.291 NA 
HETATM    3  C   UNL     1     -11.297   7.906  70.433  1.00  0.00    -0.194 A  
HETATM    4  N   UNL     1     -10.708   8.341  69.342  1.00  0.00    -0.195 NA 
HETATM    5  C   UNL     1     -10.893   9.704  69.348  1.00  0.00    -0.217 A  
HETATM    6  C   UNL     1     -10.468  10.683  68.441  1.00  0.00    -0.188 A  
HETATM    7  F   UNL     1      -9.817  10.290  67.335  1.00  0.00    -0.182 F  
HETATM    8  C   UNL     1     -10.734  12.064  68.669  1.00  0.00    -0.236 A  
HETATM    9  C   UNL     1     -12.003  11.431  70.673  1.00  0.00    -0.413 A  
HETATM   10  C   UNL     1     -11.590  12.414  69.736  1.00  0.00    -0.302 A  
HETATM   11  C   UNL     1     -11.625  10.098  70.462  1.00  0.00    -0.329 A  
ENDROOT
BRANCH   8  12
HETATM   12  N   UNL     1     -10.213  13.045  67.752  1.00  0.00    -0.223 NA 
HETATM   13  H   UNL     1     -10.599  13.076  66.808  1.00  0.00     0.000 HD 
BRANCH  12  14
HETATM   14  C   UNL     1      -9.183  13.980  68.093  1.00  0.00    -0.196 A  
HETATM   15 BR   UNL     1      -5.655  16.996  68.796  1.00  0.00    -0.141 Br 
HETATM   16  C   UNL     1      -8.086  13.620  68.890  1.00  0.00     0.093 A  
HETATM   17  C   UNL     1      -8.240  16.222  67.875  1.00  0.00    -0.156 A  
HETATM   18  C   UNL     1      -9.268  15.310  67.653  1.00  0.00    -0.187 A  
HETATM   19  C   UNL     1      -7.109  15.809  68.573  1.00  0.00    -0.118 A  
HETATM   20  C   UNL     1      -7.034  14.520  69.099  1.00  0.00    -0.131 A  
HETATM   21  F   UNL     1     -10.343  15.697  66.950  1.00  0.00    -0.266 F  
ENDBRANCH  12  14
ENDBRANCH   8  12
BRANCH  10  22
HETATM   22  C   UNL     1     -12.219  13.768  69.932  1.00  0.00    -0.321 C  
HETATM   23  H   UNL     1     -12.336  13.513  72.012  1.00  0.00     0.000 HD 
HETATM   24  N   UNL     1     -12.509  14.137  71.224  1.00  0.00    -0.352 N  
HETATM   25  O   UNL     1     -12.373  14.516  68.966  1.00  0.00    -0.225 OA 
BRANCH  24  26
HETATM   26  O   UNL     1     -13.061  15.434  71.402  1.00  0.00    -0.419 OA 
BRANCH  26  27
HETATM   27  C   UNL     1     -12.091  16.216  72.117  1.00  0.00    -0.512 C  
BRANCH  27  28
HETATM   28  C   UNL     1     -12.291  16.102  73.626  1.00  0.00    -0.562 C  
HETATM   29  O   UNL     1     -13.656  16.283  73.994  1.00  0.00    -0.856 OA 
HETATM   30  H   UNL     1     -13.780  16.212  74.933  1.00  0.00     0.000 HD 
ENDBRANCH  27  28
ENDBRANCH  26  27
ENDBRANCH  24  26
ENDBRANCH  10  22
TORSDOF 6
ENDMDL
MODEL       73
REMARK 921   NORMALIZED FREE ENERGY PREDICTED BY IDOCK:   -5.47 KCAL/MOL
REMARK 922        TOTAL FREE ENERGY PREDICTED BY IDOCK:   -8.68 KCAL/MOL
REMARK 923 INTER-LIGAND FREE ENERGY PREDICTED BY IDOCK:   -7.51 KCAL/MOL
REMARK 924 INTRA-LIGAND FREE ENERGY PREDICTED BY IDOCK:   -1.16 KCAL/MOL
REMARK 927      BINDING AFFINITY PREDICTED BY RF-SCORE:    0.00 PKD
ROOT
HETATM    1  C   UNL     1     -13.106  13.937  72.200  1.00  0.00    -0.406 C  
HETATM    2  N   UNL     1     -12.812  12.779  71.394  1.00  0.00    -0.339 NA 
HETATM    3  C   UNL     1     -12.918  11.481  71.803  1.00  0.00    -0.394 A  
HETATM    4  N   UNL     1     -12.559  10.647  70.854  1.00  0.00    -0.375 NA 
HETATM    5  C   UNL     1     -12.206  11.441  69.787  1.00  0.00    -0.265 A  
HETATM    6  C   UNL     1     -11.732  11.095  68.515  1.00  0.00    -0.298 A  
HETATM    7  F   UNL     1     -11.634   9.794  68.201  1.00  0.00    -0.146 F  
HETATM    8  C   UNL     1     -11.378  12.095  67.564  1.00  0.00    -0.326 A  
HETATM    9  C   UNL     1     -12.141  13.800  69.156  1.00  0.00    -0.374 A  
HETATM   10  C   UNL     1     -11.685  13.441  67.862  1.00  0.00    -0.396 A  
HETATM   11  C   UNL     1     -12.373  12.785  70.096  1.00  0.00    -0.165 A  
ENDROOT
BRANCH   8  12
HETATM   12  N   UNL     1     -10.822  11.699  66.295  1.00  0.00    -0.277 NA 
HETATM   13  H   UNL     1     -11.308  11.983  65.445  1.00  0.00     0.000 HD 
BRANCH  12  14
HETATM   14  C   UNL     1      -9.622  10.927  66.163  1.00  0.00    -0.202 A  
HETATM   15 BR   UNL     1      -5.594   8.649  65.376  1.00  0.00    -0.047 Br 
HETATM   16  C   UNL     1      -9.631   9.619  65.655  1.00  0.00    -0.338 A  
HETATM   17  C   UNL     1      -7.193  10.790  66.371  1.00  0.00    -0.138 A  
HETATM   18  C   UNL     1      -8.394  11.464  66.576  1.00  0.00    -0.164 A  
HETATM   19  C   UNL     1      -7.217   9.538  65.762  1.00  0.00    -0.097 A  
HETATM   20  C   UNL     1      -8.429   8.941  65.421  1.00  0.00    -0.176 A  
HETATM   21  F   UNL     1      -8.369  12.685  67.132  1.00  0.00    -0.165 F  
ENDBRANCH  12  14
ENDBRANCH   8  12
BRANCH  10  22
HETATM   22  C   UNL     1     -11.670  14.572  66.868  1.00  0.00    -0.382 C  
HETATM   23  H   UNL     1     -10.421  15.744  68.082  1.00  0.00     0.000 HD 
HETATM   24  N   UNL     1     -10.920  15.677  67.195  1.00  0.00    -0.304 N  
HETATM   25  O   UNL     1     -12.244  14.443  65.786  1.00  0.00    -0.389 OA 
BRANCH  24  26
HETATM   26  O   UNL     1     -10.877  16.719  66.231  1.00  0.00    -0.161 OA 
BRANCH  26  27
HETATM   27  C   UNL     1     -10.318  17.874  66.876  1.00  0.00    -0.355 C  
BRANCH  27  28
HETATM   28  C   UNL     1     -10.349  17.730  68.396  1.00  0.00    -0.376 C  
HETATM   29  O   UNL     1     -10.448  18.994  69.046  1.00  0.00    -0.460 OA 
HETATM   30  H   UNL     1     -10.467  18.904  69.991  1.00  0.00     0.000 HD 
ENDBRANCH  27  28
ENDBRANCH  26  27
ENDBRANCH  24  26
ENDBRANCH  10  22
TORSDOF 6
ENDMDL
MODEL       74
REMARK 921   NORMALIZED FREE ENERGY PREDICTED BY IDOCK:   -5.46 KCAL/MOL
REMARK 922        TOTAL FREE ENERGY PREDICTED BY IDOCK:   -8.66 KCAL/MOL
REMARK 923 INTER-LIGAND FREE ENERGY PREDICTED BY IDOCK:   -7.65 KCAL/MOL
REMARK 924 INTRA-LIGAND FREE ENERGY PREDICTED BY IDOCK:   -1.00 KCAL/MOL
REMARK 927      BINDING AFFINITY PREDICTED BY RF-SCORE:    0.00 PKD
ROOT
HETATM    1  C   UNL     1     -11.199   7.966  70.675  1.00  0.00    -0.263 C  
HETATM    2  N   UNL     1      -9.996   8.727  70.453  1.00  0.00    -0.182 NA 
HETATM    3  C   UNL     1      -8.856   8.641  71.199  1.00  0.00    -0.199 A  
HETATM    4  N   UNL     1      -7.936   9.475  70.770  1.00  0.00    -0.298 NA 
HETATM    5  C   UNL     1      -8.507  10.127  69.701  1.00  0.00    -0.157 A  
HETATM    6  C   UNL     1      -7.994  11.130  68.869  1.00  0.00    -0.126 A  
HETATM    7  F   UNL     1      -6.727  11.530  69.056  1.00  0.00    -0.068 F  
HETATM    8  C   UNL     1      -8.786  11.706  67.834  1.00  0.00    -0.155 A  
HETATM    9  C   UNL     1     -10.574  10.121  68.398  1.00  0.00    -0.249 A  
HETATM   10  C   UNL     1     -10.038  11.120  67.545  1.00  0.00    -0.210 A  
HETATM   11  C   UNL     1      -9.796   9.662  69.471  1.00  0.00    -0.206 A  
ENDROOT
BRANCH   8  12
HETATM   12  N   UNL     1      -8.248  12.789  67.051  1.00  0.00    -0.345 NA 
HETATM   13  H   UNL     1      -7.518  12.578  66.371  1.00  0.00     0.000 HD 
BRANCH  12  14
HETATM   14  C   UNL     1      -8.684  14.148  67.176  1.00  0.00    -0.224 A  
HETATM   15 BR   UNL     1     -10.376  18.464  67.915  1.00  0.00    -0.426 Br 
HETATM   16  C   UNL     1      -9.571  14.733  66.260  1.00  0.00    -0.339 A  
HETATM   17  C   UNL     1      -8.673  16.238  68.439  1.00  0.00    -0.205 A  
HETATM   18  C   UNL     1      -8.198  14.948  68.221  1.00  0.00    -0.145 A  
HETATM   19  C   UNL     1      -9.637  16.756  67.580  1.00  0.00    -0.240 A  
HETATM   20  C   UNL     1     -10.075  16.020  66.481  1.00  0.00    -0.297 A  
HETATM   21  F   UNL     1      -7.292  14.434  69.069  1.00  0.00    -0.111 F  
ENDBRANCH  12  14
ENDBRANCH   8  12
BRANCH  10  22
HETATM   22  C   UNL     1     -10.855  11.391  66.309  1.00  0.00    -0.263 C  
HETATM   23  H   UNL     1      -9.376  10.598  65.047  1.00  0.00     0.000 HD 
HETATM   24  N   UNL     1     -10.306  11.014  65.106  1.00  0.00    -0.281 N  
HETATM   25  O   UNL     1     -11.992  11.851  66.417  1.00  0.00    -0.572 OA 
BRANCH  24  26
HETATM   26  O   UNL     1     -11.103  11.233  63.952  1.00  0.00    -0.380 OA 
BRANCH  26  27
HETATM   27  C   UNL     1     -10.950  12.614  63.584  1.00  0.00    -0.416 C  
BRANCH  27  28
HETATM   28  C   UNL     1     -12.298  13.251  63.250  1.00  0.00    -0.238 C  
HETATM   29  O   UNL     1     -12.324  14.637  63.583  1.00  0.00    -1.060 OA 
HETATM   30  H   UNL     1     -13.162  15.033  63.376  1.00  0.00     0.000 HD 
ENDBRANCH  27  28
ENDBRANCH  26  27
ENDBRANCH  24  26
ENDBRANCH  10  22
TORSDOF 6
ENDMDL
MODEL       75
REMARK 921   NORMALIZED FREE ENERGY PREDICTED BY IDOCK:   -5.46 KCAL/MOL
REMARK 922        TOTAL FREE ENERGY PREDICTED BY IDOCK:   -8.65 KCAL/MOL
REMARK 923 INTER-LIGAND FREE ENERGY PREDICTED BY IDOCK:   -8.08 KCAL/MOL
REMARK 924 INTRA-LIGAND FREE ENERGY PREDICTED BY IDOCK:   -0.57 KCAL/MOL
REMARK 927      BINDING AFFINITY PREDICTED BY RF-SCORE:    0.00 PKD
ROOT
HETATM    1  C   UNL     1     -10.419   7.929  66.860  1.00  0.00    -0.318 C  
HETATM    2  N   UNL     1     -10.304   9.328  66.534  1.00  0.00    -0.238 NA 
HETATM    3  C   UNL     1      -9.880   9.830  65.338  1.00  0.00    -0.295 A  
HETATM    4  N   UNL     1      -9.859  11.143  65.347  1.00  0.00    -0.228 NA 
HETATM    5  C   UNL     1     -10.289  11.504  66.604  1.00  0.00    -0.226 A  
HETATM    6  C   UNL     1     -10.450  12.770  67.180  1.00  0.00    -0.233 A  
HETATM    7  F   UNL     1     -10.217  13.853  66.421  1.00  0.00    -0.266 F  
HETATM    8  C   UNL     1     -10.870  12.916  68.533  1.00  0.00    -0.257 A  
HETATM    9  C   UNL     1     -11.110  10.477  68.662  1.00  0.00    -0.319 A  
HETATM   10  C   UNL     1     -11.294  11.764  69.230  1.00  0.00    -0.348 A  
HETATM   11  C   UNL     1     -10.591  10.381  67.363  1.00  0.00    -0.269 A  
ENDROOT
BRANCH   8  12
HETATM   12  N   UNL     1     -10.949  14.233  69.111  1.00  0.00    -0.259 NA 
HETATM   13  H   UNL     1     -11.777  14.472  69.658  1.00  0.00     0.000 HD 
BRANCH  12  14
HETATM   14  C   UNL     1      -9.929  15.228  68.959  1.00  0.00    -0.229 A  
HETATM   15 BR   UNL     1      -6.573  18.375  68.031  1.00  0.00    -0.217 Br 
HETATM   16  C   UNL     1      -8.613  15.016  69.397  1.00  0.00    -0.121 A  
HETATM   17  C   UNL     1      -9.258  17.422  68.126  1.00  0.00    -0.270 A  
HETATM   18  C   UNL     1     -10.239  16.470  68.386  1.00  0.00    -0.266 A  
HETATM   19  C   UNL     1      -7.939  17.144  68.468  1.00  0.00    -0.259 A  
HETATM   20  C   UNL     1      -7.613  15.955  69.120  1.00  0.00    -0.213 A  
HETATM   21  F   UNL     1     -11.507  16.723  68.025  1.00  0.00    -0.284 F  
ENDBRANCH  12  14
ENDBRANCH   8  12
BRANCH  10  22
HETATM   22  C   UNL     1     -12.049  11.770  70.534  1.00  0.00    -0.347 C  
HETATM   23  H   UNL     1     -12.558  13.796  70.334  1.00  0.00     0.000 HD 
HETATM   24  N   UNL     1     -12.645  12.953  70.900  1.00  0.00    -0.320 N  
HETATM   25  O   UNL     1     -12.175  10.724  71.172  1.00  0.00    -0.348 OA 
BRANCH  24  26
HETATM   26  O   UNL     1     -13.391  12.935  72.109  1.00  0.00    -0.512 OA 
BRANCH  26  27
HETATM   27  C   UNL     1     -13.654  14.302  72.468  1.00  0.00    -0.520 C  
BRANCH  27  28
HETATM   28  C   UNL     1     -12.402  15.164  72.321  1.00  0.00    -0.363 C  
HETATM   29  O   UNL     1     -12.539  16.122  71.275  1.00  0.00    -0.555 OA 
HETATM   30  H   UNL     1     -11.760  16.657  71.183  1.00  0.00     0.000 HD 
ENDBRANCH  27  28
ENDBRANCH  26  27
ENDBRANCH  24  26
ENDBRANCH  10  22
TORSDOF 6
ENDMDL
MODEL       76
REMARK 921   NORMALIZED FREE ENERGY PREDICTED BY IDOCK:   -5.46 KCAL/MOL
REMARK 922        TOTAL FREE ENERGY PREDICTED BY IDOCK:   -8.65 KCAL/MOL
REMARK 923 INTER-LIGAND FREE ENERGY PREDICTED BY IDOCK:   -7.36 KCAL/MOL
REMARK 924 INTRA-LIGAND FREE ENERGY PREDICTED BY IDOCK:   -1.29 KCAL/MOL
REMARK 927      BINDING AFFINITY PREDICTED BY RF-SCORE:    0.00 PKD
ROOT
HETATM    1  C   UNL     1      -6.707   8.467  70.717  1.00  0.00    -0.040 C  
HETATM    2  N   UNL     1      -7.299   8.637  69.414  1.00  0.00    -0.071 NA 
HETATM    3  C   UNL     1      -6.757   8.211  68.236  1.00  0.00    -0.064 A  
HETATM    4  N   UNL     1      -7.517   8.530  67.213  1.00  0.00    -0.092 NA 
HETATM    5  C   UNL     1      -8.597   9.189  67.755  1.00  0.00    -0.121 A  
HETATM    6  C   UNL     1      -9.714   9.765  67.137  1.00  0.00    -0.176 A  
HETATM    7  F   UNL     1      -9.841   9.644  65.806  1.00  0.00    -0.293 F  
HETATM    8  C   UNL     1     -10.706  10.449  67.897  1.00  0.00    -0.261 A  
HETATM    9  C   UNL     1      -9.496   9.821  69.938  1.00  0.00    -0.264 A  
HETATM   10  C   UNL     1     -10.635  10.381  69.305  1.00  0.00    -0.259 A  
HETATM   11  C   UNL     1      -8.492   9.254  69.139  1.00  0.00    -0.133 A  
ENDROOT
BRANCH   8  12
HETATM   12  N   UNL     1     -11.799  11.095  67.215  1.00  0.00    -0.444 NA 
HETATM   13  H   UNL     1     -12.679  10.587  67.125  1.00  0.00     0.000 HD 
BRANCH  12  14
HETATM   14  C   UNL     1     -11.716  12.411  66.655  1.00  0.00    -0.372 A  
HETATM   15 BR   UNL     1     -11.008  16.659  64.789  1.00  0.00     0.126 Br 
HETATM   16  C   UNL     1     -11.823  13.564  67.447  1.00  0.00    -0.423 A  
HETATM   17  C   UNL     1     -11.366  13.832  64.701  1.00  0.00    -0.382 A  
HETATM   18  C   UNL     1     -11.554  12.576  65.272  1.00  0.00    -0.364 A  
HETATM   19  C   UNL     1     -11.365  14.954  65.523  1.00  0.00    -0.339 A  
HETATM   20  C   UNL     1     -11.612  14.830  66.889  1.00  0.00    -0.337 A  
HETATM   21  F   UNL     1     -11.522  11.490  64.484  1.00  0.00    -0.371 F  
ENDBRANCH  12  14
ENDBRANCH   8  12
BRANCH  10  22
HETATM   22  C   UNL     1     -11.745  10.770  70.247  1.00  0.00    -0.352 C  
HETATM   23  H   UNL     1     -12.097   8.776  70.801  1.00  0.00     0.000 HD 
HETATM   24  N   UNL     1     -12.357   9.752  70.939  1.00  0.00    -0.302 N  
HETATM   25  O   UNL     1     -12.006  11.960  70.426  1.00  0.00    -0.351 OA 
BRANCH  24  26
HETATM   26  O   UNL     1     -13.372  10.134  71.857  1.00  0.00    -0.416 OA 
BRANCH  26  27
HETATM   27  C   UNL     1     -14.071   8.940  72.241  1.00  0.00    -0.442 C  
BRANCH  27  28
HETATM   28  C   UNL     1     -13.530   7.718  71.502  1.00  0.00    -0.327 C  
HETATM   29  O   UNL     1     -13.270   6.634  72.390  1.00  0.00    -0.492 OA 
HETATM   30  H   UNL     1     -12.933   5.875  71.930  1.00  0.00     0.000 HD 
ENDBRANCH  27  28
ENDBRANCH  26  27
ENDBRANCH  24  26
ENDBRANCH  10  22
TORSDOF 6
ENDMDL
MODEL       77
REMARK 921   NORMALIZED FREE ENERGY PREDICTED BY IDOCK:   -5.45 KCAL/MOL
REMARK 922        TOTAL FREE ENERGY PREDICTED BY IDOCK:   -8.64 KCAL/MOL
REMARK 923 INTER-LIGAND FREE ENERGY PREDICTED BY IDOCK:   -7.56 KCAL/MOL
REMARK 924 INTRA-LIGAND FREE ENERGY PREDICTED BY IDOCK:   -1.08 KCAL/MOL
REMARK 927      BINDING AFFINITY PREDICTED BY RF-SCORE:    0.00 PKD
ROOT
HETATM    1  C   UNL     1      -6.747   8.499  73.404  1.00  0.00    -0.048 C  
HETATM    2  N   UNL     1      -6.821   8.938  72.034  1.00  0.00    -0.274 NA 
HETATM    3  C   UNL     1      -5.837   9.605  71.362  1.00  0.00    -0.050 A  
HETATM    4  N   UNL     1      -6.203   9.892  70.133  1.00  0.00    -0.063 NA 
HETATM    5  C   UNL     1      -7.477   9.387  70.007  1.00  0.00    -0.107 A  
HETATM    6  C   UNL     1      -8.362   9.414  68.921  1.00  0.00    -0.120 A  
HETATM    7  F   UNL     1      -7.942   9.958  67.768  1.00  0.00    -0.102 F  
HETATM    8  C   UNL     1      -9.671   8.863  69.024  1.00  0.00    -0.171 A  
HETATM    9  C   UNL     1      -9.118   8.116  71.295  1.00  0.00    -0.185 A  
HETATM   10  C   UNL     1      -9.998   8.126  70.183  1.00  0.00    -0.187 A  
HETATM   11  C   UNL     1      -7.881   8.767  71.183  1.00  0.00    -0.134 A  
ENDROOT
BRANCH   8  12
HETATM   12  N   UNL     1     -10.577   8.980  67.909  1.00  0.00    -0.374 NA 
HETATM   13  H   UNL     1     -11.051   8.138  67.582  1.00  0.00     0.000 HD 
BRANCH  12  14
HETATM   14  C   UNL     1     -10.848  10.215  67.236  1.00  0.00    -0.230 A  
HETATM   15 BR   UNL     1     -12.156  14.119  64.982  1.00  0.00    -0.456 Br 
HETATM   16  C   UNL     1     -10.427  10.452  65.919  1.00  0.00    -0.196 A  
HETATM   17  C   UNL     1     -11.902  12.417  67.256  1.00  0.00    -0.357 A  
HETATM   18  C   UNL     1     -11.528  11.244  67.904  1.00  0.00    -0.288 A  
HETATM   19  C   UNL     1     -11.569  12.583  65.915  1.00  0.00    -0.405 A  
HETATM   20  C   UNL     1     -10.818  11.617  65.248  1.00  0.00    -0.340 A  
HETATM   21  F   UNL     1     -11.877  11.068  69.188  1.00  0.00    -0.300 F  
ENDBRANCH  12  14
ENDBRANCH   8  12
BRANCH  10  22
HETATM   22  C   UNL     1     -11.199   7.228  70.327  1.00  0.00    -0.262 C  
HETATM   23  H   UNL     1     -11.819   8.187  72.089  1.00  0.00     0.000 HD 
HETATM   24  N   UNL     1     -12.023   7.461  71.402  1.00  0.00    -0.296 N  
HETATM   25  O   UNL     1     -11.445   6.392  69.457  1.00  0.00    -0.407 OA 
BRANCH  24  26
HETATM   26  O   UNL     1     -13.176   6.637  71.504  1.00  0.00    -0.214 OA 
BRANCH  26  27
HETATM   27  C   UNL     1     -14.324   7.493  71.388  1.00  0.00    -0.394 C  
BRANCH  27  28
HETATM   28  C   UNL     1     -14.049   8.873  71.981  1.00  0.00    -0.411 C  
HETATM   29  O   UNL     1     -14.353   8.921  73.373  1.00  0.00    -1.192 OA 
HETATM   30  H   UNL     1     -14.182   9.779  73.742  1.00  0.00     0.000 HD 
ENDBRANCH  27  28
ENDBRANCH  26  27
ENDBRANCH  24  26
ENDBRANCH  10  22
TORSDOF 6
ENDMDL
MODEL       78
REMARK 921   NORMALIZED FREE ENERGY PREDICTED BY IDOCK:   -5.43 KCAL/MOL
REMARK 922        TOTAL FREE ENERGY PREDICTED BY IDOCK:   -8.62 KCAL/MOL
REMARK 923 INTER-LIGAND FREE ENERGY PREDICTED BY IDOCK:   -7.40 KCAL/MOL
REMARK 924 INTRA-LIGAND FREE ENERGY PREDICTED BY IDOCK:   -1.21 KCAL/MOL
REMARK 927      BINDING AFFINITY PREDICTED BY RF-SCORE:    0.00 PKD
ROOT
HETATM    1  C   UNL     1      -8.897   6.627  66.017  1.00  0.00    -0.139 C  
HETATM    2  N   UNL     1      -8.108   7.710  66.546  1.00  0.00    -0.115 NA 
HETATM    3  C   UNL     1      -6.766   7.666  66.792  1.00  0.00    -0.066 A  
HETATM    4  N   UNL     1      -6.332   8.799  67.295  1.00  0.00    -0.056 NA 
HETATM    5  C   UNL     1      -7.441   9.609  67.377  1.00  0.00    -0.091 A  
HETATM    6  C   UNL     1      -7.576  10.920  67.850  1.00  0.00    -0.095 A  
HETATM    7  F   UNL     1      -6.473  11.571  68.254  1.00  0.00    -0.052 F  
HETATM    8  C   UNL     1      -8.847  11.563  67.889  1.00  0.00    -0.152 A  
HETATM    9  C   UNL     1      -9.818   9.582  66.814  1.00  0.00    -0.277 A  
HETATM   10  C   UNL     1      -9.941  10.919  67.272  1.00  0.00    -0.216 A  
HETATM   11  C   UNL     1      -8.568   8.953  66.897  1.00  0.00    -0.115 A  
ENDROOT
BRANCH   8  12
HETATM   12  N   UNL     1      -8.955  12.884  68.455  1.00  0.00    -0.320 NA 
HETATM   13  H   UNL     1      -9.391  12.982  69.371  1.00  0.00     0.000 HD 
BRANCH  12  14
HETATM   14  C   UNL     1      -8.482  14.067  67.799  1.00  0.00    -0.184 A  
HETATM   15 BR   UNL     1      -7.092  18.173  65.998  1.00  0.00    -0.305 Br 
HETATM   16  C   UNL     1      -9.146  14.622  66.695  1.00  0.00    -0.285 A  
HETATM   17  C   UNL     1      -6.866  15.895  67.698  1.00  0.00    -0.191 A  
HETATM   18  C   UNL     1      -7.304  14.689  68.239  1.00  0.00    -0.117 A  
HETATM   19  C   UNL     1      -7.605  16.485  66.677  1.00  0.00    -0.275 A  
HETATM   20  C   UNL     1      -8.731  15.846  66.159  1.00  0.00    -0.328 A  
HETATM   21  F   UNL     1      -6.611  14.136  69.247  1.00  0.00    -0.096 F  
ENDBRANCH  12  14
ENDBRANCH   8  12
BRANCH  10  22
HETATM   22  C   UNL     1     -11.259  11.572  66.948  1.00  0.00    -0.298 C  
HETATM   23  H   UNL     1     -10.670  11.991  64.977  1.00  0.00     0.000 HD 
HETATM   24  N   UNL     1     -11.418  12.048  65.668  1.00  0.00    -0.339 N  
HETATM   25  O   UNL     1     -12.159  11.585  67.788  1.00  0.00    -0.626 OA 
BRANCH  24  26
HETATM   26  O   UNL     1     -12.680  12.623  65.360  1.00  0.00    -0.635 OA 
BRANCH  26  27
HETATM   27  C   UNL     1     -12.553  14.045  65.524  1.00  0.00    -0.516 C  
BRANCH  27  28
HETATM   28  C   UNL     1     -11.938  14.692  64.285  1.00  0.00    -0.386 C  
HETATM   29  O   UNL     1     -12.421  14.098  63.082  1.00  0.00    -1.126 OA 
HETATM   30  H   UNL     1     -12.039  14.500  62.312  1.00  0.00     0.000 HD 
ENDBRANCH  27  28
ENDBRANCH  26  27
ENDBRANCH  24  26
ENDBRANCH  10  22
TORSDOF 6
ENDMDL
MODEL       79
REMARK 921   NORMALIZED FREE ENERGY PREDICTED BY IDOCK:   -5.43 KCAL/MOL
REMARK 922        TOTAL FREE ENERGY PREDICTED BY IDOCK:   -8.61 KCAL/MOL
REMARK 923 INTER-LIGAND FREE ENERGY PREDICTED BY IDOCK:   -7.14 KCAL/MOL
REMARK 924 INTRA-LIGAND FREE ENERGY PREDICTED BY IDOCK:   -1.48 KCAL/MOL
REMARK 927      BINDING AFFINITY PREDICTED BY RF-SCORE:    0.00 PKD
ROOT
HETATM    1  C   UNL     1     -12.084   6.310  72.252  1.00  0.00    -0.206 C  
HETATM    2  N   UNL     1     -12.418   7.692  72.024  1.00  0.00    -0.293 NA 
HETATM    3  C   UNL     1     -13.522   8.331  72.511  1.00  0.00    -0.038 A  
HETATM    4  N   UNL     1     -13.568   9.583  72.115  1.00  0.00    -0.438 NA 
HETATM    5  C   UNL     1     -12.444   9.760  71.341  1.00  0.00    -0.387 A  
HETATM    6  C   UNL     1     -11.985  10.888  70.649  1.00  0.00    -0.368 A  
HETATM    7  F   UNL     1     -12.679  12.032  70.761  1.00  0.00    -0.375 F  
HETATM    8  C   UNL     1     -10.802  10.837  69.859  1.00  0.00    -0.202 A  
HETATM    9  C   UNL     1     -10.469   8.523  70.606  1.00  0.00    -0.234 A  
HETATM   10  C   UNL     1      -9.999   9.678  69.929  1.00  0.00    -0.273 A  
HETATM   11  C   UNL     1     -11.696   8.590  71.282  1.00  0.00    -0.284 A  
ENDROOT
BRANCH   8  12
HETATM   12  N   UNL     1     -10.407  11.998  69.101  1.00  0.00    -0.427 NA 
HETATM   13  H   UNL     1      -9.829  12.701  69.562  1.00  0.00     0.000 HD 
BRANCH  12  14
HETATM   14  C   UNL     1     -10.781  12.217  67.736  1.00  0.00    -0.209 A  
HETATM   15 BR   UNL     1     -12.369  12.689  63.344  1.00  0.00    -0.443 Br 
HETATM   16  C   UNL     1     -10.154  11.546  66.675  1.00  0.00    -0.242 A  
HETATM   17  C   UNL     1     -12.247  13.317  66.123  1.00  0.00    -0.466 A  
HETATM   18  C   UNL     1     -11.782  13.149  67.424  1.00  0.00    -0.370 A  
HETATM   19  C   UNL     1     -11.684  12.557  65.101  1.00  0.00    -0.378 A  
HETATM   20  C   UNL     1     -10.628  11.688  65.366  1.00  0.00    -0.331 A  
HETATM   21  F   UNL     1     -12.347  13.856  68.415  1.00  0.00    -0.393 F  
ENDBRANCH  12  14
ENDBRANCH   8  12
BRANCH  10  22
HETATM   22  C   UNL     1      -8.586   9.571  69.418  1.00  0.00    -0.159 C  
HETATM   23  H   UNL     1      -9.021   7.843  68.309  1.00  0.00     0.000 HD 
HETATM   24  N   UNL     1      -8.312   8.530  68.563  1.00  0.00    -0.123 N  
HETATM   25  O   UNL     1      -7.765  10.442  69.706  1.00  0.00    -0.158 OA 
BRANCH  24  26
HETATM   26  O   UNL     1      -6.988   8.465  68.053  1.00  0.00    -0.077 OA 
BRANCH  26  27
HETATM   27  C   UNL     1      -7.084   8.135  66.658  1.00  0.00    -0.077 C  
BRANCH  27  28
HETATM   28  C   UNL     1      -6.641   9.303  65.780  1.00  0.00    -0.069 C  
HETATM   29  O   UNL     1      -7.704   9.783  64.960  1.00  0.00    -0.114 OA 
HETATM   30  H   UNL     1      -7.428  10.509  64.414  1.00  0.00     0.000 HD 
ENDBRANCH  27  28
ENDBRANCH  26  27
ENDBRANCH  24  26
ENDBRANCH  10  22
TORSDOF 6
ENDMDL
MODEL       80
REMARK 921   NORMALIZED FREE ENERGY PREDICTED BY IDOCK:   -5.41 KCAL/MOL
REMARK 922        TOTAL FREE ENERGY PREDICTED BY IDOCK:   -8.59 KCAL/MOL
REMARK 923 INTER-LIGAND FREE ENERGY PREDICTED BY IDOCK:   -7.29 KCAL/MOL
REMARK 924 INTRA-LIGAND FREE ENERGY PREDICTED BY IDOCK:   -1.30 KCAL/MOL
REMARK 927      BINDING AFFINITY PREDICTED BY RF-SCORE:    0.00 PKD
ROOT
HETATM    1  C   UNL     1      -7.830  18.258  68.615  1.00  0.00    -0.296 C  
HETATM    2  N   UNL     1      -7.709  16.934  68.060  1.00  0.00    -0.173 NA 
HETATM    3  C   UNL     1      -6.621  16.451  67.392  1.00  0.00    -0.172 A  
HETATM    4  N   UNL     1      -6.815  15.217  66.984  1.00  0.00    -0.199 NA 
HETATM    5  C   UNL     1      -8.083  14.890  67.407  1.00  0.00    -0.196 A  
HETATM    6  C   UNL     1      -8.820  13.711  67.242  1.00  0.00    -0.224 A  
HETATM    7  F   UNL     1      -8.234  12.672  66.626  1.00  0.00    -0.138 F  
HETATM    8  C   UNL     1     -10.154  13.602  67.728  1.00  0.00    -0.242 A  
HETATM    9  C   UNL     1      -9.927  15.848  68.692  1.00  0.00    -0.214 A  
HETATM   10  C   UNL     1     -10.658  14.641  68.540  1.00  0.00    -0.245 A  
HETATM   11  C   UNL     1      -8.660  15.947  68.101  1.00  0.00    -0.169 A  
ENDROOT
BRANCH   8  12
HETATM   12  N   UNL     1     -10.905  12.399  67.470  1.00  0.00    -0.230 NA 
HETATM   13  H   UNL     1     -11.794  12.482  66.976  1.00  0.00     0.000 HD 
BRANCH  12  14
HETATM   14  C   UNL     1     -10.470  11.093  67.868  1.00  0.00    -0.190 A  
HETATM   15 BR   UNL     1      -9.471   6.686  69.138  1.00  0.00    -0.136 Br 
HETATM   16  C   UNL     1     -10.141  10.792  69.198  1.00  0.00    -0.224 A  
HETATM   17  C   UNL     1     -10.015   8.771  67.270  1.00  0.00    -0.281 A  
HETATM   18  C   UNL     1     -10.334  10.077  66.911  1.00  0.00    -0.234 A  
HETATM   19  C   UNL     1      -9.801   8.472  68.612  1.00  0.00    -0.170 A  
HETATM   20  C   UNL     1      -9.843   9.478  69.576  1.00  0.00    -0.205 A  
HETATM   21  F   UNL     1     -10.573  10.359  65.621  1.00  0.00    -0.299 F  
ENDBRANCH  12  14
ENDBRANCH   8  12
BRANCH  10  22
HETATM   22  C   UNL     1     -11.904  14.555  69.382  1.00  0.00    -0.325 C  
HETATM   23  H   UNL     1     -11.812  16.590  69.889  1.00  0.00     0.000 HD 
HETATM   24  N   UNL     1     -12.330  15.716  69.982  1.00  0.00    -0.340 N  
HETATM   25  O   UNL     1     -12.533  13.497  69.436  1.00  0.00    -0.199 OA 
BRANCH  24  26
HETATM   26  O   UNL     1     -13.531  15.633  70.736  1.00  0.00    -0.536 OA 
BRANCH  26  27
HETATM   27  C   UNL     1     -13.174  15.766  72.122  1.00  0.00    -0.428 C  
BRANCH  27  28
HETATM   28  C   UNL     1     -13.116  14.406  72.812  1.00  0.00    -0.505 C  
HETATM   29  O   UNL     1     -14.238  13.593  72.476  1.00  0.00    -0.724 OA 
HETATM   30  H   UNL     1     -14.202  12.747  72.906  1.00  0.00     0.000 HD 
ENDBRANCH  27  28
ENDBRANCH  26  27
ENDBRANCH  24  26
ENDBRANCH  10  22
TORSDOF 6
ENDMDL
MODEL       81
REMARK 921   NORMALIZED FREE ENERGY PREDICTED BY IDOCK:   -5.41 KCAL/MOL
REMARK 922        TOTAL FREE ENERGY PREDICTED BY IDOCK:   -8.59 KCAL/MOL
REMARK 923 INTER-LIGAND FREE ENERGY PREDICTED BY IDOCK:   -7.27 KCAL/MOL
REMARK 924 INTRA-LIGAND FREE ENERGY PREDICTED BY IDOCK:   -1.31 KCAL/MOL
REMARK 927      BINDING AFFINITY PREDICTED BY RF-SCORE:    0.00 PKD
ROOT
HETATM    1  C   UNL     1      -9.973  15.512  68.202  1.00  0.00    -0.217 C  
HETATM    2  N   UNL     1     -10.786  14.538  68.885  1.00  0.00    -0.246 NA 
HETATM    3  C   UNL     1     -11.734  14.818  69.827  1.00  0.00    -0.310 A  
HETATM    4  N   UNL     1     -12.294  13.722  70.287  1.00  0.00    -0.343 NA 
HETATM    5  C   UNL     1     -11.681  12.691  69.612  1.00  0.00    -0.303 A  
HETATM    6  C   UNL     1     -11.867  11.306  69.706  1.00  0.00    -0.364 A  
HETATM    7  F   UNL     1     -12.821  10.843  70.531  1.00  0.00    -0.375 F  
HETATM    8  C   UNL     1     -11.081  10.402  68.936  1.00  0.00    -0.247 A  
HETATM    9  C   UNL     1     -10.021  12.335  67.856  1.00  0.00    -0.202 A  
HETATM   10  C   UNL     1     -10.233  10.935  67.940  1.00  0.00    -0.205 A  
HETATM   11  C   UNL     1     -10.741  13.179  68.713  1.00  0.00    -0.225 A  
ENDROOT
BRANCH   8  12
HETATM   12  N   UNL     1     -11.250   8.983  69.119  1.00  0.00    -0.430 NA 
HETATM   13  H   UNL     1     -11.663   8.444  68.359  1.00  0.00     0.000 HD 
BRANCH  12  14
HETATM   14  C   UNL     1     -10.869   8.288  70.313  1.00  0.00    -0.240 A  
HETATM   15 BR   UNL     1     -10.042   6.057  74.359  1.00  0.00    -0.323 Br 
HETATM   16  C   UNL     1     -10.122   8.905  71.327  1.00  0.00    -0.365 A  
HETATM   17  C   UNL     1     -10.957   6.258  71.666  1.00  0.00    -0.310 A  
HETATM   18  C   UNL     1     -11.217   6.939  70.480  1.00  0.00    -0.307 A  
HETATM   19  C   UNL     1     -10.313   6.926  72.702  1.00  0.00    -0.203 A  
HETATM   20  C   UNL     1      -9.876   8.239  72.533  1.00  0.00    -0.368 A  
HETATM   21  F   UNL     1     -11.869   6.306  69.493  1.00  0.00    -0.486 F  
ENDBRANCH  12  14
ENDBRANCH   8  12
BRANCH  10  22
HETATM   22  C   UNL     1      -9.577  10.136  66.844  1.00  0.00    -0.177 C  
HETATM   23  H   UNL     1      -7.650  10.647  67.499  1.00  0.00     0.000 HD 
HETATM   24  N   UNL     1      -8.203  10.119  66.824  1.00  0.00    -0.122 N  
HETATM   25  O   UNL     1     -10.271   9.472  66.073  1.00  0.00    -0.272 OA 
BRANCH  24  26
HETATM   26  O   UNL     1      -7.595   9.327  65.814  1.00  0.00    -0.096 OA 
BRANCH  26  27
HETATM   27  C   UNL     1      -7.144   8.114  66.437  1.00  0.00    -0.075 C  
BRANCH  27  28
HETATM   28  C   UNL     1      -7.685   6.884  65.710  1.00  0.00    -0.100 C  
HETATM   29  O   UNL     1      -9.107   6.905  65.621  1.00  0.00    -0.364 OA 
HETATM   30  H   UNL     1      -9.444   6.141  65.170  1.00  0.00     0.000 HD 
ENDBRANCH  27  28
ENDBRANCH  26  27
ENDBRANCH  24  26
ENDBRANCH  10  22
TORSDOF 6
ENDMDL
MODEL       82
REMARK 921   NORMALIZED FREE ENERGY PREDICTED BY IDOCK:   -5.40 KCAL/MOL
REMARK 922        TOTAL FREE ENERGY PREDICTED BY IDOCK:   -8.58 KCAL/MOL
REMARK 923 INTER-LIGAND FREE ENERGY PREDICTED BY IDOCK:   -7.38 KCAL/MOL
REMARK 924 INTRA-LIGAND FREE ENERGY PREDICTED BY IDOCK:   -1.20 KCAL/MOL
REMARK 927      BINDING AFFINITY PREDICTED BY RF-SCORE:    0.00 PKD
ROOT
HETATM    1  C   UNL     1      -9.607  10.213  63.053  1.00  0.00    -0.171 C  
HETATM    2  N   UNL     1     -10.103  11.372  63.751  1.00  0.00    -0.323 NA 
HETATM    3  C   UNL     1     -10.929  12.321  63.223  1.00  0.00    -0.311 A  
HETATM    4  N   UNL     1     -11.191  13.270  64.093  1.00  0.00    -0.386 NA 
HETATM    5  C   UNL     1     -10.505  12.917  65.232  1.00  0.00    -0.296 A  
HETATM    6  C   UNL     1     -10.406  13.563  66.471  1.00  0.00    -0.282 A  
HETATM    7  F   UNL     1     -11.114  14.687  66.664  1.00  0.00    -0.305 F  
HETATM    8  C   UNL     1      -9.590  13.037  67.513  1.00  0.00    -0.204 A  
HETATM    9  C   UNL     1      -9.099  11.107  66.079  1.00  0.00    -0.217 A  
HETATM   10  C   UNL     1      -9.024  11.755  67.338  1.00  0.00    -0.173 A  
HETATM   11  C   UNL     1      -9.826  11.718  65.048  1.00  0.00    -0.229 A  
ENDROOT
BRANCH   8  12
HETATM   12  N   UNL     1      -9.455  13.773  68.745  1.00  0.00    -0.394 NA 
HETATM   13  H   UNL     1      -8.516  14.019  69.060  1.00  0.00     0.000 HD 
BRANCH  12  14
HETATM   14  C   UNL     1     -10.567  14.178  69.552  1.00  0.00     0.043 A  
HETATM   15 BR   UNL     1     -13.935  15.500  72.543  1.00  0.00    -0.586 Br 
HETATM   16  C   UNL     1     -11.581  13.283  69.925  1.00  0.00    -0.260 A  
HETATM   17  C   UNL     1     -11.690  15.924  70.836  1.00  0.00    -0.456 A  
HETATM   18  C   UNL     1     -10.683  15.513  69.968  1.00  0.00    -0.318 A  
HETATM   19  C   UNL     1     -12.621  14.991  71.282  1.00  0.00    -0.339 A  
HETATM   20  C   UNL     1     -12.585  13.678  70.817  1.00  0.00    -0.397 A  
HETATM   21  F   UNL     1      -9.765  16.404  69.564  1.00  0.00    -0.237 F  
ENDBRANCH  12  14
ENDBRANCH   8  12
BRANCH  10  22
HETATM   22  C   UNL     1      -8.406  10.926  68.433  1.00  0.00    -0.136 C  
HETATM   23  H   UNL     1     -10.281  10.359  69.187  1.00  0.00     0.000 HD 
HETATM   24  N   UNL     1      -9.269  10.268  69.276  1.00  0.00    -0.200 N  
HETATM   25  O   UNL     1      -7.182  10.799  68.487  1.00  0.00    -0.080 OA 
BRANCH  24  26
HETATM   26  O   UNL     1      -8.676   9.453  70.278  1.00  0.00    -0.193 OA 
BRANCH  26  27
HETATM   27  C   UNL     1      -9.702   9.133  71.231  1.00  0.00    -0.281 C  
BRANCH  27  28
HETATM   28  C   UNL     1     -11.083   9.527  70.712  1.00  0.00    -0.323 C  
HETATM   29  O   UNL     1     -11.902  10.069  71.745  1.00  0.00    -0.323 OA 
HETATM   30  H   UNL     1     -12.761  10.313  71.422  1.00  0.00     0.000 HD 
ENDBRANCH  27  28
ENDBRANCH  26  27
ENDBRANCH  24  26
ENDBRANCH  10  22
TORSDOF 6
ENDMDL
MODEL       83
REMARK 921   NORMALIZED FREE ENERGY PREDICTED BY IDOCK:   -5.39 KCAL/MOL
REMARK 922        TOTAL FREE ENERGY PREDICTED BY IDOCK:   -8.56 KCAL/MOL
REMARK 923 INTER-LIGAND FREE ENERGY PREDICTED BY IDOCK:   -7.44 KCAL/MOL
REMARK 924 INTRA-LIGAND FREE ENERGY PREDICTED BY IDOCK:   -1.12 KCAL/MOL
REMARK 927      BINDING AFFINITY PREDICTED BY RF-SCORE:    0.00 PKD
ROOT
HETATM    1  C   UNL     1      -7.600   7.831  63.723  1.00  0.00    -0.118 C  
HETATM    2  N   UNL     1      -8.532   8.929  63.689  1.00  0.00    -0.172 NA 
HETATM    3  C   UNL     1      -8.883   9.636  62.575  1.00  0.00    -0.249 A  
HETATM    4  N   UNL     1      -9.736  10.594  62.862  1.00  0.00    -0.322 NA 
HETATM    5  C   UNL     1      -9.945  10.500  64.219  1.00  0.00    -0.331 A  
HETATM    6  C   UNL     1     -10.745  11.272  65.071  1.00  0.00    -0.256 A  
HETATM    7  F   UNL     1     -11.499  12.244  64.533  1.00  0.00    -0.339 F  
HETATM    8  C   UNL     1     -10.779  11.026  66.473  1.00  0.00    -0.241 A  
HETATM    9  C   UNL     1      -9.297   9.102  66.115  1.00  0.00    -0.288 A  
HETATM   10  C   UNL     1     -10.129   9.873  66.967  1.00  0.00    -0.275 A  
HETATM   11  C   UNL     1      -9.212   9.450  64.759  1.00  0.00    -0.156 A  
ENDROOT
BRANCH   8  12
HETATM   12  N   UNL     1     -11.555  11.891  67.324  1.00  0.00    -0.506 NA 
HETATM   13  H   UNL     1     -12.448  11.548  67.677  1.00  0.00     0.000 HD 
BRANCH  12  14
HETATM   14  C   UNL     1     -11.140  13.210  67.703  1.00  0.00    -0.270 A  
HETATM   15 BR   UNL     1      -9.587  17.559  68.542  1.00  0.00    -0.313 Br 
HETATM   16  C   UNL     1     -10.084  13.429  68.599  1.00  0.00    -0.162 A  
HETATM   17  C   UNL     1     -11.380  15.627  67.456  1.00  0.00    -0.198 A  
HETATM   18  C   UNL     1     -11.815  14.330  67.196  1.00  0.00    -0.425 A  
HETATM   19  C   UNL     1     -10.261  15.815  68.260  1.00  0.00    -0.225 A  
HETATM   20  C   UNL     1      -9.621  14.726  68.849  1.00  0.00    -0.210 A  
HETATM   21  F   UNL     1     -12.875  14.146  66.393  1.00  0.00    -0.456 F  
ENDBRANCH  12  14
ENDBRANCH   8  12
BRANCH  10  22
HETATM   22  C   UNL     1     -10.318   9.297  68.345  1.00  0.00    -0.209 C  
HETATM   23  H   UNL     1     -10.013  11.160  69.265  1.00  0.00     0.000 HD 
HETATM   24  N   UNL     1     -10.228  10.172  69.402  1.00  0.00    -0.214 N  
HETATM   25  O   UNL     1     -10.622   8.111  68.476  1.00  0.00    -0.186 OA 
BRANCH  24  26
HETATM   26  O   UNL     1     -10.452   9.627  70.694  1.00  0.00    -0.279 OA 
BRANCH  26  27
HETATM   27  C   UNL     1     -11.665  10.209  71.199  1.00  0.00    -0.366 C  
BRANCH  27  28
HETATM   28  C   UNL     1     -12.822   9.215  71.144  1.00  0.00    -0.195 C  
HETATM   29  O   UNL     1     -12.364   7.880  70.943  1.00  0.00    -0.482 OA 
HETATM   30  H   UNL     1     -13.084   7.262  70.908  1.00  0.00     0.000 HD 
ENDBRANCH  27  28
ENDBRANCH  26  27
ENDBRANCH  24  26
ENDBRANCH  10  22
TORSDOF 6
ENDMDL
MODEL       84
REMARK 921   NORMALIZED FREE ENERGY PREDICTED BY IDOCK:   -5.38 KCAL/MOL
REMARK 922        TOTAL FREE ENERGY PREDICTED BY IDOCK:   -8.54 KCAL/MOL
REMARK 923 INTER-LIGAND FREE ENERGY PREDICTED BY IDOCK:   -7.12 KCAL/MOL
REMARK 924 INTRA-LIGAND FREE ENERGY PREDICTED BY IDOCK:   -1.43 KCAL/MOL
REMARK 927      BINDING AFFINITY PREDICTED BY RF-SCORE:    0.00 PKD
ROOT
HETATM    1  C   UNL     1     -10.785  11.221  63.888  1.00  0.00    -0.384 C  
HETATM    2  N   UNL     1     -11.257  12.246  64.783  1.00  0.00    -0.309 NA 
HETATM    3  C   UNL     1     -12.541  12.704  64.854  1.00  0.00    -0.450 A  
HETATM    4  N   UNL     1     -12.663  13.658  65.749  1.00  0.00    -0.456 NA 
HETATM    5  C   UNL     1     -11.403  13.822  66.278  1.00  0.00    -0.321 A  
HETATM    6  C   UNL     1     -10.937  14.707  67.259  1.00  0.00    -0.317 A  
HETATM    7  F   UNL     1     -11.822  15.519  67.859  1.00  0.00    -0.333 F  
HETATM    8  C   UNL     1      -9.562  14.739  67.629  1.00  0.00    -0.208 A  
HETATM    9  C   UNL     1      -9.166  12.854  66.108  1.00  0.00    -0.027 A  
HETATM   10  C   UNL     1      -8.708  13.737  67.119  1.00  0.00    -0.231 A  
HETATM   11  C   UNL     1     -10.505  12.934  65.699  1.00  0.00    -0.277 A  
ENDROOT
BRANCH   8  12
HETATM   12  N   UNL     1      -9.110  15.718  68.585  1.00  0.00    -0.193 NA 
HETATM   13  H   UNL     1      -9.241  15.520  69.577  1.00  0.00     0.000 HD 
BRANCH  12  14
HETATM   14  C   UNL     1      -8.486  16.954  68.219  1.00  0.00    -0.229 A  
HETATM   15 BR   UNL     1      -6.609  21.176  67.391  1.00  0.00    -0.403 Br 
HETATM   16  C   UNL     1      -9.004  17.779  67.209  1.00  0.00    -0.246 A  
HETATM   17  C   UNL     1      -6.721  18.597  68.601  1.00  0.00    -0.283 A  
HETATM   18  C   UNL     1      -7.302  17.358  68.854  1.00  0.00    -0.244 A  
HETATM   19  C   UNL     1      -7.317  19.446  67.675  1.00  0.00    -0.245 A  
HETATM   20  C   UNL     1      -8.444  19.037  66.963  1.00  0.00    -0.300 A  
HETATM   21  F   UNL     1      -6.746  16.551  69.772  1.00  0.00    -0.217 F  
ENDBRANCH  12  14
ENDBRANCH   8  12
BRANCH  10  22
HETATM   22  C   UNL     1      -7.326  13.434  67.635  1.00  0.00    -0.168 C  
HETATM   23  H   UNL     1      -7.906  11.544  68.342  1.00  0.00     0.000 HD 
HETATM   24  N   UNL     1      -7.140  12.208  68.228  1.00  0.00    -0.077 N  
HETATM   25  O   UNL     1      -6.411  14.235  67.441  1.00  0.00    -0.307 OA 
BRANCH  24  26
HETATM   26  O   UNL     1      -5.822  11.914  68.671  1.00  0.00    -0.049 OA 
BRANCH  26  27
HETATM   27  C   UNL     1      -5.866  11.819  70.104  1.00  0.00    -0.156 C  
BRANCH  27  28
HETATM   28  C   UNL     1      -5.296  13.075  70.760  1.00  0.00    -0.167 C  
HETATM   29  O   UNL     1      -6.315  13.858  71.378  1.00  0.00    -0.520 OA 
HETATM   30  H   UNL     1      -5.961  14.639  71.785  1.00  0.00     0.000 HD 
ENDBRANCH  27  28
ENDBRANCH  26  27
ENDBRANCH  24  26
ENDBRANCH  10  22
TORSDOF 6
ENDMDL
MODEL       85
REMARK 921   NORMALIZED FREE ENERGY PREDICTED BY IDOCK:   -5.37 KCAL/MOL
REMARK 922        TOTAL FREE ENERGY PREDICTED BY IDOCK:   -8.54 KCAL/MOL
REMARK 923 INTER-LIGAND FREE ENERGY PREDICTED BY IDOCK:   -6.94 KCAL/MOL
REMARK 924 INTRA-LIGAND FREE ENERGY PREDICTED BY IDOCK:   -1.60 KCAL/MOL
REMARK 927      BINDING AFFINITY PREDICTED BY RF-SCORE:    0.00 PKD
ROOT
HETATM    1  C   UNL     1     -11.990  11.379  69.456  1.00  0.00    -0.341 C  
HETATM    2  N   UNL     1     -10.656  11.471  68.919  1.00  0.00    -0.213 NA 
HETATM    3  C   UNL     1      -9.753  10.449  68.864  1.00  0.00    -0.198 A  
HETATM    4  N   UNL     1      -8.613  10.842  68.342  1.00  0.00    -0.134 NA 
HETATM    5  C   UNL     1      -8.790  12.174  68.045  1.00  0.00    -0.181 A  
HETATM    6  C   UNL     1      -7.906  13.105  67.486  1.00  0.00    -0.172 A  
HETATM    7  F   UNL     1      -6.690  12.683  67.103  1.00  0.00    -0.154 F  
HETATM    8  C   UNL     1      -8.286  14.466  67.306  1.00  0.00    -0.209 A  
HETATM    9  C   UNL     1     -10.527  13.890  68.125  1.00  0.00    -0.246 A  
HETATM   10  C   UNL     1      -9.634  14.820  67.535  1.00  0.00    -0.208 A  
HETATM   11  C   UNL     1     -10.072  12.589  68.383  1.00  0.00    -0.216 A  
ENDROOT
BRANCH   8  12
HETATM   12  N   UNL     1      -7.322  15.409  66.798  1.00  0.00    -0.278 NA 
HETATM   13  H   UNL     1      -6.844  15.188  65.925  1.00  0.00     0.000 HD 
BRANCH  12  14
HETATM   14  C   UNL     1      -6.998  16.641  67.455  1.00  0.00    -0.161 A  
HETATM   15 BR   UNL     1      -5.520  20.617  69.464  1.00  0.00    -0.408 Br 
HETATM   16  C   UNL     1      -6.872  16.730  68.849  1.00  0.00    -0.198 A  
HETATM   17  C   UNL     1      -6.413  19.005  67.288  1.00  0.00    -0.192 A  
HETATM   18  C   UNL     1      -6.828  17.813  66.702  1.00  0.00    -0.207 A  
HETATM   19  C   UNL     1      -6.185  19.040  68.660  1.00  0.00    -0.226 A  
HETATM   20  C   UNL     1      -6.431  17.917  69.447  1.00  0.00    -0.224 A  
HETATM   21  F   UNL     1      -7.015  17.768  65.374  1.00  0.00    -0.265 F  
ENDBRANCH  12  14
ENDBRANCH   8  12
BRANCH  10  22
HETATM   22  C   UNL     1     -10.273  16.115  67.105  1.00  0.00    -0.281 C  
HETATM   23  H   UNL     1     -10.405  16.812  69.081  1.00  0.00     0.000 HD 
HETATM   24  N   UNL     1     -10.575  17.018  68.096  1.00  0.00    -0.356 N  
HETATM   25  O   UNL     1     -10.424  16.353  65.906  1.00  0.00    -0.338 OA 
BRANCH  24  26
HETATM   26  O   UNL     1     -11.137  18.253  67.676  1.00  0.00    -0.230 OA 
BRANCH  26  27
HETATM   27  C   UNL     1     -10.123  19.258  67.831  1.00  0.00    -0.395 C  
BRANCH  27  28
HETATM   28  C   UNL     1      -9.862  19.990  66.516  1.00  0.00    -0.459 C  
HETATM   29  O   UNL     1     -10.472  19.327  65.412  1.00  0.00    -0.451 OA 
HETATM   30  H   UNL     1     -10.310  19.782  64.594  1.00  0.00     0.000 HD 
ENDBRANCH  27  28
ENDBRANCH  26  27
ENDBRANCH  24  26
ENDBRANCH  10  22
TORSDOF 6
ENDMDL
MODEL       86
REMARK 921   NORMALIZED FREE ENERGY PREDICTED BY IDOCK:   -5.36 KCAL/MOL
REMARK 922        TOTAL FREE ENERGY PREDICTED BY IDOCK:   -8.52 KCAL/MOL
REMARK 923 INTER-LIGAND FREE ENERGY PREDICTED BY IDOCK:   -7.38 KCAL/MOL
REMARK 924 INTRA-LIGAND FREE ENERGY PREDICTED BY IDOCK:   -1.14 KCAL/MOL
REMARK 927      BINDING AFFINITY PREDICTED BY RF-SCORE:    0.00 PKD
ROOT
HETATM    1  C   UNL     1      -5.989  13.736  68.206  1.00  0.00    -0.108 C  
HETATM    2  N   UNL     1      -6.456  12.567  68.908  1.00  0.00    -0.085 NA 
HETATM    3  C   UNL     1      -5.790  11.928  69.913  1.00  0.00    -0.137 A  
HETATM    4  N   UNL     1      -6.456  10.879  70.341  1.00  0.00    -0.291 NA 
HETATM    5  C   UNL     1      -7.601  10.840  69.579  1.00  0.00    -0.088 A  
HETATM    6  C   UNL     1      -8.667   9.933  69.587  1.00  0.00    -0.204 A  
HETATM    7  F   UNL     1      -8.661   8.947  70.498  1.00  0.00    -0.128 F  
HETATM    8  C   UNL     1      -9.746  10.056  68.665  1.00  0.00    -0.159 A  
HETATM    9  C   UNL     1      -8.724  12.125  67.830  1.00  0.00    -0.176 A  
HETATM   10  C   UNL     1      -9.812  11.215  67.862  1.00  0.00    -0.187 A  
HETATM   11  C   UNL     1      -7.633  11.901  68.681  1.00  0.00    -0.119 A  
ENDROOT
BRANCH   8  12
HETATM   12  N   UNL     1     -10.785   9.057  68.655  1.00  0.00    -0.391 NA 
HETATM   13  H   UNL     1     -11.740   9.351  68.861  1.00  0.00     0.000 HD 
BRANCH  12  14
HETATM   14  C   UNL     1     -10.550   7.673  68.371  1.00  0.00    -0.122 A  
HETATM   15 BR   UNL     1      -9.378   3.189  67.627  1.00  0.00    -0.208 Br 
HETATM   16  C   UNL     1     -10.257   7.218  67.077  1.00  0.00    -0.348 A  
HETATM   17  C   UNL     1     -10.318   5.383  69.186  1.00  0.00    -0.300 A  
HETATM   18  C   UNL     1     -10.640   6.721  69.398  1.00  0.00    -0.233 A  
HETATM   19  C   UNL     1      -9.921   4.976  67.916  1.00  0.00    -0.138 A  
HETATM   20  C   UNL     1      -9.907   5.881  66.856  1.00  0.00    -0.182 A  
HETATM   21  F   UNL     1     -10.990   7.121  70.630  1.00  0.00    -0.243 F  
ENDBRANCH  12  14
ENDBRANCH   8  12
BRANCH  10  22
HETATM   22  C   UNL     1     -11.018  11.655  67.073  1.00  0.00    -0.288 C  
HETATM   23  H   UNL     1      -9.864  12.082  65.373  1.00  0.00     0.000 HD 
HETATM   24  N   UNL     1     -10.800  12.054  65.776  1.00  0.00    -0.277 N  
HETATM   25  O   UNL     1     -12.140  11.565  67.573  1.00  0.00    -0.614 OA 
BRANCH  24  26
HETATM   26  O   UNL     1     -11.949  12.424  65.028  1.00  0.00    -0.390 OA 
BRANCH  26  27
HETATM   27  C   UNL     1     -11.571  13.519  64.178  1.00  0.00    -0.376 C  
BRANCH  27  28
HETATM   28  C   UNL     1     -12.344  14.788  64.531  1.00  0.00    -0.366 C  
HETATM   29  O   UNL     1     -12.042  15.857  63.638  1.00  0.00    -1.223 OA 
HETATM   30  H   UNL     1     -12.522  16.646  63.858  1.00  0.00     0.000 HD 
ENDBRANCH  27  28
ENDBRANCH  26  27
ENDBRANCH  24  26
ENDBRANCH  10  22
TORSDOF 6
ENDMDL
MODEL       87
REMARK 921   NORMALIZED FREE ENERGY PREDICTED BY IDOCK:   -5.35 KCAL/MOL
REMARK 922        TOTAL FREE ENERGY PREDICTED BY IDOCK:   -8.51 KCAL/MOL
REMARK 923 INTER-LIGAND FREE ENERGY PREDICTED BY IDOCK:   -7.28 KCAL/MOL
REMARK 924 INTRA-LIGAND FREE ENERGY PREDICTED BY IDOCK:   -1.23 KCAL/MOL
REMARK 927      BINDING AFFINITY PREDICTED BY RF-SCORE:    0.00 PKD
ROOT
HETATM    1  C   UNL     1      -9.164   6.654  71.422  1.00  0.00    -0.151 C  
HETATM    2  N   UNL     1     -10.234   7.614  71.514  1.00  0.00    -0.185 NA 
HETATM    3  C   UNL     1     -11.172   7.661  72.505  1.00  0.00    -0.346 A  
HETATM    4  N   UNL     1     -12.034   8.633  72.306  1.00  0.00    -0.375 NA 
HETATM    5  C   UNL     1     -11.633   9.239  71.137  1.00  0.00    -0.327 A  
HETATM    6  C   UNL     1     -12.186  10.320  70.439  1.00  0.00    -0.261 A  
HETATM    7  F   UNL     1     -13.249  10.946  70.967  1.00  0.00    -0.407 F  
HETATM    8  C   UNL     1     -11.629  10.762  69.205  1.00  0.00    -0.305 A  
HETATM    9  C   UNL     1      -9.847   9.096  69.477  1.00  0.00    -0.182 A  
HETATM   10  C   UNL     1     -10.399  10.207  68.788  1.00  0.00    -0.211 A  
HETATM   11  C   UNL     1     -10.494   8.628  70.629  1.00  0.00    -0.204 A  
ENDROOT
BRANCH   8  12
HETATM   12  N   UNL     1     -12.273  11.827  68.479  1.00  0.00    -0.372 NA 
HETATM   13  H   UNL     1     -13.051  11.590  67.863  1.00  0.00     0.000 HD 
BRANCH  12  14
HETATM   14  C   UNL     1     -11.881  13.202  68.575  1.00  0.00    -0.342 A  
HETATM   15 BR   UNL     1     -10.181  17.571  68.800  1.00  0.00    -0.356 Br 
HETATM   16  C   UNL     1     -11.756  13.855  69.810  1.00  0.00    -0.372 A  
HETATM   17  C   UNL     1     -11.156  15.250  67.462  1.00  0.00    -0.324 A  
HETATM   18  C   UNL     1     -11.639  13.945  67.411  1.00  0.00    -0.368 A  
HETATM   19  C   UNL     1     -10.934  15.840  68.703  1.00  0.00    -0.307 A  
HETATM   20  C   UNL     1     -11.249  15.158  69.877  1.00  0.00    -0.305 A  
HETATM   21  F   UNL     1     -11.822  13.364  66.215  1.00  0.00    -0.342 F  
ENDBRANCH  12  14
ENDBRANCH   8  12
BRANCH  10  22
HETATM   22  C   UNL     1      -9.524  10.764  67.696  1.00  0.00    -0.154 C  
HETATM   23  H   UNL     1      -8.883  12.361  68.898  1.00  0.00     0.000 HD 
HETATM   24  N   UNL     1      -8.806  11.898  67.992  1.00  0.00    -0.170 N  
HETATM   25  O   UNL     1      -9.417  10.157  66.630  1.00  0.00    -0.161 OA 
BRANCH  24  26
HETATM   26  O   UNL     1      -7.951  12.389  66.970  1.00  0.00    -0.167 OA 
BRANCH  26  27
HETATM   27  C   UNL     1      -7.118  13.400  67.560  1.00  0.00    -0.144 C  
BRANCH  27  28
HETATM   28  C   UNL     1      -7.785  14.022  68.785  1.00  0.00    -0.112 C  
HETATM   29  O   UNL     1      -6.908  14.049  69.909  1.00  0.00    -0.328 OA 
HETATM   30  H   UNL     1      -7.323  14.435  70.670  1.00  0.00     0.000 HD 
ENDBRANCH  27  28
ENDBRANCH  26  27
ENDBRANCH  24  26
ENDBRANCH  10  22
TORSDOF 6
ENDMDL
MODEL       88
REMARK 921   NORMALIZED FREE ENERGY PREDICTED BY IDOCK:   -5.33 KCAL/MOL
REMARK 922        TOTAL FREE ENERGY PREDICTED BY IDOCK:   -8.48 KCAL/MOL
REMARK 923 INTER-LIGAND FREE ENERGY PREDICTED BY IDOCK:   -7.50 KCAL/MOL
REMARK 924 INTRA-LIGAND FREE ENERGY PREDICTED BY IDOCK:   -0.99 KCAL/MOL
REMARK 927      BINDING AFFINITY PREDICTED BY RF-SCORE:    0.00 PKD
ROOT
HETATM    1  C   UNL     1      -9.065   6.343  71.487  1.00  0.00    -0.144 C  
HETATM    2  N   UNL     1      -9.996   7.440  71.558  1.00  0.00    -0.181 NA 
HETATM    3  C   UNL     1     -10.701   7.810  72.667  1.00  0.00    -0.343 A  
HETATM    4  N   UNL     1     -11.488   8.832  72.418  1.00  0.00    -0.308 NA 
HETATM    5  C   UNL     1     -11.281   9.135  71.092  1.00  0.00    -0.325 A  
HETATM    6  C   UNL     1     -11.859  10.122  70.284  1.00  0.00    -0.261 A  
HETATM    7  F   UNL     1     -12.726  10.981  70.845  1.00  0.00    -0.391 F  
HETATM    8  C   UNL     1     -11.529  10.231  68.903  1.00  0.00    -0.127 A  
HETATM    9  C   UNL     1      -9.897   8.423  69.208  1.00  0.00    -0.186 A  
HETATM   10  C   UNL     1     -10.471   9.441  68.403  1.00  0.00    -0.256 A  
HETATM   11  C   UNL     1     -10.334   8.285  70.533  1.00  0.00    -0.202 A  
ENDROOT
BRANCH   8  12
HETATM   12  N   UNL     1     -12.204  11.210  68.089  1.00  0.00    -0.645 NA 
HETATM   13  H   UNL     1     -12.979  10.900  67.504  1.00  0.00     0.000 HD 
BRANCH  12  14
HETATM   14  C   UNL     1     -11.846  12.597  68.058  1.00  0.00    -0.323 A  
HETATM   15 BR   UNL     1     -10.306  17.019  67.732  1.00  0.00    -0.346 Br 
HETATM   16  C   UNL     1     -11.338  13.260  69.185  1.00  0.00    -0.336 A  
HETATM   17  C   UNL     1     -11.598  14.662  66.780  1.00  0.00    -0.370 A  
HETATM   18  C   UNL     1     -12.028  13.343  66.884  1.00  0.00    -0.385 A  
HETATM   19  C   UNL     1     -10.994  15.265  67.879  1.00  0.00    -0.306 A  
HETATM   20  C   UNL     1     -10.879  14.579  69.087  1.00  0.00    -0.278 A  
HETATM   21  F   UNL     1     -12.579  12.750  65.813  1.00  0.00    -0.496 F  
ENDBRANCH  12  14
ENDBRANCH   8  12
BRANCH  10  22
HETATM   22  C   UNL     1      -9.791   9.646  67.075  1.00  0.00    -0.195 C  
HETATM   23  H   UNL     1      -8.080   8.593  67.686  1.00  0.00     0.000 HD 
HETATM   24  N   UNL     1      -8.541   9.093  66.925  1.00  0.00    -0.122 N  
HETATM   25  O   UNL     1     -10.391  10.213  66.162  1.00  0.00    -0.227 OA 
BRANCH  24  26
HETATM   26  O   UNL     1      -7.928   9.254  65.654  1.00  0.00    -0.100 OA 
BRANCH  26  27
HETATM   27  C   UNL     1      -6.518   9.419  65.879  1.00  0.00    -0.075 C  
BRANCH  27  28
HETATM   28  C   UNL     1      -5.814   9.933  64.625  1.00  0.00    -0.098 C  
HETATM   29  O   UNL     1      -5.168  11.183  64.856  1.00  0.00    -0.467 OA 
HETATM   30  H   UNL     1      -4.730  11.502  64.077  1.00  0.00     0.000 HD 
ENDBRANCH  27  28
ENDBRANCH  26  27
ENDBRANCH  24  26
ENDBRANCH  10  22
TORSDOF 6
ENDMDL
MODEL       89
REMARK 921   NORMALIZED FREE ENERGY PREDICTED BY IDOCK:   -5.33 KCAL/MOL
REMARK 922        TOTAL FREE ENERGY PREDICTED BY IDOCK:   -8.48 KCAL/MOL
REMARK 923 INTER-LIGAND FREE ENERGY PREDICTED BY IDOCK:   -7.05 KCAL/MOL
REMARK 924 INTRA-LIGAND FREE ENERGY PREDICTED BY IDOCK:   -1.43 KCAL/MOL
REMARK 927      BINDING AFFINITY PREDICTED BY RF-SCORE:    0.00 PKD
ROOT
HETATM    1  C   UNL     1     -11.851   8.294  72.191  1.00  0.00    -0.369 C  
HETATM    2  N   UNL     1     -12.085   9.548  71.521  1.00  0.00    -0.364 NA 
HETATM    3  C   UNL     1     -12.926  10.533  71.955  1.00  0.00    -0.447 A  
HETATM    4  N   UNL     1     -12.948  11.548  71.121  1.00  0.00    -0.302 NA 
HETATM    5  C   UNL     1     -12.085  11.204  70.107  1.00  0.00    -0.362 A  
HETATM    6  C   UNL     1     -11.727  11.897  68.943  1.00  0.00    -0.323 A  
HETATM    7  F   UNL     1     -12.231  13.126  68.752  1.00  0.00    -0.356 F  
HETATM    8  C   UNL     1     -10.836  11.326  67.990  1.00  0.00    -0.218 A  
HETATM    9  C   UNL     1     -10.553   9.403  69.489  1.00  0.00    -0.237 A  
HETATM   10  C   UNL     1     -10.178  10.123  68.325  1.00  0.00    -0.192 A  
HETATM   11  C   UNL     1     -11.516   9.958  70.343  1.00  0.00    -0.301 A  
ENDROOT
BRANCH   8  12
HETATM   12  N   UNL     1     -10.555  12.039  66.770  1.00  0.00    -0.221 NA 
HETATM   13  H   UNL     1     -10.835  11.613  65.886  1.00  0.00     0.000 HD 
BRANCH  12  14
HETATM   14  C   UNL     1      -9.902  13.314  66.730  1.00  0.00    -0.264 A  
HETATM   15 BR   UNL     1      -7.661  17.401  66.177  1.00  0.00    -0.250 Br 
HETATM   16  C   UNL     1      -8.655  13.530  67.335  1.00  0.00    -0.209 A  
HETATM   17  C   UNL     1      -9.881  15.626  65.948  1.00  0.00    -0.382 A  
HETATM   18  C   UNL     1     -10.524  14.401  66.099  1.00  0.00    -0.291 A  
HETATM   19  C   UNL     1      -8.597  15.783  66.460  1.00  0.00    -0.308 A  
HETATM   20  C   UNL     1      -7.987  14.749  67.170  1.00  0.00    -0.205 A  
HETATM   21  F   UNL     1     -11.749  14.238  65.576  1.00  0.00    -0.325 F  
ENDBRANCH  12  14
ENDBRANCH   8  12
BRANCH  10  22
HETATM   22  C   UNL     1      -8.994   9.550  67.591  1.00  0.00    -0.117 C  
HETATM   23  H   UNL     1      -9.562   7.577  68.026  1.00  0.00     0.000 HD 
HETATM   24  N   UNL     1      -8.889   8.180  67.554  1.00  0.00    -0.134 N  
HETATM   25  O   UNL     1      -8.224  10.302  66.992  1.00  0.00    -0.120 OA 
BRANCH  24  26
HETATM   26  O   UNL     1      -7.793   7.651  66.821  1.00  0.00    -0.103 OA 
BRANCH  26  27
HETATM   27  C   UNL     1      -8.337   6.913  65.714  1.00  0.00    -0.142 C  
BRANCH  27  28
HETATM   28  C   UNL     1      -8.097   7.640  64.393  1.00  0.00    -0.084 C  
HETATM   29  O   UNL     1      -8.935   8.786  64.260  1.00  0.00    -0.424 OA 
HETATM   30  H   UNL     1      -8.787   9.237  63.438  1.00  0.00     0.000 HD 
ENDBRANCH  27  28
ENDBRANCH  26  27
ENDBRANCH  24  26
ENDBRANCH  10  22
TORSDOF 6
ENDMDL
MODEL       90
REMARK 921   NORMALIZED FREE ENERGY PREDICTED BY IDOCK:   -5.30 KCAL/MOL
REMARK 922        TOTAL FREE ENERGY PREDICTED BY IDOCK:   -8.45 KCAL/MOL
REMARK 923 INTER-LIGAND FREE ENERGY PREDICTED BY IDOCK:   -7.41 KCAL/MOL
REMARK 924 INTRA-LIGAND FREE ENERGY PREDICTED BY IDOCK:   -1.03 KCAL/MOL
REMARK 927      BINDING AFFINITY PREDICTED BY RF-SCORE:    0.00 PKD
ROOT
HETATM    1  C   UNL     1      -9.033  10.073  66.045  1.00  0.00    -0.148 C  
HETATM    2  N   UNL     1      -9.781  11.203  65.557  1.00  0.00    -0.217 NA 
HETATM    3  C   UNL     1     -10.608  11.197  64.472  1.00  0.00    -0.328 A  
HETATM    4  N   UNL     1     -11.133  12.383  64.259  1.00  0.00    -0.323 NA 
HETATM    5  C   UNL     1     -10.622  13.188  65.251  1.00  0.00    -0.313 A  
HETATM    6  C   UNL     1     -10.824  14.550  65.509  1.00  0.00    -0.336 A  
HETATM    7  F   UNL     1     -11.685  15.227  64.733  1.00  0.00    -0.366 F  
HETATM    8  C   UNL     1     -10.149  15.205  66.579  1.00  0.00    -0.269 A  
HETATM    9  C   UNL     1      -9.182  13.042  67.219  1.00  0.00    -0.213 A  
HETATM   10  C   UNL     1      -9.411  14.416  67.488  1.00  0.00    -0.198 A  
HETATM   11  C   UNL     1      -9.783  12.466  66.090  1.00  0.00    -0.246 A  
ENDROOT
BRANCH   8  12
HETATM   12  N   UNL     1     -10.324  16.623  66.763  1.00  0.00    -0.299 NA 
HETATM   13  H   UNL     1     -11.238  16.963  67.062  1.00  0.00     0.000 HD 
BRANCH  12  14
HETATM   14  C   UNL     1      -9.282  17.584  66.549  1.00  0.00    -0.267 A  
HETATM   15 BR   UNL     1      -6.046  20.799  65.444  1.00  0.00    -0.276 Br 
HETATM   16  C   UNL     1      -7.961  17.200  66.277  1.00  0.00    -0.339 A  
HETATM   17  C   UNL     1      -8.607  19.920  66.337  1.00  0.00    -0.386 A  
HETATM   18  C   UNL     1      -9.563  18.955  66.639  1.00  0.00    -0.336 A  
HETATM   19  C   UNL     1      -7.331  19.513  65.960  1.00  0.00    -0.295 A  
HETATM   20  C   UNL     1      -6.996  18.160  65.948  1.00  0.00    -0.319 A  
HETATM   21  F   UNL     1     -10.804  19.347  66.969  1.00  0.00    -0.511 F  
ENDBRANCH  12  14
ENDBRANCH   8  12
BRANCH  10  22
HETATM   22  C   UNL     1      -8.901  14.885  68.826  1.00  0.00    -0.183 C  
HETATM   23  H   UNL     1      -6.929  14.325  68.373  1.00  0.00     0.000 HD 
HETATM   24  N   UNL     1      -7.554  14.750  69.059  1.00  0.00    -0.134 N  
HETATM   25  O   UNL     1      -9.671  15.435  69.614  1.00  0.00    -0.266 OA 
BRANCH  24  26
HETATM   26  O   UNL     1      -7.077  15.236  70.306  1.00  0.00    -0.016 OA 
BRANCH  26  27
HETATM   27  C   UNL     1      -5.793  14.634  70.536  1.00  0.00    -0.168 C  
BRANCH  27  28
HETATM   28  C   UNL     1      -5.711  13.245  69.907  1.00  0.00    -0.122 C  
HETATM   29  O   UNL     1      -6.254  12.244  70.764  1.00  0.00    -0.537 OA 
HETATM   30  H   UNL     1      -6.203  11.380  70.374  1.00  0.00     0.000 HD 
ENDBRANCH  27  28
ENDBRANCH  26  27
ENDBRANCH  24  26
ENDBRANCH  10  22
TORSDOF 6
ENDMDL
MODEL       91
REMARK 921   NORMALIZED FREE ENERGY PREDICTED BY IDOCK:   -5.28 KCAL/MOL
REMARK 922        TOTAL FREE ENERGY PREDICTED BY IDOCK:   -8.42 KCAL/MOL
REMARK 923 INTER-LIGAND FREE ENERGY PREDICTED BY IDOCK:   -7.40 KCAL/MOL
REMARK 924 INTRA-LIGAND FREE ENERGY PREDICTED BY IDOCK:   -1.02 KCAL/MOL
REMARK 927      BINDING AFFINITY PREDICTED BY RF-SCORE:    0.00 PKD
ROOT
HETATM    1  C   UNL     1     -11.940   8.430  71.307  1.00  0.00    -0.288 C  
HETATM    2  N   UNL     1     -12.177   9.844  71.164  1.00  0.00    -0.345 NA 
HETATM    3  C   UNL     1     -12.830  10.632  72.067  1.00  0.00    -0.284 A  
HETATM    4  N   UNL     1     -12.912  11.876  71.650  1.00  0.00    -0.398 NA 
HETATM    5  C   UNL     1     -12.284  11.890  70.425  1.00  0.00    -0.314 A  
HETATM    6  C   UNL     1     -12.082  12.938  69.519  1.00  0.00    -0.214 A  
HETATM    7  F   UNL     1     -12.498  14.168  69.862  1.00  0.00    -0.359 F  
HETATM    8  C   UNL     1     -11.437  12.718  68.269  1.00  0.00    -0.314 A  
HETATM    9  C   UNL     1     -11.062  10.386  68.937  1.00  0.00    -0.296 A  
HETATM   10  C   UNL     1     -10.841  11.459  68.035  1.00  0.00    -0.264 A  
HETATM   11  C   UNL     1     -11.798  10.627  70.105  1.00  0.00    -0.337 A  
ENDROOT
BRANCH   8  12
HETATM   12  N   UNL     1     -11.319  13.807  67.332  1.00  0.00    -0.309 NA 
HETATM   13  H   UNL     1     -12.056  13.929  66.639  1.00  0.00     0.000 HD 
BRANCH  12  14
HETATM   14  C   UNL     1     -10.221  14.727  67.322  1.00  0.00    -0.241 A  
HETATM   15 BR   UNL     1      -6.463  17.515  66.942  1.00  0.00    -0.235 Br 
HETATM   16  C   UNL     1      -9.185  14.660  68.266  1.00  0.00    -0.198 A  
HETATM   17  C   UNL     1      -9.077  16.603  66.258  1.00  0.00    -0.333 A  
HETATM   18  C   UNL     1     -10.174  15.753  66.367  1.00  0.00    -0.293 A  
HETATM   19  C   UNL     1      -8.009  16.444  67.137  1.00  0.00    -0.183 A  
HETATM   20  C   UNL     1      -8.065  15.492  68.153  1.00  0.00    -0.132 A  
HETATM   21  F   UNL     1     -11.188  15.883  65.498  1.00  0.00    -0.290 F  
ENDBRANCH  12  14
ENDBRANCH   8  12
BRANCH  10  22
HETATM   22  C   UNL     1      -9.869  11.154  66.926  1.00  0.00    -0.194 C  
HETATM   23  H   UNL     1     -11.327  10.146  65.802  1.00  0.00     0.000 HD 
HETATM   24  N   UNL     1     -10.359  10.465  65.843  1.00  0.00    -0.225 N  
HETATM   25  O   UNL     1      -8.720  11.593  66.983  1.00  0.00    -0.160 OA 
BRANCH  24  26
HETATM   26  O   UNL     1      -9.445  10.221  64.783  1.00  0.00    -0.233 OA 
BRANCH  26  27
HETATM   27  C   UNL     1     -10.064  10.682  63.571  1.00  0.00    -0.224 C  
BRANCH  27  28
HETATM   28  C   UNL     1      -9.158  10.451  62.364  1.00  0.00    -0.286 C  
HETATM   29  O   UNL     1      -7.996  11.275  62.408  1.00  0.00    -0.452 OA 
HETATM   30  H   UNL     1      -7.433  11.131  61.657  1.00  0.00     0.000 HD 
ENDBRANCH  27  28
ENDBRANCH  26  27
ENDBRANCH  24  26
ENDBRANCH  10  22
TORSDOF 6
ENDMDL
MODEL       92
REMARK 921   NORMALIZED FREE ENERGY PREDICTED BY IDOCK:   -5.28 KCAL/MOL
REMARK 922        TOTAL FREE ENERGY PREDICTED BY IDOCK:   -8.42 KCAL/MOL
REMARK 923 INTER-LIGAND FREE ENERGY PREDICTED BY IDOCK:   -7.50 KCAL/MOL
REMARK 924 INTRA-LIGAND FREE ENERGY PREDICTED BY IDOCK:   -0.92 KCAL/MOL
REMARK 927      BINDING AFFINITY PREDICTED BY RF-SCORE:    0.00 PKD
ROOT
HETATM    1  C   UNL     1      -9.410  18.027  66.913  1.00  0.00    -0.276 C  
HETATM    2  N   UNL     1     -10.100  17.146  66.005  1.00  0.00    -0.472 NA 
HETATM    3  C   UNL     1     -10.895  17.542  64.968  1.00  0.00     0.407 A  
HETATM    4  N   UNL     1     -11.406  16.512  64.333  1.00  0.00    -0.976 NA 
HETATM    5  C   UNL     1     -10.919  15.404  64.988  1.00  0.00    -0.436 A  
HETATM    6  C   UNL     1     -11.141  14.040  64.757  1.00  0.00    -0.387 A  
HETATM    7  F   UNL     1     -11.900  13.686  63.708  1.00  0.00    -0.442 F  
HETATM    8  C   UNL     1     -10.565  13.047  65.598  1.00  0.00    -0.282 A  
HETATM    9  C   UNL     1      -9.406  14.832  66.820  1.00  0.00    -0.268 A  
HETATM   10  C   UNL     1      -9.618  13.453  66.563  1.00  0.00    -0.277 A  
HETATM   11  C   UNL     1     -10.082  15.776  66.033  1.00  0.00    -0.337 A  
ENDROOT
BRANCH   8  12
HETATM   12  N   UNL     1     -10.881  11.659  65.373  1.00  0.00    -0.289 NA 
HETATM   13  H   UNL     1     -11.818  11.333  65.608  1.00  0.00     0.000 HD 
BRANCH  12  14
HETATM   14  C   UNL     1      -9.949  10.712  64.836  1.00  0.00    -0.318 A  
HETATM   15 BR   UNL     1      -7.241   7.423  62.866  1.00  0.00    -0.088 Br 
HETATM   16  C   UNL     1      -9.425   9.664  65.607  1.00  0.00    -0.318 A  
HETATM   17  C   UNL     1      -8.688   9.879  62.918  1.00  0.00    -0.213 A  
HETATM   18  C   UNL     1      -9.510  10.834  63.509  1.00  0.00    -0.299 A  
HETATM   19  C   UNL     1      -8.270   8.788  63.673  1.00  0.00    -0.163 A  
HETATM   20  C   UNL     1      -8.617   8.684  65.019  1.00  0.00    -0.185 A  
HETATM   21  F   UNL     1      -9.941  11.870  62.772  1.00  0.00    -0.376 F  
ENDBRANCH  12  14
ENDBRANCH   8  12
BRANCH  10  22
HETATM   22  C   UNL     1      -8.694  12.529  67.312  1.00  0.00    -0.193 C  
HETATM   23  H   UNL     1     -10.180  12.028  68.708  1.00  0.00     0.000 HD 
HETATM   24  N   UNL     1      -9.219  11.874  68.401  1.00  0.00    -0.191 N  
HETATM   25  O   UNL     1      -7.555  12.329  66.890  1.00  0.00    -0.107 OA 
BRANCH  24  26
HETATM   26  O   UNL     1      -8.353  10.972  69.073  1.00  0.00    -0.147 OA 
BRANCH  26  27
HETATM   27  C   UNL     1      -9.055   9.725  69.206  1.00  0.00    -0.184 C  
BRANCH  27  28
HETATM   28  C   UNL     1     -10.568   9.937  69.189  1.00  0.00    -0.220 C  
HETATM   29  O   UNL     1     -11.220   9.016  68.317  1.00  0.00    -0.459 OA 
HETATM   30  H   UNL     1     -12.160   9.148  68.306  1.00  0.00     0.000 HD 
ENDBRANCH  27  28
ENDBRANCH  26  27
ENDBRANCH  24  26
ENDBRANCH  10  22
TORSDOF 6
ENDMDL
MODEL       93
REMARK 921   NORMALIZED FREE ENERGY PREDICTED BY IDOCK:   -5.26 KCAL/MOL
REMARK 922        TOTAL FREE ENERGY PREDICTED BY IDOCK:   -8.38 KCAL/MOL
REMARK 923 INTER-LIGAND FREE ENERGY PREDICTED BY IDOCK:   -7.17 KCAL/MOL
REMARK 924 INTRA-LIGAND FREE ENERGY PREDICTED BY IDOCK:   -1.22 KCAL/MOL
REMARK 927      BINDING AFFINITY PREDICTED BY RF-SCORE:    0.00 PKD
ROOT
HETATM    1  C   UNL     1      -8.607  10.694  63.069  1.00  0.00    -0.183 C  
HETATM    2  N   UNL     1      -8.634   9.636  64.047  1.00  0.00    -0.185 NA 
HETATM    3  C   UNL     1      -7.955   8.455  63.955  1.00  0.00    -0.151 A  
HETATM    4  N   UNL     1      -8.196   7.680  64.988  1.00  0.00    -0.134 NA 
HETATM    5  C   UNL     1      -9.067   8.392  65.781  1.00  0.00    -0.139 A  
HETATM    6  C   UNL     1      -9.671   8.053  66.998  1.00  0.00    -0.211 A  
HETATM    7  F   UNL     1      -9.350   6.881  67.567  1.00  0.00    -0.123 F  
HETATM    8  C   UNL     1     -10.592   8.935  67.634  1.00  0.00    -0.224 A  
HETATM    9  C   UNL     1     -10.159  10.576  65.861  1.00  0.00    -0.323 A  
HETATM   10  C   UNL     1     -10.747  10.235  67.106  1.00  0.00    -0.303 A  
HETATM   11  C   UNL     1      -9.345   9.632  65.219  1.00  0.00    -0.260 A  
ENDROOT
BRANCH   8  12
HETATM   12  N   UNL     1     -11.250   8.516  68.845  1.00  0.00    -0.282 NA 
HETATM   13  H   UNL     1     -12.266   8.430  68.837  1.00  0.00     0.000 HD 
BRANCH  12  14
HETATM   14  C   UNL     1     -10.555   8.216  70.061  1.00  0.00    -0.239 A  
HETATM   15 BR   UNL     1      -8.638   7.369  74.262  1.00  0.00    -0.256 Br 
HETATM   16  C   UNL     1      -9.535   9.041  70.559  1.00  0.00    -0.265 A  
HETATM   17  C   UNL     1     -10.287   6.774  72.013  1.00  0.00    -0.217 A  
HETATM   18  C   UNL     1     -10.865   7.050  70.777  1.00  0.00    -0.246 A  
HETATM   19  C   UNL     1      -9.358   7.667  72.539  1.00  0.00    -0.163 A  
HETATM   20  C   UNL     1      -8.964   8.788  71.811  1.00  0.00    -0.283 A  
HETATM   21  F   UNL     1     -11.786   6.207  70.285  1.00  0.00    -0.432 F  
ENDBRANCH  12  14
ENDBRANCH   8  12
BRANCH  10  22
HETATM   22  C   UNL     1     -11.424  11.381  67.812  1.00  0.00    -0.281 C  
HETATM   23  H   UNL     1     -10.168  12.799  66.909  1.00  0.00     0.000 HD 
HETATM   24  N   UNL     1     -10.956  12.643  67.537  1.00  0.00    -0.238 N  
HETATM   25  O   UNL     1     -12.403  11.165  68.528  1.00  0.00    -0.561 OA 
BRANCH  24  26
HETATM   26  O   UNL     1     -11.630  13.719  68.174  1.00  0.00    -0.294 OA 
BRANCH  26  27
HETATM   27  C   UNL     1     -10.666  14.404  68.990  1.00  0.00    -0.250 C  
BRANCH  27  28
HETATM   28  C   UNL     1     -11.345  15.362  69.966  1.00  0.00    -0.306 C  
HETATM   29  O   UNL     1     -12.746  15.460  69.721  1.00  0.00    -0.615 OA 
HETATM   30  H   UNL     1     -13.169  16.056  70.328  1.00  0.00     0.000 HD 
ENDBRANCH  27  28
ENDBRANCH  26  27
ENDBRANCH  24  26
ENDBRANCH  10  22
TORSDOF 6
ENDMDL
MODEL       94
REMARK 921   NORMALIZED FREE ENERGY PREDICTED BY IDOCK:   -5.24 KCAL/MOL
REMARK 922        TOTAL FREE ENERGY PREDICTED BY IDOCK:   -8.36 KCAL/MOL
REMARK 923 INTER-LIGAND FREE ENERGY PREDICTED BY IDOCK:   -6.97 KCAL/MOL
REMARK 924 INTRA-LIGAND FREE ENERGY PREDICTED BY IDOCK:   -1.39 KCAL/MOL
REMARK 927      BINDING AFFINITY PREDICTED BY RF-SCORE:    0.00 PKD
ROOT
HETATM    1  C   UNL     1      -7.143   9.068  66.690  1.00  0.00    -0.081 C  
HETATM    2  N   UNL     1      -6.800  10.329  67.297  1.00  0.00    -0.080 NA 
HETATM    3  C   UNL     1      -5.540  10.725  67.641  1.00  0.00    -0.043 A  
HETATM    4  N   UNL     1      -5.545  11.916  68.196  1.00  0.00    -0.043 NA 
HETATM    5  C   UNL     1      -6.865  12.304  68.210  1.00  0.00    -0.075 A  
HETATM    6  C   UNL     1      -7.463  13.474  68.696  1.00  0.00    -0.108 A  
HETATM    7  F   UNL     1      -6.671  14.438  69.193  1.00  0.00    -0.092 F  
HETATM    8  C   UNL     1      -8.875  13.653  68.651  1.00  0.00    -0.023 A  
HETATM    9  C   UNL     1      -9.053  11.509  67.470  1.00  0.00    -0.166 A  
HETATM   10  C   UNL     1      -9.647  12.707  67.943  1.00  0.00    -0.211 A  
HETATM   11  C   UNL     1      -7.672  11.331  67.635  1.00  0.00    -0.115 A  
ENDROOT
BRANCH   8  12
HETATM   12  N   UNL     1      -9.457  14.837  69.232  1.00  0.00    -0.389 NA 
HETATM   13  H   UNL     1      -9.782  14.791  70.197  1.00  0.00     0.000 HD 
BRANCH  12  14
HETATM   14  C   UNL     1      -9.603  16.075  68.526  1.00  0.00    -0.215 A  
HETATM   15 BR   UNL     1     -10.177  19.890  65.852  1.00  0.00    -0.479 Br 
HETATM   16  C   UNL     1      -8.496  16.841  68.130  1.00  0.00    -0.213 A  
HETATM   17  C   UNL     1     -11.068  17.714  67.465  1.00  0.00     0.076 A  
HETATM   18  C   UNL     1     -10.883  16.571  68.237  1.00  0.00    -0.352 A  
HETATM   19  C   UNL     1      -9.952  18.396  66.989  1.00  0.00    -0.342 A  
HETATM   20  C   UNL     1      -8.668  17.978  67.333  1.00  0.00    -0.248 A  
HETATM   21  F   UNL     1     -11.958  15.893  68.668  1.00  0.00    -0.379 F  
ENDBRANCH  12  14
ENDBRANCH   8  12
BRANCH  10  22
HETATM   22  C   UNL     1     -11.085  12.896  67.533  1.00  0.00    -0.269 C  
HETATM   23  H   UNL     1     -10.547  13.979  65.817  1.00  0.00     0.000 HD 
HETATM   24  N   UNL     1     -11.312  13.586  66.366  1.00  0.00    -0.308 N  
HETATM   25  O   UNL     1     -11.982  12.370  68.192  1.00  0.00    -0.344 OA 
BRANCH  24  26
HETATM   26  O   UNL     1     -12.668  13.720  65.966  1.00  0.00    -0.444 OA 
BRANCH  26  27
HETATM   27  C   UNL     1     -12.704  14.680  64.897  1.00  0.00    -0.044 C  
BRANCH  27  28
HETATM   28  C   UNL     1     -11.357  15.381  64.735  1.00  0.00    -0.376 C  
HETATM   29  O   UNL     1     -11.461  16.545  63.920  1.00  0.00    -1.608 OA 
HETATM   30  H   UNL     1     -10.624  16.981  63.819  1.00  0.00     0.000 HD 
ENDBRANCH  27  28
ENDBRANCH  26  27
ENDBRANCH  24  26
ENDBRANCH  10  22
TORSDOF 6
ENDMDL
MODEL       95
REMARK 921   NORMALIZED FREE ENERGY PREDICTED BY IDOCK:   -5.24 KCAL/MOL
REMARK 922        TOTAL FREE ENERGY PREDICTED BY IDOCK:   -8.36 KCAL/MOL
REMARK 923 INTER-LIGAND FREE ENERGY PREDICTED BY IDOCK:   -7.73 KCAL/MOL
REMARK 924 INTRA-LIGAND FREE ENERGY PREDICTED BY IDOCK:   -0.63 KCAL/MOL
REMARK 927      BINDING AFFINITY PREDICTED BY RF-SCORE:    0.00 PKD
ROOT
HETATM    1  C   UNL     1     -10.198  10.693  64.915  1.00  0.00    -0.324 C  
HETATM    2  N   UNL     1      -9.758   9.902  66.037  1.00  0.00    -0.228 NA 
HETATM    3  C   UNL     1      -8.845   8.889  65.982  1.00  0.00    -0.172 A  
HETATM    4  N   UNL     1      -8.664   8.339  67.161  1.00  0.00    -0.122 NA 
HETATM    5  C   UNL     1      -9.496   9.027  68.014  1.00  0.00    -0.142 A  
HETATM    6  C   UNL     1      -9.728   8.864  69.385  1.00  0.00    -0.169 A  
HETATM    7  F   UNL     1      -9.016   7.940  70.048  1.00  0.00    -0.140 F  
HETATM    8  C   UNL     1     -10.682   9.668  70.072  1.00  0.00    -0.259 A  
HETATM    9  C   UNL     1     -11.050  10.913  67.988  1.00  0.00    -0.351 A  
HETATM   10  C   UNL     1     -11.261  10.757  69.382  1.00  0.00    -0.337 A  
HETATM   11  C   UNL     1     -10.183  10.026  67.334  1.00  0.00    -0.219 A  
ENDROOT
BRANCH   8  12
HETATM   12  N   UNL     1     -10.947   9.417  71.466  1.00  0.00    -0.372 NA 
HETATM   13  H   UNL     1     -11.286  10.189  72.040  1.00  0.00     0.000 HD 
BRANCH  12  14
HETATM   14  C   UNL     1     -10.760   8.141  72.090  1.00  0.00    -0.293 A  
HETATM   15 BR   UNL     1     -10.511   4.047  74.372  1.00  0.00    -0.261 Br 
HETATM   16  C   UNL     1      -9.771   7.925  73.060  1.00  0.00    -0.349 A  
HETATM   17  C   UNL     1     -11.479   5.824  72.364  1.00  0.00    -0.343 A  
HETATM   18  C   UNL     1     -11.559   7.051  71.712  1.00  0.00    -0.280 A  
HETATM   19  C   UNL     1     -10.565   5.668  73.401  1.00  0.00    -0.258 A  
HETATM   20  C   UNL     1      -9.697   6.704  73.740  1.00  0.00    -0.248 A  
HETATM   21  F   UNL     1     -12.463   7.213  70.734  1.00  0.00    -0.367 F  
ENDBRANCH  12  14
ENDBRANCH   8  12
BRANCH  10  22
HETATM   22  C   UNL     1     -12.035  11.877  70.027  1.00  0.00    -0.332 C  
HETATM   23  H   UNL     1     -11.331  13.284  68.638  1.00  0.00     0.000 HD 
HETATM   24  N   UNL     1     -11.928  13.119  69.448  1.00  0.00    -0.308 N  
HETATM   25  O   UNL     1     -12.783  11.636  70.975  1.00  0.00    -0.356 OA 
BRANCH  24  26
HETATM   26  O   UNL     1     -12.696  14.158  70.037  1.00  0.00    -0.292 OA 
BRANCH  26  27
HETATM   27  C   UNL     1     -11.980  15.387  69.833  1.00  0.00    -0.359 C  
BRANCH  27  28
HETATM   28  C   UNL     1     -11.447  15.944  71.151  1.00  0.00    -0.419 C  
HETATM   29  O   UNL     1     -11.457  14.960  72.183  1.00  0.00    -0.432 OA 
HETATM   30  H   UNL     1     -11.126  15.307  73.003  1.00  0.00     0.000 HD 
ENDBRANCH  27  28
ENDBRANCH  26  27
ENDBRANCH  24  26
ENDBRANCH  10  22
TORSDOF 6
ENDMDL
MODEL       96
REMARK 921   NORMALIZED FREE ENERGY PREDICTED BY IDOCK:   -5.19 KCAL/MOL
REMARK 922        TOTAL FREE ENERGY PREDICTED BY IDOCK:   -8.29 KCAL/MOL
REMARK 923 INTER-LIGAND FREE ENERGY PREDICTED BY IDOCK:   -7.02 KCAL/MOL
REMARK 924 INTRA-LIGAND FREE ENERGY PREDICTED BY IDOCK:   -1.26 KCAL/MOL
REMARK 927      BINDING AFFINITY PREDICTED BY RF-SCORE:    0.00 PKD
ROOT
HETATM    1  C   UNL     1      -7.372  17.078  68.420  1.00  0.00    -0.213 C  
HETATM    2  N   UNL     1      -8.750  16.671  68.519  1.00  0.00    -0.232 NA 
HETATM    3  C   UNL     1      -9.800  17.495  68.805  1.00  0.00    -0.326 A  
HETATM    4  N   UNL     1     -10.934  16.833  68.849  1.00  0.00    -0.296 NA 
HETATM    5  C   UNL     1     -10.601  15.525  68.579  1.00  0.00    -0.246 A  
HETATM    6  C   UNL     1     -11.403  14.379  68.508  1.00  0.00    -0.282 A  
HETATM    7  F   UNL     1     -12.729  14.516  68.667  1.00  0.00    -0.077 F  
HETATM    8  C   UNL     1     -10.836  13.098  68.256  1.00  0.00    -0.253 A  
HETATM    9  C   UNL     1      -8.649  14.179  67.992  1.00  0.00    -0.172 A  
HETATM   10  C   UNL     1      -9.472  13.028  67.899  1.00  0.00    -0.219 A  
HETATM   11  C   UNL     1      -9.236  15.401  68.350  1.00  0.00    -0.192 A  
ENDROOT
BRANCH   8  12
HETATM   12  N   UNL     1     -11.685  11.933  68.268  1.00  0.00    -0.378 NA 
HETATM   13  H   UNL     1     -12.378  11.833  67.527  1.00  0.00     0.000 HD 
BRANCH  12  14
HETATM   14  C   UNL     1     -11.608  10.908  69.266  1.00  0.00    -0.318 A  
HETATM   15 BR   UNL     1     -11.028   7.783  72.720  1.00  0.00    -0.463 Br 
HETATM   16  C   UNL     1     -11.026   9.659  69.006  1.00  0.00    -0.161 A  
HETATM   17  C   UNL     1     -12.009  10.200  71.568  1.00  0.00    -0.404 A  
HETATM   18  C   UNL     1     -12.153  11.127  70.540  1.00  0.00    -0.381 A  
HETATM   19  C   UNL     1     -11.329   9.012  71.316  1.00  0.00    -0.319 A  
HETATM   20  C   UNL     1     -10.854   8.727  70.037  1.00  0.00    -0.231 A  
HETATM   21  F   UNL     1     -12.779  12.288  70.792  1.00  0.00    -0.370 F  
ENDBRANCH  12  14
ENDBRANCH   8  12
BRANCH  10  22
HETATM   22  C   UNL     1      -8.793  11.820  67.305  1.00  0.00    -0.167 C  
HETATM   23  H   UNL     1      -9.740  12.087  65.451  1.00  0.00     0.000 HD 
HETATM   24  N   UNL     1      -9.078  11.531  65.992  1.00  0.00    -0.210 N  
HETATM   25  O   UNL     1      -7.965  11.197  67.970  1.00  0.00    -0.108 OA 
BRANCH  24  26
HETATM   26  O   UNL     1      -8.399  10.417  65.430  1.00  0.00    -0.157 OA 
BRANCH  26  27
HETATM   27  C   UNL     1      -9.381   9.395  65.192  1.00  0.00    -0.221 C  
BRANCH  27  28
HETATM   28  C   UNL     1      -9.127   8.169  66.066  1.00  0.00    -0.167 C  
HETATM   29  O   UNL     1     -10.323   7.430  66.301  1.00  0.00    -0.460 OA 
HETATM   30  H   UNL     1     -10.165   6.668  66.845  1.00  0.00     0.000 HD 
ENDBRANCH  27  28
ENDBRANCH  26  27
ENDBRANCH  24  26
ENDBRANCH  10  22
TORSDOF 6
ENDMDL
MODEL       97
REMARK 921   NORMALIZED FREE ENERGY PREDICTED BY IDOCK:   -5.17 KCAL/MOL
REMARK 922        TOTAL FREE ENERGY PREDICTED BY IDOCK:   -8.27 KCAL/MOL
REMARK 923 INTER-LIGAND FREE ENERGY PREDICTED BY IDOCK:   -7.03 KCAL/MOL
REMARK 924 INTRA-LIGAND FREE ENERGY PREDICTED BY IDOCK:   -1.24 KCAL/MOL
REMARK 927      BINDING AFFINITY PREDICTED BY RF-SCORE:    0.00 PKD
ROOT
HETATM    1  C   UNL     1     -12.781  13.313  65.446  1.00  0.00    -0.399 C  
HETATM    2  N   UNL     1     -11.621  12.560  65.042  1.00  0.00    -0.335 NA 
HETATM    3  C   UNL     1     -11.061  12.576  63.797  1.00  0.00    -0.448 A  
HETATM    4  N   UNL     1     -10.026  11.769  63.724  1.00  0.00    -0.341 NA 
HETATM    5  C   UNL     1      -9.914  11.209  64.977  1.00  0.00    -0.273 A  
HETATM    6  C   UNL     1      -9.002  10.269  65.473  1.00  0.00    -0.173 A  
HETATM    7  F   UNL     1      -8.019   9.843  64.665  1.00  0.00    -0.118 F  
HETATM    8  C   UNL     1      -9.098   9.785  66.809  1.00  0.00    -0.146 A  
HETATM    9  C   UNL     1     -10.961  11.339  67.180  1.00  0.00    -0.348 A  
HETATM   10  C   UNL     1     -10.019  10.405  67.682  1.00  0.00    -0.205 A  
HETATM   11  C   UNL     1     -10.895  11.704  65.828  1.00  0.00    -0.281 A  
ENDROOT
BRANCH   8  12
HETATM   12  N   UNL     1      -8.188   8.761  67.257  1.00  0.00    -0.104 NA 
HETATM   13  H   UNL     1      -7.212   9.015  67.409  1.00  0.00     0.000 HD 
BRANCH  12  14
HETATM   14  C   UNL     1      -8.581   7.405  67.501  1.00  0.00    -0.122 A  
HETATM   15 BR   UNL     1      -9.451   2.844  68.189  1.00  0.00    -0.138 Br 
HETATM   16  C   UNL     1      -9.381   6.688  66.599  1.00  0.00    -0.192 A  
HETATM   17  C   UNL     1      -8.461   5.418  68.914  1.00  0.00    -0.099 A  
HETATM   18  C   UNL     1      -8.190   6.764  68.686  1.00  0.00    -0.120 A  
HETATM   19  C   UNL     1      -9.161   4.697  67.952  1.00  0.00    -0.127 A  
HETATM   20  C   UNL     1      -9.640   5.328  66.805  1.00  0.00    -0.156 A  
HETATM   21  F   UNL     1      -7.485   7.451  69.598  1.00  0.00    -0.082 F  
ENDBRANCH  12  14
ENDBRANCH   8  12
BRANCH  10  22
HETATM   22  C   UNL     1     -10.038  10.240  69.179  1.00  0.00    -0.218 C  
HETATM   23  H   UNL     1     -12.134  10.333  69.254  1.00  0.00     0.000 HD 
HETATM   24  N   UNL     1     -11.271  10.215  69.786  1.00  0.00    -0.259 N  
HETATM   25  O   UNL     1      -8.983  10.054  69.787  1.00  0.00    -0.207 OA 
BRANCH  24  26
HETATM   26  O   UNL     1     -11.279  10.015  71.192  1.00  0.00    -0.350 OA 
BRANCH  26  27
HETATM   27  C   UNL     1     -12.315   9.063  71.482  1.00  0.00    -0.331 C  
BRANCH  27  28
HETATM   28  C   UNL     1     -13.540   9.744  72.087  1.00  0.00    -0.344 C  
HETATM   29  O   UNL     1     -14.244   8.876  72.973  1.00  0.00    -1.106 OA 
HETATM   30  H   UNL     1     -15.006   9.300  73.349  1.00  0.00     0.000 HD 
ENDBRANCH  27  28
ENDBRANCH  26  27
ENDBRANCH  24  26
ENDBRANCH  10  22
TORSDOF 6
ENDMDL
MODEL       98
REMARK 921   NORMALIZED FREE ENERGY PREDICTED BY IDOCK:   -5.16 KCAL/MOL
REMARK 922        TOTAL FREE ENERGY PREDICTED BY IDOCK:   -8.24 KCAL/MOL
REMARK 923 INTER-LIGAND FREE ENERGY PREDICTED BY IDOCK:   -7.25 KCAL/MOL
REMARK 924 INTRA-LIGAND FREE ENERGY PREDICTED BY IDOCK:   -0.99 KCAL/MOL
REMARK 927      BINDING AFFINITY PREDICTED BY RF-SCORE:    0.00 PKD
ROOT
HETATM    1  C   UNL     1      -7.521  13.543  67.557  1.00  0.00    -0.167 C  
HETATM    2  N   UNL     1      -7.595  12.125  67.803  1.00  0.00    -0.119 NA 
HETATM    3  C   UNL     1      -6.603  11.224  67.546  1.00  0.00    -0.073 A  
HETATM    4  N   UNL     1      -6.971  10.001  67.854  1.00  0.00    -0.083 NA 
HETATM    5  C   UNL     1      -8.256  10.118  68.332  1.00  0.00    -0.112 A  
HETATM    6  C   UNL     1      -9.147   9.141  68.792  1.00  0.00    -0.136 A  
HETATM    7  F   UNL     1      -8.724   7.869  68.855  1.00  0.00    -0.131 F  
HETATM    8  C   UNL     1     -10.467   9.483  69.204  1.00  0.00    -0.210 A  
HETATM    9  C   UNL     1      -9.914  11.844  68.823  1.00  0.00    -0.105 A  
HETATM   10  C   UNL     1     -10.802  10.850  69.311  1.00  0.00    -0.286 A  
HETATM   11  C   UNL     1      -8.665  11.447  68.326  1.00  0.00    -0.160 A  
ENDROOT
BRANCH   8  12
HETATM   12  N   UNL     1     -11.378   8.438  69.598  1.00  0.00    -0.430 NA 
HETATM   13  H   UNL     1     -12.220   8.297  69.040  1.00  0.00     0.000 HD 
BRANCH  12  14
HETATM   14  C   UNL     1     -11.165   7.587  70.730  1.00  0.00    -0.270 A  
HETATM   15 BR   UNL     1     -10.055   4.968  74.464  1.00  0.00    -0.304 Br 
HETATM   16  C   UNL     1     -10.951   6.207  70.595  1.00  0.00    -0.376 A  
HETATM   17  C   UNL     1     -10.892   7.353  73.145  1.00  0.00    -0.435 A  
HETATM   18  C   UNL     1     -11.196   8.123  72.027  1.00  0.00    -0.310 A  
HETATM   19  C   UNL     1     -10.573   6.009  72.974  1.00  0.00    -0.240 A  
HETATM   20  C   UNL     1     -10.620   5.427  71.709  1.00  0.00    -0.286 A  
HETATM   21  F   UNL     1     -11.471   9.427  72.187  1.00  0.00    -0.422 F  
ENDBRANCH  12  14
ENDBRANCH   8  12
BRANCH  10  22
HETATM   22  C   UNL     1     -12.020  11.391  70.013  1.00  0.00    -0.363 C  
HETATM   23  H   UNL     1     -11.131  13.269  70.306  1.00  0.00     0.000 HD 
HETATM   24  N   UNL     1     -11.966  12.698  70.434  1.00  0.00    -0.309 N  
HETATM   25  O   UNL     1     -13.029  10.692  70.111  1.00  0.00    -0.225 OA 
BRANCH  24  26
HETATM   26  O   UNL     1     -13.136  13.210  71.055  1.00  0.00    -0.182 OA 
BRANCH  26  27
HETATM   27  C   UNL     1     -12.818  14.522  71.548  1.00  0.00    -0.336 C  
BRANCH  27  28
HETATM   28  C   UNL     1     -13.021  14.610  73.059  1.00  0.00    -0.510 C  
HETATM   29  O   UNL     1     -13.504  15.892  73.454  1.00  0.00    -0.669 OA 
HETATM   30  H   UNL     1     -13.630  15.947  74.393  1.00  0.00     0.000 HD 
ENDBRANCH  27  28
ENDBRANCH  26  27
ENDBRANCH  24  26
ENDBRANCH  10  22
TORSDOF 6
ENDMDL
MODEL       99
REMARK 921   NORMALIZED FREE ENERGY PREDICTED BY IDOCK:   -5.13 KCAL/MOL
REMARK 922        TOTAL FREE ENERGY PREDICTED BY IDOCK:   -8.21 KCAL/MOL
REMARK 923 INTER-LIGAND FREE ENERGY PREDICTED BY IDOCK:   -7.04 KCAL/MOL
REMARK 924 INTRA-LIGAND FREE ENERGY PREDICTED BY IDOCK:   -1.17 KCAL/MOL
REMARK 927      BINDING AFFINITY PREDICTED BY RF-SCORE:    0.00 PKD
ROOT
HETATM    1  C   UNL     1     -10.385  11.022  63.111  1.00  0.00    -0.189 C  
HETATM    2  N   UNL     1     -11.024  12.076  63.857  1.00  0.00    -0.362 NA 
HETATM    3  C   UNL     1     -12.083  12.822  63.426  1.00  0.00    -0.534 A  
HETATM    4  N   UNL     1     -12.432  13.722  64.317  1.00  0.00    -0.671 NA 
HETATM    5  C   UNL     1     -11.561  13.549  65.368  1.00  0.00    -0.316 A  
HETATM    6  C   UNL     1     -11.455  14.238  66.583  1.00  0.00    -0.364 A  
HETATM    7  F   UNL     1     -12.351  15.200  66.853  1.00  0.00    -0.083 F  
HETATM    8  C   UNL     1     -10.434  13.919  67.524  1.00  0.00    -0.248 A  
HETATM    9  C   UNL     1      -9.726  12.088  66.051  1.00  0.00    -0.256 A  
HETATM   10  C   UNL     1      -9.641  12.775  67.289  1.00  0.00    -0.208 A  
HETATM   11  C   UNL     1     -10.677  12.508  65.110  1.00  0.00    -0.292 A  
ENDROOT
BRANCH   8  12
HETATM   12  N   UNL     1     -10.311  14.703  68.727  1.00  0.00    -0.243 NA 
HETATM   13  H   UNL     1     -10.781  14.371  69.569  1.00  0.00     0.000 HD 
BRANCH  12  14
HETATM   14  C   UNL     1      -9.565  15.924  68.804  1.00  0.00    -0.219 A  
HETATM   15 BR   UNL     1      -7.130  19.932  68.611  1.00  0.00    -0.307 Br 
HETATM   16  C   UNL     1      -8.196  15.941  69.107  1.00  0.00    -0.240 A  
HETATM   17  C   UNL     1      -9.504  18.353  68.567  1.00  0.00    -0.355 A  
HETATM   18  C   UNL     1     -10.209  17.154  68.603  1.00  0.00    -0.336 A  
HETATM   19  C   UNL     1      -8.126  18.332  68.760  1.00  0.00    -0.241 A  
HETATM   20  C   UNL     1      -7.470  17.137  69.050  1.00  0.00    -0.203 A  
HETATM   21  F   UNL     1     -11.533  17.169  68.382  1.00  0.00    -0.218 F  
ENDBRANCH  12  14
ENDBRANCH   8  12
BRANCH  10  22
HETATM   22  C   UNL     1      -8.744  12.120  68.308  1.00  0.00    -0.178 C  
HETATM   23  H   UNL     1      -9.994  10.441  68.463  1.00  0.00     0.000 HD 
HETATM   24  N   UNL     1      -9.128  10.884  68.770  1.00  0.00    -0.175 N  
HETATM   25  O   UNL     1      -7.683  12.659  68.623  1.00  0.00    -0.125 OA 
BRANCH  24  26
HETATM   26  O   UNL     1      -8.252  10.257  69.696  1.00  0.00    -0.167 OA 
BRANCH  26  27
HETATM   27  C   UNL     1      -8.319   8.842  69.455  1.00  0.00    -0.117 C  
BRANCH  27  28
HETATM   28  C   UNL     1      -9.730   8.413  69.059  1.00  0.00    -0.171 C  
HETATM   29  O   UNL     1     -10.477   7.952  70.182  1.00  0.00    -0.221 OA 
HETATM   30  H   UNL     1     -11.354   7.684  69.935  1.00  0.00     0.000 HD 
ENDBRANCH  27  28
ENDBRANCH  26  27
ENDBRANCH  24  26
ENDBRANCH  10  22
TORSDOF 6
ENDMDL
MODEL      100
REMARK 921   NORMALIZED FREE ENERGY PREDICTED BY IDOCK:   -5.12 KCAL/MOL
REMARK 922        TOTAL FREE ENERGY PREDICTED BY IDOCK:   -8.19 KCAL/MOL
REMARK 923 INTER-LIGAND FREE ENERGY PREDICTED BY IDOCK:   -6.88 KCAL/MOL
REMARK 924 INTRA-LIGAND FREE ENERGY PREDICTED BY IDOCK:   -1.32 KCAL/MOL
REMARK 927      BINDING AFFINITY PREDICTED BY RF-SCORE:    0.00 PKD
ROOT
HETATM    1  C   UNL     1     -12.152  16.268  73.108  1.00  0.00    -0.509 C  
HETATM    2  N   UNL     1     -12.380  15.184  72.187  1.00  0.00    -0.336 NA 
HETATM    3  C   UNL     1     -13.135  14.075  72.440  1.00  0.00    -0.443 A  
HETATM    4  N   UNL     1     -13.138  13.251  71.416  1.00  0.00    -0.315 NA 
HETATM    5  C   UNL     1     -12.351  13.854  70.462  1.00  0.00    -0.369 A  
HETATM    6  C   UNL     1     -11.989  13.425  69.179  1.00  0.00    -0.317 A  
HETATM    7  F   UNL     1     -12.502  12.272  68.723  1.00  0.00    -0.181 F  
HETATM    8  C   UNL     1     -11.112  14.197  68.364  1.00  0.00    -0.252 A  
HETATM    9  C   UNL     1     -11.100  15.923  70.110  1.00  0.00    -0.369 A  
HETATM   10  C   UNL     1     -10.758  15.492  68.802  1.00  0.00    -0.249 A  
HETATM   11  C   UNL     1     -11.876  15.079  70.916  1.00  0.00    -0.324 A  
ENDROOT
BRANCH   8  12
HETATM   12  N   UNL     1     -10.703  13.683  67.082  1.00  0.00    -0.275 NA 
HETATM   13  H   UNL     1     -11.069  14.133  66.243  1.00  0.00     0.000 HD 
BRANCH  12  14
HETATM   14  C   UNL     1      -9.810  12.575  66.921  1.00  0.00    -0.227 A  
HETATM   15 BR   UNL     1      -6.730   9.146  66.032  1.00  0.00    -0.077 Br 
HETATM   16  C   UNL     1     -10.247  11.329  66.448  1.00  0.00    -0.273 A  
HETATM   17  C   UNL     1      -7.537  11.690  67.035  1.00  0.00    -0.154 A  
HETATM   18  C   UNL     1      -8.458  12.707  67.271  1.00  0.00    -0.193 A  
HETATM   19  C   UNL     1      -7.976  10.502  66.460  1.00  0.00    -0.132 A  
HETATM   20  C   UNL     1      -9.328  10.307  66.183  1.00  0.00    -0.211 A  
HETATM   21  F   UNL     1      -8.029  13.867  67.794  1.00  0.00    -0.122 F  
ENDBRANCH  12  14
ENDBRANCH   8  12
BRANCH  10  22
HETATM   22  C   UNL     1     -10.109  16.547  67.946  1.00  0.00    -0.256 C  
HETATM   23  H   UNL     1      -9.526  17.675  69.617  1.00  0.00     0.000 HD 
HETATM   24  N   UNL     1      -9.508  17.596  68.601  1.00  0.00    -0.289 N  
HETATM   25  O   UNL     1     -10.064  16.400  66.724  1.00  0.00    -0.267 OA 
BRANCH  24  26
HETATM   26  O   UNL     1      -8.861  18.562  67.785  1.00  0.00    -0.269 OA 
BRANCH  26  27
HETATM   27  C   UNL     1      -7.454  18.272  67.814  1.00  0.00    -0.221 C  
BRANCH  27  28
HETATM   28  C   UNL     1      -7.008  17.831  69.207  1.00  0.00    -0.152 C  
HETATM   29  O   UNL     1      -6.603  18.938  70.008  1.00  0.00    -0.091 OA 
HETATM   30  H   UNL     1      -6.326  18.663  70.874  1.00  0.00     0.000 HD 
ENDBRANCH  27  28
ENDBRANCH  26  27
ENDBRANCH  24  26
ENDBRANCH  10  22
TORSDOF 6
ENDMDL
MODEL      101
REMARK 921   NORMALIZED FREE ENERGY PREDICTED BY IDOCK:   -5.12 KCAL/MOL
REMARK 922        TOTAL FREE ENERGY PREDICTED BY IDOCK:   -8.19 KCAL/MOL
REMARK 923 INTER-LIGAND FREE ENERGY PREDICTED BY IDOCK:   -6.96 KCAL/MOL
REMARK 924 INTRA-LIGAND FREE ENERGY PREDICTED BY IDOCK:   -1.24 KCAL/MOL
REMARK 927      BINDING AFFINITY PREDICTED BY RF-SCORE:    0.00 PKD
ROOT
HETATM    1  C   UNL     1     -11.758   5.149  72.972  1.00  0.00    -0.150 C  
HETATM    2  N   UNL     1     -11.026   6.328  72.587  1.00  0.00    -0.241 NA 
HETATM    3  C   UNL     1     -10.516   7.259  73.446  1.00  0.00    -0.377 A  
HETATM    4  N   UNL     1      -9.919   8.235  72.799  1.00  0.00    -0.283 NA 
HETATM    5  C   UNL     1     -10.049   7.919  71.466  1.00  0.00    -0.180 A  
HETATM    6  C   UNL     1      -9.617   8.605  70.324  1.00  0.00    -0.170 A  
HETATM    7  F   UNL     1      -8.909   9.733  70.485  1.00  0.00    -0.250 F  
HETATM    8  C   UNL     1      -9.902   8.113  69.018  1.00  0.00    -0.176 A  
HETATM    9  C   UNL     1     -10.935   6.139  70.047  1.00  0.00    -0.441 A  
HETATM   10  C   UNL     1     -10.473   6.827  68.896  1.00  0.00    -0.229 A  
HETATM   11  C   UNL     1     -10.726   6.716  71.307  1.00  0.00    -0.231 A  
ENDROOT
BRANCH   8  12
HETATM   12  N   UNL     1      -9.508   8.888  67.869  1.00  0.00    -0.141 NA 
HETATM   13  H   UNL     1      -8.631   8.652  67.405  1.00  0.00     0.000 HD 
BRANCH  12  14
HETATM   14  C   UNL     1     -10.282   9.973  67.342  1.00  0.00    -0.219 A  
HETATM   15 BR   UNL     1     -12.436  13.755  65.585  1.00  0.00    -0.544 Br 
HETATM   16  C   UNL     1     -11.091  10.775  68.159  1.00  0.00    -0.337 A  
HETATM   17  C   UNL     1     -10.922  11.345  65.426  1.00  0.00    -0.249 A  
HETATM   18  C   UNL     1     -10.268  10.240  65.964  1.00  0.00    -0.228 A  
HETATM   19  C   UNL     1     -11.628  12.191  66.275  1.00  0.00    -0.360 A  
HETATM   20  C   UNL     1     -11.733  11.903  67.634  1.00  0.00    -0.346 A  
HETATM   21  F   UNL     1      -9.558   9.442  65.152  1.00  0.00    -0.320 F  
ENDBRANCH  12  14
ENDBRANCH   8  12
BRANCH  10  22
HETATM   22  C   UNL     1     -10.553   6.034  67.618  1.00  0.00    -0.264 C  
HETATM   23  H   UNL     1      -9.559   4.392  68.468  1.00  0.00     0.000 HD 
HETATM   24  N   UNL     1     -10.017   4.768  67.638  1.00  0.00    -0.149 N  
HETATM   25  O   UNL     1     -11.154   6.497  66.648  1.00  0.00    -0.283 OA 
BRANCH  24  26
HETATM   26  O   UNL     1     -10.138   4.013  66.441  1.00  0.00    -0.168 OA 
BRANCH  26  27
HETATM   27  C   UNL     1      -8.866   4.062  65.776  1.00  0.00    -0.123 C  
BRANCH  27  28
HETATM   28  C   UNL     1      -9.022   4.461  64.310  1.00  0.00    -0.151 C  
HETATM   29  O   UNL     1      -8.853   5.865  64.124  1.00  0.00    -0.347 OA 
HETATM   30  H   UNL     1      -8.951   6.113  63.213  1.00  0.00     0.000 HD 
ENDBRANCH  27  28
ENDBRANCH  26  27
ENDBRANCH  24  26
ENDBRANCH  10  22
TORSDOF 6
ENDMDL
MODEL      102
REMARK 921   NORMALIZED FREE ENERGY PREDICTED BY IDOCK:   -5.11 KCAL/MOL
REMARK 922        TOTAL FREE ENERGY PREDICTED BY IDOCK:   -8.18 KCAL/MOL
REMARK 923 INTER-LIGAND FREE ENERGY PREDICTED BY IDOCK:   -7.07 KCAL/MOL
REMARK 924 INTRA-LIGAND FREE ENERGY PREDICTED BY IDOCK:   -1.10 KCAL/MOL
REMARK 927      BINDING AFFINITY PREDICTED BY RF-SCORE:    0.00 PKD
ROOT
HETATM    1  C   UNL     1      -9.739   6.821  74.178  1.00  0.00    -0.295 C  
HETATM    2  N   UNL     1     -10.021   6.297  72.866  1.00  0.00    -0.168 NA 
HETATM    3  C   UNL     1     -10.025   4.975  72.525  1.00  0.00    -0.177 A  
HETATM    4  N   UNL     1     -10.296   4.808  71.251  1.00  0.00    -0.159 NA 
HETATM    5  C   UNL     1     -10.474   6.076  70.748  1.00  0.00    -0.239 A  
HETATM    6  C   UNL     1     -10.768   6.505  69.447  1.00  0.00    -0.277 A  
HETATM    7  F   UNL     1     -10.974   5.577  68.499  1.00  0.00    -0.276 F  
HETATM    8  C   UNL     1     -10.865   7.891  69.132  1.00  0.00    -0.038 A  
HETATM    9  C   UNL     1     -10.517   8.397  71.509  1.00  0.00    -0.305 A  
HETATM   10  C   UNL     1     -10.838   8.822  70.194  1.00  0.00    -0.241 A  
HETATM   11  C   UNL     1     -10.324   7.029  71.748  1.00  0.00    -0.197 A  
ENDROOT
BRANCH   8  12
HETATM   12  N   UNL     1     -11.091   8.292  67.767  1.00  0.00    -0.390 NA 
HETATM   13  H   UNL     1     -12.049   8.480  67.472  1.00  0.00     0.000 HD 
BRANCH  12  14
HETATM   14  C   UNL     1     -10.044   8.441  66.801  1.00  0.00    -0.303 A  
HETATM   15 BR   UNL     1      -6.910   8.816  63.327  1.00  0.00    -0.089 Br 
HETATM   16  C   UNL     1      -9.030   7.483  66.650  1.00  0.00    -0.177 A  
HETATM   17  C   UNL     1      -9.055   9.721  64.973  1.00  0.00    -0.280 A  
HETATM   18  C   UNL     1      -9.993   9.586  65.992  1.00  0.00    -0.278 A  
HETATM   19  C   UNL     1      -8.127   8.705  64.769  1.00  0.00    -0.149 A  
HETATM   20  C   UNL     1      -8.095   7.596  65.614  1.00  0.00    -0.127 A  
HETATM   21  F   UNL     1     -10.910  10.550  66.167  1.00  0.00    -0.258 F  
ENDBRANCH  12  14
ENDBRANCH   8  12
BRANCH  10  22
HETATM   22  C   UNL     1     -11.233  10.271  70.083  1.00  0.00    -0.318 C  
HETATM   23  H   UNL     1     -12.594  10.117  71.674  1.00  0.00     0.000 HD 
HETATM   24  N   UNL     1     -12.165  10.732  70.983  1.00  0.00    -0.368 N  
HETATM   25  O   UNL     1     -10.663  10.999  69.269  1.00  0.00    -0.219 OA 
BRANCH  24  26
HETATM   26  O   UNL     1     -12.496  12.110  70.898  1.00  0.00    -0.368 OA 
BRANCH  26  27
HETATM   27  C   UNL     1     -13.387  12.402  71.987  1.00  0.00    -0.407 C  
BRANCH  27  28
HETATM   28  C   UNL     1     -13.637  13.904  72.111  1.00  0.00    -0.506 C  
HETATM   29  O   UNL     1     -13.686  14.539  70.836  1.00  0.00    -0.466 OA 
HETATM   30  H   UNL     1     -13.841  15.472  70.913  1.00  0.00     0.000 HD 
ENDBRANCH  27  28
ENDBRANCH  26  27
ENDBRANCH  24  26
ENDBRANCH  10  22
TORSDOF 6
ENDMDL
MODEL      103
REMARK 921   NORMALIZED FREE ENERGY PREDICTED BY IDOCK:   -5.11 KCAL/MOL
REMARK 922        TOTAL FREE ENERGY PREDICTED BY IDOCK:   -8.18 KCAL/MOL
REMARK 923 INTER-LIGAND FREE ENERGY PREDICTED BY IDOCK:   -6.98 KCAL/MOL
REMARK 924 INTRA-LIGAND FREE ENERGY PREDICTED BY IDOCK:   -1.20 KCAL/MOL
REMARK 927      BINDING AFFINITY PREDICTED BY RF-SCORE:    0.00 PKD
ROOT
HETATM    1  C   UNL     1      -9.640  16.518  68.925  1.00  0.00    -0.261 C  
HETATM    2  N   UNL     1      -8.816  15.453  68.414  1.00  0.00    -0.171 NA 
HETATM    3  C   UNL     1      -7.536  15.591  67.958  1.00  0.00    -0.125 A  
HETATM    4  N   UNL     1      -7.050  14.447  67.533  1.00  0.00    -0.187 NA 
HETATM    5  C   UNL     1      -8.060  13.531  67.723  1.00  0.00    -0.177 A  
HETATM    6  C   UNL     1      -8.109  12.161  67.439  1.00  0.00    -0.171 A  
HETATM    7  F   UNL     1      -7.008  11.570  66.949  1.00  0.00    -0.111 F  
HETATM    8  C   UNL     1      -9.289  11.400  67.677  1.00  0.00    -0.159 A  
HETATM    9  C   UNL     1     -10.319  13.407  68.644  1.00  0.00    -0.213 A  
HETATM   10  C   UNL     1     -10.352  12.015  68.375  1.00  0.00    -0.220 A  
HETATM   11  C   UNL     1      -9.174  14.136  68.292  1.00  0.00    -0.198 A  
ENDROOT
BRANCH   8  12
HETATM   12  N   UNL     1      -9.324  10.010  67.298  1.00  0.00    -0.147 NA 
HETATM   13  H   UNL     1      -9.265   9.778  66.307  1.00  0.00     0.000 HD 
BRANCH  12  14
HETATM   14  C   UNL     1      -9.438   8.936  68.240  1.00  0.00    -0.140 A  
HETATM   15 BR   UNL     1     -10.191   5.603  71.457  1.00  0.00    -0.273 Br 
HETATM   16  C   UNL     1      -8.662   8.884  69.407  1.00  0.00    -0.142 A  
HETATM   17  C   UNL     1     -10.540   6.869  68.927  1.00  0.00    -0.244 A  
HETATM   18  C   UNL     1     -10.324   7.877  67.992  1.00  0.00    -0.209 A  
HETATM   19  C   UNL     1      -9.839   6.900  70.128  1.00  0.00    -0.177 A  
HETATM   20  C   UNL     1      -8.887   7.890  70.366  1.00  0.00    -0.142 A  
HETATM   21  F   UNL     1     -11.025   7.867  66.847  1.00  0.00    -0.403 F  
ENDBRANCH  12  14
ENDBRANCH   8  12
BRANCH  10  22
HETATM   22  C   UNL     1     -11.526  11.288  68.978  1.00  0.00    -0.302 C  
HETATM   23  H   UNL     1     -10.927  11.757  70.935  1.00  0.00     0.000 HD 
HETATM   24  N   UNL     1     -11.628  11.303  70.349  1.00  0.00    -0.288 N  
HETATM   25  O   UNL     1     -12.379  10.790  68.243  1.00  0.00    -0.296 OA 
BRANCH  24  26
HETATM   26  O   UNL     1     -12.762  10.653  70.905  1.00  0.00    -0.355 OA 
BRANCH  26  27
HETATM   27  C   UNL     1     -12.316   9.392  71.429  1.00  0.00    -0.357 C  
BRANCH  27  28
HETATM   28  C   UNL     1     -13.491   8.551  71.923  1.00  0.00    -0.383 C  
HETATM   29  O   UNL     1     -13.994   9.025  73.169  1.00  0.00    -1.130 OA 
HETATM   30  H   UNL     1     -14.724   8.502  73.477  1.00  0.00     0.000 HD 
ENDBRANCH  27  28
ENDBRANCH  26  27
ENDBRANCH  24  26
ENDBRANCH  10  22
TORSDOF 6
ENDMDL
MODEL      104
REMARK 921   NORMALIZED FREE ENERGY PREDICTED BY IDOCK:   -5.09 KCAL/MOL
REMARK 922        TOTAL FREE ENERGY PREDICTED BY IDOCK:   -8.16 KCAL/MOL
REMARK 923 INTER-LIGAND FREE ENERGY PREDICTED BY IDOCK:   -6.87 KCAL/MOL
REMARK 924 INTRA-LIGAND FREE ENERGY PREDICTED BY IDOCK:   -1.29 KCAL/MOL
REMARK 927      BINDING AFFINITY PREDICTED BY RF-SCORE:    0.00 PKD
ROOT
HETATM    1  C   UNL     1      -7.907   4.306  72.608  1.00  0.00    -0.081 C  
HETATM    2  N   UNL     1      -8.939   5.232  72.998  1.00  0.00    -0.120 NA 
HETATM    3  C   UNL     1      -9.394   5.421  74.271  1.00  0.00    -0.132 A  
HETATM    4  N   UNL     1     -10.356   6.315  74.311  1.00  0.00    -0.318 NA 
HETATM    5  C   UNL     1     -10.528   6.722  73.008  1.00  0.00    -0.254 A  
HETATM    6  C   UNL     1     -11.423   7.646  72.454  1.00  0.00    -0.340 A  
HETATM    7  F   UNL     1     -12.237   8.321  73.281  1.00  0.00    -0.194 F  
HETATM    8  C   UNL     1     -11.462   7.884  71.051  1.00  0.00    -0.280 A  
HETATM    9  C   UNL     1      -9.564   6.349  70.793  1.00  0.00    -0.193 A  
HETATM   10  C   UNL     1     -10.458   7.305  70.245  1.00  0.00    -0.231 A  
HETATM   11  C   UNL     1      -9.637   6.068  72.165  1.00  0.00    -0.151 A  
ENDROOT
BRANCH   8  12
HETATM   12  N   UNL     1     -12.450   8.786  70.514  1.00  0.00    -0.366 NA 
HETATM   13  H   UNL     1     -13.298   8.388  70.111  1.00  0.00     0.000 HD 
BRANCH  12  14
HETATM   14  C   UNL     1     -12.305  10.211  70.515  1.00  0.00    -0.245 A  
HETATM   15 BR   UNL     1     -12.240  14.901  70.346  1.00  0.00    -0.422 Br 
HETATM   16  C   UNL     1     -11.508  10.879  69.574  1.00  0.00    -0.372 A  
HETATM   17  C   UNL     1     -12.917  12.371  71.474  1.00  0.00    -0.385 A  
HETATM   18  C   UNL     1     -12.947  10.980  71.498  1.00  0.00    -0.448 A  
HETATM   19  C   UNL     1     -12.210  13.015  70.463  1.00  0.00    -0.313 A  
HETATM   20  C   UNL     1     -11.489  12.278  69.524  1.00  0.00    -0.318 A  
HETATM   21  F   UNL     1     -13.657  10.359  72.453  1.00  0.00    -0.470 F  
ENDBRANCH  12  14
ENDBRANCH   8  12
BRANCH  10  22
HETATM   22  C   UNL     1     -10.163   7.690  68.819  1.00  0.00    -0.199 C  
HETATM   23  H   UNL     1      -8.379   8.658  69.354  1.00  0.00     0.000 HD 
HETATM   24  N   UNL     1      -9.000   8.387  68.592  1.00  0.00    -0.140 N  
HETATM   25  O   UNL     1     -10.908   7.309  67.916  1.00  0.00    -0.188 OA 
BRANCH  24  26
HETATM   26  O   UNL     1      -8.709   8.707  67.239  1.00  0.00    -0.127 OA 
BRANCH  26  27
HETATM   27  C   UNL     1      -8.885  10.125  67.089  1.00  0.00    -0.132 C  
BRANCH  27  28
HETATM   28  C   UNL     1     -10.027  10.443  66.125  1.00  0.00    -0.231 C  
HETATM   29  O   UNL     1      -9.562  11.121  64.960  1.00  0.00    -0.222 OA 
HETATM   30  H   UNL     1     -10.272  11.319  64.361  1.00  0.00     0.000 HD 
ENDBRANCH  27  28
ENDBRANCH  26  27
ENDBRANCH  24  26
ENDBRANCH  10  22
TORSDOF 6
ENDMDL
MODEL      105
REMARK 921   NORMALIZED FREE ENERGY PREDICTED BY IDOCK:   -5.08 KCAL/MOL
REMARK 922        TOTAL FREE ENERGY PREDICTED BY IDOCK:   -8.14 KCAL/MOL
REMARK 923 INTER-LIGAND FREE ENERGY PREDICTED BY IDOCK:   -7.32 KCAL/MOL
REMARK 924 INTRA-LIGAND FREE ENERGY PREDICTED BY IDOCK:   -0.83 KCAL/MOL
REMARK 927      BINDING AFFINITY PREDICTED BY RF-SCORE:    0.00 PKD
ROOT
HETATM    1  C   UNL     1      -6.007   9.116  66.462  1.00  0.00    -0.059 C  
HETATM    2  N   UNL     1      -7.257   9.704  66.053  1.00  0.00    -0.096 NA 
HETATM    3  C   UNL     1      -7.558  10.126  64.790  1.00  0.00    -0.139 A  
HETATM    4  N   UNL     1      -8.765  10.640  64.730  1.00  0.00    -0.181 NA 
HETATM    5  C   UNL     1      -9.265  10.546  66.008  1.00  0.00    -0.176 A  
HETATM    6  C   UNL     1     -10.499  10.948  66.534  1.00  0.00    -0.253 A  
HETATM    7  F   UNL     1     -11.410  11.470  65.698  1.00  0.00    -0.339 F  
HETATM    8  C   UNL     1     -10.795  10.795  67.919  1.00  0.00    -0.264 A  
HETATM    9  C   UNL     1      -8.630   9.675  68.201  1.00  0.00    -0.119 A  
HETATM   10  C   UNL     1      -9.891  10.063  68.720  1.00  0.00    -0.173 A  
HETATM   11  C   UNL     1      -8.341   9.945  66.856  1.00  0.00    -0.124 A  
ENDROOT
BRANCH   8  12
HETATM   12  N   UNL     1     -12.045  11.293  68.434  1.00  0.00    -0.643 NA 
HETATM   13  H   UNL     1     -12.906  10.831  68.141  1.00  0.00     0.000 HD 
BRANCH  12  14
HETATM   14  C   UNL     1     -12.145  12.401  69.336  1.00  0.00    -0.180 A  
HETATM   15 BR   UNL     1     -12.026  16.029  72.313  1.00  0.00    -0.665 Br 
HETATM   16  C   UNL     1     -12.545  12.241  70.671  1.00  0.00    -0.241 A  
HETATM   17  C   UNL     1     -11.851  14.789  69.751  1.00  0.00    -0.362 A  
HETATM   18  C   UNL     1     -11.867  13.700  68.884  1.00  0.00    -0.364 A  
HETATM   19  C   UNL     1     -12.143  14.587  71.096  1.00  0.00    -0.344 A  
HETATM   20  C   UNL     1     -12.509  13.324  71.558  1.00  0.00    -0.224 A  
HETATM   21  F   UNL     1     -11.552  13.889  67.593  1.00  0.00    -0.297 F  
ENDBRANCH  12  14
ENDBRANCH   8  12
BRANCH  10  22
HETATM   22  C   UNL     1     -10.186   9.544  70.103  1.00  0.00    -0.246 C  
HETATM   23  H   UNL     1     -12.057   8.792  69.521  1.00  0.00     0.000 HD 
HETATM   24  N   UNL     1     -11.384   8.893  70.280  1.00  0.00    -0.210 N  
HETATM   25  O   UNL     1      -9.333   9.641  70.986  1.00  0.00    -0.170 OA 
BRANCH  24  26
HETATM   26  O   UNL     1     -11.632   8.369  71.576  1.00  0.00    -0.261 OA 
BRANCH  26  27
HETATM   27  C   UNL     1     -12.719   9.121  72.140  1.00  0.00    -0.395 C  
BRANCH  27  28
HETATM   28  C   UNL     1     -14.050   8.396  71.954  1.00  0.00    -0.442 C  
HETATM   29  O   UNL     1     -13.862   7.016  71.649  1.00  0.00    -0.351 OA 
HETATM   30  H   UNL     1     -14.689   6.565  71.533  1.00  0.00     0.000 HD 
ENDBRANCH  27  28
ENDBRANCH  26  27
ENDBRANCH  24  26
ENDBRANCH  10  22
TORSDOF 6
ENDMDL
MODEL      106
REMARK 921   NORMALIZED FREE ENERGY PREDICTED BY IDOCK:   -5.06 KCAL/MOL
REMARK 922        TOTAL FREE ENERGY PREDICTED BY IDOCK:   -8.12 KCAL/MOL
REMARK 923 INTER-LIGAND FREE ENERGY PREDICTED BY IDOCK:   -7.06 KCAL/MOL
REMARK 924 INTRA-LIGAND FREE ENERGY PREDICTED BY IDOCK:   -1.06 KCAL/MOL
REMARK 927      BINDING AFFINITY PREDICTED BY RF-SCORE:    0.00 PKD
ROOT
HETATM    1  C   UNL     1      -9.185  10.789  62.363  1.00  0.00    -0.269 C  
HETATM    2  N   UNL     1      -8.719  10.473  63.689  1.00  0.00    -0.183 NA 
HETATM    3  C   UNL     1      -7.746   9.565  63.991  1.00  0.00    -0.124 A  
HETATM    4  N   UNL     1      -7.554   9.478  65.288  1.00  0.00    -0.107 NA 
HETATM    5  C   UNL     1      -8.441  10.370  65.847  1.00  0.00    -0.156 A  
HETATM    6  C   UNL     1      -8.687  10.687  67.188  1.00  0.00    -0.130 A  
HETATM    7  F   UNL     1      -7.933  10.101  68.132  1.00  0.00    -0.099 F  
HETATM    8  C   UNL     1      -9.699  11.621  67.551  1.00  0.00    -0.177 A  
HETATM    9  C   UNL     1     -10.103  12.025  65.164  1.00  0.00    -0.295 A  
HETATM   10  C   UNL     1     -10.329  12.358  66.524  1.00  0.00    -0.248 A  
HETATM   11  C   UNL     1      -9.173  11.020  64.861  1.00  0.00    -0.188 A  
ENDROOT
BRANCH   8  12
HETATM   12  N   UNL     1      -9.974  11.861  68.945  1.00  0.00    -0.409 NA 
HETATM   13  H   UNL     1      -9.447  12.593  69.421  1.00  0.00     0.000 HD 
BRANCH  12  14
HETATM   14  C   UNL     1     -10.946  11.127  69.698  1.00  0.00    -0.192 A  
HETATM   15 BR   UNL     1     -13.911   8.843  72.533  1.00  0.00    -0.405 Br 
HETATM   16  C   UNL     1     -10.939   9.725  69.757  1.00  0.00    -0.287 A  
HETATM   17  C   UNL     1     -12.865  11.142  71.208  1.00  0.00    -0.515 A  
HETATM   18  C   UNL     1     -11.964  11.808  70.382  1.00  0.00    -0.332 A  
HETATM   19  C   UNL     1     -12.768   9.760  71.337  1.00  0.00    -0.387 A  
HETATM   20  C   UNL     1     -11.824   9.045  70.602  1.00  0.00    -0.193 A  
HETATM   21  F   UNL     1     -12.036  13.145  70.283  1.00  0.00    -0.375 F  
ENDBRANCH  12  14
ENDBRANCH   8  12
BRANCH  10  22
HETATM   22  C   UNL     1     -11.179  13.583  66.735  1.00  0.00    -0.310 C  
HETATM   23  H   UNL     1      -9.533  14.730  67.354  1.00  0.00     0.000 HD 
HETATM   24  N   UNL     1     -10.535  14.720  67.160  1.00  0.00    -0.263 N  
HETATM   25  O   UNL     1     -12.376  13.553  66.449  1.00  0.00    -0.407 OA 
BRANCH  24  26
HETATM   26  O   UNL     1     -11.338  15.882  67.314  1.00  0.00    -0.171 OA 
BRANCH  26  27
HETATM   27  C   UNL     1     -10.530  16.877  67.964  1.00  0.00    -0.347 C  
BRANCH  27  28
HETATM   28  C   UNL     1      -9.059  16.733  67.581  1.00  0.00    -0.218 C  
HETATM   29  O   UNL     1      -8.736  17.503  66.425  1.00  0.00    -0.277 OA 
HETATM   30  H   UNL     1      -7.821  17.413  66.187  1.00  0.00     0.000 HD 
ENDBRANCH  27  28
ENDBRANCH  26  27
ENDBRANCH  24  26
ENDBRANCH  10  22
TORSDOF 6
ENDMDL
MODEL      107
REMARK 921   NORMALIZED FREE ENERGY PREDICTED BY IDOCK:   -5.05 KCAL/MOL
REMARK 922        TOTAL FREE ENERGY PREDICTED BY IDOCK:   -8.11 KCAL/MOL
REMARK 923 INTER-LIGAND FREE ENERGY PREDICTED BY IDOCK:   -7.53 KCAL/MOL
REMARK 924 INTRA-LIGAND FREE ENERGY PREDICTED BY IDOCK:   -0.58 KCAL/MOL
REMARK 927      BINDING AFFINITY PREDICTED BY RF-SCORE:    0.00 PKD
ROOT
HETATM    1  C   UNL     1     -10.470   8.143  66.820  1.00  0.00    -0.246 C  
HETATM    2  N   UNL     1      -9.796   9.404  66.642  1.00  0.00    -0.225 NA 
HETATM    3  C   UNL     1      -8.842   9.666  65.702  1.00  0.00    -0.159 A  
HETATM    4  N   UNL     1      -8.395  10.898  65.800  1.00  0.00    -0.159 NA 
HETATM    5  C   UNL     1      -9.091  11.454  66.848  1.00  0.00    -0.175 A  
HETATM    6  C   UNL     1      -9.018  12.735  67.410  1.00  0.00    -0.195 A  
HETATM    7  F   UNL     1      -8.193  13.633  66.848  1.00  0.00    -0.179 F  
HETATM    8  C   UNL     1      -9.810  13.091  68.539  1.00  0.00    -0.151 A  
HETATM    9  C   UNL     1     -10.867  10.879  68.424  1.00  0.00    -0.266 A  
HETATM   10  C   UNL     1     -10.804  12.186  68.972  1.00  0.00    -0.208 A  
HETATM   11  C   UNL     1      -9.991  10.540  67.384  1.00  0.00    -0.179 A  
ENDROOT
BRANCH   8  12
HETATM   12  N   UNL     1      -9.648  14.393  69.134  1.00  0.00    -0.403 NA 
HETATM   13  H   UNL     1      -9.498  14.448  70.142  1.00  0.00     0.000 HD 
BRANCH  12  14
HETATM   14  C   UNL     1      -9.687  15.615  68.388  1.00  0.00    -0.202 A  
HETATM   15 BR   UNL     1      -9.989  19.810  66.304  1.00  0.00    -0.612 Br 
HETATM   16  C   UNL     1     -10.649  15.850  67.394  1.00  0.00    -0.315 A  
HETATM   17  C   UNL     1      -8.789  17.850  67.991  1.00  0.00    -0.268 A  
HETATM   18  C   UNL     1      -8.726  16.610  68.619  1.00  0.00    -0.250 A  
HETATM   19  C   UNL     1      -9.820  18.100  67.090  1.00  0.00    -0.317 A  
HETATM   20  C   UNL     1     -10.738  17.101  66.773  1.00  0.00    -0.097 A  
HETATM   21  F   UNL     1      -7.752  16.381  69.514  1.00  0.00    -0.239 F  
ENDBRANCH  12  14
ENDBRANCH   8  12
BRANCH  10  22
HETATM   22  C   UNL     1     -11.918  12.518  69.930  1.00  0.00    -0.301 C  
HETATM   23  H   UNL     1     -12.076  14.482  69.207  1.00  0.00     0.000 HD 
HETATM   24  N   UNL     1     -12.443  13.786  69.857  1.00  0.00    -0.262 N  
HETATM   25  O   UNL     1     -12.369  11.643  70.669  1.00  0.00    -0.359 OA 
BRANCH  24  26
HETATM   26  O   UNL     1     -13.522  14.075  70.734  1.00  0.00    -0.158 OA 
BRANCH  26  27
HETATM   27  C   UNL     1     -13.387  15.446  71.141  1.00  0.00    -0.508 C  
BRANCH  27  28
HETATM   28  C   UNL     1     -13.186  15.558  72.650  1.00  0.00    -0.486 C  
HETATM   29  O   UNL     1     -13.180  14.279  73.280  1.00  0.00    -0.614 OA 
HETATM   30  H   UNL     1     -13.055  14.349  74.219  1.00  0.00     0.000 HD 
ENDBRANCH  27  28
ENDBRANCH  26  27
ENDBRANCH  24  26
ENDBRANCH  10  22
TORSDOF 6
ENDMDL
MODEL      108
REMARK 921   NORMALIZED FREE ENERGY PREDICTED BY IDOCK:   -5.05 KCAL/MOL
REMARK 922        TOTAL FREE ENERGY PREDICTED BY IDOCK:   -8.11 KCAL/MOL
REMARK 923 INTER-LIGAND FREE ENERGY PREDICTED BY IDOCK:   -7.20 KCAL/MOL
REMARK 924 INTRA-LIGAND FREE ENERGY PREDICTED BY IDOCK:   -0.91 KCAL/MOL
REMARK 927      BINDING AFFINITY PREDICTED BY RF-SCORE:    0.00 PKD
ROOT
HETATM    1  C   UNL     1     -12.398  15.349  63.846  1.00  0.00     0.271 C  
HETATM    2  N   UNL     1     -12.239  14.075  64.499  1.00  0.00    -0.534 NA 
HETATM    3  C   UNL     1     -12.645  12.872  63.998  1.00  0.00    -0.246 A  
HETATM    4  N   UNL     1     -12.384  11.890  64.831  1.00  0.00    -0.262 NA 
HETATM    5  C   UNL     1     -11.783  12.486  65.917  1.00  0.00    -0.426 A  
HETATM    6  C   UNL     1     -11.306  11.929  67.110  1.00  0.00    -0.331 A  
HETATM    7  F   UNL     1     -11.366  10.597  67.263  1.00  0.00    -0.360 F  
HETATM    8  C   UNL     1     -10.753  12.748  68.136  1.00  0.00    -0.226 A  
HETATM    9  C   UNL     1     -11.029  14.688  66.658  1.00  0.00    -0.323 A  
HETATM   10  C   UNL     1     -10.527  14.113  67.854  1.00  0.00    -0.237 A  
HETATM   11  C   UNL     1     -11.664  13.857  65.725  1.00  0.00    -0.359 A  
ENDROOT
BRANCH   8  12
HETATM   12  N   UNL     1     -10.345  12.145  69.379  1.00  0.00    -0.335 NA 
HETATM   13  H   UNL     1      -9.472  12.458  69.804  1.00  0.00     0.000 HD 
BRANCH  12  14
HETATM   14  C   UNL     1     -11.100  11.130  70.052  1.00  0.00    -0.098 A  
HETATM   15 BR   UNL     1     -13.555   7.571  71.879  1.00  0.00    -0.272 Br 
HETATM   16  C   UNL     1     -12.475  11.264  70.295  1.00  0.00    -0.330 A  
HETATM   17  C   UNL     1     -11.171   8.919  71.084  1.00  0.00    -0.352 A  
HETATM   18  C   UNL     1     -10.460   9.973  70.518  1.00  0.00    -0.198 A  
HETATM   19  C   UNL     1     -12.553   9.028  71.212  1.00  0.00    -0.280 A  
HETATM   20  C   UNL     1     -13.207  10.202  70.840  1.00  0.00    -0.360 A  
HETATM   21  F   UNL     1      -9.132   9.854  70.363  1.00  0.00    -0.260 F  
ENDBRANCH  12  14
ENDBRANCH   8  12
BRANCH  10  22
HETATM   22  C   UNL     1      -9.682  15.041  68.687  1.00  0.00    -0.219 C  
HETATM   23  H   UNL     1      -8.411  15.477  67.074  1.00  0.00     0.000 HD 
HETATM   24  N   UNL     1      -8.630  15.659  68.054  1.00  0.00    -0.154 N  
HETATM   25  O   UNL     1      -9.999  15.275  69.853  1.00  0.00    -0.244 OA 
BRANCH  24  26
HETATM   26  O   UNL     1      -7.866  16.565  68.837  1.00  0.00    -0.220 OA 
BRANCH  26  27
HETATM   27  C   UNL     1      -8.064  17.877  68.286  1.00  0.00    -0.293 C  
BRANCH  27  28
HETATM   28  C   UNL     1      -8.340  17.812  66.785  1.00  0.00    -0.248 C  
HETATM   29  O   UNL     1      -7.836  18.959  66.105  1.00  0.00    -0.303 OA 
HETATM   30  H   UNL     1      -8.009  18.919  65.172  1.00  0.00     0.000 HD 
ENDBRANCH  27  28
ENDBRANCH  26  27
ENDBRANCH  24  26
ENDBRANCH  10  22
TORSDOF 6
ENDMDL
MODEL      109
REMARK 921   NORMALIZED FREE ENERGY PREDICTED BY IDOCK:   -5.04 KCAL/MOL
REMARK 922        TOTAL FREE ENERGY PREDICTED BY IDOCK:   -8.08 KCAL/MOL
REMARK 923 INTER-LIGAND FREE ENERGY PREDICTED BY IDOCK:   -6.87 KCAL/MOL
REMARK 924 INTRA-LIGAND FREE ENERGY PREDICTED BY IDOCK:   -1.21 KCAL/MOL
REMARK 927      BINDING AFFINITY PREDICTED BY RF-SCORE:    0.00 PKD
ROOT
HETATM    1  C   UNL     1      -9.824   5.126  68.354  1.00  0.00    -0.152 C  
HETATM    2  N   UNL     1      -9.496   6.065  67.311  1.00  0.00    -0.112 NA 
HETATM    3  C   UNL     1      -8.825   5.768  66.161  1.00  0.00    -0.145 A  
HETATM    4  N   UNL     1      -8.654   6.835  65.413  1.00  0.00    -0.098 NA 
HETATM    5  C   UNL     1      -9.241   7.865  66.112  1.00  0.00    -0.152 A  
HETATM    6  C   UNL     1      -9.348   9.227  65.804  1.00  0.00    -0.244 A  
HETATM    7  F   UNL     1      -8.869   9.655  64.625  1.00  0.00    -0.172 F  
HETATM    8  C   UNL     1      -9.966  10.140  66.706  1.00  0.00    -0.211 A  
HETATM    9  C   UNL     1     -10.505   8.244  68.168  1.00  0.00    -0.226 A  
HETATM   10  C   UNL     1     -10.630   9.617  67.837  1.00  0.00    -0.308 A  
HETATM   11  C   UNL     1      -9.792   7.403  67.301  1.00  0.00    -0.175 A  
ENDROOT
BRANCH   8  12
HETATM   12  N   UNL     1      -9.987  11.545  66.386  1.00  0.00    -0.204 NA 
HETATM   13  H   UNL     1     -10.529  11.847  65.577  1.00  0.00     0.000 HD 
BRANCH  12  14
HETATM   14  C   UNL     1      -9.289  12.540  67.144  1.00  0.00    -0.201 A  
HETATM   15 BR   UNL     1      -6.905  15.998  69.240  1.00  0.00    -0.209 Br 
HETATM   16  C   UNL     1      -8.029  12.295  67.710  1.00  0.00    -0.154 A  
HETATM   17  C   UNL     1      -9.190  14.822  68.006  1.00  0.00    -0.194 A  
HETATM   18  C   UNL     1      -9.876  13.794  67.365  1.00  0.00    -0.238 A  
HETATM   19  C   UNL     1      -7.896  14.589  68.461  1.00  0.00    -0.136 A  
HETATM   20  C   UNL     1      -7.319  13.327  68.335  1.00  0.00    -0.112 A  
HETATM   21  F   UNL     1     -11.112  14.028  66.895  1.00  0.00    -0.287 F  
ENDBRANCH  12  14
ENDBRANCH   8  12
BRANCH  10  22
HETATM   22  C   UNL     1     -11.584  10.387  68.713  1.00  0.00    -0.119 C  
HETATM   23  H   UNL     1     -10.911   9.421  70.451  1.00  0.00     0.000 HD 
HETATM   24  N   UNL     1     -11.538  10.125  70.061  1.00  0.00    -0.262 N  
HETATM   25  O   UNL     1     -12.295  11.263  68.219  1.00  0.00    -0.542 OA 
BRANCH  24  26
HETATM   26  O   UNL     1     -12.410  10.888  70.883  1.00  0.00    -0.337 OA 
BRANCH  26  27
HETATM   27  C   UNL     1     -13.517  10.041  71.233  1.00  0.00    -0.258 C  
BRANCH  27  28
HETATM   28  C   UNL     1     -13.105   8.988  72.259  1.00  0.00    -0.445 C  
HETATM   29  O   UNL     1     -14.132   8.757  73.220  1.00  0.00    -1.180 OA 
HETATM   30  H   UNL     1     -13.876   8.102  73.859  1.00  0.00     0.000 HD 
ENDBRANCH  27  28
ENDBRANCH  26  27
ENDBRANCH  24  26
ENDBRANCH  10  22
TORSDOF 6
ENDMDL
MODEL      110
REMARK 921   NORMALIZED FREE ENERGY PREDICTED BY IDOCK:   -5.01 KCAL/MOL
REMARK 922        TOTAL FREE ENERGY PREDICTED BY IDOCK:   -8.05 KCAL/MOL
REMARK 923 INTER-LIGAND FREE ENERGY PREDICTED BY IDOCK:   -6.99 KCAL/MOL
REMARK 924 INTRA-LIGAND FREE ENERGY PREDICTED BY IDOCK:   -1.06 KCAL/MOL
REMARK 927      BINDING AFFINITY PREDICTED BY RF-SCORE:    0.00 PKD
ROOT
HETATM    1  C   UNL     1     -12.415  13.402  65.577  1.00  0.00    -0.483 C  
HETATM    2  N   UNL     1     -11.277  12.639  66.023  1.00  0.00    -0.293 NA 
HETATM    3  C   UNL     1     -10.122  12.455  65.320  1.00  0.00    -0.265 A  
HETATM    4  N   UNL     1      -9.275  11.693  65.975  1.00  0.00    -0.219 NA 
HETATM    5  C   UNL     1      -9.911  11.373  67.152  1.00  0.00    -0.192 A  
HETATM    6  C   UNL     1      -9.491  10.578  68.226  1.00  0.00    -0.155 A  
HETATM    7  F   UNL     1      -8.254  10.056  68.188  1.00  0.00    -0.105 F  
HETATM    8  C   UNL     1     -10.341  10.337  69.342  1.00  0.00    -0.235 A  
HETATM    9  C   UNL     1     -11.993  11.851  68.339  1.00  0.00    -0.246 A  
HETATM   10  C   UNL     1     -11.549  11.063  69.433  1.00  0.00    -0.383 A  
HETATM   11  C   UNL     1     -11.165  11.970  67.214  1.00  0.00    -0.311 A  
ENDROOT
BRANCH   8  12
HETATM   12  N   UNL     1      -9.900   9.451  70.389  1.00  0.00    -0.241 NA 
HETATM   13  H   UNL     1      -9.639   9.857  71.288  1.00  0.00     0.000 HD 
BRANCH  12  14
HETATM   14  C   UNL     1      -9.810   8.029  70.237  1.00  0.00    -0.184 A  
HETATM   15 BR   UNL     1      -9.308   3.447  69.349  1.00  0.00    -0.219 Br 
HETATM   16  C   UNL     1     -10.918   7.246  69.883  1.00  0.00    -0.262 A  
HETATM   17  C   UNL     1      -8.434   6.012  70.236  1.00  0.00    -0.124 A  
HETATM   18  C   UNL     1      -8.591   7.375  70.473  1.00  0.00    -0.139 A  
HETATM   19  C   UNL     1      -9.522   5.276  69.778  1.00  0.00    -0.152 A  
HETATM   20  C   UNL     1     -10.768   5.880  69.619  1.00  0.00    -0.415 A  
HETATM   21  F   UNL     1      -7.534   8.092  70.882  1.00  0.00    -0.053 F  
ENDBRANCH  12  14
ENDBRANCH   8  12
BRANCH  10  22
HETATM   22  C   UNL     1     -12.404  11.170  70.668  1.00  0.00    -0.388 C  
HETATM   23  H   UNL     1     -12.755   9.100  70.714  1.00  0.00     0.000 HD 
HETATM   24  N   UNL     1     -12.918   9.998  71.171  1.00  0.00    -0.374 N  
HETATM   25  O   UNL     1     -12.545  12.260  71.222  1.00  0.00    -0.343 OA 
BRANCH  24  26
HETATM   26  O   UNL     1     -13.686  10.104  72.361  1.00  0.00    -0.252 OA 
BRANCH  26  27
HETATM   27  C   UNL     1     -13.945   8.768  72.822  1.00  0.00    -0.143 C  
BRANCH  27  28
HETATM   28  C   UNL     1     -13.944   7.772  71.665  1.00  0.00    -0.402 C  
HETATM   29  O   UNL     1     -13.944   6.424  72.128  1.00  0.00    -0.412 OA 
HETATM   30  H   UNL     1     -13.943   5.804  71.408  1.00  0.00     0.000 HD 
ENDBRANCH  27  28
ENDBRANCH  26  27
ENDBRANCH  24  26
ENDBRANCH  10  22
TORSDOF 6
ENDMDL
MODEL      111
REMARK 921   NORMALIZED FREE ENERGY PREDICTED BY IDOCK:   -5.01 KCAL/MOL
REMARK 922        TOTAL FREE ENERGY PREDICTED BY IDOCK:   -8.04 KCAL/MOL
REMARK 923 INTER-LIGAND FREE ENERGY PREDICTED BY IDOCK:   -6.48 KCAL/MOL
REMARK 924 INTRA-LIGAND FREE ENERGY PREDICTED BY IDOCK:   -1.56 KCAL/MOL
REMARK 927      BINDING AFFINITY PREDICTED BY RF-SCORE:    0.00 PKD
ROOT
HETATM    1  C   UNL     1     -11.133   7.534  72.923  1.00  0.00    -0.375 C  
HETATM    2  N   UNL     1     -10.463   7.587  71.649  1.00  0.00    -0.200 NA 
HETATM    3  C   UNL     1      -9.667   6.606  71.132  1.00  0.00    -0.174 A  
HETATM    4  N   UNL     1      -9.177   6.950  69.962  1.00  0.00    -0.155 NA 
HETATM    5  C   UNL     1      -9.678   8.208  69.715  1.00  0.00    -0.173 A  
HETATM    6  C   UNL     1      -9.479   9.067  68.627  1.00  0.00    -0.147 A  
HETATM    7  F   UNL     1      -8.732   8.635  67.599  1.00  0.00    -0.130 F  
HETATM    8  C   UNL     1     -10.067  10.364  68.596  1.00  0.00    -0.176 A  
HETATM    9  C   UNL     1     -11.189   9.846  70.716  1.00  0.00    -0.427 A  
HETATM   10  C   UNL     1     -11.002  10.700  69.599  1.00  0.00    -0.331 A  
HETATM   11  C   UNL     1     -10.503   8.623  70.753  1.00  0.00    -0.204 A  
ENDROOT
BRANCH   8  12
HETATM   12  N   UNL     1      -9.775  11.247  67.495  1.00  0.00    -0.176 NA 
HETATM   13  H   UNL     1     -10.177  11.031  66.583  1.00  0.00     0.000 HD 
BRANCH  12  14
HETATM   14  C   UNL     1      -8.949  12.412  67.612  1.00  0.00    -0.183 A  
HETATM   15 BR   UNL     1      -6.157  16.185  67.561  1.00  0.00    -0.190 Br 
HETATM   16  C   UNL     1      -7.683  12.370  68.214  1.00  0.00    -0.140 A  
HETATM   17  C   UNL     1      -8.605  14.783  67.143  1.00  0.00    -0.248 A  
HETATM   18  C   UNL     1      -9.413  13.650  67.143  1.00  0.00    -0.244 A  
HETATM   19  C   UNL     1      -7.310  14.689  67.645  1.00  0.00    -0.185 A  
HETATM   20  C   UNL     1      -6.851  13.495  68.199  1.00  0.00    -0.119 A  
HETATM   21  F   UNL     1     -10.650  13.731  66.628  1.00  0.00    -0.268 F  
ENDBRANCH  12  14
ENDBRANCH   8  12
BRANCH  10  22
HETATM   22  C   UNL     1     -11.936  11.881  69.551  1.00  0.00    -0.292 C  
HETATM   23  H   UNL     1     -11.751  12.226  71.613  1.00  0.00     0.000 HD 
HETATM   24  N   UNL     1     -12.167  12.539  70.736  1.00  0.00    -0.332 N  
HETATM   25  O   UNL     1     -12.385  12.261  68.469  1.00  0.00    -0.149 OA 
BRANCH  24  26
HETATM   26  O   UNL     1     -13.014  13.677  70.671  1.00  0.00    -0.197 OA 
BRANCH  26  27
HETATM   27  C   UNL     1     -12.246  14.806  71.117  1.00  0.00    -0.325 C  
BRANCH  27  28
HETATM   28  C   UNL     1     -11.869  15.716  69.950  1.00  0.00    -0.360 C  
HETATM   29  O   UNL     1     -12.217  15.137  68.694  1.00  0.00    -0.578 OA 
HETATM   30  H   UNL     1     -11.982  15.702  67.968  1.00  0.00     0.000 HD 
ENDBRANCH  27  28
ENDBRANCH  26  27
ENDBRANCH  24  26
ENDBRANCH  10  22
TORSDOF 6
ENDMDL
MODEL      112
REMARK 921   NORMALIZED FREE ENERGY PREDICTED BY IDOCK:   -4.99 KCAL/MOL
REMARK 922        TOTAL FREE ENERGY PREDICTED BY IDOCK:   -8.02 KCAL/MOL
REMARK 923 INTER-LIGAND FREE ENERGY PREDICTED BY IDOCK:   -6.79 KCAL/MOL
REMARK 924 INTRA-LIGAND FREE ENERGY PREDICTED BY IDOCK:   -1.23 KCAL/MOL
REMARK 927      BINDING AFFINITY PREDICTED BY RF-SCORE:    0.00 PKD
ROOT
HETATM    1  C   UNL     1     -12.865  10.684  70.799  1.00  0.00    -0.352 C  
HETATM    2  N   UNL     1     -11.657  10.562  70.024  1.00  0.00    -0.288 NA 
HETATM    3  C   UNL     1     -10.898   9.433  69.914  1.00  0.00    -0.236 A  
HETATM    4  N   UNL     1      -9.843   9.634  69.156  1.00  0.00    -0.178 NA 
HETATM    5  C   UNL     1      -9.927  10.948  68.759  1.00  0.00    -0.195 A  
HETATM    6  C   UNL     1      -9.071  11.711  67.955  1.00  0.00    -0.177 A  
HETATM    7  F   UNL     1      -8.004  11.109  67.406  1.00  0.00    -0.112 F  
HETATM    8  C   UNL     1      -9.328  13.090  67.706  1.00  0.00    -0.199 A  
HETATM    9  C   UNL     1     -11.419  12.871  68.971  1.00  0.00    -0.358 A  
HETATM   10  C   UNL     1     -10.559  13.630  68.136  1.00  0.00    -0.255 A  
HETATM   11  C   UNL     1     -11.068  11.549  69.278  1.00  0.00    -0.246 A  
ENDROOT
BRANCH   8  12
HETATM   12  N   UNL     1      -8.381  13.858  66.937  1.00  0.00    -0.408 NA 
HETATM   13  H   UNL     1      -8.170  13.553  65.987  1.00  0.00     0.000 HD 
BRANCH  12  14
HETATM   14  C   UNL     1      -7.720  15.027  67.436  1.00  0.00    -0.200 A  
HETATM   15 BR   UNL     1      -5.932  18.954  69.284  1.00  0.00    -0.265 Br 
HETATM   16  C   UNL     1      -7.499  16.156  66.633  1.00  0.00    -0.200 A  
HETATM   17  C   UNL     1      -6.690  16.205  69.309  1.00  0.00    -0.198 A  
HETATM   18  C   UNL     1      -7.244  15.055  68.755  1.00  0.00    -0.125 A  
HETATM   19  C   UNL     1      -6.583  17.349  68.525  1.00  0.00    -0.184 A  
HETATM   20  C   UNL     1      -6.966  17.327  67.185  1.00  0.00    -0.207 A  
HETATM   21  F   UNL     1      -7.378  13.961  69.521  1.00  0.00    -0.068 F  
ENDBRANCH  12  14
ENDBRANCH   8  12
BRANCH  10  22
HETATM   22  C   UNL     1     -11.124  14.955  67.696  1.00  0.00    -0.311 C  
HETATM   23  H   UNL     1     -10.468  15.918  69.442  1.00  0.00     0.000 HD 
HETATM   24  N   UNL     1     -10.938  16.021  68.543  1.00  0.00    -0.308 N  
HETATM   25  O   UNL     1     -11.646  15.058  66.585  1.00  0.00    -0.311 OA 
BRANCH  24  26
HETATM   26  O   UNL     1     -11.436  17.275  68.098  1.00  0.00     0.076 OA 
BRANCH  26  27
HETATM   27  C   UNL     1     -10.301  18.098  67.784  1.00  0.00    -0.399 C  
BRANCH  27  28
HETATM   28  C   UNL     1     -10.398  18.661  66.368  1.00  0.00    -0.432 C  
HETATM   29  O   UNL     1     -10.622  17.634  65.405  1.00  0.00    -0.657 OA 
HETATM   30  H   UNL     1     -10.683  17.984  64.524  1.00  0.00     0.000 HD 
ENDBRANCH  27  28
ENDBRANCH  26  27
ENDBRANCH  24  26
ENDBRANCH  10  22
TORSDOF 6
ENDMDL
MODEL      113
REMARK 921   NORMALIZED FREE ENERGY PREDICTED BY IDOCK:   -4.98 KCAL/MOL
REMARK 922        TOTAL FREE ENERGY PREDICTED BY IDOCK:   -8.01 KCAL/MOL
REMARK 923 INTER-LIGAND FREE ENERGY PREDICTED BY IDOCK:   -6.91 KCAL/MOL
REMARK 924 INTRA-LIGAND FREE ENERGY PREDICTED BY IDOCK:   -1.10 KCAL/MOL
REMARK 927      BINDING AFFINITY PREDICTED BY RF-SCORE:    0.00 PKD
ROOT
HETATM    1  C   UNL     1     -10.368   6.412  71.685  1.00  0.00    -0.205 C  
HETATM    2  N   UNL     1     -10.829   7.740  71.369  1.00  0.00    -0.227 NA 
HETATM    3  C   UNL     1     -11.376   8.621  72.257  1.00  0.00    -0.340 A  
HETATM    4  N   UNL     1     -11.721   9.744  71.670  1.00  0.00    -0.373 NA 
HETATM    5  C   UNL     1     -11.383   9.581  70.346  1.00  0.00    -0.264 A  
HETATM    6  C   UNL     1     -11.534  10.447  69.256  1.00  0.00    -0.215 A  
HETATM    7  F   UNL     1     -12.035  11.673  69.478  1.00  0.00    -0.312 F  
HETATM    8  C   UNL     1     -11.151  10.053  67.943  1.00  0.00    -0.195 A  
HETATM    9  C   UNL     1     -10.312   7.945  68.881  1.00  0.00    -0.225 A  
HETATM   10  C   UNL     1     -10.447   8.838  67.787  1.00  0.00    -0.292 A  
HETATM   11  C   UNL     1     -10.804   8.336  70.135  1.00  0.00    -0.237 A  
ENDROOT
BRANCH   8  12
HETATM   12  N   UNL     1     -11.395  10.944  66.837  1.00  0.00    -0.316 NA 
HETATM   13  H   UNL     1     -11.815  10.559  65.990  1.00  0.00     0.000 HD 
BRANCH  12  14
HETATM   14  C   UNL     1     -11.079  12.341  66.861  1.00  0.00    -0.290 A  
HETATM   15 BR   UNL     1      -9.980  16.875  67.380  1.00  0.00    -0.276 Br 
HETATM   16  C   UNL     1     -12.069  13.330  66.767  1.00  0.00    -0.403 A  
HETATM   17  C   UNL     1      -9.399  14.099  67.082  1.00  0.00    -0.241 A  
HETATM   18  C   UNL     1      -9.742  12.756  66.951  1.00  0.00    -0.234 A  
HETATM   19  C   UNL     1     -10.410  15.056  67.098  1.00  0.00    -0.257 A  
HETATM   20  C   UNL     1     -11.741  14.681  66.922  1.00  0.00    -0.366 A  
HETATM   21  F   UNL     1      -8.770  11.830  66.970  1.00  0.00    -0.154 F  
ENDBRANCH  12  14
ENDBRANCH   8  12
BRANCH  10  22
HETATM   22  C   UNL     1      -9.706   8.421  66.544  1.00  0.00    -0.260 C  
HETATM   23  H   UNL     1      -9.508   6.442  67.216  1.00  0.00     0.000 HD 
HETATM   24  N   UNL     1      -9.326   7.102  66.461  1.00  0.00    -0.169 N  
HETATM   25  O   UNL     1      -9.541   9.230  65.630  1.00  0.00    -0.265 OA 
BRANCH  24  26
HETATM   26  O   UNL     1      -8.666   6.710  65.265  1.00  0.00    -0.074 OA 
BRANCH  26  27
HETATM   27  C   UNL     1      -8.369   5.309  65.382  1.00  0.00    -0.136 C  
BRANCH  27  28
HETATM   28  C   UNL     1      -9.449   4.578  66.177  1.00  0.00    -0.173 C  
HETATM   29  O   UNL     1     -10.387   3.929  65.322  1.00  0.00    -0.411 OA 
HETATM   30  H   UNL     1     -11.059   3.475  65.817  1.00  0.00     0.000 HD 
ENDBRANCH  27  28
ENDBRANCH  26  27
ENDBRANCH  24  26
ENDBRANCH  10  22
TORSDOF 6
ENDMDL
MODEL      114
REMARK 921   NORMALIZED FREE ENERGY PREDICTED BY IDOCK:   -4.95 KCAL/MOL
REMARK 922        TOTAL FREE ENERGY PREDICTED BY IDOCK:   -7.97 KCAL/MOL
REMARK 923 INTER-LIGAND FREE ENERGY PREDICTED BY IDOCK:   -6.90 KCAL/MOL
REMARK 924 INTRA-LIGAND FREE ENERGY PREDICTED BY IDOCK:   -1.08 KCAL/MOL
REMARK 927      BINDING AFFINITY PREDICTED BY RF-SCORE:    0.00 PKD
ROOT
HETATM    1  C   UNL     1      -7.841  19.883  67.722  1.00  0.00    -0.294 C  
HETATM    2  N   UNL     1      -8.816  19.056  67.059  1.00  0.00    -0.287 NA 
HETATM    3  C   UNL     1      -9.799  19.504  66.224  1.00  0.00    -0.429 A  
HETATM    4  N   UNL     1     -10.549  18.517  65.790  1.00  0.00    -0.584 NA 
HETATM    5  C   UNL     1     -10.028  17.383  66.370  1.00  0.00    -0.316 A  
HETATM    6  C   UNL     1     -10.434  16.046  66.276  1.00  0.00    -0.320 A  
HETATM    7  F   UNL     1     -11.459  15.744  65.463  1.00  0.00    -0.207 F  
HETATM    8  C   UNL     1      -9.770  15.021  67.009  1.00  0.00    -0.236 A  
HETATM    9  C   UNL     1      -8.176  16.706  67.812  1.00  0.00    -0.184 A  
HETATM   10  C   UNL     1      -8.580  15.351  67.693  1.00  0.00    -0.176 A  
HETATM   11  C   UNL     1      -8.928  17.693  67.159  1.00  0.00    -0.244 A  
ENDROOT
BRANCH   8  12
HETATM   12  N   UNL     1     -10.268  13.670  66.946  1.00  0.00    -0.257 NA 
HETATM   13  H   UNL     1     -10.245  13.189  66.047  1.00  0.00     0.000 HD 
BRANCH  12  14
HETATM   14  C   UNL     1     -10.793  12.966  68.077  1.00  0.00    -0.241 A  
HETATM   15 BR   UNL     1     -12.829  10.499  71.513  1.00  0.00    -0.588 Br 
HETATM   16  C   UNL     1     -11.521  13.615  69.086  1.00  0.00    -0.346 A  
HETATM   17  C   UNL     1     -11.138  10.849  69.245  1.00  0.00    -0.305 A  
HETATM   18  C   UNL     1     -10.560  11.589  68.217  1.00  0.00    -0.200 A  
HETATM   19  C   UNL     1     -11.948  11.498  70.171  1.00  0.00    -0.369 A  
HETATM   20  C   UNL     1     -12.127  12.879  70.110  1.00  0.00    -0.373 A  
HETATM   21  F   UNL     1      -9.805  10.959  67.303  1.00  0.00    -0.181 F  
ENDBRANCH  12  14
ENDBRANCH   8  12
BRANCH  10  22
HETATM   22  C   UNL     1      -7.596  14.354  68.249  1.00  0.00    -0.124 C  
HETATM   23  H   UNL     1      -7.058  13.681  66.335  1.00  0.00     0.000 HD 
HETATM   24  N   UNL     1      -6.898  13.597  67.339  1.00  0.00    -0.129 N  
HETATM   25  O   UNL     1      -7.393  14.308  69.462  1.00  0.00    -0.076 OA 
BRANCH  24  26
HETATM   26  O   UNL     1      -5.942  12.692  67.872  1.00  0.00    -0.081 OA 
BRANCH  26  27
HETATM   27  C   UNL     1      -6.401  11.363  67.575  1.00  0.00    -0.069 C  
BRANCH  27  28
HETATM   28  C   UNL     1      -5.947  10.916  66.187  1.00  0.00    -0.141 C  
HETATM   29  O   UNL     1      -7.017  10.347  65.438  1.00  0.00    -0.138 OA 
HETATM   30  H   UNL     1      -6.735  10.069  64.575  1.00  0.00     0.000 HD 
ENDBRANCH  27  28
ENDBRANCH  26  27
ENDBRANCH  24  26
ENDBRANCH  10  22
TORSDOF 6
ENDMDL
MODEL      115
REMARK 921   NORMALIZED FREE ENERGY PREDICTED BY IDOCK:   -4.95 KCAL/MOL
REMARK 922        TOTAL FREE ENERGY PREDICTED BY IDOCK:   -7.97 KCAL/MOL
REMARK 923 INTER-LIGAND FREE ENERGY PREDICTED BY IDOCK:   -6.94 KCAL/MOL
REMARK 924 INTRA-LIGAND FREE ENERGY PREDICTED BY IDOCK:   -1.03 KCAL/MOL
REMARK 927      BINDING AFFINITY PREDICTED BY RF-SCORE:    0.00 PKD
ROOT
HETATM    1  C   UNL     1      -9.471   3.366  68.566  1.00  0.00    -0.142 C  
HETATM    2  N   UNL     1      -9.308   4.394  67.571  1.00  0.00    -0.144 NA 
HETATM    3  C   UNL     1      -9.162   4.182  66.230  1.00  0.00    -0.155 A  
HETATM    4  N   UNL     1      -9.011   5.313  65.578  1.00  0.00    -0.159 NA 
HETATM    5  C   UNL     1      -9.062   6.296  66.539  1.00  0.00    -0.153 A  
HETATM    6  C   UNL     1      -8.944   7.687  66.424  1.00  0.00    -0.167 A  
HETATM    7  F   UNL     1      -8.811   8.218  65.198  1.00  0.00    -0.184 F  
HETATM    8  C   UNL     1      -8.982   8.527  67.573  1.00  0.00    -0.135 A  
HETATM    9  C   UNL     1      -9.418   6.539  68.944  1.00  0.00    -0.129 A  
HETATM   10  C   UNL     1      -9.322   7.949  68.815  1.00  0.00    -0.146 A  
HETATM   11  C   UNL     1      -9.266   5.745  67.799  1.00  0.00    -0.105 A  
ENDROOT
BRANCH   8  12
HETATM   12  N   UNL     1      -8.779   9.946  67.419  1.00  0.00    -0.128 NA 
HETATM   13  H   UNL     1      -7.855  10.326  67.620  1.00  0.00     0.000 HD 
BRANCH  12  14
HETATM   14  C   UNL     1      -9.807  10.851  66.997  1.00  0.00    -0.183 A  
HETATM   15 BR   UNL     1     -12.870  14.141  65.643  1.00  0.00    -0.233 Br 
HETATM   16  C   UNL     1     -10.827  11.275  67.862  1.00  0.00    -0.278 A  
HETATM   17  C   UNL     1     -10.749  12.276  65.252  1.00  0.00    -0.329 A  
HETATM   18  C   UNL     1      -9.831  11.317  65.674  1.00  0.00    -0.234 A  
HETATM   19  C   UNL     1     -11.682  12.764  66.161  1.00  0.00    -0.403 A  
HETATM   20  C   UNL     1     -11.740  12.255  67.458  1.00  0.00    -0.402 A  
HETATM   21  F   UNL     1      -8.909  10.871  64.807  1.00  0.00    -0.186 F  
ENDBRANCH  12  14
ENDBRANCH   8  12
BRANCH  10  22
HETATM   22  C   UNL     1      -9.708   8.718  70.051  1.00  0.00    -0.173 C  
HETATM   23  H   UNL     1     -11.758   8.449  69.689  1.00  0.00     0.000 HD 
HETATM   24  N   UNL     1     -11.051   8.836  70.315  1.00  0.00    -0.242 N  
HETATM   25  O   UNL     1      -8.832   9.133  70.811  1.00  0.00    -0.208 OA 
BRANCH  24  26
HETATM   26  O   UNL     1     -11.403   9.525  71.507  1.00  0.00    -0.372 OA 
BRANCH  26  27
HETATM   27  C   UNL     1     -12.813   9.794  71.444  1.00  0.00    -0.392 C  
BRANCH  27  28
HETATM   28  C   UNL     1     -13.627   8.614  71.970  1.00  0.00    -0.412 C  
HETATM   29  O   UNL     1     -14.349   8.954  73.151  1.00  0.00    -1.143 OA 
HETATM   30  H   UNL     1     -14.854   8.219  73.478  1.00  0.00     0.000 HD 
ENDBRANCH  27  28
ENDBRANCH  26  27
ENDBRANCH  24  26
ENDBRANCH  10  22
TORSDOF 6
ENDMDL
MODEL      116
REMARK 921   NORMALIZED FREE ENERGY PREDICTED BY IDOCK:   -4.94 KCAL/MOL
REMARK 922        TOTAL FREE ENERGY PREDICTED BY IDOCK:   -7.96 KCAL/MOL
REMARK 923 INTER-LIGAND FREE ENERGY PREDICTED BY IDOCK:   -7.05 KCAL/MOL
REMARK 924 INTRA-LIGAND FREE ENERGY PREDICTED BY IDOCK:   -0.91 KCAL/MOL
REMARK 927      BINDING AFFINITY PREDICTED BY RF-SCORE:    0.00 PKD
ROOT
HETATM    1  C   UNL     1     -13.095  11.307  71.695  1.00  0.00    -0.408 C  
HETATM    2  N   UNL     1     -12.367  10.088  71.448  1.00  0.00    -0.385 NA 
HETATM    3  C   UNL     1     -12.298   9.021  72.297  1.00  0.00    -0.332 A  
HETATM    4  N   UNL     1     -11.541   8.065  71.808  1.00  0.00    -0.271 NA 
HETATM    5  C   UNL     1     -11.104   8.535  70.591  1.00  0.00    -0.252 A  
HETATM    6  C   UNL     1     -10.261   7.947  69.639  1.00  0.00    -0.207 A  
HETATM    7  F   UNL     1      -9.813   6.702  69.864  1.00  0.00    -0.164 F  
HETATM    8  C   UNL     1      -9.897   8.640  68.449  1.00  0.00    -0.172 A  
HETATM    9  C   UNL     1     -11.382  10.473  69.129  1.00  0.00    -0.319 A  
HETATM   10  C   UNL     1     -10.546   9.861  68.160  1.00  0.00    -0.270 A  
HETATM   11  C   UNL     1     -11.624   9.798  70.334  1.00  0.00    -0.258 A  
ENDROOT
BRANCH   8  12
HETATM   12  N   UNL     1      -8.966   8.032  67.533  1.00  0.00    -0.137 NA 
HETATM   13  H   UNL     1      -8.116   8.545  67.297  1.00  0.00     0.000 HD 
BRANCH  12  14
HETATM   14  C   UNL     1      -9.169   6.746  66.936  1.00  0.00    -0.144 A  
HETATM   15 BR   UNL     1      -9.704   2.713  64.594  1.00  0.00     0.022 Br 
HETATM   16  C   UNL     1     -10.450   6.249  66.656  1.00  0.00    -0.255 A  
HETATM   17  C   UNL     1      -8.214   4.718  65.968  1.00  0.00    -0.111 A  
HETATM   18  C   UNL     1      -8.068   5.927  66.641  1.00  0.00    -0.102 A  
HETATM   19  C   UNL     1      -9.489   4.299  65.601  1.00  0.00    -0.176 A  
HETATM   20  C   UNL     1     -10.609   5.047  65.957  1.00  0.00    -0.286 A  
HETATM   21  F   UNL     1      -6.836   6.349  66.966  1.00  0.00    -0.057 F  
ENDBRANCH  12  14
ENDBRANCH   8  12
BRANCH  10  22
HETATM   22  C   UNL     1     -10.518  10.560  66.826  1.00  0.00    -0.242 C  
HETATM   23  H   UNL     1     -11.120  12.386  67.669  1.00  0.00     0.000 HD 
HETATM   24  N   UNL     1     -10.843  11.896  66.819  1.00  0.00    -0.253 N  
HETATM   25  O   UNL     1     -10.136   9.953  65.825  1.00  0.00    -0.284 OA 
BRANCH  24  26
HETATM   26  O   UNL     1     -10.771  12.556  65.563  1.00  0.00    -0.261 OA 
BRANCH  26  27
HETATM   27  C   UNL     1     -11.666  13.679  65.619  1.00  0.00    -0.342 C  
BRANCH  27  28
HETATM   28  C   UNL     1     -12.276  13.970  64.250  1.00  0.00    -0.418 C  
HETATM   29  O   UNL     1     -12.148  15.345  63.895  1.00  0.00    -0.968 OA 
HETATM   30  H   UNL     1     -12.527  15.526  63.044  1.00  0.00     0.000 HD 
ENDBRANCH  27  28
ENDBRANCH  26  27
ENDBRANCH  24  26
ENDBRANCH  10  22
TORSDOF 6
ENDMDL
MODEL      117
REMARK 921   NORMALIZED FREE ENERGY PREDICTED BY IDOCK:   -4.94 KCAL/MOL
REMARK 922        TOTAL FREE ENERGY PREDICTED BY IDOCK:   -7.96 KCAL/MOL
REMARK 923 INTER-LIGAND FREE ENERGY PREDICTED BY IDOCK:   -6.80 KCAL/MOL
REMARK 924 INTRA-LIGAND FREE ENERGY PREDICTED BY IDOCK:   -1.16 KCAL/MOL
REMARK 927      BINDING AFFINITY PREDICTED BY RF-SCORE:    0.00 PKD
ROOT
HETATM    1  C   UNL     1      -8.915  10.494  64.654  1.00  0.00    -0.207 C  
HETATM    2  N   UNL     1     -10.038  11.382  64.814  1.00  0.00    -0.260 NA 
HETATM    3  C   UNL     1     -11.233  11.273  64.163  1.00  0.00    -0.146 A  
HETATM    4  N   UNL     1     -12.054  12.242  64.498  1.00  0.00    -0.394 NA 
HETATM    5  C   UNL     1     -11.359  13.009  65.405  1.00  0.00    -0.297 A  
HETATM    6  C   UNL     1     -11.733  14.176  66.084  1.00  0.00    -0.393 A  
HETATM    7  F   UNL     1     -12.978  14.647  65.907  1.00  0.00    -0.293 F  
HETATM    8  C   UNL     1     -10.827  14.843  66.956  1.00  0.00    -0.315 A  
HETATM    9  C   UNL     1      -9.209  13.039  66.565  1.00  0.00    -0.187 A  
HETATM   10  C   UNL     1      -9.605  14.207  67.266  1.00  0.00    -0.234 A  
HETATM   11  C   UNL     1     -10.095  12.479  65.634  1.00  0.00    -0.269 A  
ENDROOT
BRANCH   8  12
HETATM   12  N   UNL     1     -11.223  16.083  67.575  1.00  0.00    -0.207 NA 
HETATM   13  H   UNL     1     -12.120  16.115  68.061  1.00  0.00     0.000 HD 
BRANCH  12  14
HETATM   14  C   UNL     1     -10.426  17.273  67.544  1.00  0.00    -0.356 A  
HETATM   15 BR   UNL     1      -7.473  20.915  67.323  1.00  0.00    -0.247 Br 
HETATM   16  C   UNL     1      -9.973  17.895  68.717  1.00  0.00    -0.377 A  
HETATM   17  C   UNL     1      -9.247  18.964  66.237  1.00  0.00    -0.278 A  
HETATM   18  C   UNL     1     -10.103  17.869  66.317  1.00  0.00    -0.351 A  
HETATM   19  C   UNL     1      -8.719  19.496  67.410  1.00  0.00    -0.308 A  
HETATM   20  C   UNL     1      -9.092  18.981  68.650  1.00  0.00    -0.401 A  
HETATM   21  F   UNL     1     -10.585  17.334  65.184  1.00  0.00    -0.278 F  
ENDBRANCH  12  14
ENDBRANCH   8  12
BRANCH  10  22
HETATM   22  C   UNL     1      -8.682  14.606  68.388  1.00  0.00    -0.175 C  
HETATM   23  H   UNL     1      -7.055  14.849  67.084  1.00  0.00     0.000 HD 
HETATM   24  N   UNL     1      -7.387  14.915  68.046  1.00  0.00    -0.117 N  
HETATM   25  O   UNL     1      -9.124  14.721  69.531  1.00  0.00    -0.034 OA 
BRANCH  24  26
HETATM   26  O   UNL     1      -6.537  15.333  69.105  1.00  0.00    -0.115 OA 
BRANCH  26  27
HETATM   27  C   UNL     1      -6.245  16.724  68.894  1.00  0.00    -0.162 C  
BRANCH  27  28
HETATM   28  C   UNL     1      -5.815  17.402  70.193  1.00  0.00    -0.184 C  
HETATM   29  O   UNL     1      -5.422  18.755  69.978  1.00  0.00    -0.214 OA 
HETATM   30  H   UNL     1      -5.155  19.177  70.786  1.00  0.00     0.000 HD 
ENDBRANCH  27  28
ENDBRANCH  26  27
ENDBRANCH  24  26
ENDBRANCH  10  22
TORSDOF 6
ENDMDL
MODEL      118
REMARK 921   NORMALIZED FREE ENERGY PREDICTED BY IDOCK:   -4.93 KCAL/MOL
REMARK 922        TOTAL FREE ENERGY PREDICTED BY IDOCK:   -7.94 KCAL/MOL
REMARK 923 INTER-LIGAND FREE ENERGY PREDICTED BY IDOCK:   -7.02 KCAL/MOL
REMARK 924 INTRA-LIGAND FREE ENERGY PREDICTED BY IDOCK:   -0.92 KCAL/MOL
REMARK 927      BINDING AFFINITY PREDICTED BY RF-SCORE:    0.00 PKD
ROOT
HETATM    1  C   UNL     1     -11.201  12.712  63.334  1.00  0.00    -0.344 C  
HETATM    2  N   UNL     1     -11.569  12.851  64.720  1.00  0.00    -0.317 NA 
HETATM    3  C   UNL     1     -12.557  13.662  65.200  1.00  0.00    -0.430 A  
HETATM    4  N   UNL     1     -12.643  13.592  66.509  1.00  0.00    -0.275 NA 
HETATM    5  C   UNL     1     -11.669  12.697  66.889  1.00  0.00    -0.383 A  
HETATM    6  C   UNL     1     -11.296  12.248  68.162  1.00  0.00    -0.295 A  
HETATM    7  F   UNL     1     -11.996  12.680  69.224  1.00  0.00    -0.313 F  
HETATM    8  C   UNL     1     -10.212  11.340  68.335  1.00  0.00    -0.195 A  
HETATM    9  C   UNL     1      -9.991  11.228  65.893  1.00  0.00    -0.277 A  
HETATM   10  C   UNL     1      -9.636  10.760  67.184  1.00  0.00    -0.185 A  
HETATM   11  C   UNL     1     -10.992  12.204  65.781  1.00  0.00    -0.297 A  
ENDROOT
BRANCH   8  12
HETATM   12  N   UNL     1      -9.810  10.963  69.666  1.00  0.00    -0.419 NA 
HETATM   13  H   UNL     1      -9.247  11.620  70.205  1.00  0.00     0.000 HD 
BRANCH  12  14
HETATM   14  C   UNL     1     -10.158   9.713  70.273  1.00  0.00    -0.275 A  
HETATM   15 BR   UNL     1     -11.219   5.810  72.657  1.00  0.00    -0.351 Br 
HETATM   16  C   UNL     1      -9.291   8.611  70.259  1.00  0.00    -0.180 A  
HETATM   17  C   UNL     1     -11.750   8.393  71.571  1.00  0.00    -0.341 A  
HETATM   18  C   UNL     1     -11.413   9.553  70.881  1.00  0.00    -0.334 A  
HETATM   19  C   UNL     1     -10.827   7.354  71.638  1.00  0.00    -0.220 A  
HETATM   20  C   UNL     1      -9.608   7.448  70.970  1.00  0.00    -0.161 A  
HETATM   21  F   UNL     1     -12.289  10.569  70.845  1.00  0.00    -0.354 F  
ENDBRANCH  12  14
ENDBRANCH   8  12
BRANCH  10  22
HETATM   22  C   UNL     1      -8.712   9.570  67.185  1.00  0.00    -0.132 C  
HETATM   23  H   UNL     1     -10.097   8.378  66.153  1.00  0.00     0.000 HD 
HETATM   24  N   UNL     1      -9.167   8.430  66.567  1.00  0.00    -0.176 N  
HETATM   25  O   UNL     1      -7.577   9.678  67.652  1.00  0.00    -0.090 OA 
BRANCH  24  26
HETATM   26  O   UNL     1      -8.270   7.328  66.535  1.00  0.00    -0.110 OA 
BRANCH  26  27
HETATM   27  C   UNL     1      -8.436   6.679  65.264  1.00  0.00    -0.073 C  
BRANCH  27  28
HETATM   28  C   UNL     1      -7.613   7.369  64.178  1.00  0.00    -0.109 C  
HETATM   29  O   UNL     1      -8.442   7.955  63.178  1.00  0.00    -0.382 OA 
HETATM   30  H   UNL     1      -7.930   8.383  62.502  1.00  0.00     0.000 HD 
ENDBRANCH  27  28
ENDBRANCH  26  27
ENDBRANCH  24  26
ENDBRANCH  10  22
TORSDOF 6
ENDMDL
MODEL      119
REMARK 921   NORMALIZED FREE ENERGY PREDICTED BY IDOCK:   -4.89 KCAL/MOL
REMARK 922        TOTAL FREE ENERGY PREDICTED BY IDOCK:   -7.89 KCAL/MOL
REMARK 923 INTER-LIGAND FREE ENERGY PREDICTED BY IDOCK:   -6.96 KCAL/MOL
REMARK 924 INTRA-LIGAND FREE ENERGY PREDICTED BY IDOCK:   -0.93 KCAL/MOL
REMARK 927      BINDING AFFINITY PREDICTED BY RF-SCORE:    0.00 PKD
ROOT
HETATM    1  C   UNL     1      -7.954   9.253  63.527  1.00  0.00    -0.144 C  
HETATM    2  N   UNL     1      -8.367   8.510  64.691  1.00  0.00    -0.165 NA 
HETATM    3  C   UNL     1      -8.072   7.201  64.940  1.00  0.00    -0.107 A  
HETATM    4  N   UNL     1      -8.605   6.794  66.069  1.00  0.00    -0.142 NA 
HETATM    5  C   UNL     1      -9.272   7.888  66.571  1.00  0.00    -0.191 A  
HETATM    6  C   UNL     1     -10.031   8.033  67.739  1.00  0.00    -0.175 A  
HETATM    7  F   UNL     1     -10.119   6.988  68.578  1.00  0.00    -0.148 F  
HETATM    8  C   UNL     1     -10.682   9.261  68.047  1.00  0.00    -0.174 A  
HETATM    9  C   UNL     1      -9.654  10.243  66.046  1.00  0.00    -0.259 A  
HETATM   10  C   UNL     1     -10.401  10.388  67.244  1.00  0.00    -0.278 A  
HETATM   11  C   UNL     1      -9.122   8.985  65.731  1.00  0.00    -0.219 A  
ENDROOT
BRANCH   8  12
HETATM   12  N   UNL     1     -11.516   9.345  69.219  1.00  0.00    -0.423 NA 
HETATM   13  H   UNL     1     -12.411   9.829  69.141  1.00  0.00     0.000 HD 
BRANCH  12  14
HETATM   14  C   UNL     1     -11.157   8.786  70.488  1.00  0.00    -0.246 A  
HETATM   15 BR   UNL     1      -9.696   6.692  74.427  1.00  0.00    -0.321 Br 
HETATM   16  C   UNL     1     -11.989   7.883  71.166  1.00  0.00    -0.304 A  
HETATM   17  C   UNL     1      -9.520   8.567  72.286  1.00  0.00    -0.365 A  
HETATM   18  C   UNL     1      -9.955   9.162  71.106  1.00  0.00    -0.307 A  
HETATM   19  C   UNL     1     -10.312   7.590  72.882  1.00  0.00    -0.296 A  
HETATM   20  C   UNL     1     -11.553   7.259  72.340  1.00  0.00    -0.307 A  
HETATM   21  F   UNL     1      -9.176  10.080  70.512  1.00  0.00    -0.232 F  
ENDBRANCH  12  14
ENDBRANCH   8  12
BRANCH  10  22
HETATM   22  C   UNL     1     -10.746  11.811  67.598  1.00  0.00    -0.214 C  
HETATM   23  H   UNL     1     -12.136  11.960  66.032  1.00  0.00     0.000 HD 
HETATM   24  N   UNL     1     -11.701  12.429  66.826  1.00  0.00    -0.375 N  
HETATM   25  O   UNL     1     -10.238  12.334  68.590  1.00  0.00    -0.219 OA 
BRANCH  24  26
HETATM   26  O   UNL     1     -12.050  13.755  67.196  1.00  0.00    -0.398 OA 
BRANCH  26  27
HETATM   27  C   UNL     1     -11.424  14.640  66.253  1.00  0.00    -0.351 C  
BRANCH  27  28
HETATM   28  C   UNL     1     -10.770  15.827  66.958  1.00  0.00    -0.306 C  
HETATM   29  O   UNL     1      -9.681  16.355  66.205  1.00  0.00    -0.290 OA 
HETATM   30  H   UNL     1      -9.275  17.093  66.643  1.00  0.00     0.000 HD 
ENDBRANCH  27  28
ENDBRANCH  26  27
ENDBRANCH  24  26
ENDBRANCH  10  22
TORSDOF 6
ENDMDL
MODEL      120
REMARK 921   NORMALIZED FREE ENERGY PREDICTED BY IDOCK:   -4.86 KCAL/MOL
REMARK 922        TOTAL FREE ENERGY PREDICTED BY IDOCK:   -7.84 KCAL/MOL
REMARK 923 INTER-LIGAND FREE ENERGY PREDICTED BY IDOCK:   -6.58 KCAL/MOL
REMARK 924 INTRA-LIGAND FREE ENERGY PREDICTED BY IDOCK:   -1.27 KCAL/MOL
REMARK 927      BINDING AFFINITY PREDICTED BY RF-SCORE:    0.00 PKD
ROOT
HETATM    1  C   UNL     1     -13.156  11.821  71.607  1.00  0.00    -0.338 C  
HETATM    2  N   UNL     1     -12.766  10.434  71.594  1.00  0.00    -0.434 NA 
HETATM    3  C   UNL     1     -13.293   9.456  72.386  1.00  0.00    -0.424 A  
HETATM    4  N   UNL     1     -12.721   8.294  72.163  1.00  0.00    -0.337 NA 
HETATM    5  C   UNL     1     -11.783   8.534  71.184  1.00  0.00    -0.281 A  
HETATM    6  C   UNL     1     -10.872   7.668  70.567  1.00  0.00    -0.241 A  
HETATM    7  F   UNL     1     -10.900   6.368  70.900  1.00  0.00    -0.255 F  
HETATM    8  C   UNL     1      -9.945   8.144  69.596  1.00  0.00    -0.193 A  
HETATM    9  C   UNL     1     -10.987  10.359  69.769  1.00  0.00    -0.345 A  
HETATM   10  C   UNL     1     -10.083   9.470  69.132  1.00  0.00    -0.200 A  
HETATM   11  C   UNL     1     -11.804   9.869  70.797  1.00  0.00    -0.330 A  
ENDROOT
BRANCH   8  12
HETATM   12  N   UNL     1      -8.973   7.236  69.042  1.00  0.00    -0.135 NA 
HETATM   13  H   UNL     1      -8.024   7.257  69.417  1.00  0.00     0.000 HD 
BRANCH  12  14
HETATM   14  C   UNL     1      -9.265   6.306  67.993  1.00  0.00    -0.116 A  
HETATM   15 BR   UNL     1      -9.983   3.517  64.286  1.00  0.00    -0.194 Br 
HETATM   16  C   UNL     1     -10.521   6.259  67.369  1.00  0.00    -0.308 A  
HETATM   17  C   UNL     1      -8.499   4.534  66.498  1.00  0.00    -0.109 A  
HETATM   18  C   UNL     1      -8.292   5.383  67.581  1.00  0.00    -0.099 A  
HETATM   19  C   UNL     1      -9.715   4.584  65.823  1.00  0.00    -0.203 A  
HETATM   20  C   UNL     1     -10.734   5.427  66.264  1.00  0.00    -0.234 A  
HETATM   21  F   UNL     1      -7.107   5.360  68.211  1.00  0.00    -0.059 F  
ENDBRANCH  12  14
ENDBRANCH   8  12
BRANCH  10  22
HETATM   22  C   UNL     1      -9.408  10.034  67.910  1.00  0.00    -0.140 C  
HETATM   23  H   UNL     1     -11.171  10.967  67.255  1.00  0.00     0.000 HD 
HETATM   24  N   UNL     1     -10.180  10.807  67.075  1.00  0.00    -0.208 N  
HETATM   25  O   UNL     1      -8.200   9.861  67.744  1.00  0.00    -0.113 OA 
BRANCH  24  26
HETATM   26  O   UNL     1      -9.522  11.369  65.948  1.00  0.00    -0.216 OA 
BRANCH  26  27
HETATM   27  C   UNL     1     -10.077  10.750  64.777  1.00  0.00    -0.331 C  
BRANCH  27  28
HETATM   28  C   UNL     1      -8.992  10.072  63.942  1.00  0.00    -0.242 C  
HETATM   29  O   UNL     1      -9.542   9.366  62.833  1.00  0.00    -0.490 OA 
HETATM   30  H   UNL     1      -8.868   8.945  62.314  1.00  0.00     0.000 HD 
ENDBRANCH  27  28
ENDBRANCH  26  27
ENDBRANCH  24  26
ENDBRANCH  10  22
TORSDOF 6
ENDMDL
MODEL      121
REMARK 921   NORMALIZED FREE ENERGY PREDICTED BY IDOCK:   -4.84 KCAL/MOL
REMARK 922        TOTAL FREE ENERGY PREDICTED BY IDOCK:   -7.82 KCAL/MOL
REMARK 923 INTER-LIGAND FREE ENERGY PREDICTED BY IDOCK:   -6.49 KCAL/MOL
REMARK 924 INTRA-LIGAND FREE ENERGY PREDICTED BY IDOCK:   -1.33 KCAL/MOL
REMARK 927      BINDING AFFINITY PREDICTED BY RF-SCORE:    0.00 PKD
ROOT
HETATM    1  C   UNL     1     -10.546  20.421  68.344  1.00  0.00     0.137 C  
HETATM    2  N   UNL     1      -9.508  19.585  67.799  1.00  0.00    -0.322 NA 
HETATM    3  C   UNL     1      -8.253  20.001  67.458  1.00  0.00    -0.329 A  
HETATM    4  N   UNL     1      -7.537  19.016  66.965  1.00  0.00    -0.225 NA 
HETATM    5  C   UNL     1      -8.365  17.917  66.989  1.00  0.00    -0.234 A  
HETATM    6  C   UNL     1      -8.139  16.599  66.572  1.00  0.00    -0.302 A  
HETATM    7  F   UNL     1      -6.920  16.274  66.115  1.00  0.00    -0.063 F  
HETATM    8  C   UNL     1      -9.167  15.617  66.646  1.00  0.00    -0.266 A  
HETATM    9  C   UNL     1     -10.611  17.288  67.718  1.00  0.00    -0.367 A  
HETATM   10  C   UNL     1     -10.365  15.950  67.316  1.00  0.00    -0.293 A  
HETATM   11  C   UNL     1      -9.605  18.245  67.525  1.00  0.00    -0.280 A  
ENDROOT
BRANCH   8  12
HETATM   12  N   UNL     1      -8.918  14.292  66.135  1.00  0.00    -0.476 NA 
HETATM   13  H   UNL     1      -8.993  14.141  65.130  1.00  0.00     0.000 HD 
BRANCH  12  14
HETATM   14  C   UNL     1      -8.571  13.177  66.964  1.00  0.00    -0.162 A  
HETATM   15 BR   UNL     1      -7.772   9.639  69.944  1.00  0.00    -0.167 Br 
HETATM   16  C   UNL     1      -7.458  13.201  67.818  1.00  0.00    -0.150 A  
HETATM   17  C   UNL     1      -9.096  10.935  67.777  1.00  0.00    -0.149 A  
HETATM   18  C   UNL     1      -9.336  12.001  66.915  1.00  0.00    -0.200 A  
HETATM   19  C   UNL     1      -8.053  11.028  68.693  1.00  0.00    -0.149 A  
HETATM   20  C   UNL     1      -7.221  12.146  68.706  1.00  0.00    -0.103 A  
HETATM   21  F   UNL     1     -10.363  11.926  66.054  1.00  0.00    -0.236 F  
ENDBRANCH  12  14
ENDBRANCH   8  12
BRANCH  10  22
HETATM   22  C   UNL     1     -11.415  14.962  67.755  1.00  0.00    -0.338 C  
HETATM   23  H   UNL     1     -11.284  15.576  69.758  1.00  0.00     0.000 HD 
HETATM   24  N   UNL     1     -11.746  14.961  69.089  1.00  0.00    -0.295 N  
HETATM   25  O   UNL     1     -11.987  14.265  66.916  1.00  0.00    -0.416 OA 
BRANCH  24  26
HETATM   26  O   UNL     1     -12.768  14.057  69.484  1.00  0.00    -0.109 OA 
BRANCH  26  27
HETATM   27  C   UNL     1     -12.188  13.146  70.432  1.00  0.00    -0.316 C  
BRANCH  27  28
HETATM   28  C   UNL     1     -12.274  11.703  69.939  1.00  0.00    -0.239 C  
HETATM   29  O   UNL     1     -11.171  10.923  70.393  1.00  0.00    -0.435 OA 
HETATM   30  H   UNL     1     -11.225  10.026  70.086  1.00  0.00     0.000 HD 
ENDBRANCH  27  28
ENDBRANCH  26  27
ENDBRANCH  24  26
ENDBRANCH  10  22
TORSDOF 6
ENDMDL
MODEL      122
REMARK 921   NORMALIZED FREE ENERGY PREDICTED BY IDOCK:   -4.82 KCAL/MOL
REMARK 922        TOTAL FREE ENERGY PREDICTED BY IDOCK:   -7.79 KCAL/MOL
REMARK 923 INTER-LIGAND FREE ENERGY PREDICTED BY IDOCK:   -6.60 KCAL/MOL
REMARK 924 INTRA-LIGAND FREE ENERGY PREDICTED BY IDOCK:   -1.20 KCAL/MOL
REMARK 927      BINDING AFFINITY PREDICTED BY RF-SCORE:    0.00 PKD
ROOT
HETATM    1  C   UNL     1      -9.942  15.896  67.114  1.00  0.00    -0.240 C  
HETATM    2  N   UNL     1     -10.721  15.014  67.945  1.00  0.00    -0.262 NA 
HETATM    3  C   UNL     1     -11.672  15.406  68.842  1.00  0.00    -0.359 A  
HETATM    4  N   UNL     1     -12.196  14.377  69.468  1.00  0.00    -0.308 NA 
HETATM    5  C   UNL     1     -11.555  13.273  68.953  1.00  0.00    -0.314 A  
HETATM    6  C   UNL     1     -11.698  11.914  69.258  1.00  0.00    -0.328 A  
HETATM    7  F   UNL     1     -12.633  11.555  70.152  1.00  0.00    -0.310 F  
HETATM    8  C   UNL     1     -10.888  10.928  68.627  1.00  0.00    -0.217 A  
HETATM    9  C   UNL     1      -9.893  12.704  67.256  1.00  0.00    -0.206 A  
HETATM   10  C   UNL     1     -10.061  11.327  67.554  1.00  0.00    -0.207 A  
HETATM   11  C   UNL     1     -10.635  13.647  67.981  1.00  0.00    -0.249 A  
ENDROOT
BRANCH   8  12
HETATM   12  N   UNL     1     -11.013   9.549  69.025  1.00  0.00    -0.398 NA 
HETATM   13  H   UNL     1     -11.509   8.909  68.405  1.00  0.00     0.000 HD 
BRANCH  12  14
HETATM   14  C   UNL     1     -10.477   9.026  70.247  1.00  0.00    -0.215 A  
HETATM   15 BR   UNL     1      -8.754   7.726  74.415  1.00  0.00    -0.051 Br 
HETATM   16  C   UNL     1      -9.117   8.714  70.390  1.00  0.00    -0.176 A  
HETATM   17  C   UNL     1     -10.831   8.373  72.573  1.00  0.00    -0.375 A  
HETATM   18  C   UNL     1     -11.325   8.782  71.337  1.00  0.00    -0.294 A  
HETATM   19  C   UNL     1      -9.462   8.178  72.722  1.00  0.00    -0.279 A  
HETATM   20  C   UNL     1      -8.604   8.327  71.633  1.00  0.00    -0.202 A  
HETATM   21  F   UNL     1     -12.642   9.004  71.202  1.00  0.00    -0.320 F  
ENDBRANCH  12  14
ENDBRANCH   8  12
BRANCH  10  22
HETATM   22  C   UNL     1      -9.387  10.390  66.586  1.00  0.00    -0.158 C  
HETATM   23  H   UNL     1     -10.494  11.126  64.961  1.00  0.00     0.000 HD 
HETATM   24  N   UNL     1      -9.767  10.479  65.268  1.00  0.00    -0.247 N  
HETATM   25  O   UNL     1      -8.482   9.654  66.979  1.00  0.00    -0.123 OA 
BRANCH  24  26
HETATM   26  O   UNL     1      -9.094   9.622  64.357  1.00  0.00    -0.237 OA 
BRANCH  26  27
HETATM   27  C   UNL     1      -8.616  10.440  63.277  1.00  0.00    -0.190 C  
BRANCH  27  28
HETATM   28  C   UNL     1      -9.409  11.740  63.173  1.00  0.00    -0.058 C  
HETATM   29  O   UNL     1     -10.633  11.558  62.465  1.00  0.00    -0.276 OA 
HETATM   30  H   UNL     1     -11.126  12.367  62.400  1.00  0.00     0.000 HD 
ENDBRANCH  27  28
ENDBRANCH  26  27
ENDBRANCH  24  26
ENDBRANCH  10  22
TORSDOF 6
ENDMDL
MODEL      123
REMARK 921   NORMALIZED FREE ENERGY PREDICTED BY IDOCK:   -4.81 KCAL/MOL
REMARK 922        TOTAL FREE ENERGY PREDICTED BY IDOCK:   -7.78 KCAL/MOL
REMARK 923 INTER-LIGAND FREE ENERGY PREDICTED BY IDOCK:   -7.17 KCAL/MOL
REMARK 924 INTRA-LIGAND FREE ENERGY PREDICTED BY IDOCK:   -0.60 KCAL/MOL
REMARK 927      BINDING AFFINITY PREDICTED BY RF-SCORE:    0.00 PKD
ROOT
HETATM    1  C   UNL     1      -7.866   7.590  70.396  1.00  0.00    -0.097 C  
HETATM    2  N   UNL     1      -8.298   8.147  69.140  1.00  0.00    -0.129 NA 
HETATM    3  C   UNL     1      -7.758   7.860  67.919  1.00  0.00    -0.125 A  
HETATM    4  N   UNL     1      -8.346   8.540  66.961  1.00  0.00    -0.110 NA 
HETATM    5  C   UNL     1      -9.307   9.298  67.591  1.00  0.00    -0.128 A  
HETATM    6  C   UNL     1     -10.223  10.220  67.069  1.00  0.00    -0.228 A  
HETATM    7  F   UNL     1     -10.260  10.403  65.740  1.00  0.00    -0.293 F  
HETATM    8  C   UNL     1     -11.111  10.938  67.920  1.00  0.00    -0.302 A  
HETATM    9  C   UNL     1     -10.235   9.657  69.822  1.00  0.00    -0.262 A  
HETATM   10  C   UNL     1     -11.176  10.572  69.282  1.00  0.00    -0.320 A  
HETATM   11  C   UNL     1      -9.308   9.056  68.959  1.00  0.00    -0.140 A  
ENDROOT
BRANCH   8  12
HETATM   12  N   UNL     1     -11.984  11.934  67.353  1.00  0.00    -0.601 NA 
HETATM   13  H   UNL     1     -12.973  11.706  67.248  1.00  0.00     0.000 HD 
BRANCH  12  14
HETATM   14  C   UNL     1     -11.539  13.227  66.927  1.00  0.00    -0.364 A  
HETATM   15 BR   UNL     1     -10.327  17.635  65.859  1.00  0.00    -0.167 Br 
HETATM   16  C   UNL     1     -12.044  13.846  65.773  1.00  0.00    -0.449 A  
HETATM   17  C   UNL     1     -10.159  15.200  67.334  1.00  0.00    -0.229 A  
HETATM   18  C   UNL     1     -10.546  13.902  67.653  1.00  0.00    -0.245 A  
HETATM   19  C   UNL     1     -10.757  15.836  66.250  1.00  0.00    -0.282 A  
HETATM   20  C   UNL     1     -11.682  15.160  65.456  1.00  0.00    -0.062 A  
HETATM   21  F   UNL     1      -9.995  13.300  68.718  1.00  0.00    -0.223 F  
ENDBRANCH  12  14
ENDBRANCH   8  12
BRANCH  10  22
HETATM   22  C   UNL     1     -12.256  10.998  70.242  1.00  0.00    -0.363 C  
HETATM   23  H   UNL     1     -11.650  13.006  70.174  1.00  0.00     0.000 HD 
HETATM   24  N   UNL     1     -12.319  12.336  70.551  1.00  0.00    -0.306 N  
HETATM   25  O   UNL     1     -13.077  10.173  70.644  1.00  0.00    -0.341 OA 
BRANCH  24  26
HETATM   26  O   UNL     1     -13.368  12.733  71.423  1.00  0.00    -0.231 OA 
BRANCH  26  27
HETATM   27  C   UNL     1     -13.530  14.153  71.276  1.00  0.00    -0.274 C  
BRANCH  27  28
HETATM   28  C   UNL     1     -12.751  14.913  72.347  1.00  0.00    -0.344 C  
HETATM   29  O   UNL     1     -12.458  16.248  71.941  1.00  0.00    -0.560 OA 
HETATM   30  H   UNL     1     -11.973  16.720  72.606  1.00  0.00     0.000 HD 
ENDBRANCH  27  28
ENDBRANCH  26  27
ENDBRANCH  24  26
ENDBRANCH  10  22
TORSDOF 6
ENDMDL
MODEL      124
REMARK 921   NORMALIZED FREE ENERGY PREDICTED BY IDOCK:   -4.80 KCAL/MOL
REMARK 922        TOTAL FREE ENERGY PREDICTED BY IDOCK:   -7.76 KCAL/MOL
REMARK 923 INTER-LIGAND FREE ENERGY PREDICTED BY IDOCK:   -6.96 KCAL/MOL
REMARK 924 INTRA-LIGAND FREE ENERGY PREDICTED BY IDOCK:   -0.80 KCAL/MOL
REMARK 927      BINDING AFFINITY PREDICTED BY RF-SCORE:    0.00 PKD
ROOT
HETATM    1  C   UNL     1     -10.092   5.045  68.798  1.00  0.00    -0.130 C  
HETATM    2  N   UNL     1     -10.479   6.301  69.388  1.00  0.00    -0.217 NA 
HETATM    3  C   UNL     1     -10.902   6.475  70.674  1.00  0.00    -0.266 A  
HETATM    4  N   UNL     1     -11.206   7.731  70.915  1.00  0.00    -0.267 NA 
HETATM    5  C   UNL     1     -10.970   8.395  69.733  1.00  0.00    -0.127 A  
HETATM    6  C   UNL     1     -11.134   9.745  69.401  1.00  0.00    -0.170 A  
HETATM    7  F   UNL     1     -11.532  10.596  70.361  1.00  0.00    -0.322 F  
HETATM    8  C   UNL     1     -10.869  10.218  68.084  1.00  0.00    -0.265 A  
HETATM    9  C   UNL     1     -10.119   7.959  67.485  1.00  0.00    -0.276 A  
HETATM   10  C   UNL     1     -10.264   9.333  67.164  1.00  0.00    -0.324 A  
HETATM   11  C   UNL     1     -10.496   7.521  68.762  1.00  0.00    -0.194 A  
ENDROOT
BRANCH   8  12
HETATM   12  N   UNL     1     -11.123  11.599  67.763  1.00  0.00    -0.231 NA 
HETATM   13  H   UNL     1     -11.982  11.829  67.263  1.00  0.00     0.000 HD 
BRANCH  12  14
HETATM   14  C   UNL     1     -10.235  12.669  68.109  1.00  0.00    -0.240 A  
HETATM   15 BR   UNL     1      -7.442  16.367  68.858  1.00  0.00    -0.223 Br 
HETATM   16  C   UNL     1      -8.842  12.542  68.006  1.00  0.00    -0.187 A  
HETATM   17  C   UNL     1      -9.932  14.977  68.845  1.00  0.00    -0.236 A  
HETATM   18  C   UNL     1     -10.751  13.880  68.596  1.00  0.00    -0.260 A  
HETATM   19  C   UNL     1      -8.562  14.861  68.629  1.00  0.00    -0.168 A  
HETATM   20  C   UNL     1      -8.010  13.645  68.230  1.00  0.00    -0.150 A  
HETATM   21  F   UNL     1     -12.076  14.001  68.772  1.00  0.00    -0.353 F  
ENDBRANCH  12  14
ENDBRANCH   8  12
BRANCH  10  22
HETATM   22  C   UNL     1      -9.639   9.740  65.855  1.00  0.00    -0.250 C  
HETATM   23  H   UNL     1     -11.285  10.935  65.337  1.00  0.00     0.000 HD 
HETATM   24  N   UNL     1     -10.359  10.606  65.066  1.00  0.00    -0.301 N  
HETATM   25  O   UNL     1      -8.501   9.362  65.578  1.00  0.00    -0.130 OA 
BRANCH  24  26
HETATM   26  O   UNL     1      -9.741  11.017  63.855  1.00  0.00    -0.241 OA 
BRANCH  26  27
HETATM   27  C   UNL     1     -10.776  11.530  63.001  1.00  0.00    -0.078 C  
BRANCH  27  28
HETATM   28  C   UNL     1     -11.908  12.154  63.815  1.00  0.00    -0.500 C  
HETATM   29  O   UNL     1     -12.341  13.391  63.257  1.00  0.00    -0.852 OA 
HETATM   30  H   UNL     1     -13.045  13.779  63.763  1.00  0.00     0.000 HD 
ENDBRANCH  27  28
ENDBRANCH  26  27
ENDBRANCH  24  26
ENDBRANCH  10  22
TORSDOF 6
ENDMDL
MODEL      125
REMARK 921   NORMALIZED FREE ENERGY PREDICTED BY IDOCK:   -4.79 KCAL/MOL
REMARK 922        TOTAL FREE ENERGY PREDICTED BY IDOCK:   -7.75 KCAL/MOL
REMARK 923 INTER-LIGAND FREE ENERGY PREDICTED BY IDOCK:   -6.64 KCAL/MOL
REMARK 924 INTRA-LIGAND FREE ENERGY PREDICTED BY IDOCK:   -1.11 KCAL/MOL
REMARK 927      BINDING AFFINITY PREDICTED BY RF-SCORE:    0.00 PKD
ROOT
HETATM    1  C   UNL     1     -12.268  15.306  63.996  1.00  0.00     0.005 C  
HETATM    2  N   UNL     1     -11.929  13.915  64.158  1.00  0.00    -0.447 NA 
HETATM    3  C   UNL     1     -12.386  12.892  63.378  1.00  0.00    -0.410 A  
HETATM    4  N   UNL     1     -11.921  11.732  63.784  1.00  0.00    -0.405 NA 
HETATM    5  C   UNL     1     -11.129  12.019  64.872  1.00  0.00    -0.316 A  
HETATM    6  C   UNL     1     -10.394  11.171  65.710  1.00  0.00    -0.260 A  
HETATM    7  F   UNL     1     -10.372   9.859  65.430  1.00  0.00    -0.368 F  
HETATM    8  C   UNL     1      -9.670  11.683  66.824  1.00  0.00    -0.201 A  
HETATM    9  C   UNL     1     -10.320  13.948  66.135  1.00  0.00    -0.303 A  
HETATM   10  C   UNL     1      -9.559  13.084  66.964  1.00  0.00    -0.236 A  
HETATM   11  C   UNL     1     -11.104  13.387  65.117  1.00  0.00    -0.301 A  
ENDROOT
BRANCH   8  12
HETATM   12  N   UNL     1      -8.990  10.769  67.707  1.00  0.00    -0.136 NA 
HETATM   13  H   UNL     1      -7.973  10.715  67.655  1.00  0.00     0.000 HD 
BRANCH  12  14
HETATM   14  C   UNL     1      -9.666   9.932  68.653  1.00  0.00    -0.157 A  
HETATM   15 BR   UNL     1     -11.601   7.348  72.061  1.00  0.00    -0.342 Br 
HETATM   16  C   UNL     1      -9.460   8.545  68.700  1.00  0.00    -0.144 A  
HETATM   17  C   UNL     1     -11.189   9.732  70.551  1.00  0.00    -0.381 A  
HETATM   18  C   UNL     1     -10.589  10.490  69.550  1.00  0.00    -0.246 A  
HETATM   19  C   UNL     1     -10.883   8.378  70.648  1.00  0.00    -0.231 A  
HETATM   20  C   UNL     1     -10.038   7.776  69.717  1.00  0.00    -0.194 A  
HETATM   21  F   UNL     1     -10.858  11.803  69.477  1.00  0.00    -0.247 F  
ENDBRANCH  12  14
ENDBRANCH   8  12
BRANCH  10  22
HETATM   22  C   UNL     1      -8.593  13.788  67.882  1.00  0.00    -0.183 C  
HETATM   23  H   UNL     1      -8.993  15.658  67.015  1.00  0.00     0.000 HD 
HETATM   24  N   UNL     1      -8.476  15.150  67.732  1.00  0.00    -0.145 N  
HETATM   25  O   UNL     1      -8.019  13.154  68.767  1.00  0.00    -0.074 OA 
BRANCH  24  26
HETATM   26  O   UNL     1      -7.596  15.809  68.631  1.00  0.00    -0.135 OA 
BRANCH  26  27
HETATM   27  C   UNL     1      -7.507  17.181  68.212  1.00  0.00    -0.217 C  
BRANCH  27  28
HETATM   28  C   UNL     1      -8.777  17.952  68.565  1.00  0.00    -0.292 C  
HETATM   29  O   UNL     1      -9.265  18.704  67.457  1.00  0.00    -0.277 OA 
HETATM   30  H   UNL     1     -10.054  19.183  67.677  1.00  0.00     0.000 HD 
ENDBRANCH  27  28
ENDBRANCH  26  27
ENDBRANCH  24  26
ENDBRANCH  10  22
TORSDOF 6
ENDMDL
MODEL      126
REMARK 921   NORMALIZED FREE ENERGY PREDICTED BY IDOCK:   -4.75 KCAL/MOL
REMARK 922        TOTAL FREE ENERGY PREDICTED BY IDOCK:   -7.69 KCAL/MOL
REMARK 923 INTER-LIGAND FREE ENERGY PREDICTED BY IDOCK:   -6.37 KCAL/MOL
REMARK 924 INTRA-LIGAND FREE ENERGY PREDICTED BY IDOCK:   -1.32 KCAL/MOL
REMARK 927      BINDING AFFINITY PREDICTED BY RF-SCORE:    0.00 PKD
ROOT
HETATM    1  C   UNL     1      -7.832  17.306  68.255  1.00  0.00    -0.244 C  
HETATM    2  N   UNL     1      -9.120  16.743  68.569  1.00  0.00    -0.233 NA 
HETATM    3  C   UNL     1     -10.156  17.413  69.154  1.00  0.00    -0.242 A  
HETATM    4  N   UNL     1     -11.195  16.629  69.336  1.00  0.00    -0.180 NA 
HETATM    5  C   UNL     1     -10.812  15.400  68.847  1.00  0.00    -0.251 A  
HETATM    6  C   UNL     1     -11.509  14.187  68.794  1.00  0.00    -0.299 A  
HETATM    7  F   UNL     1     -12.781  14.160  69.223  1.00  0.00    -0.285 F  
HETATM    8  C   UNL     1     -10.897  13.008  68.281  1.00  0.00    -0.246 A  
HETATM    9  C   UNL     1      -8.913  14.344  67.731  1.00  0.00    -0.192 A  
HETATM   10  C   UNL     1      -9.635  13.125  67.659  1.00  0.00    -0.210 A  
HETATM   11  C   UNL     1      -9.518  15.451  68.344  1.00  0.00    -0.200 A  
ENDROOT
BRANCH   8  12
HETATM   12  N   UNL     1     -11.621  11.762  68.315  1.00  0.00    -0.298 NA 
HETATM   13  H   UNL     1     -12.241  11.542  67.535  1.00  0.00     0.000 HD 
BRANCH  12  14
HETATM   14  C   UNL     1     -11.518  10.815  69.385  1.00  0.00    -0.295 A  
HETATM   15 BR   UNL     1     -11.483   7.469  72.677  1.00  0.00    -0.350 Br 
HETATM   16  C   UNL     1     -12.102  11.044  70.640  1.00  0.00    -0.471 A  
HETATM   17  C   UNL     1     -10.751   8.639  70.182  1.00  0.00    -0.244 A  
HETATM   18  C   UNL     1     -10.789   9.630  69.205  1.00  0.00    -0.205 A  
HETATM   19  C   UNL     1     -11.432   8.842  71.378  1.00  0.00    -0.297 A  
HETATM   20  C   UNL     1     -12.091  10.046  71.621  1.00  0.00    -0.420 A  
HETATM   21  F   UNL     1     -10.160   9.421  68.038  1.00  0.00    -0.178 F  
ENDBRANCH  12  14
ENDBRANCH   8  12
BRANCH  10  22
HETATM   22  C   UNL     1      -8.991  12.067  66.801  1.00  0.00    -0.198 C  
HETATM   23  H   UNL     1      -7.244  12.057  67.966  1.00  0.00     0.000 HD 
HETATM   24  N   UNL     1      -7.734  11.650  67.169  1.00  0.00    -0.152 N  
HETATM   25  O   UNL     1      -9.625  11.562  65.874  1.00  0.00    -0.218 OA 
BRANCH  24  26
HETATM   26  O   UNL     1      -7.154  10.621  66.380  1.00  0.00    -0.119 OA 
BRANCH  26  27
HETATM   27  C   UNL     1      -6.088  11.214  65.621  1.00  0.00     0.144 C  
BRANCH  27  28
HETATM   28  C   UNL     1      -5.981  10.587  64.233  1.00  0.00    -0.048 C  
HETATM   29  O   UNL     1      -5.134  11.347  63.374  1.00  0.00    -0.439 OA 
HETATM   30  H   UNL     1      -5.068  10.957  62.510  1.00  0.00     0.000 HD 
ENDBRANCH  27  28
ENDBRANCH  26  27
ENDBRANCH  24  26
ENDBRANCH  10  22
TORSDOF 6
ENDMDL
MODEL      127
REMARK 921   NORMALIZED FREE ENERGY PREDICTED BY IDOCK:   -4.72 KCAL/MOL
REMARK 922        TOTAL FREE ENERGY PREDICTED BY IDOCK:   -7.66 KCAL/MOL
REMARK 923 INTER-LIGAND FREE ENERGY PREDICTED BY IDOCK:   -6.43 KCAL/MOL
REMARK 924 INTRA-LIGAND FREE ENERGY PREDICTED BY IDOCK:   -1.23 KCAL/MOL
REMARK 927      BINDING AFFINITY PREDICTED BY RF-SCORE:    0.00 PKD
ROOT
HETATM    1  C   UNL     1     -12.335  13.021  65.791  1.00  0.00    -0.416 C  
HETATM    2  N   UNL     1     -11.335  12.206  65.148  1.00  0.00    -0.326 NA 
HETATM    3  C   UNL     1     -10.866  12.384  63.879  1.00  0.00    -0.420 A  
HETATM    4  N   UNL     1      -9.976  11.470  63.562  1.00  0.00    -0.360 NA 
HETATM    5  C   UNL     1      -9.866  10.670  64.676  1.00  0.00    -0.321 A  
HETATM    6  C   UNL     1      -9.079   9.534  64.905  1.00  0.00    -0.223 A  
HETATM    7  F   UNL     1      -8.231   9.139  63.942  1.00  0.00    -0.136 F  
HETATM    8  C   UNL     1      -9.157   8.819  66.134  1.00  0.00    -0.202 A  
HETATM    9  C   UNL     1     -10.729  10.516  66.957  1.00  0.00    -0.310 A  
HETATM   10  C   UNL     1      -9.910   9.381  67.189  1.00  0.00    -0.242 A  
HETATM   11  C   UNL     1     -10.699  11.122  65.693  1.00  0.00    -0.185 A  
ENDROOT
BRANCH   8  12
HETATM   12  N   UNL     1      -8.388   7.612  66.301  1.00  0.00    -0.126 NA 
HETATM   13  H   UNL     1      -7.558   7.646  66.893  1.00  0.00     0.000 HD 
BRANCH  12  14
HETATM   14  C   UNL     1      -8.727   6.366  65.680  1.00  0.00    -0.099 A  
HETATM   15 BR   UNL     1     -10.048   2.521  63.333  1.00  0.00    -0.148 Br 
HETATM   16  C   UNL     1      -9.722   5.523  66.196  1.00  0.00    -0.147 A  
HETATM   17  C   UNL     1      -8.399   4.791  63.843  1.00  0.00    -0.125 A  
HETATM   18  C   UNL     1      -8.034   5.941  64.536  1.00  0.00    -0.126 A  
HETATM   19  C   UNL     1      -9.465   4.029  64.313  1.00  0.00    -0.162 A  
HETATM   20  C   UNL     1     -10.115   4.377  65.496  1.00  0.00    -0.251 A  
HETATM   21  F   UNL     1      -7.028   6.695  64.065  1.00  0.00    -0.044 F  
ENDBRANCH  12  14
ENDBRANCH   8  12
BRANCH  10  22
HETATM   22  C   UNL     1      -9.852   8.935  68.627  1.00  0.00    -0.167 C  
HETATM   23  H   UNL     1     -10.578  10.777  69.323  1.00  0.00     0.000 HD 
HETATM   24  N   UNL     1     -10.271   9.838  69.574  1.00  0.00    -0.206 N  
HETATM   25  O   UNL     1      -9.521   7.779  68.895  1.00  0.00    -0.150 OA 
BRANCH  24  26
HETATM   26  O   UNL     1     -10.254   9.392  70.923  1.00  0.00    -0.273 OA 
BRANCH  26  27
HETATM   27  C   UNL     1     -11.611   9.405  71.394  1.00  0.00    -0.381 C  
BRANCH  27  28
HETATM   28  C   UNL     1     -11.899   8.201  72.288  1.00  0.00    -0.382 C  
HETATM   29  O   UNL     1     -13.270   7.816  72.231  1.00  0.00    -0.505 OA 
HETATM   30  H   UNL     1     -13.450   7.067  72.787  1.00  0.00     0.000 HD 
ENDBRANCH  27  28
ENDBRANCH  26  27
ENDBRANCH  24  26
ENDBRANCH  10  22
TORSDOF 6
ENDMDL
MODEL      128
REMARK 921   NORMALIZED FREE ENERGY PREDICTED BY IDOCK:   -4.69 KCAL/MOL
REMARK 922        TOTAL FREE ENERGY PREDICTED BY IDOCK:   -7.62 KCAL/MOL
REMARK 923 INTER-LIGAND FREE ENERGY PREDICTED BY IDOCK:   -7.00 KCAL/MOL
REMARK 924 INTRA-LIGAND FREE ENERGY PREDICTED BY IDOCK:   -0.62 KCAL/MOL
REMARK 927      BINDING AFFINITY PREDICTED BY RF-SCORE:    0.00 PKD
ROOT
HETATM    1  C   UNL     1     -13.508   9.739  71.247  1.00  0.00    -0.290 C  
HETATM    2  N   UNL     1     -12.084   9.648  71.048  1.00  0.00    -0.320 NA 
HETATM    3  C   UNL     1     -11.201   9.054  71.903  1.00  0.00    -0.368 A  
HETATM    4  N   UNL     1      -9.966   9.149  71.463  1.00  0.00    -0.313 NA 
HETATM    5  C   UNL     1     -10.057   9.834  70.273  1.00  0.00    -0.266 A  
HETATM    6  C   UNL     1      -9.058  10.233  69.376  1.00  0.00    -0.187 A  
HETATM    7  F   UNL     1      -7.790   9.876  69.631  1.00  0.00    -0.092 F  
HETATM    8  C   UNL     1      -9.374  10.985  68.208  1.00  0.00    -0.172 A  
HETATM    9  C   UNL     1     -11.750  10.787  68.792  1.00  0.00    -0.315 A  
HETATM   10  C   UNL     1     -10.735  11.167  67.877  1.00  0.00    -0.261 A  
HETATM   11  C   UNL     1     -11.380  10.144  69.981  1.00  0.00    -0.287 A  
ENDROOT
BRANCH   8  12
HETATM   12  N   UNL     1      -8.310  11.443  67.352  1.00  0.00    -0.139 NA 
HETATM   13  H   UNL     1      -7.835  10.758  66.764  1.00  0.00     0.000 HD 
BRANCH  12  14
HETATM   14  C   UNL     1      -7.881  12.808  67.282  1.00  0.00    -0.146 A  
HETATM   15 BR   UNL     1      -6.533  17.299  67.494  1.00  0.00    -0.172 Br 
HETATM   16  C   UNL     1      -8.717  13.827  66.801  1.00  0.00    -0.108 A  
HETATM   17  C   UNL     1      -6.158  14.482  67.718  1.00  0.00    -0.133 A  
HETATM   18  C   UNL     1      -6.579  13.156  67.673  1.00  0.00    -0.162 A  
HETATM   19  C   UNL     1      -7.044  15.486  67.342  1.00  0.00    -0.202 A  
HETATM   20  C   UNL     1      -8.314  15.166  66.865  1.00  0.00    -0.267 A  
HETATM   21  F   UNL     1      -5.736  12.189  68.068  1.00  0.00    -0.047 F  
ENDBRANCH  12  14
ENDBRANCH   8  12
BRANCH  10  22
HETATM   22  C   UNL     1     -11.243  11.654  66.545  1.00  0.00    -0.294 C  
HETATM   23  H   UNL     1      -9.880  10.460  65.485  1.00  0.00     0.000 HD 
HETATM   24  N   UNL     1     -10.650  11.127  65.423  1.00  0.00    -0.252 N  
HETATM   25  O   UNL     1     -12.203  12.424  66.502  1.00  0.00    -0.586 OA 
BRANCH  24  26
HETATM   26  O   UNL     1     -11.166  11.560  64.173  1.00  0.00    -0.358 OA 
BRANCH  26  27
HETATM   27  C   UNL     1     -10.100  11.464  63.214  1.00  0.00    -0.387 C  
BRANCH  27  28
HETATM   28  C   UNL     1      -9.273  10.198  63.430  1.00  0.00    -0.291 C  
HETATM   29  O   UNL     1      -9.451   9.263  62.369  1.00  0.00    -0.583 OA 
HETATM   30  H   UNL     1      -8.937   8.476  62.503  1.00  0.00     0.000 HD 
ENDBRANCH  27  28
ENDBRANCH  26  27
ENDBRANCH  24  26
ENDBRANCH  10  22
TORSDOF 6
ENDMDL
MODEL      129
REMARK 921   NORMALIZED FREE ENERGY PREDICTED BY IDOCK:   -4.69 KCAL/MOL
REMARK 922        TOTAL FREE ENERGY PREDICTED BY IDOCK:   -7.62 KCAL/MOL
REMARK 923 INTER-LIGAND FREE ENERGY PREDICTED BY IDOCK:   -6.99 KCAL/MOL
REMARK 924 INTRA-LIGAND FREE ENERGY PREDICTED BY IDOCK:   -0.63 KCAL/MOL
REMARK 927      BINDING AFFINITY PREDICTED BY RF-SCORE:    0.00 PKD
ROOT
HETATM    1  C   UNL     1     -13.290  10.670  72.187  1.00  0.00    -0.230 C  
HETATM    2  N   UNL     1     -13.044  11.946  71.566  1.00  0.00    -0.363 NA 
HETATM    3  C   UNL     1     -13.546  13.143  71.990  1.00  0.00    -0.465 A  
HETATM    4  N   UNL     1     -13.165  14.128  71.208  1.00  0.00    -0.341 NA 
HETATM    5  C   UNL     1     -12.384  13.542  70.239  1.00  0.00    -0.300 A  
HETATM    6  C   UNL     1     -11.724  14.106  69.140  1.00  0.00    -0.327 A  
HETATM    7  F   UNL     1     -11.778  15.437  68.975  1.00  0.00    -0.295 F  
HETATM    8  C   UNL     1     -10.997  13.295  68.222  1.00  0.00    -0.256 A  
HETATM    9  C   UNL     1     -11.484  11.351  69.639  1.00  0.00    -0.380 A  
HETATM   10  C   UNL     1     -10.800  11.934  68.541  1.00  0.00    -0.257 A  
HETATM   11  C   UNL     1     -12.278  12.173  70.452  1.00  0.00    -0.294 A  
ENDROOT
BRANCH   8  12
HETATM   12  N   UNL     1     -10.398  13.904  67.061  1.00  0.00    -0.265 NA 
HETATM   13  H   UNL     1     -10.294  13.338  66.219  1.00  0.00     0.000 HD 
BRANCH  12  14
HETATM   14  C   UNL     1      -9.941  15.261  67.026  1.00  0.00    -0.234 A  
HETATM   15 BR   UNL     1      -8.232  19.605  66.533  1.00  0.00    -0.370 Br 
HETATM   16  C   UNL     1      -8.916  15.723  67.865  1.00  0.00    -0.180 A  
HETATM   17  C   UNL     1     -10.062  17.481  66.016  1.00  0.00    -0.270 A  
HETATM   18  C   UNL     1     -10.543  16.182  66.155  1.00  0.00    -0.283 A  
HETATM   19  C   UNL     1      -8.970  17.883  66.779  1.00  0.00    -0.261 A  
HETATM   20  C   UNL     1      -8.407  17.019  67.717  1.00  0.00    -0.199 A  
HETATM   21  F   UNL     1     -11.574  15.783  65.395  1.00  0.00    -0.165 F  
ENDBRANCH  12  14
ENDBRANCH   8  12
BRANCH  10  22
HETATM   22  C   UNL     1      -9.815  11.019  67.862  1.00  0.00    -0.171 C  
HETATM   23  H   UNL     1      -9.495   9.912  69.616  1.00  0.00     0.000 HD 
HETATM   24  N   UNL     1      -9.269  10.016  68.627  1.00  0.00    -0.147 N  
HETATM   25  O   UNL     1      -9.598  11.142  66.656  1.00  0.00    -0.184 OA 
BRANCH  24  26
HETATM   26  O   UNL     1      -8.375   9.133  67.965  1.00  0.00    -0.119 OA 
BRANCH  26  27
HETATM   27  C   UNL     1      -7.202   9.019  68.787  1.00  0.00    -0.075 C  
BRANCH  27  28
HETATM   28  C   UNL     1      -7.467   9.520  70.205  1.00  0.00    -0.143 C  
HETATM   29  O   UNL     1      -6.755  10.723  70.484  1.00  0.00    -0.416 OA 
HETATM   30  H   UNL     1      -6.920  11.034  71.365  1.00  0.00     0.000 HD 
ENDBRANCH  27  28
ENDBRANCH  26  27
ENDBRANCH  24  26
ENDBRANCH  10  22
TORSDOF 6
ENDMDL
MODEL      130
REMARK 921   NORMALIZED FREE ENERGY PREDICTED BY IDOCK:   -4.69 KCAL/MOL
REMARK 922        TOTAL FREE ENERGY PREDICTED BY IDOCK:   -7.62 KCAL/MOL
REMARK 923 INTER-LIGAND FREE ENERGY PREDICTED BY IDOCK:   -6.15 KCAL/MOL
REMARK 924 INTRA-LIGAND FREE ENERGY PREDICTED BY IDOCK:   -1.47 KCAL/MOL
REMARK 927      BINDING AFFINITY PREDICTED BY RF-SCORE:    0.00 PKD
ROOT
HETATM    1  C   UNL     1      -7.900   7.535  72.347  1.00  0.00    -0.098 C  
HETATM    2  N   UNL     1      -7.530   8.373  71.235  1.00  0.00    -0.080 NA 
HETATM    3  C   UNL     1      -6.658   9.422  71.289  1.00  0.00    -0.020 A  
HETATM    4  N   UNL     1      -6.539  10.011  70.121  1.00  0.00    -0.101 NA 
HETATM    5  C   UNL     1      -7.370   9.312  69.276  1.00  0.00    -0.070 A  
HETATM    6  C   UNL     1      -7.654   9.501  67.918  1.00  0.00    -0.087 A  
HETATM    7  F   UNL     1      -7.003  10.473  67.258  1.00  0.00    -0.080 F  
HETATM    8  C   UNL     1      -8.596   8.676  67.239  1.00  0.00    -0.125 A  
HETATM    9  C   UNL     1      -8.842   7.362  69.297  1.00  0.00    -0.136 A  
HETATM   10  C   UNL     1      -9.106   7.546  67.916  1.00  0.00    -0.130 A  
HETATM   11  C   UNL     1      -7.992   8.266  69.949  1.00  0.00    -0.108 A  
ENDROOT
BRANCH   8  12
HETATM   12  N   UNL     1      -8.917   8.954  65.862  1.00  0.00    -0.187 NA 
HETATM   13  H   UNL     1      -8.523   8.348  65.143  1.00  0.00     0.000 HD 
BRANCH  12  14
HETATM   14  C   UNL     1      -9.761  10.035  65.449  1.00  0.00    -0.302 A  
HETATM   15 BR   UNL     1     -12.156  13.822  64.049  1.00  0.00    -0.381 Br 
HETATM   16  C   UNL     1     -10.536  10.766  66.362  1.00  0.00    -0.293 A  
HETATM   17  C   UNL     1     -10.580  11.478  63.657  1.00  0.00    -0.491 A  
HETATM   18  C   UNL     1      -9.855  10.372  64.090  1.00  0.00    -0.313 A  
HETATM   19  C   UNL     1     -11.251  12.255  64.597  1.00  0.00    -0.315 A  
HETATM   20  C   UNL     1     -11.249  11.895  65.943  1.00  0.00    -0.373 A  
HETATM   21  F   UNL     1      -9.180   9.641  63.188  1.00  0.00    -0.261 F  
ENDBRANCH  12  14
ENDBRANCH   8  12
BRANCH  10  22
HETATM   22  C   UNL     1      -9.853   6.412  67.264  1.00  0.00    -0.138 C  
HETATM   23  H   UNL     1      -8.365   5.021  67.769  1.00  0.00     0.000 HD 
HETATM   24  N   UNL     1      -9.273   5.168  67.329  1.00  0.00    -0.113 N  
HETATM   25  O   UNL     1     -10.968   6.613  66.782  1.00  0.00    -0.347 OA 
BRANCH  24  26
HETATM   26  O   UNL     1     -10.007   4.098  66.751  1.00  0.00    -0.218 OA 
BRANCH  26  27
HETATM   27  C   UNL     1      -9.381   3.780  65.497  1.00  0.00    -0.160 C  
BRANCH  27  28
HETATM   28  C   UNL     1     -10.373   3.884  64.340  1.00  0.00    -0.231 C  
HETATM   29  O   UNL     1     -11.564   4.566  64.725  1.00  0.00    -0.988 OA 
HETATM   30  H   UNL     1     -12.181   4.630  64.006  1.00  0.00     0.000 HD 
ENDBRANCH  27  28
ENDBRANCH  26  27
ENDBRANCH  24  26
ENDBRANCH  10  22
TORSDOF 6
ENDMDL
MODEL      131
REMARK 921   NORMALIZED FREE ENERGY PREDICTED BY IDOCK:   -4.66 KCAL/MOL
REMARK 922        TOTAL FREE ENERGY PREDICTED BY IDOCK:   -7.58 KCAL/MOL
REMARK 923 INTER-LIGAND FREE ENERGY PREDICTED BY IDOCK:   -6.38 KCAL/MOL
REMARK 924 INTRA-LIGAND FREE ENERGY PREDICTED BY IDOCK:   -1.19 KCAL/MOL
REMARK 927      BINDING AFFINITY PREDICTED BY RF-SCORE:    0.00 PKD
ROOT
HETATM    1  C   UNL     1      -9.209   7.933  73.519  1.00  0.00    -0.276 C  
HETATM    2  N   UNL     1      -9.784   7.315  72.352  1.00  0.00    -0.152 NA 
HETATM    3  C   UNL     1     -10.301   6.053  72.297  1.00  0.00    -0.192 A  
HETATM    4  N   UNL     1     -10.730   5.760  71.091  1.00  0.00    -0.260 NA 
HETATM    5  C   UNL     1     -10.480   6.882  70.334  1.00  0.00    -0.206 A  
HETATM    6  C   UNL     1     -10.717   7.134  68.977  1.00  0.00    -0.184 A  
HETATM    7  F   UNL     1     -11.334   6.190  68.250  1.00  0.00    -0.392 F  
HETATM    8  C   UNL     1     -10.331   8.368  68.379  1.00  0.00    -0.200 A  
HETATM    9  C   UNL     1      -9.604   9.148  70.589  1.00  0.00    -0.312 A  
HETATM   10  C   UNL     1      -9.869   9.404  69.220  1.00  0.00    -0.176 A  
HETATM   11  C   UNL     1      -9.901   7.880  71.109  1.00  0.00    -0.165 A  
ENDROOT
BRANCH   8  12
HETATM   12  N   UNL     1     -10.522   8.558  66.963  1.00  0.00    -0.308 NA 
HETATM   13  H   UNL     1     -11.474   8.667  66.615  1.00  0.00     0.000 HD 
BRANCH  12  14
HETATM   14  C   UNL     1      -9.446   8.601  66.018  1.00  0.00    -0.208 A  
HETATM   15 BR   UNL     1      -6.206   8.581  62.622  1.00  0.00    -0.088 Br 
HETATM   16  C   UNL     1      -8.407   7.658  66.030  1.00  0.00    -0.135 A  
HETATM   17  C   UNL     1      -8.424   9.646  64.063  1.00  0.00    -0.190 A  
HETATM   18  C   UNL     1      -9.393   9.626  65.062  1.00  0.00    -0.255 A  
HETATM   19  C   UNL     1      -7.468   8.635  64.028  1.00  0.00    -0.118 A  
HETATM   20  C   UNL     1      -7.441   7.653  65.017  1.00  0.00    -0.090 A  
HETATM   21  F   UNL     1     -10.336  10.581  65.075  1.00  0.00    -0.361 F  
ENDBRANCH  12  14
ENDBRANCH   8  12
BRANCH  10  22
HETATM   22  C   UNL     1      -9.717  10.846  68.812  1.00  0.00    -0.189 C  
HETATM   23  H   UNL     1     -11.564  11.375  69.658  1.00  0.00     0.000 HD 
HETATM   24  N   UNL     1     -10.731  11.703  69.168  1.00  0.00    -0.185 N  
HETATM   25  O   UNL     1      -8.680  11.220  68.262  1.00  0.00    -0.144 OA 
BRANCH  24  26
HETATM   26  O   UNL     1     -10.557  13.068  68.817  1.00  0.00    -0.243 OA 
BRANCH  26  27
HETATM   27  C   UNL     1     -11.839  13.571  68.407  1.00  0.00    -0.373 C  
BRANCH  27  28
HETATM   28  C   UNL     1     -11.920  13.711  66.889  1.00  0.00    -0.410 C  
HETATM   29  O   UNL     1     -12.334  12.498  66.266  1.00  0.00    -0.570 OA 
HETATM   30  H   UNL     1     -12.384  12.585  65.322  1.00  0.00     0.000 HD 
ENDBRANCH  27  28
ENDBRANCH  26  27
ENDBRANCH  24  26
ENDBRANCH  10  22
TORSDOF 6
ENDMDL
MODEL      132
REMARK 921   NORMALIZED FREE ENERGY PREDICTED BY IDOCK:   -4.64 KCAL/MOL
REMARK 922        TOTAL FREE ENERGY PREDICTED BY IDOCK:   -7.55 KCAL/MOL
REMARK 923 INTER-LIGAND FREE ENERGY PREDICTED BY IDOCK:   -6.12 KCAL/MOL
REMARK 924 INTRA-LIGAND FREE ENERGY PREDICTED BY IDOCK:   -1.43 KCAL/MOL
REMARK 927      BINDING AFFINITY PREDICTED BY RF-SCORE:    0.00 PKD
ROOT
HETATM    1  C   UNL     1      -9.827  15.937  66.960  1.00  0.00    -0.232 C  
HETATM    2  N   UNL     1     -10.601  15.160  67.893  1.00  0.00    -0.253 NA 
HETATM    3  C   UNL     1     -11.450  15.667  68.834  1.00  0.00    -0.361 A  
HETATM    4  N   UNL     1     -11.997  14.714  69.553  1.00  0.00    -0.312 NA 
HETATM    5  C   UNL     1     -11.479  13.541  69.055  1.00  0.00    -0.303 A  
HETATM    6  C   UNL     1     -11.696  12.213  69.446  1.00  0.00    -0.329 A  
HETATM    7  F   UNL     1     -12.583  11.972  70.424  1.00  0.00    -0.313 F  
HETATM    8  C   UNL     1     -11.010  11.137  68.813  1.00  0.00    -0.219 A  
HETATM    9  C   UNL     1      -9.998  12.761  67.276  1.00  0.00    -0.219 A  
HETATM   10  C   UNL     1     -10.242  11.418  67.662  1.00  0.00    -0.204 A  
HETATM   11  C   UNL     1     -10.612  13.793  67.999  1.00  0.00    -0.252 A  
ENDROOT
BRANCH   8  12
HETATM   12  N   UNL     1     -11.203   9.794  69.296  1.00  0.00    -0.416 NA 
HETATM   13  H   UNL     1     -12.040   9.290  69.003  1.00  0.00     0.000 HD 
BRANCH  12  14
HETATM   14  C   UNL     1     -10.282   9.126  70.167  1.00  0.00    -0.205 A  
HETATM   15 BR   UNL     1      -7.104   7.339  73.124  1.00  0.00    -0.080 Br 
HETATM   16  C   UNL     1      -9.162   8.437  69.678  1.00  0.00    -0.160 A  
HETATM   17  C   UNL     1      -9.582   8.574  72.440  1.00  0.00    -0.356 A  
HETATM   18  C   UNL     1     -10.504   9.121  71.552  1.00  0.00    -0.352 A  
HETATM   19  C   UNL     1      -8.421   7.994  71.936  1.00  0.00    -0.136 A  
HETATM   20  C   UNL     1      -8.215   7.905  70.561  1.00  0.00    -0.118 A  
HETATM   21  F   UNL     1     -11.607   9.710  72.038  1.00  0.00    -0.443 F  
ENDBRANCH  12  14
ENDBRANCH   8  12
BRANCH  10  22
HETATM   22  C   UNL     1      -9.713  10.385  66.701  1.00  0.00    -0.190 C  
HETATM   23  H   UNL     1      -7.864  11.364  66.524  1.00  0.00     0.000 HD 
HETATM   24  N   UNL     1      -8.427  10.559  66.249  1.00  0.00    -0.144 N  
HETATM   25  O   UNL     1     -10.399   9.401  66.424  1.00  0.00    -0.242 OA 
BRANCH  24  26
HETATM   26  O   UNL     1      -7.923   9.555  65.379  1.00  0.00    -0.108 OA 
BRANCH  26  27
HETATM   27  C   UNL     1      -6.873   8.870  66.080  1.00  0.00    -0.074 C  
BRANCH  27  28
HETATM   28  C   UNL     1      -6.338   9.711  67.238  1.00  0.00    -0.068 C  
HETATM   29  O   UNL     1      -5.241   9.076  67.889  1.00  0.00    -0.034 OA 
HETATM   30  H   UNL     1      -4.909   9.599  68.609  1.00  0.00     0.000 HD 
ENDBRANCH  27  28
ENDBRANCH  26  27
ENDBRANCH  24  26
ENDBRANCH  10  22
TORSDOF 6
ENDMDL
MODEL      133
REMARK 921   NORMALIZED FREE ENERGY PREDICTED BY IDOCK:   -4.62 KCAL/MOL
REMARK 922        TOTAL FREE ENERGY PREDICTED BY IDOCK:   -7.53 KCAL/MOL
REMARK 923 INTER-LIGAND FREE ENERGY PREDICTED BY IDOCK:   -6.07 KCAL/MOL
REMARK 924 INTRA-LIGAND FREE ENERGY PREDICTED BY IDOCK:   -1.45 KCAL/MOL
REMARK 927      BINDING AFFINITY PREDICTED BY RF-SCORE:    0.00 PKD
ROOT
HETATM    1  C   UNL     1      -7.620   4.693  73.006  1.00  0.00    -0.087 C  
HETATM    2  N   UNL     1      -8.970   5.191  72.958  1.00  0.00    -0.119 NA 
HETATM    3  C   UNL     1     -10.009   4.739  73.720  1.00  0.00    -0.158 A  
HETATM    4  N   UNL     1     -11.125   5.371  73.436  1.00  0.00    -0.299 NA 
HETATM    5  C   UNL     1     -10.792   6.270  72.448  1.00  0.00    -0.243 A  
HETATM    6  C   UNL     1     -11.585   7.195  71.757  1.00  0.00    -0.280 A  
HETATM    7  F   UNL     1     -12.877   7.313  72.101  1.00  0.00    -0.301 F  
HETATM    8  C   UNL     1     -11.037   8.007  70.724  1.00  0.00    -0.259 A  
HETATM    9  C   UNL     1      -8.833   7.042  71.210  1.00  0.00    -0.133 A  
HETATM   10  C   UNL     1      -9.638   7.993  70.532  1.00  0.00    -0.170 A  
HETATM   11  C   UNL     1      -9.439   6.188  72.142  1.00  0.00    -0.151 A  
ENDROOT
BRANCH   8  12
HETATM   12  N   UNL     1     -11.902   8.891  69.984  1.00  0.00    -0.373 NA 
HETATM   13  H   UNL     1     -12.273   8.567  69.091  1.00  0.00     0.000 HD 
BRANCH  12  14
HETATM   14  C   UNL     1     -12.271  10.199  70.436  1.00  0.00    -0.218 A  
HETATM   15 BR   UNL     1     -13.065  14.525  72.077  1.00  0.00    -0.466 Br 
HETATM   16  C   UNL     1     -13.084  10.396  71.562  1.00  0.00    -0.532 A  
HETATM   17  C   UNL     1     -12.090  12.622  70.191  1.00  0.00    -0.368 A  
HETATM   18  C   UNL     1     -11.842  11.333  69.729  1.00  0.00    -0.364 A  
HETATM   19  C   UNL     1     -12.805  12.790  71.373  1.00  0.00    -0.275 A  
HETATM   20  C   UNL     1     -13.320  11.687  72.051  1.00  0.00    -0.405 A  
HETATM   21  F   UNL     1     -11.124  11.168  68.607  1.00  0.00    -0.202 F  
ENDBRANCH  12  14
ENDBRANCH   8  12
BRANCH  10  22
HETATM   22  C   UNL     1      -8.866   8.998  69.716  1.00  0.00    -0.153 C  
HETATM   23  H   UNL     1      -9.126   7.898  67.948  1.00  0.00     0.000 HD 
HETATM   24  N   UNL     1      -8.742   8.742  68.372  1.00  0.00    -0.134 N  
HETATM   25  O   UNL     1      -8.454  10.029  70.248  1.00  0.00    -0.128 OA 
BRANCH  24  26
HETATM   26  O   UNL     1      -8.051   9.717  67.605  1.00  0.00    -0.112 OA 
BRANCH  26  27
HETATM   27  C   UNL     1      -6.736   9.201  67.342  1.00  0.00    -0.069 C  
BRANCH  27  28
HETATM   28  C   UNL     1      -5.655  10.157  67.841  1.00  0.00    -0.038 C  
HETATM   29  O   UNL     1      -5.486  10.075  69.254  1.00  0.00    -0.035 OA 
HETATM   30  H   UNL     1      -4.814  10.670  69.563  1.00  0.00     0.000 HD 
ENDBRANCH  27  28
ENDBRANCH  26  27
ENDBRANCH  24  26
ENDBRANCH  10  22
TORSDOF 6
ENDMDL
MODEL      134
REMARK 921   NORMALIZED FREE ENERGY PREDICTED BY IDOCK:   -4.62 KCAL/MOL
REMARK 922        TOTAL FREE ENERGY PREDICTED BY IDOCK:   -7.52 KCAL/MOL
REMARK 923 INTER-LIGAND FREE ENERGY PREDICTED BY IDOCK:   -6.49 KCAL/MOL
REMARK 924 INTRA-LIGAND FREE ENERGY PREDICTED BY IDOCK:   -1.03 KCAL/MOL
REMARK 927      BINDING AFFINITY PREDICTED BY RF-SCORE:    0.00 PKD
ROOT
HETATM    1  C   UNL     1      -6.229  16.306  67.584  1.00  0.00    -0.148 C  
HETATM    2  N   UNL     1      -6.394  14.875  67.551  1.00  0.00    -0.314 NA 
HETATM    3  C   UNL     1      -5.382  13.963  67.465  1.00  0.00     0.185 A  
HETATM    4  N   UNL     1      -5.844  12.734  67.431  1.00  0.00    -0.276 NA 
HETATM    5  C   UNL     1      -7.213  12.858  67.498  1.00  0.00    -0.148 A  
HETATM    6  C   UNL     1      -8.216  11.881  67.485  1.00  0.00    -0.155 A  
HETATM    7  F   UNL     1      -7.850  10.589  67.459  1.00  0.00    -0.102 F  
HETATM    8  C   UNL     1      -9.594  12.239  67.517  1.00  0.00    -0.184 A  
HETATM    9  C   UNL     1      -8.921  14.589  67.734  1.00  0.00    -0.190 A  
HETATM   10  C   UNL     1      -9.929  13.591  67.745  1.00  0.00    -0.232 A  
HETATM   11  C   UNL     1      -7.583  14.194  67.591  1.00  0.00    -0.180 A  
ENDROOT
BRANCH   8  12
HETATM   12  N   UNL     1     -10.595  11.207  67.424  1.00  0.00    -0.220 NA 
HETATM   13  H   UNL     1     -11.139  11.137  66.563  1.00  0.00     0.000 HD 
BRANCH  12  14
HETATM   14  C   UNL     1     -10.869  10.272  68.475  1.00  0.00    -0.240 A  
HETATM   15 BR   UNL     1     -11.535   7.479  72.188  1.00  0.00    -0.361 Br 
HETATM   16  C   UNL     1     -10.202   9.042  68.570  1.00  0.00    -0.224 A  
HETATM   17  C   UNL     1     -12.078   9.731  70.526  1.00  0.00    -0.244 A  
HETATM   18  C   UNL     1     -11.853  10.562  69.432  1.00  0.00    -0.199 A  
HETATM   19  C   UNL     1     -11.324   8.570  70.658  1.00  0.00    -0.241 A  
HETATM   20  C   UNL     1     -10.401   8.210  69.678  1.00  0.00    -0.221 A  
HETATM   21  F   UNL     1     -12.557  11.700  69.321  1.00  0.00    -0.200 F  
ENDBRANCH  12  14
ENDBRANCH   8  12
BRANCH  10  22
HETATM   22  C   UNL     1     -11.301  14.092  68.114  1.00  0.00    -0.290 C  
HETATM   23  H   UNL     1     -10.639  14.808  69.973  1.00  0.00     0.000 HD 
HETATM   24  N   UNL     1     -11.428  14.715  69.332  1.00  0.00    -0.279 N  
HETATM   25  O   UNL     1     -12.222  14.007  67.301  1.00  0.00    -0.405 OA 
BRANCH  24  26
HETATM   26  O   UNL     1     -12.715  15.223  69.651  1.00  0.00    -0.112 OA 
BRANCH  26  27
HETATM   27  C   UNL     1     -12.662  15.703  71.005  1.00  0.00    -0.460 C  
BRANCH  27  28
HETATM   28  C   UNL     1     -13.971  15.431  71.741  1.00  0.00    -0.525 C  
HETATM   29  O   UNL     1     -13.751  14.768  72.984  1.00  0.00    -0.524 OA 
HETATM   30  H   UNL     1     -14.566  14.598  73.442  1.00  0.00     0.000 HD 
ENDBRANCH  27  28
ENDBRANCH  26  27
ENDBRANCH  24  26
ENDBRANCH  10  22
TORSDOF 6
ENDMDL
MODEL      135
REMARK 921   NORMALIZED FREE ENERGY PREDICTED BY IDOCK:   -4.62 KCAL/MOL
REMARK 922        TOTAL FREE ENERGY PREDICTED BY IDOCK:   -7.52 KCAL/MOL
REMARK 923 INTER-LIGAND FREE ENERGY PREDICTED BY IDOCK:   -6.91 KCAL/MOL
REMARK 924 INTRA-LIGAND FREE ENERGY PREDICTED BY IDOCK:   -0.61 KCAL/MOL
REMARK 927      BINDING AFFINITY PREDICTED BY RF-SCORE:    0.00 PKD
ROOT
HETATM    1  C   UNL     1     -12.347  12.417  63.352  1.00  0.00    -0.499 C  
HETATM    2  N   UNL     1     -11.298  11.734  64.065  1.00  0.00    -0.380 NA 
HETATM    3  C   UNL     1     -10.393  10.875  63.512  1.00  0.00    -0.277 A  
HETATM    4  N   UNL     1      -9.573  10.390  64.417  1.00  0.00    -0.291 NA 
HETATM    5  C   UNL     1      -9.966  10.961  65.605  1.00  0.00    -0.251 A  
HETATM    6  C   UNL     1      -9.462  10.799  66.902  1.00  0.00    -0.168 A  
HETATM    7  F   UNL     1      -8.387  10.014  67.076  1.00  0.00    -0.118 F  
HETATM    8  C   UNL     1     -10.058  11.462  68.012  1.00  0.00    -0.180 A  
HETATM    9  C   UNL     1     -11.588  12.581  66.452  1.00  0.00    -0.449 A  
HETATM   10  C   UNL     1     -11.055  12.429  67.758  1.00  0.00    -0.292 A  
HETATM   11  C   UNL     1     -11.038  11.824  65.408  1.00  0.00    -0.279 A  
ENDROOT
BRANCH   8  12
HETATM   12  N   UNL     1      -9.557  11.209  69.340  1.00  0.00    -0.408 NA 
HETATM   13  H   UNL     1      -9.577  11.971  70.017  1.00  0.00     0.000 HD 
BRANCH  12  14
HETATM   14  C   UNL     1      -9.033   9.943  69.759  1.00  0.00    -0.221 A  
HETATM   15 BR   UNL     1      -7.202   5.727  70.710  1.00  0.00    -0.082 Br 
HETATM   16  C   UNL     1      -9.866   8.857  70.066  1.00  0.00    -0.188 A  
HETATM   17  C   UNL     1      -7.092   8.532  70.209  1.00  0.00    -0.043 A  
HETATM   18  C   UNL     1      -7.648   9.771  69.904  1.00  0.00    -0.152 A  
HETATM   19  C   UNL     1      -7.935   7.441  70.400  1.00  0.00    -0.103 A  
HETATM   20  C   UNL     1      -9.319   7.600  70.350  1.00  0.00    -0.160 A  
HETATM   21  F   UNL     1      -6.834  10.815  69.686  1.00  0.00    -0.075 F  
ENDBRANCH  12  14
ENDBRANCH   8  12
BRANCH  10  22
HETATM   22  C   UNL     1     -11.564  13.431  68.761  1.00  0.00    -0.325 C  
HETATM   23  H   UNL     1     -11.276  15.037  67.440  1.00  0.00     0.000 HD 
HETATM   24  N   UNL     1     -11.604  14.746  68.361  1.00  0.00    -0.311 N  
HETATM   25  O   UNL     1     -11.995  13.044  69.848  1.00  0.00    -0.320 OA 
BRANCH  24  26
HETATM   26  O   UNL     1     -12.127  15.676  69.298  1.00  0.00    -0.347 OA 
BRANCH  26  27
HETATM   27  C   UNL     1     -11.015  16.409  69.837  1.00  0.00    -0.338 C  
BRANCH  27  28
HETATM   28  C   UNL     1      -9.719  16.069  69.104  1.00  0.00    -0.251 C  
HETATM   29  O   UNL     1      -8.831  15.311  69.923  1.00  0.00    -0.399 OA 
HETATM   30  H   UNL     1      -8.026  15.100  69.467  1.00  0.00     0.000 HD 
ENDBRANCH  27  28
ENDBRANCH  26  27
ENDBRANCH  24  26
ENDBRANCH  10  22
TORSDOF 6
ENDMDL
MODEL      136
REMARK 921   NORMALIZED FREE ENERGY PREDICTED BY IDOCK:   -4.62 KCAL/MOL
REMARK 922        TOTAL FREE ENERGY PREDICTED BY IDOCK:   -7.52 KCAL/MOL
REMARK 923 INTER-LIGAND FREE ENERGY PREDICTED BY IDOCK:   -6.08 KCAL/MOL
REMARK 924 INTRA-LIGAND FREE ENERGY PREDICTED BY IDOCK:   -1.44 KCAL/MOL
REMARK 927      BINDING AFFINITY PREDICTED BY RF-SCORE:    0.00 PKD
ROOT
HETATM    1  C   UNL     1     -11.303  15.873  64.392  1.00  0.00    -0.267 C  
HETATM    2  N   UNL     1     -11.586  14.631  65.065  1.00  0.00    -0.371 NA 
HETATM    3  C   UNL     1     -12.676  13.840  64.843  1.00  0.00    -0.271 A  
HETATM    4  N   UNL     1     -12.671  12.783  65.624  1.00  0.00    -0.474 NA 
HETATM    5  C   UNL     1     -11.528  12.897  66.382  1.00  0.00    -0.341 A  
HETATM    6  C   UNL     1     -11.019  12.067  67.389  1.00  0.00    -0.261 A  
HETATM    7  F   UNL     1     -11.674  10.931  67.673  1.00  0.00    -0.358 F  
HETATM    8  C   UNL     1      -9.824  12.404  68.087  1.00  0.00    -0.213 A  
HETATM    9  C   UNL     1      -9.584  14.358  66.621  1.00  0.00    -0.295 A  
HETATM   10  C   UNL     1      -9.063  13.499  67.622  1.00  0.00    -0.205 A  
HETATM   11  C   UNL     1     -10.820  14.042  66.038  1.00  0.00    -0.295 A  
ENDROOT
BRANCH   8  12
HETATM   12  N   UNL     1      -9.375  11.563  69.168  1.00  0.00    -0.396 NA 
HETATM   13  H   UNL     1      -9.212  11.993  70.078  1.00  0.00     0.000 HD 
BRANCH  12  14
HETATM   14  C   UNL     1      -9.146  10.155  69.033  1.00  0.00    -0.173 A  
HETATM   15 BR   UNL     1      -8.125   5.575  68.943  1.00  0.00    -0.095 Br 
HETATM   16  C   UNL     1      -8.327   9.628  68.024  1.00  0.00    -0.117 A  
HETATM   17  C   UNL     1      -9.499   7.892  69.877  1.00  0.00    -0.160 A  
HETATM   18  C   UNL     1      -9.775   9.256  69.907  1.00  0.00    -0.201 A  
HETATM   19  C   UNL     1      -8.596   7.406  68.937  1.00  0.00    -0.129 A  
HETATM   20  C   UNL     1      -8.023   8.262  67.998  1.00  0.00    -0.123 A  
HETATM   21  F   UNL     1     -10.620   9.730  70.835  1.00  0.00    -0.337 F  
ENDBRANCH  12  14
ENDBRANCH   8  12
BRANCH  10  22
HETATM   22  C   UNL     1      -7.645  13.803  68.031  1.00  0.00    -0.145 C  
HETATM   23  H   UNL     1      -7.580  15.537  66.849  1.00  0.00     0.000 HD 
HETATM   24  N   UNL     1      -7.079  14.941  67.508  1.00  0.00    -0.187 N  
HETATM   25  O   UNL     1      -7.083  13.091  68.863  1.00  0.00    -0.100 OA 
BRANCH  24  26
HETATM   26  O   UNL     1      -5.758  15.242  67.935  1.00  0.00    -0.133 OA 
BRANCH  26  27
HETATM   27  C   UNL     1      -5.809  16.500  68.627  1.00  0.00    -0.125 C  
BRANCH  27  28
HETATM   28  C   UNL     1      -5.449  16.337  70.101  1.00  0.00    -0.182 C  
HETATM   29  O   UNL     1      -5.469  14.969  70.502  1.00  0.00    -0.126 OA 
HETATM   30  H   UNL     1      -5.245  14.867  71.420  1.00  0.00     0.000 HD 
ENDBRANCH  27  28
ENDBRANCH  26  27
ENDBRANCH  24  26
ENDBRANCH  10  22
TORSDOF 6
ENDMDL
MODEL      137
REMARK 921   NORMALIZED FREE ENERGY PREDICTED BY IDOCK:   -4.62 KCAL/MOL
REMARK 922        TOTAL FREE ENERGY PREDICTED BY IDOCK:   -7.52 KCAL/MOL
REMARK 923 INTER-LIGAND FREE ENERGY PREDICTED BY IDOCK:   -6.35 KCAL/MOL
REMARK 924 INTRA-LIGAND FREE ENERGY PREDICTED BY IDOCK:   -1.17 KCAL/MOL
REMARK 927      BINDING AFFINITY PREDICTED BY RF-SCORE:    0.00 PKD
ROOT
HETATM    1  C   UNL     1      -7.629  15.436  68.216  1.00  0.00    -0.115 C  
HETATM    2  N   UNL     1      -7.386  14.028  68.033  1.00  0.00    -0.123 NA 
HETATM    3  C   UNL     1      -6.187  13.468  67.698  1.00  0.00    -0.130 A  
HETATM    4  N   UNL     1      -6.281  12.163  67.581  1.00  0.00    -0.094 NA 
HETATM    5  C   UNL     1      -7.598  11.868  67.852  1.00  0.00    -0.128 A  
HETATM    6  C   UNL     1      -8.271  10.640  67.861  1.00  0.00    -0.112 A  
HETATM    7  F   UNL     1      -7.564   9.522  67.628  1.00  0.00    -0.091 F  
HETATM    8  C   UNL     1      -9.668  10.567  68.127  1.00  0.00    -0.153 A  
HETATM    9  C   UNL     1      -9.660  12.988  68.531  1.00  0.00    -0.113 A  
HETATM   10  C   UNL     1     -10.328  11.738  68.561  1.00  0.00    -0.228 A  
HETATM   11  C   UNL     1      -8.309  13.023  68.156  1.00  0.00    -0.164 A  
ENDROOT
BRANCH   8  12
HETATM   12  N   UNL     1     -10.337   9.294  68.051  1.00  0.00    -0.210 NA 
HETATM   13  H   UNL     1     -10.762   9.024  67.164  1.00  0.00     0.000 HD 
BRANCH  12  14
HETATM   14  C   UNL     1     -10.439   8.385  69.154  1.00  0.00    -0.206 A  
HETATM   15 BR   UNL     1     -11.211   5.475  72.755  1.00  0.00    -0.355 Br 
HETATM   16  C   UNL     1     -10.085   8.757  70.460  1.00  0.00    -0.233 A  
HETATM   17  C   UNL     1     -11.086   6.187  69.997  1.00  0.00    -0.462 A  
HETATM   18  C   UNL     1     -10.874   7.069  68.941  1.00  0.00    -0.167 A  
HETATM   19  C   UNL     1     -10.833   6.617  71.297  1.00  0.00    -0.238 A  
HETATM   20  C   UNL     1     -10.315   7.889  71.533  1.00  0.00    -0.243 A  
HETATM   21  F   UNL     1     -11.150   6.667  67.691  1.00  0.00    -0.318 F  
ENDBRANCH  12  14
ENDBRANCH   8  12
BRANCH  10  22
HETATM   22  C   UNL     1     -11.703  11.778  69.175  1.00  0.00    -0.325 C  
HETATM   23  H   UNL     1     -11.085  13.085  70.696  1.00  0.00     0.000 HD 
HETATM   24  N   UNL     1     -11.864  12.571  70.286  1.00  0.00    -0.283 N  
HETATM   25  O   UNL     1     -12.634  11.183  68.630  1.00  0.00    -0.318 OA 
BRANCH  24  26
HETATM   26  O   UNL     1     -13.174  12.637  70.831  1.00  0.00     0.033 OA 
BRANCH  26  27
HETATM   27  C   UNL     1     -13.068  13.249  72.126  1.00  0.00    -0.385 C  
BRANCH  27  28
HETATM   28  C   UNL     1     -14.058  14.401  72.278  1.00  0.00    -0.516 C  
HETATM   29  O   UNL     1     -14.388  14.983  71.019  1.00  0.00    -0.673 OA 
HETATM   30  H   UNL     1     -15.003  15.700  71.113  1.00  0.00     0.000 HD 
ENDBRANCH  27  28
ENDBRANCH  26  27
ENDBRANCH  24  26
ENDBRANCH  10  22
TORSDOF 6
ENDMDL
MODEL      138
REMARK 921   NORMALIZED FREE ENERGY PREDICTED BY IDOCK:   -4.61 KCAL/MOL
REMARK 922        TOTAL FREE ENERGY PREDICTED BY IDOCK:   -7.51 KCAL/MOL
REMARK 923 INTER-LIGAND FREE ENERGY PREDICTED BY IDOCK:   -6.42 KCAL/MOL
REMARK 924 INTRA-LIGAND FREE ENERGY PREDICTED BY IDOCK:   -1.09 KCAL/MOL
REMARK 927      BINDING AFFINITY PREDICTED BY RF-SCORE:    0.00 PKD
ROOT
HETATM    1  C   UNL     1     -10.912   6.187  69.066  1.00  0.00    -0.367 C  
HETATM    2  N   UNL     1      -9.748   6.859  68.547  1.00  0.00    -0.138 NA 
HETATM    3  C   UNL     1      -8.505   6.309  68.424  1.00  0.00    -0.115 A  
HETATM    4  N   UNL     1      -7.642   7.173  67.940  1.00  0.00    -0.108 NA 
HETATM    5  C   UNL     1      -8.359   8.330  67.741  1.00  0.00    -0.128 A  
HETATM    6  C   UNL     1      -7.952   9.580  67.257  1.00  0.00    -0.106 A  
HETATM    7  F   UNL     1      -6.680   9.726  66.854  1.00  0.00    -0.071 F  
HETATM    8  C   UNL     1      -8.864  10.670  67.175  1.00  0.00    -0.137 A  
HETATM    9  C   UNL     1     -10.648   9.164  67.934  1.00  0.00    -0.272 A  
HETATM   10  C   UNL     1     -10.232  10.419  67.420  1.00  0.00    -0.259 A  
HETATM   11  C   UNL     1      -9.690   8.153  68.099  1.00  0.00    -0.161 A  
ENDROOT
BRANCH   8  12
HETATM   12  N   UNL     1      -8.387  11.960  66.745  1.00  0.00    -0.247 NA 
HETATM   13  H   UNL     1      -8.471  12.202  65.758  1.00  0.00     0.000 HD 
BRANCH  12  14
HETATM   14  C   UNL     1      -7.802  12.923  67.630  1.00  0.00    -0.168 A  
HETATM   15 BR   UNL     1      -5.909  16.369  70.195  1.00  0.00    -0.118 Br 
HETATM   16  C   UNL     1      -6.437  12.904  67.954  1.00  0.00    -0.127 A  
HETATM   17  C   UNL     1      -8.060  14.921  69.010  1.00  0.00    -0.165 A  
HETATM   18  C   UNL     1      -8.605  13.906  68.228  1.00  0.00    -0.177 A  
HETATM   19  C   UNL     1      -6.686  14.944  69.225  1.00  0.00    -0.141 A  
HETATM   20  C   UNL     1      -5.873  13.931  68.718  1.00  0.00    -0.084 A  
HETATM   21  F   UNL     1      -9.926  13.902  67.992  1.00  0.00    -0.216 F  
ENDBRANCH  12  14
ENDBRANCH   8  12
BRANCH  10  22
HETATM   22  C   UNL     1     -11.359  11.361  67.082  1.00  0.00    -0.255 C  
HETATM   23  H   UNL     1     -10.863  11.366  65.042  1.00  0.00     0.000 HD 
HETATM   24  N   UNL     1     -11.504  11.705  65.759  1.00  0.00    -0.197 N  
HETATM   25  O   UNL     1     -12.143  11.716  67.962  1.00  0.00    -0.597 OA 
BRANCH  24  26
HETATM   26  O   UNL     1     -12.596  12.557  65.445  1.00  0.00    -0.656 OA 
BRANCH  26  27
HETATM   27  C   UNL     1     -12.127  13.514  64.481  1.00  0.00    -0.416 C  
BRANCH  27  28
HETATM   28  C   UNL     1     -11.557  14.755  65.164  1.00  0.00    -0.358 C  
HETATM   29  O   UNL     1     -10.700  15.491  64.295  1.00  0.00    -0.641 OA 
HETATM   30  H   UNL     1     -10.345  16.263  64.720  1.00  0.00     0.000 HD 
ENDBRANCH  27  28
ENDBRANCH  26  27
ENDBRANCH  24  26
ENDBRANCH  10  22
TORSDOF 6
ENDMDL
MODEL      139
REMARK 921   NORMALIZED FREE ENERGY PREDICTED BY IDOCK:   -4.58 KCAL/MOL
REMARK 922        TOTAL FREE ENERGY PREDICTED BY IDOCK:   -7.47 KCAL/MOL
REMARK 923 INTER-LIGAND FREE ENERGY PREDICTED BY IDOCK:   -6.35 KCAL/MOL
REMARK 924 INTRA-LIGAND FREE ENERGY PREDICTED BY IDOCK:   -1.12 KCAL/MOL
REMARK 927      BINDING AFFINITY PREDICTED BY RF-SCORE:    0.00 PKD
ROOT
HETATM    1  C   UNL     1      -8.428  17.611  68.129  1.00  0.00    -0.260 C  
HETATM    2  N   UNL     1      -7.762  16.359  68.385  1.00  0.00    -0.169 NA 
HETATM    3  C   UNL     1      -6.534  16.219  68.964  1.00  0.00    -0.162 A  
HETATM    4  N   UNL     1      -6.181  14.956  69.044  1.00  0.00    -0.095 NA 
HETATM    5  C   UNL     1      -7.226  14.251  68.493  1.00  0.00    -0.118 A  
HETATM    6  C   UNL     1      -7.392  12.874  68.301  1.00  0.00    -0.118 A  
HETATM    7  F   UNL     1      -6.437  12.046  68.753  1.00  0.00    -0.059 F  
HETATM    8  C   UNL     1      -8.552  12.354  67.659  1.00  0.00    -0.172 A  
HETATM    9  C   UNL     1      -9.446  14.637  67.549  1.00  0.00    -0.198 A  
HETATM   10  C   UNL     1      -9.616  13.239  67.380  1.00  0.00    -0.223 A  
HETATM   11  C   UNL     1      -8.241  15.110  68.087  1.00  0.00    -0.145 A  
ENDROOT
BRANCH   8  12
HETATM   12  N   UNL     1      -8.648  10.938  67.411  1.00  0.00    -0.127 NA 
HETATM   13  H   UNL     1      -8.375  10.589  66.492  1.00  0.00     0.000 HD 
BRANCH  12  14
HETATM   14  C   UNL     1      -9.108   9.993  68.385  1.00  0.00    -0.121 A  
HETATM   15 BR   UNL     1     -11.021   6.956  71.410  1.00  0.00    -0.283 Br 
HETATM   16  C   UNL     1      -9.250  10.330  69.739  1.00  0.00    -0.101 A  
HETATM   17  C   UNL     1      -9.947   7.757  68.893  1.00  0.00    -0.185 A  
HETATM   18  C   UNL     1      -9.401   8.676  68.001  1.00  0.00    -0.136 A  
HETATM   19  C   UNL     1     -10.184   8.150  70.207  1.00  0.00    -0.200 A  
HETATM   20  C   UNL     1      -9.821   9.424  70.640  1.00  0.00    -0.340 A  
HETATM   21  F   UNL     1      -9.204   8.309  66.725  1.00  0.00    -0.152 F  
ENDBRANCH  12  14
ENDBRANCH   8  12
BRANCH  10  22
HETATM   22  C   UNL     1     -11.012  12.820  66.999  1.00  0.00    -0.263 C  
HETATM   23  H   UNL     1     -10.704  13.307  64.980  1.00  0.00     0.000 HD 
HETATM   24  N   UNL     1     -11.353  12.931  65.671  1.00  0.00    -0.301 N  
HETATM   25  O   UNL     1     -11.756  12.327  67.847  1.00  0.00    -0.333 OA 
BRANCH  24  26
HETATM   26  O   UNL     1     -12.656  12.492  65.315  1.00  0.00    -0.645 OA 
BRANCH  26  27
HETATM   27  C   UNL     1     -12.579  11.965  63.981  1.00  0.00    -0.282 C  
BRANCH  27  28
HETATM   28  C   UNL     1     -11.187  12.166  63.385  1.00  0.00    -0.414 C  
HETATM   29  O   UNL     1     -10.583  10.926  63.023  1.00  0.00    -0.752 OA 
HETATM   30  H   UNL     1      -9.718  11.051  62.653  1.00  0.00     0.000 HD 
ENDBRANCH  27  28
ENDBRANCH  26  27
ENDBRANCH  24  26
ENDBRANCH  10  22
TORSDOF 6
ENDMDL
MODEL      140
REMARK 921   NORMALIZED FREE ENERGY PREDICTED BY IDOCK:   -4.58 KCAL/MOL
REMARK 922        TOTAL FREE ENERGY PREDICTED BY IDOCK:   -7.46 KCAL/MOL
REMARK 923 INTER-LIGAND FREE ENERGY PREDICTED BY IDOCK:   -5.71 KCAL/MOL
REMARK 924 INTRA-LIGAND FREE ENERGY PREDICTED BY IDOCK:   -1.75 KCAL/MOL
REMARK 927      BINDING AFFINITY PREDICTED BY RF-SCORE:    0.00 PKD
ROOT
HETATM    1  C   UNL     1     -10.832  19.285  67.650  1.00  0.00    -0.375 C  
HETATM    2  N   UNL     1      -9.542  18.690  67.886  1.00  0.00    -0.301 NA 
HETATM    3  C   UNL     1      -8.466  19.324  68.438  1.00  0.00    -0.351 A  
HETATM    4  N   UNL     1      -7.422  18.530  68.506  1.00  0.00    -0.289 NA 
HETATM    5  C   UNL     1      -7.842  17.332  67.975  1.00  0.00    -0.205 A  
HETATM    6  C   UNL     1      -7.148  16.131  67.782  1.00  0.00    -0.138 A  
HETATM    7  F   UNL     1      -5.878  16.050  68.210  1.00  0.00    -0.095 F  
HETATM    8  C   UNL     1      -7.772  15.011  67.163  1.00  0.00    -0.167 A  
HETATM    9  C   UNL     1      -9.864  16.293  67.081  1.00  0.00    -0.243 A  
HETATM   10  C   UNL     1      -9.160  15.073  66.911  1.00  0.00    -0.269 A  
HETATM   11  C   UNL     1      -9.176  17.402  67.594  1.00  0.00    -0.234 A  
ENDROOT
BRANCH   8  12
HETATM   12  N   UNL     1      -7.001  13.820  66.912  1.00  0.00    -0.231 NA 
HETATM   13  H   UNL     1      -6.477  13.759  66.039  1.00  0.00     0.000 HD 
BRANCH  12  14
HETATM   14  C   UNL     1      -6.930  12.716  67.822  1.00  0.00    -0.125 A  
HETATM   15 BR   UNL     1      -7.139   9.131  70.845  1.00  0.00    -0.105 Br 
HETATM   16  C   UNL     1      -6.467  12.866  69.138  1.00  0.00    -0.108 A  
HETATM   17  C   UNL     1      -7.345  10.354  68.277  1.00  0.00    -0.088 A  
HETATM   18  C   UNL     1      -7.300  11.431  67.398  1.00  0.00    -0.119 A  
HETATM   19  C   UNL     1      -6.987  10.552  69.607  1.00  0.00    -0.135 A  
HETATM   20  C   UNL     1      -6.530  11.796  70.039  1.00  0.00    -0.022 A  
HETATM   21  F   UNL     1      -7.678  11.249  66.123  1.00  0.00    -0.155 F  
ENDBRANCH  12  14
ENDBRANCH   8  12
BRANCH  10  22
HETATM   22  C   UNL     1     -10.029  13.894  66.558  1.00  0.00    -0.285 C  
HETATM   23  H   UNL     1     -11.141  14.067  68.330  1.00  0.00     0.000 HD 
HETATM   24  N   UNL     1     -11.018  13.561  67.453  1.00  0.00    -0.268 N  
HETATM   25  O   UNL     1      -9.886  13.332  65.471  1.00  0.00    -0.236 OA 
BRANCH  24  26
HETATM   26  O   UNL     1     -11.859  12.476  67.090  1.00  0.00    -0.417 OA 
BRANCH  26  27
HETATM   27  C   UNL     1     -11.610  11.412  68.023  1.00  0.00    -0.286 C  
BRANCH  27  28
HETATM   28  C   UNL     1     -10.859  10.259  67.361  1.00  0.00    -0.277 C  
HETATM   29  O   UNL     1     -10.650  10.493  65.971  1.00  0.00    -0.190 OA 
HETATM   30  H   UNL     1     -10.183   9.776  65.559  1.00  0.00     0.000 HD 
ENDBRANCH  27  28
ENDBRANCH  26  27
ENDBRANCH  24  26
ENDBRANCH  10  22
TORSDOF 6
ENDMDL
MODEL      141
REMARK 921   NORMALIZED FREE ENERGY PREDICTED BY IDOCK:   -4.57 KCAL/MOL
REMARK 922        TOTAL FREE ENERGY PREDICTED BY IDOCK:   -7.46 KCAL/MOL
REMARK 923 INTER-LIGAND FREE ENERGY PREDICTED BY IDOCK:   -6.11 KCAL/MOL
REMARK 924 INTRA-LIGAND FREE ENERGY PREDICTED BY IDOCK:   -1.35 KCAL/MOL
REMARK 927      BINDING AFFINITY PREDICTED BY RF-SCORE:    0.00 PKD
ROOT
HETATM    1  C   UNL     1     -10.052   4.889  69.243  1.00  0.00    -0.178 C  
HETATM    2  N   UNL     1     -10.532   6.134  69.786  1.00  0.00    -0.214 NA 
HETATM    3  C   UNL     1     -11.466   6.259  70.774  1.00  0.00    -0.316 A  
HETATM    4  N   UNL     1     -11.717   7.520  71.042  1.00  0.00    -0.289 NA 
HETATM    5  C   UNL     1     -10.909   8.240  70.191  1.00  0.00    -0.237 A  
HETATM    6  C   UNL     1     -10.768   9.623  70.026  1.00  0.00    -0.259 A  
HETATM    7  F   UNL     1     -11.465  10.438  70.833  1.00  0.00    -0.372 F  
HETATM    8  C   UNL     1      -9.894  10.162  69.038  1.00  0.00    -0.205 A  
HETATM    9  C   UNL     1      -9.190   7.874  68.495  1.00  0.00    -0.138 A  
HETATM   10  C   UNL     1      -9.035   9.277  68.350  1.00  0.00    -0.129 A  
HETATM   11  C   UNL     1     -10.142   7.390  69.403  1.00  0.00    -0.185 A  
ENDROOT
BRANCH   8  12
HETATM   12  N   UNL     1      -9.836  11.589  68.848  1.00  0.00    -0.384 NA 
HETATM   13  H   UNL     1      -9.405  12.156  69.577  1.00  0.00     0.000 HD 
BRANCH  12  14
HETATM   14  C   UNL     1     -10.351  12.254  67.688  1.00  0.00    -0.204 A  
HETATM   15 BR   UNL     1     -12.103  14.789  64.147  1.00  0.00    -0.172 Br 
HETATM   16  C   UNL     1     -11.627  11.976  67.176  1.00  0.00    -0.387 A  
HETATM   17  C   UNL     1     -10.059  13.937  65.943  1.00  0.00    -0.331 A  
HETATM   18  C   UNL     1      -9.561  13.194  67.010  1.00  0.00    -0.241 A  
HETATM   19  C   UNL     1     -11.368  13.722  65.523  1.00  0.00    -0.307 A  
HETATM   20  C   UNL     1     -12.149  12.733  66.120  1.00  0.00    -0.429 A  
HETATM   21  F   UNL     1      -8.310  13.425  67.437  1.00  0.00    -0.151 F  
ENDBRANCH  12  14
ENDBRANCH   8  12
BRANCH  10  22
HETATM   22  C   UNL     1      -7.852   9.693  67.516  1.00  0.00    -0.095 C  
HETATM   23  H   UNL     1      -8.400   8.421  65.939  1.00  0.00     0.000 HD 
HETATM   24  N   UNL     1      -7.736   9.119  66.273  1.00  0.00    -0.095 N  
HETATM   25  O   UNL     1      -7.093  10.572  67.928  1.00  0.00    -0.081 OA 
BRANCH  24  26
HETATM   26  O   UNL     1      -6.641   9.552  65.478  1.00  0.00    -0.069 OA 
BRANCH  26  27
HETATM   27  C   UNL     1      -6.992   9.316  64.104  1.00  0.00    -0.095 C  
BRANCH  27  28
HETATM   28  C   UNL     1      -8.332   9.961  63.756  1.00  0.00    -0.168 C  
HETATM   29  O   UNL     1      -8.190  10.976  62.766  1.00  0.00    -0.377 OA 
HETATM   30  H   UNL     1      -9.023  11.377  62.550  1.00  0.00     0.000 HD 
ENDBRANCH  27  28
ENDBRANCH  26  27
ENDBRANCH  24  26
ENDBRANCH  10  22
TORSDOF 6
ENDMDL
MODEL      142
REMARK 921   NORMALIZED FREE ENERGY PREDICTED BY IDOCK:   -4.57 KCAL/MOL
REMARK 922        TOTAL FREE ENERGY PREDICTED BY IDOCK:   -7.45 KCAL/MOL
REMARK 923 INTER-LIGAND FREE ENERGY PREDICTED BY IDOCK:   -7.07 KCAL/MOL
REMARK 924 INTRA-LIGAND FREE ENERGY PREDICTED BY IDOCK:   -0.38 KCAL/MOL
REMARK 927      BINDING AFFINITY PREDICTED BY RF-SCORE:    0.00 PKD
ROOT
HETATM    1  C   UNL     1      -6.432  14.088  68.484  1.00  0.00    -0.093 C  
HETATM    2  N   UNL     1      -6.667  12.792  69.067  1.00  0.00    -0.098 NA 
HETATM    3  C   UNL     1      -5.823  12.143  69.921  1.00  0.00    -0.140 A  
HETATM    4  N   UNL     1      -6.298  10.968  70.268  1.00  0.00    -0.217 NA 
HETATM    5  C   UNL     1      -7.501  10.855  69.609  1.00  0.00    -0.022 A  
HETATM    6  C   UNL     1      -8.434   9.810  69.594  1.00  0.00    -0.185 A  
HETATM    7  F   UNL     1      -8.205   8.738  70.368  1.00  0.00    -0.088 F  
HETATM    8  C   UNL     1      -9.610   9.884  68.794  1.00  0.00    -0.160 A  
HETATM    9  C   UNL     1      -8.958  12.159  68.145  1.00  0.00    -0.195 A  
HETATM   10  C   UNL     1      -9.909  11.107  68.154  1.00  0.00    -0.188 A  
HETATM   11  C   UNL     1      -7.764  11.996  68.861  1.00  0.00     0.014 A  
ENDROOT
BRANCH   8  12
HETATM   12  N   UNL     1     -10.505   8.756  68.747  1.00  0.00    -0.272 NA 
HETATM   13  H   UNL     1     -11.045   8.603  67.895  1.00  0.00     0.000 HD 
BRANCH  12  14
HETATM   14  C   UNL     1     -10.679   7.837  69.832  1.00  0.00    -0.245 A  
HETATM   15 BR   UNL     1     -11.644   4.726  73.212  1.00  0.00    -0.126 Br 
HETATM   16  C   UNL     1     -10.992   8.269  71.129  1.00  0.00    -0.286 A  
HETATM   17  C   UNL     1     -10.765   5.528  70.621  1.00  0.00    -0.303 A  
HETATM   18  C   UNL     1     -10.505   6.461  69.621  1.00  0.00    -0.227 A  
HETATM   19  C   UNL     1     -11.184   5.976  71.870  1.00  0.00    -0.282 A  
HETATM   20  C   UNL     1     -11.280   7.340  72.137  1.00  0.00    -0.288 A  
HETATM   21  F   UNL     1     -10.135   6.029  68.405  1.00  0.00    -0.137 F  
ENDBRANCH  12  14
ENDBRANCH   8  12
BRANCH  10  22
HETATM   22  C   UNL     1     -11.237  11.458  67.537  1.00  0.00    -0.292 C  
HETATM   23  H   UNL     1     -10.339  12.111  65.755  1.00  0.00     0.000 HD 
HETATM   24  N   UNL     1     -11.214  11.956  66.256  1.00  0.00    -0.330 N  
HETATM   25  O   UNL     1     -12.278  11.217  68.148  1.00  0.00    -0.612 OA 
BRANCH  24  26
HETATM   26  O   UNL     1     -12.475  12.243  65.667  1.00  0.00    -0.591 OA 
BRANCH  26  27
HETATM   27  C   UNL     1     -12.310  13.417  64.855  1.00  0.00    -0.412 C  
BRANCH  27  28
HETATM   28  C   UNL     1     -12.407  13.080  63.369  1.00  0.00    -0.394 C  
HETATM   29  O   UNL     1     -12.090  11.714  63.114  1.00  0.00    -0.905 OA 
HETATM   30  H   UNL     1     -12.150  11.504  62.190  1.00  0.00     0.000 HD 
ENDBRANCH  27  28
ENDBRANCH  26  27
ENDBRANCH  24  26
ENDBRANCH  10  22
TORSDOF 6
ENDMDL
MODEL      143
REMARK 921   NORMALIZED FREE ENERGY PREDICTED BY IDOCK:   -4.57 KCAL/MOL
REMARK 922        TOTAL FREE ENERGY PREDICTED BY IDOCK:   -7.45 KCAL/MOL
REMARK 923 INTER-LIGAND FREE ENERGY PREDICTED BY IDOCK:   -6.87 KCAL/MOL
REMARK 924 INTRA-LIGAND FREE ENERGY PREDICTED BY IDOCK:   -0.58 KCAL/MOL
REMARK 927      BINDING AFFINITY PREDICTED BY RF-SCORE:    0.00 PKD
ROOT
HETATM    1  C   UNL     1     -12.396  13.525  64.483  1.00  0.00    -0.355 C  
HETATM    2  N   UNL     1     -11.465  12.426  64.505  1.00  0.00    -0.323 NA 
HETATM    3  C   UNL     1     -10.706  12.010  63.449  1.00  0.00    -0.417 A  
HETATM    4  N   UNL     1      -9.969  10.970  63.766  1.00  0.00    -0.316 NA 
HETATM    5  C   UNL     1     -10.265  10.703  65.083  1.00  0.00    -0.299 A  
HETATM    6  C   UNL     1      -9.788   9.700  65.937  1.00  0.00    -0.288 A  
HETATM    7  F   UNL     1      -8.848   8.861  65.475  1.00  0.00    -0.167 F  
HETATM    8  C   UNL     1     -10.271   9.578  67.271  1.00  0.00    -0.234 A  
HETATM    9  C   UNL     1     -11.613  11.601  66.913  1.00  0.00    -0.246 A  
HETATM   10  C   UNL     1     -11.107  10.597  67.777  1.00  0.00    -0.385 A  
HETATM   11  C   UNL     1     -11.190  11.616  65.576  1.00  0.00    -0.205 A  
ENDROOT
BRANCH   8  12
HETATM   12  N   UNL     1      -9.813   8.485  68.092  1.00  0.00    -0.160 NA 
HETATM   13  H   UNL     1      -9.777   8.622  69.102  1.00  0.00     0.000 HD 
BRANCH  12  14
HETATM   14  C   UNL     1      -9.404   7.217  67.565  1.00  0.00    -0.129 A  
HETATM   15 BR   UNL     1      -8.204   2.882  66.223  1.00  0.00    -0.092 Br 
HETATM   16  C   UNL     1      -8.054   6.841  67.494  1.00  0.00    -0.115 A  
HETATM   17  C   UNL     1     -10.019   5.040  66.649  1.00  0.00    -0.246 A  
HETATM   18  C   UNL     1     -10.363   6.320  67.072  1.00  0.00    -0.240 A  
HETATM   19  C   UNL     1      -8.684   4.649  66.692  1.00  0.00    -0.111 A  
HETATM   20  C   UNL     1      -7.697   5.548  67.093  1.00  0.00    -0.100 A  
HETATM   21  F   UNL     1     -11.655   6.686  67.063  1.00  0.00    -0.426 F  
ENDBRANCH  12  14
ENDBRANCH   8  12
BRANCH  10  22
HETATM   22  C   UNL     1     -11.451  10.792  69.231  1.00  0.00    -0.298 C  
HETATM   23  H   UNL     1     -12.153  12.742  68.897  1.00  0.00     0.000 HD 
HETATM   24  N   UNL     1     -12.008  11.999  69.581  1.00  0.00    -0.308 N  
HETATM   25  O   UNL     1     -11.306   9.861  70.023  1.00  0.00    -0.247 OA 
BRANCH  24  26
HETATM   26  O   UNL     1     -12.369  12.156  70.945  1.00  0.00    -0.373 OA 
BRANCH  26  27
HETATM   27  C   UNL     1     -13.126  13.372  71.050  1.00  0.00    -0.113 C  
BRANCH  27  28
HETATM   28  C   UNL     1     -12.731  14.166  72.293  1.00  0.00    -0.275 C  
HETATM   29  O   UNL     1     -11.476  14.821  72.126  1.00  0.00    -0.400 OA 
HETATM   30  H   UNL     1     -11.230  15.314  72.899  1.00  0.00     0.000 HD 
ENDBRANCH  27  28
ENDBRANCH  26  27
ENDBRANCH  24  26
ENDBRANCH  10  22
TORSDOF 6
ENDMDL
MODEL      144
REMARK 921   NORMALIZED FREE ENERGY PREDICTED BY IDOCK:   -4.51 KCAL/MOL
REMARK 922        TOTAL FREE ENERGY PREDICTED BY IDOCK:   -7.37 KCAL/MOL
REMARK 923 INTER-LIGAND FREE ENERGY PREDICTED BY IDOCK:   -6.18 KCAL/MOL
REMARK 924 INTRA-LIGAND FREE ENERGY PREDICTED BY IDOCK:   -1.19 KCAL/MOL
REMARK 927      BINDING AFFINITY PREDICTED BY RF-SCORE:    0.00 PKD
ROOT
HETATM    1  C   UNL     1     -11.136  15.764  64.626  1.00  0.00    -0.361 C  
HETATM    2  N   UNL     1     -11.212  14.325  64.650  1.00  0.00    -0.377 NA 
HETATM    3  C   UNL     1     -12.090  13.567  63.932  1.00  0.00    -0.438 A  
HETATM    4  N   UNL     1     -11.934  12.286  64.179  1.00  0.00    -0.409 NA 
HETATM    5  C   UNL     1     -10.911  12.215  65.096  1.00  0.00    -0.310 A  
HETATM    6  C   UNL     1     -10.330  11.108  65.727  1.00  0.00    -0.260 A  
HETATM    7  F   UNL     1     -10.758   9.881  65.386  1.00  0.00    -0.160 F  
HETATM    8  C   UNL     1      -9.297  11.268  66.694  1.00  0.00    -0.180 A  
HETATM    9  C   UNL     1      -9.341  13.683  66.259  1.00  0.00    -0.153 A  
HETATM   10  C   UNL     1      -8.742  12.554  66.874  1.00  0.00    -0.182 A  
HETATM   11  C   UNL     1     -10.428  13.484  65.396  1.00  0.00    -0.315 A  
ENDROOT
BRANCH   8  12
HETATM   12  N   UNL     1      -8.780  10.108  67.375  1.00  0.00    -0.125 NA 
HETATM   13  H   UNL     1      -8.045   9.568  66.920  1.00  0.00     0.000 HD 
BRANCH  12  14
HETATM   14  C   UNL     1      -9.243   9.673  68.659  1.00  0.00    -0.136 A  
HETATM   15 BR   UNL     1     -10.603   7.843  72.763  1.00  0.00    -0.430 Br 
HETATM   16  C   UNL     1     -10.602   9.440  68.921  1.00  0.00    -0.231 A  
HETATM   17  C   UNL     1      -8.725   8.977  70.941  1.00  0.00    -0.280 A  
HETATM   18  C   UNL     1      -8.332   9.496  69.711  1.00  0.00    -0.164 A  
HETATM   19  C   UNL     1     -10.062   8.648  71.140  1.00  0.00    -0.226 A  
HETATM   20  C   UNL     1     -11.006   8.894  70.145  1.00  0.00    -0.245 A  
HETATM   21  F   UNL     1      -7.037   9.782  69.507  1.00  0.00    -0.054 F  
ENDBRANCH  12  14
ENDBRANCH   8  12
BRANCH  10  22
HETATM   22  C   UNL     1      -7.460  12.848  67.608  1.00  0.00    -0.148 C  
HETATM   23  H   UNL     1      -8.438  12.943  69.463  1.00  0.00     0.000 HD 
HETATM   24  N   UNL     1      -7.546  12.997  68.972  1.00  0.00     0.060 N  
HETATM   25  O   UNL     1      -6.394  12.862  66.994  1.00  0.00    -0.212 OA 
BRANCH  24  26
HETATM   26  O   UNL     1      -6.325  13.230  69.659  1.00  0.00    -0.115 OA 
BRANCH  26  27
HETATM   27  C   UNL     1      -6.394  14.554  70.215  1.00  0.00    -0.170 C  
BRANCH  27  28
HETATM   28  C   UNL     1      -5.488  14.690  71.436  1.00  0.00    -0.113 C  
HETATM   29  O   UNL     1      -5.666  13.611  72.351  1.00  0.00    -0.439 OA 
HETATM   30  H   UNL     1      -5.102  13.696  73.110  1.00  0.00     0.000 HD 
ENDBRANCH  27  28
ENDBRANCH  26  27
ENDBRANCH  24  26
ENDBRANCH  10  22
TORSDOF 6
ENDMDL
MODEL      145
REMARK 921   NORMALIZED FREE ENERGY PREDICTED BY IDOCK:   -4.50 KCAL/MOL
REMARK 922        TOTAL FREE ENERGY PREDICTED BY IDOCK:   -7.36 KCAL/MOL
REMARK 923 INTER-LIGAND FREE ENERGY PREDICTED BY IDOCK:   -5.80 KCAL/MOL
REMARK 924 INTRA-LIGAND FREE ENERGY PREDICTED BY IDOCK:   -1.56 KCAL/MOL
REMARK 927      BINDING AFFINITY PREDICTED BY RF-SCORE:    0.00 PKD
ROOT
HETATM    1  C   UNL     1     -13.228  12.089  71.912  1.00  0.00    -0.364 C  
HETATM    2  N   UNL     1     -12.859  10.717  71.671  1.00  0.00    -0.449 NA 
HETATM    3  C   UNL     1     -13.290   9.643  72.394  1.00  0.00    -0.338 A  
HETATM    4  N   UNL     1     -12.765   8.522  71.952  1.00  0.00    -0.341 NA 
HETATM    5  C   UNL     1     -11.960   8.890  70.898  1.00  0.00    -0.213 A  
HETATM    6  C   UNL     1     -11.147   8.115  70.063  1.00  0.00    -0.146 A  
HETATM    7  F   UNL     1     -11.146   6.783  70.227  1.00  0.00    -0.263 F  
HETATM    8  C   UNL     1     -10.349   8.716  69.047  1.00  0.00    -0.213 A  
HETATM    9  C   UNL     1     -11.333  10.886  69.636  1.00  0.00    -0.362 A  
HETATM   10  C   UNL     1     -10.530  10.090  68.779  1.00  0.00    -0.229 A  
HETATM   11  C   UNL     1     -12.016  10.263  70.691  1.00  0.00    -0.342 A  
ENDROOT
BRANCH   8  12
HETATM   12  N   UNL     1      -9.467   7.891  68.260  1.00  0.00    -0.143 NA 
HETATM   13  H   UNL     1      -9.618   7.848  67.252  1.00  0.00     0.000 HD 
BRANCH  12  14
HETATM   14  C   UNL     1      -8.390   7.129  68.817  1.00  0.00    -0.126 A  
HETATM   15 BR   UNL     1      -5.152   4.470  70.934  1.00  0.00     0.000 Br 
HETATM   16  C   UNL     1      -7.400   7.715  69.620  1.00  0.00    -0.089 A  
HETATM   17  C   UNL     1      -7.314   4.961  69.141  1.00  0.00    -0.053 A  
HETATM   18  C   UNL     1      -8.284   5.758  68.539  1.00  0.00    -0.108 A  
HETATM   19  C   UNL     1      -6.411   5.546  70.023  1.00  0.00    -0.033 A  
HETATM   20  C   UNL     1      -6.435   6.921  70.250  1.00  0.00    -0.043 A  
HETATM   21  F   UNL     1      -9.177   5.188  67.715  1.00  0.00    -0.109 F  
ENDBRANCH  12  14
ENDBRANCH   8  12
BRANCH  10  22
HETATM   22  C   UNL     1     -10.013  10.809  67.560  1.00  0.00    -0.174 C  
HETATM   23  H   UNL     1     -11.927  11.503  67.046  1.00  0.00     0.000 HD 
HETATM   24  N   UNL     1     -10.935  11.500  66.809  1.00  0.00    -0.283 N  
HETATM   25  O   UNL     1      -8.804  10.826  67.327  1.00  0.00    -0.133 OA 
BRANCH  24  26
HETATM   26  O   UNL     1     -10.430  12.211  65.688  1.00  0.00    -0.240 OA 
BRANCH  26  27
HETATM   27  C   UNL     1     -10.880  11.524  64.509  1.00  0.00    -0.327 C  
BRANCH  27  28
HETATM   28  C   UNL     1      -9.705  10.965  63.710  1.00  0.00    -0.307 C  
HETATM   29  O   UNL     1      -8.476  11.084  64.423  1.00  0.00    -0.373 OA 
HETATM   30  H   UNL     1      -7.746  10.737  63.926  1.00  0.00     0.000 HD 
ENDBRANCH  27  28
ENDBRANCH  26  27
ENDBRANCH  24  26
ENDBRANCH  10  22
TORSDOF 6
ENDMDL
MODEL      146
REMARK 921   NORMALIZED FREE ENERGY PREDICTED BY IDOCK:   -4.49 KCAL/MOL
REMARK 922        TOTAL FREE ENERGY PREDICTED BY IDOCK:   -7.34 KCAL/MOL
REMARK 923 INTER-LIGAND FREE ENERGY PREDICTED BY IDOCK:   -6.58 KCAL/MOL
REMARK 924 INTRA-LIGAND FREE ENERGY PREDICTED BY IDOCK:   -0.76 KCAL/MOL
REMARK 927      BINDING AFFINITY PREDICTED BY RF-SCORE:    0.00 PKD
ROOT
HETATM    1  C   UNL     1      -9.272  10.959  68.519  1.00  0.00    -0.181 C  
HETATM    2  N   UNL     1      -9.795  11.762  67.443  1.00  0.00    -0.178 NA 
HETATM    3  C   UNL     1     -10.503  11.290  66.375  1.00  0.00    -0.257 A  
HETATM    4  N   UNL     1     -10.826  12.258  65.547  1.00  0.00    -0.273 NA 
HETATM    5  C   UNL     1     -10.305  13.403  66.105  1.00  0.00    -0.295 A  
HETATM    6  C   UNL     1     -10.331  14.728  65.652  1.00  0.00    -0.349 A  
HETATM    7  F   UNL     1     -11.003  15.004  64.523  1.00  0.00    -0.367 F  
HETATM    8  C   UNL     1      -9.678  15.766  66.375  1.00  0.00    -0.282 A  
HETATM    9  C   UNL     1      -9.105  14.124  68.107  1.00  0.00    -0.193 A  
HETATM   10  C   UNL     1      -9.157  15.467  67.653  1.00  0.00    -0.183 A  
HETATM   11  C   UNL     1      -9.667  13.119  67.307  1.00  0.00    -0.230 A  
ENDROOT
BRANCH   8  12
HETATM   12  N   UNL     1      -9.663  17.102  65.836  1.00  0.00    -0.529 NA 
HETATM   13  H   UNL     1     -10.470  17.415  65.296  1.00  0.00     0.000 HD 
BRANCH  12  14
HETATM   14  C   UNL     1      -8.574  18.016  66.016  1.00  0.00     0.006 A  
HETATM   15 BR   UNL     1      -5.150  21.219  66.238  1.00  0.00    -0.268 Br 
HETATM   16  C   UNL     1      -7.251  17.667  65.710  1.00  0.00    -0.109 A  
HETATM   17  C   UNL     1      -7.801  20.248  66.634  1.00  0.00    -0.305 A  
HETATM   18  C   UNL     1      -8.812  19.296  66.540  1.00  0.00    -0.346 A  
HETATM   19  C   UNL     1      -6.516  19.912  66.220  1.00  0.00    -0.205 A  
HETATM   20  C   UNL     1      -6.230  18.622  65.777  1.00  0.00    -0.271 A  
HETATM   21  F   UNL     1     -10.059  19.629  66.908  1.00  0.00    -0.399 F  
ENDBRANCH  12  14
ENDBRANCH   8  12
BRANCH  10  22
HETATM   22  C   UNL     1      -8.721  16.489  68.671  1.00  0.00    -0.244 C  
HETATM   23  H   UNL     1      -6.694  15.998  68.429  1.00  0.00     0.000 HD 
HETATM   24  N   UNL     1      -7.370  16.599  68.901  1.00  0.00    -0.214 N  
HETATM   25  O   UNL     1      -9.556  17.230  69.188  1.00  0.00    -0.205 OA 
BRANCH  24  26
HETATM   26  O   UNL     1      -6.967  17.595  69.829  1.00  0.00     0.023 OA 
BRANCH  26  27
HETATM   27  C   UNL     1      -5.662  18.047  69.431  1.00  0.00    -0.221 C  
BRANCH  27  28
HETATM   28  C   UNL     1      -5.467  19.527  69.750  1.00  0.00    -0.215 C  
HETATM   29  O   UNL     1      -6.674  20.133  70.207  1.00  0.00    -0.288 OA 
HETATM   30  H   UNL     1      -6.553  21.054  70.405  1.00  0.00     0.000 HD 
ENDBRANCH  27  28
ENDBRANCH  26  27
ENDBRANCH  24  26
ENDBRANCH  10  22
TORSDOF 6
ENDMDL
MODEL      147
REMARK 921   NORMALIZED FREE ENERGY PREDICTED BY IDOCK:   -4.48 KCAL/MOL
REMARK 922        TOTAL FREE ENERGY PREDICTED BY IDOCK:   -7.33 KCAL/MOL
REMARK 923 INTER-LIGAND FREE ENERGY PREDICTED BY IDOCK:   -6.22 KCAL/MOL
REMARK 924 INTRA-LIGAND FREE ENERGY PREDICTED BY IDOCK:   -1.11 KCAL/MOL
REMARK 927      BINDING AFFINITY PREDICTED BY RF-SCORE:    0.00 PKD
ROOT
HETATM    1  C   UNL     1      -9.301   6.923  66.101  1.00  0.00    -0.042 C  
HETATM    2  N   UNL     1      -8.630   8.198  66.109  1.00  0.00    -0.131 NA 
HETATM    3  C   UNL     1      -7.538   8.523  65.357  1.00  0.00    -0.088 A  
HETATM    4  N   UNL     1      -7.136   9.751  65.597  1.00  0.00    -0.100 NA 
HETATM    5  C   UNL     1      -8.006  10.239  66.545  1.00  0.00    -0.118 A  
HETATM    6  C   UNL     1      -8.050  11.485  67.182  1.00  0.00    -0.159 A  
HETATM    7  F   UNL     1      -7.160  12.421  66.817  1.00  0.00    -0.092 F  
HETATM    8  C   UNL     1      -9.025  11.768  68.181  1.00  0.00    -0.181 A  
HETATM    9  C   UNL     1     -10.008   9.557  67.768  1.00  0.00    -0.216 A  
HETATM   10  C   UNL     1     -10.060  10.831  68.391  1.00  0.00    -0.183 A  
HETATM   11  C   UNL     1      -8.965   9.287  66.870  1.00  0.00    -0.130 A  
ENDROOT
BRANCH   8  12
HETATM   12  N   UNL     1      -8.988  13.034  68.868  1.00  0.00    -0.361 NA 
HETATM   13  H   UNL     1      -8.724  13.042  69.853  1.00  0.00     0.000 HD 
BRANCH  12  14
HETATM   14  C   UNL     1      -9.301  14.284  68.241  1.00  0.00    -0.208 A  
HETATM   15 BR   UNL     1     -10.535  18.491  66.564  1.00  0.00    -0.404 Br 
HETATM   16  C   UNL     1     -10.301  14.396  67.264  1.00  0.00    -0.260 A  
HETATM   17  C   UNL     1      -8.917  16.689  68.069  1.00  0.00    -0.211 A  
HETATM   18  C   UNL     1      -8.578  15.438  68.576  1.00  0.00    -0.172 A  
HETATM   19  C   UNL     1      -9.987  16.791  67.185  1.00  0.00    -0.274 A  
HETATM   20  C   UNL     1     -10.669  15.651  66.764  1.00  0.00    -0.300 A  
HETATM   21  F   UNL     1      -7.567  15.343  69.455  1.00  0.00    -0.162 F  
ENDBRANCH  12  14
ENDBRANCH   8  12
BRANCH  10  22
HETATM   22  C   UNL     1     -11.324  11.096  69.166  1.00  0.00    -0.273 C  
HETATM   23  H   UNL     1     -10.647   9.997  70.822  1.00  0.00     0.000 HD 
HETATM   24  N   UNL     1     -11.397  10.568  70.433  1.00  0.00    -0.321 N  
HETATM   25  O   UNL     1     -12.192  11.828  68.689  1.00  0.00    -0.405 OA 
BRANCH  24  26
HETATM   26  O   UNL     1     -12.574  10.862  71.172  1.00  0.00    -0.368 OA 
BRANCH  26  27
HETATM   27  C   UNL     1     -13.508   9.797  70.930  1.00  0.00    -0.109 C  
BRANCH  27  28
HETATM   28  C   UNL     1     -13.150   8.552  71.739  1.00  0.00    -0.355 C  
HETATM   29  O   UNL     1     -13.088   7.388  70.918  1.00  0.00    -0.594 OA 
HETATM   30  H   UNL     1     -12.867   6.614  71.421  1.00  0.00     0.000 HD 
ENDBRANCH  27  28
ENDBRANCH  26  27
ENDBRANCH  24  26
ENDBRANCH  10  22
TORSDOF 6
ENDMDL
MODEL      148
REMARK 921   NORMALIZED FREE ENERGY PREDICTED BY IDOCK:   -4.43 KCAL/MOL
REMARK 922        TOTAL FREE ENERGY PREDICTED BY IDOCK:   -7.26 KCAL/MOL
REMARK 923 INTER-LIGAND FREE ENERGY PREDICTED BY IDOCK:   -6.21 KCAL/MOL
REMARK 924 INTRA-LIGAND FREE ENERGY PREDICTED BY IDOCK:   -1.05 KCAL/MOL
REMARK 927      BINDING AFFINITY PREDICTED BY RF-SCORE:    0.00 PKD
ROOT
HETATM    1  C   UNL     1     -10.254  10.228  62.730  1.00  0.00     0.662 C  
HETATM    2  N   UNL     1      -9.568  10.279  63.996  1.00  0.00    -0.305 NA 
HETATM    3  C   UNL     1      -8.742   9.310  64.488  1.00  0.00    -0.187 A  
HETATM    4  N   UNL     1      -8.281   9.628  65.676  1.00  0.00    -0.117 NA 
HETATM    5  C   UNL     1      -8.834  10.856  65.963  1.00  0.00    -0.188 A  
HETATM    6  C   UNL     1      -8.705  11.668  67.097  1.00  0.00    -0.164 A  
HETATM    7  F   UNL     1      -7.882  11.268  68.079  1.00  0.00    -0.100 F  
HETATM    8  C   UNL     1      -9.414  12.898  67.206  1.00  0.00    -0.216 A  
HETATM    9  C   UNL     1     -10.263  12.546  64.930  1.00  0.00    -0.301 A  
HETATM   10  C   UNL     1     -10.108  13.374  66.072  1.00  0.00    -0.308 A  
HETATM   11  C   UNL     1      -9.633  11.294  64.914  1.00  0.00    -0.232 A  
ENDROOT
BRANCH   8  12
HETATM   12  N   UNL     1      -9.315  13.667  68.421  1.00  0.00    -0.254 NA 
HETATM   13  H   UNL     1      -8.399  14.026  68.692  1.00  0.00     0.000 HD 
BRANCH  12  14
HETATM   14  C   UNL     1     -10.433  13.953  69.269  1.00  0.00     0.024 A  
HETATM   15 BR   UNL     1     -14.356  14.830  71.693  1.00  0.00    -0.671 Br 
HETATM   16  C   UNL     1     -10.740  15.259  69.680  1.00  0.00    -0.289 A  
HETATM   17  C   UNL     1     -12.396  13.152  70.480  1.00  0.00    -0.380 A  
HETATM   18  C   UNL     1     -11.242  12.909  69.741  1.00  0.00     0.069 A  
HETATM   19  C   UNL     1     -12.740  14.466  70.782  1.00  0.00    -0.360 A  
HETATM   20  C   UNL     1     -11.910  15.520  70.403  1.00  0.00    -0.379 A  
HETATM   21  F   UNL     1     -10.927  11.644  69.421  1.00  0.00    -0.259 F  
ENDBRANCH  12  14
ENDBRANCH   8  12
BRANCH  10  22
HETATM   22  C   UNL     1     -10.641  14.773  65.907  1.00  0.00    -0.314 C  
HETATM   23  H   UNL     1      -8.713  15.603  65.894  1.00  0.00     0.000 HD 
HETATM   24  N   UNL     1      -9.714  15.784  65.820  1.00  0.00    -0.339 N  
HETATM   25  O   UNL     1     -11.852  14.955  65.775  1.00  0.00    -0.257 OA 
BRANCH  24  26
HETATM   26  O   UNL     1     -10.225  17.094  65.621  1.00  0.00    -0.564 OA 
BRANCH  26  27
HETATM   27  C   UNL     1      -9.670  17.930  66.649  1.00  0.00    -0.319 C  
BRANCH  27  28
HETATM   28  C   UNL     1      -8.326  17.392  67.135  1.00  0.00    -0.214 C  
HETATM   29  O   UNL     1      -8.281  17.289  68.556  1.00  0.00    -0.250 OA 
HETATM   30  H   UNL     1      -7.445  16.955  68.859  1.00  0.00     0.000 HD 
ENDBRANCH  27  28
ENDBRANCH  26  27
ENDBRANCH  24  26
ENDBRANCH  10  22
TORSDOF 6
ENDMDL
MODEL      149
REMARK 921   NORMALIZED FREE ENERGY PREDICTED BY IDOCK:   -4.41 KCAL/MOL
REMARK 922        TOTAL FREE ENERGY PREDICTED BY IDOCK:   -7.23 KCAL/MOL
REMARK 923 INTER-LIGAND FREE ENERGY PREDICTED BY IDOCK:   -6.29 KCAL/MOL
REMARK 924 INTRA-LIGAND FREE ENERGY PREDICTED BY IDOCK:   -0.94 KCAL/MOL
REMARK 927      BINDING AFFINITY PREDICTED BY RF-SCORE:    0.00 PKD
ROOT
HETATM    1  C   UNL     1      -6.691   5.504  70.580  1.00  0.00    -0.047 C  
HETATM    2  N   UNL     1      -8.013   5.968  70.914  1.00  0.00    -0.113 NA 
HETATM    3  C   UNL     1      -8.817   5.438  71.881  1.00  0.00    -0.135 A  
HETATM    4  N   UNL     1      -9.974   6.057  71.938  1.00  0.00    -0.168 NA 
HETATM    5  C   UNL     1      -9.914   7.029  70.966  1.00  0.00    -0.188 A  
HETATM    6  C   UNL     1     -10.865   7.978  70.569  1.00  0.00    -0.241 A  
HETATM    7  F   UNL     1     -12.026   8.038  71.239  1.00  0.00    -0.283 F  
HETATM    8  C   UNL     1     -10.607   8.873  69.492  1.00  0.00    -0.228 A  
HETATM    9  C   UNL     1      -8.344   7.936  69.328  1.00  0.00    -0.136 A  
HETATM   10  C   UNL     1      -9.304   8.909  68.948  1.00  0.00    -0.140 A  
HETATM   11  C   UNL     1      -8.684   7.005  70.320  1.00  0.00    -0.144 A  
ENDROOT
BRANCH   8  12
HETATM   12  N   UNL     1     -11.641   9.781  69.064  1.00  0.00    -0.455 NA 
HETATM   13  H   UNL     1     -12.320   9.451  68.378  1.00  0.00     0.000 HD 
BRANCH  12  14
HETATM   14  C   UNL     1     -11.766  11.123  69.549  1.00  0.00    -0.335 A  
HETATM   15 BR   UNL     1     -12.601  15.508  71.002  1.00  0.00    -0.533 Br 
HETATM   16  C   UNL     1     -11.223  12.218  68.860  1.00  0.00    -0.323 A  
HETATM   17  C   UNL     1     -12.656  12.666  71.219  1.00  0.00    -0.339 A  
HETATM   18  C   UNL     1     -12.422  11.371  70.764  1.00  0.00    -0.365 A  
HETATM   19  C   UNL     1     -12.204  13.741  70.460  1.00  0.00    -0.369 A  
HETATM   20  C   UNL     1     -11.472  13.525  69.294  1.00  0.00    -0.345 A  
HETATM   21  F   UNL     1     -12.887  10.334  71.479  1.00  0.00    -0.402 F  
ENDBRANCH  12  14
ENDBRANCH   8  12
BRANCH  10  22
HETATM   22  C   UNL     1      -8.776   9.986  68.038  1.00  0.00    -0.125 C  
HETATM   23  H   UNL     1      -7.325  10.581  69.433  1.00  0.00     0.000 HD 
HETATM   24  N   UNL     1      -7.717  10.729  68.503  1.00  0.00    -0.110 N  
HETATM   25  O   UNL     1      -9.240  10.110  66.904  1.00  0.00    -0.144 OA 
BRANCH  24  26
HETATM   26  O   UNL     1      -7.199  11.713  67.619  1.00  0.00    -0.093 OA 
BRANCH  26  27
HETATM   27  C   UNL     1      -7.275  12.978  68.297  1.00  0.00    -0.113 C  
BRANCH  27  28
HETATM   28  C   UNL     1      -6.210  13.945  67.784  1.00  0.00    -0.145 C  
HETATM   29  O   UNL     1      -6.765  14.931  66.917  1.00  0.00    -0.269 OA 
HETATM   30  H   UNL     1      -6.103  15.533  66.598  1.00  0.00     0.000 HD 
ENDBRANCH  27  28
ENDBRANCH  26  27
ENDBRANCH  24  26
ENDBRANCH  10  22
TORSDOF 6
ENDMDL
MODEL      150
REMARK 921   NORMALIZED FREE ENERGY PREDICTED BY IDOCK:   -4.40 KCAL/MOL
REMARK 922        TOTAL FREE ENERGY PREDICTED BY IDOCK:   -7.22 KCAL/MOL
REMARK 923 INTER-LIGAND FREE ENERGY PREDICTED BY IDOCK:   -6.69 KCAL/MOL
REMARK 924 INTRA-LIGAND FREE ENERGY PREDICTED BY IDOCK:   -0.53 KCAL/MOL
REMARK 927      BINDING AFFINITY PREDICTED BY RF-SCORE:    0.00 PKD
ROOT
HETATM    1  C   UNL     1      -6.517  17.473  68.004  1.00  0.00    -0.171 C  
HETATM    2  N   UNL     1      -6.803  16.117  68.398  1.00  0.00    -0.125 NA 
HETATM    3  C   UNL     1      -6.202  15.447  69.425  1.00  0.00    -0.128 A  
HETATM    4  N   UNL     1      -6.655  14.218  69.528  1.00  0.00    -0.129 NA 
HETATM    5  C   UNL     1      -7.589  14.090  68.525  1.00  0.00    -0.130 A  
HETATM    6  C   UNL     1      -8.378  12.994  68.154  1.00  0.00    -0.164 A  
HETATM    7  F   UNL     1      -8.300  11.872  68.886  1.00  0.00    -0.124 F  
HETATM    8  C   UNL     1      -9.260  13.067  67.037  1.00  0.00    -0.232 A  
HETATM    9  C   UNL     1      -8.644  15.428  66.775  1.00  0.00    -0.308 A  
HETATM   10  C   UNL     1      -9.458  14.321  66.421  1.00  0.00    -0.297 A  
HETATM   11  C   UNL     1      -7.712  15.276  67.812  1.00  0.00    -0.149 A  
ENDROOT
BRANCH   8  12
HETATM   12  N   UNL     1      -9.997  11.894  66.641  1.00  0.00    -0.196 NA 
HETATM   13  H   UNL     1     -11.015  11.921  66.698  1.00  0.00     0.000 HD 
BRANCH  12  14
HETATM   14  C   UNL     1      -9.377  10.691  66.171  1.00  0.00    -0.177 A  
HETATM   15 BR   UNL     1      -7.131   6.733  65.018  1.00  0.00    -0.067 Br 
HETATM   16  C   UNL     1      -8.347  10.707  65.219  1.00  0.00    -0.127 A  
HETATM   17  C   UNL     1      -9.177   8.260  66.288  1.00  0.00    -0.258 A  
HETATM   18  C   UNL     1      -9.819   9.444  66.640  1.00  0.00    -0.245 A  
HETATM   19  C   UNL     1      -8.085   8.313  65.428  1.00  0.00    -0.135 A  
HETATM   20  C   UNL     1      -7.678   9.527  64.875  1.00  0.00    -0.115 A  
HETATM   21  F   UNL     1     -10.851   9.398  67.496  1.00  0.00    -0.325 F  
ENDBRANCH  12  14
ENDBRANCH   8  12
BRANCH  10  22
HETATM   22  C   UNL     1     -10.564  14.644  65.450  1.00  0.00    -0.374 C  
HETATM   23  H   UNL     1     -11.663  12.941  65.997  1.00  0.00     0.000 HD 
HETATM   24  N   UNL     1     -11.632  13.779  65.416  1.00  0.00    -0.313 N  
HETATM   25  O   UNL     1     -10.518  15.686  64.796  1.00  0.00    -0.446 OA 
BRANCH  24  26
HETATM   26  O   UNL     1     -12.689  14.116  64.529  1.00  0.00    -0.656 OA 
BRANCH  26  27
HETATM   27  C   UNL     1     -12.460  13.403  63.303  1.00  0.00    -0.052 C  
BRANCH  27  28
HETATM   28  C   UNL     1     -12.551  11.894  63.513  1.00  0.00    -0.459 C  
HETATM   29  O   UNL     1     -11.506  11.201  62.835  1.00  0.00    -0.791 OA 
HETATM   30  H   UNL     1     -11.562  10.262  62.966  1.00  0.00     0.000 HD 
ENDBRANCH  27  28
ENDBRANCH  26  27
ENDBRANCH  24  26
ENDBRANCH  10  22
TORSDOF 6
ENDMDL
MODEL      151
REMARK 921   NORMALIZED FREE ENERGY PREDICTED BY IDOCK:   -4.34 KCAL/MOL
REMARK 922        TOTAL FREE ENERGY PREDICTED BY IDOCK:   -7.15 KCAL/MOL
REMARK 923 INTER-LIGAND FREE ENERGY PREDICTED BY IDOCK:   -6.02 KCAL/MOL
REMARK 924 INTRA-LIGAND FREE ENERGY PREDICTED BY IDOCK:   -1.13 KCAL/MOL
REMARK 927      BINDING AFFINITY PREDICTED BY RF-SCORE:    0.00 PKD
ROOT
HETATM    1  C   UNL     1      -5.516   9.274  73.022  1.00  0.00    -0.056 C  
HETATM    2  N   UNL     1      -5.908   9.766  71.726  1.00  0.00    -0.271 NA 
HETATM    3  C   UNL     1      -5.216  10.680  70.984  1.00  0.00    -0.093 A  
HETATM    4  N   UNL     1      -5.833  10.950  69.856  1.00  0.00    -0.065 NA 
HETATM    5  C   UNL     1      -6.972  10.177  69.871  1.00  0.00    -0.133 A  
HETATM    6  C   UNL     1      -8.008  10.068  68.935  1.00  0.00    -0.101 A  
HETATM    7  F   UNL     1      -7.912  10.763  67.791  1.00  0.00    -0.105 F  
HETATM    8  C   UNL     1      -9.133   9.229  69.176  1.00  0.00    -0.145 A  
HETATM    9  C   UNL     1      -8.065   8.490  71.259  1.00  0.00    -0.166 A  
HETATM   10  C   UNL     1      -9.098   8.368  70.295  1.00  0.00    -0.149 A  
HETATM   11  C   UNL     1      -7.033   9.411  71.028  1.00  0.00    -0.056 A  
ENDROOT
BRANCH   8  12
HETATM   12  N   UNL     1     -10.214   9.204  68.224  1.00  0.00    -0.198 NA 
HETATM   13  H   UNL     1     -10.677   8.313  68.041  1.00  0.00     0.000 HD 
BRANCH  12  14
HETATM   14  C   UNL     1     -10.676  10.364  67.521  1.00  0.00    -0.287 A  
HETATM   15 BR   UNL     1     -12.599  13.992  65.247  1.00  0.00    -0.459 Br 
HETATM   16  C   UNL     1     -10.487  10.521  66.140  1.00  0.00    -0.237 A  
HETATM   17  C   UNL     1     -11.868  12.494  67.560  1.00  0.00    -0.389 A  
HETATM   18  C   UNL     1     -11.313  11.401  68.219  1.00  0.00    -0.286 A  
HETATM   19  C   UNL     1     -11.764  12.572  66.175  1.00  0.00    -0.409 A  
HETATM   20  C   UNL     1     -11.060  11.603  65.462  1.00  0.00    -0.297 A  
HETATM   21  F   UNL     1     -11.442  11.307  69.551  1.00  0.00    -0.259 F  
ENDBRANCH  12  14
ENDBRANCH   8  12
BRANCH  10  22
HETATM   22  C   UNL     1     -10.037   7.213  70.528  1.00  0.00    -0.195 C  
HETATM   23  H   UNL     1      -8.454   5.876  70.862  1.00  0.00     0.000 HD 
HETATM   24  N   UNL     1      -9.466   5.999  70.828  1.00  0.00    -0.167 N  
HETATM   25  O   UNL     1     -11.254   7.404  70.525  1.00  0.00    -0.267 OA 
BRANCH  24  26
HETATM   26  O   UNL     1     -10.361   4.928  71.089  1.00  0.00    -0.209 OA 
BRANCH  26  27
HETATM   27  C   UNL     1     -10.110   4.479  72.431  1.00  0.00    -0.183 C  
BRANCH  27  28
HETATM   28  C   UNL     1     -11.336   4.676  73.319  1.00  0.00    -0.304 C  
HETATM   29  O   UNL     1     -12.244   5.625  72.765  1.00  0.00    -0.531 OA 
HETATM   30  H   UNL     1     -13.007   5.748  73.317  1.00  0.00     0.000 HD 
ENDBRANCH  27  28
ENDBRANCH  26  27
ENDBRANCH  24  26
ENDBRANCH  10  22
TORSDOF 6
ENDMDL
MODEL      152
REMARK 921   NORMALIZED FREE ENERGY PREDICTED BY IDOCK:   -4.34 KCAL/MOL
REMARK 922        TOTAL FREE ENERGY PREDICTED BY IDOCK:   -7.14 KCAL/MOL
REMARK 923 INTER-LIGAND FREE ENERGY PREDICTED BY IDOCK:   -6.23 KCAL/MOL
REMARK 924 INTRA-LIGAND FREE ENERGY PREDICTED BY IDOCK:   -0.91 KCAL/MOL
REMARK 927      BINDING AFFINITY PREDICTED BY RF-SCORE:    0.00 PKD
ROOT
HETATM    1  C   UNL     1      -9.920  18.454  66.211  1.00  0.00    -0.366 C  
HETATM    2  N   UNL     1      -8.965  17.440  66.578  1.00  0.00    -0.256 NA 
HETATM    3  C   UNL     1      -7.617  17.511  66.375  1.00  0.00    -0.294 A  
HETATM    4  N   UNL     1      -7.009  16.424  66.794  1.00  0.00    -0.208 NA 
HETATM    5  C   UNL     1      -8.008  15.618  67.289  1.00  0.00    -0.197 A  
HETATM    6  C   UNL     1      -7.947  14.336  67.851  1.00  0.00    -0.153 A  
HETATM    7  F   UNL     1      -6.743  13.765  68.011  1.00  0.00    -0.083 F  
HETATM    8  C   UNL     1      -9.128  13.654  68.262  1.00  0.00    -0.193 A  
HETATM    9  C   UNL     1     -10.421  15.655  67.670  1.00  0.00    -0.283 A  
HETATM   10  C   UNL     1     -10.347  14.367  68.260  1.00  0.00    -0.239 A  
HETATM   11  C   UNL     1      -9.245  16.241  67.180  1.00  0.00    -0.213 A  
ENDROOT
BRANCH   8  12
HETATM   12  N   UNL     1      -9.029  12.307  68.763  1.00  0.00    -0.384 NA 
HETATM   13  H   UNL     1      -8.960  12.171  69.771  1.00  0.00     0.000 HD 
BRANCH  12  14
HETATM   14  C   UNL     1      -9.022  11.148  67.921  1.00  0.00    -0.143 A  
HETATM   15 BR   UNL     1      -8.671   7.193  65.418  1.00  0.00     0.094 Br 
HETATM   16  C   UNL     1      -8.468  11.167  66.633  1.00  0.00    -0.164 A  
HETATM   17  C   UNL     1      -9.534   8.779  67.624  1.00  0.00    -0.168 A  
HETATM   18  C   UNL     1      -9.610   9.954  68.366  1.00  0.00    -0.148 A  
HETATM   19  C   UNL     1      -8.880   8.797  66.396  1.00  0.00    -0.147 A  
HETATM   20  C   UNL     1      -8.364   9.987  65.887  1.00  0.00    -0.129 A  
HETATM   21  F   UNL     1     -10.210   9.930  69.567  1.00  0.00    -0.180 F  
ENDBRANCH  12  14
ENDBRANCH   8  12
BRANCH  10  22
HETATM   22  C   UNL     1     -11.613  13.917  68.942  1.00  0.00    -0.316 C  
HETATM   23  H   UNL     1     -10.777  14.156  70.852  1.00  0.00     0.000 HD 
HETATM   24  N   UNL     1     -11.607  13.904  70.316  1.00  0.00    -0.203 N  
HETATM   25  O   UNL     1     -12.613  13.664  68.268  1.00  0.00     0.135 OA 
BRANCH  24  26
HETATM   26  O   UNL     1     -12.820  13.521  70.949  1.00  0.00    -0.294 OA 
BRANCH  26  27
HETATM   27  C   UNL     1     -12.905  14.248  72.185  1.00  0.00    -0.344 C  
BRANCH  27  28
HETATM   28  C   UNL     1     -14.099  15.200  72.187  1.00  0.00    -0.554 C  
HETATM   29  O   UNL     1     -14.410  15.661  70.874  1.00  0.00    -0.801 OA 
HETATM   30  H   UNL     1     -15.153  16.253  70.876  1.00  0.00     0.000 HD 
ENDBRANCH  27  28
ENDBRANCH  26  27
ENDBRANCH  24  26
ENDBRANCH  10  22
TORSDOF 6
ENDMDL
MODEL      153
REMARK 921   NORMALIZED FREE ENERGY PREDICTED BY IDOCK:   -4.34 KCAL/MOL
REMARK 922        TOTAL FREE ENERGY PREDICTED BY IDOCK:   -7.14 KCAL/MOL
REMARK 923 INTER-LIGAND FREE ENERGY PREDICTED BY IDOCK:   -6.14 KCAL/MOL
REMARK 924 INTRA-LIGAND FREE ENERGY PREDICTED BY IDOCK:   -1.00 KCAL/MOL
REMARK 927      BINDING AFFINITY PREDICTED BY RF-SCORE:    0.00 PKD
ROOT
HETATM    1  C   UNL     1     -12.263  13.662  67.102  1.00  0.00    -0.297 C  
HETATM    2  N   UNL     1     -11.550  12.675  66.331  1.00  0.00    -0.363 NA 
HETATM    3  C   UNL     1     -11.422  12.672  64.972  1.00  0.00    -0.329 A  
HETATM    4  N   UNL     1     -10.736  11.633  64.555  1.00  0.00    -0.304 NA 
HETATM    5  C   UNL     1     -10.407  10.935  65.694  1.00  0.00    -0.242 A  
HETATM    6  C   UNL     1      -9.694   9.739  65.854  1.00  0.00    -0.266 A  
HETATM    7  F   UNL     1      -9.173   9.156  64.763  1.00  0.00    -0.264 F  
HETATM    8  C   UNL     1      -9.506   9.160  67.141  1.00  0.00    -0.154 A  
HETATM    9  C   UNL     1     -10.639  11.104  68.121  1.00  0.00    -0.227 A  
HETATM   10  C   UNL     1      -9.895   9.906  68.275  1.00  0.00    -0.165 A  
HETATM   11  C   UNL     1     -10.893  11.579  66.826  1.00  0.00    -0.282 A  
ENDROOT
BRANCH   8  12
HETATM   12  N   UNL     1      -8.834   7.890  67.254  1.00  0.00    -0.126 NA 
HETATM   13  H   UNL     1      -8.098   7.794  67.954  1.00  0.00     0.000 HD 
BRANCH  12  14
HETATM   14  C   UNL     1      -9.143   6.756  66.436  1.00  0.00    -0.152 A  
HETATM   15 BR   UNL     1     -10.008   2.783  64.089  1.00  0.00    -0.077 Br 
HETATM   16  C   UNL     1      -8.338   6.380  65.350  1.00  0.00    -0.141 A  
HETATM   17  C   UNL     1     -10.579   4.833  65.987  1.00  0.00    -0.300 A  
HETATM   18  C   UNL     1     -10.297   6.000  66.691  1.00  0.00    -0.204 A  
HETATM   19  C   UNL     1      -9.704   4.419  64.987  1.00  0.00    -0.164 A  
HETATM   20  C   UNL     1      -8.597   5.195  64.651  1.00  0.00    -0.142 A  
HETATM   21  F   UNL     1     -11.122   6.382  67.679  1.00  0.00    -0.322 F  
ENDBRANCH  12  14
ENDBRANCH   8  12
BRANCH  10  22
HETATM   22  C   UNL     1      -9.497   9.596  69.694  1.00  0.00    -0.210 C  
HETATM   23  H   UNL     1     -11.483   9.687  70.368  1.00  0.00     0.000 HD 
HETATM   24  N   UNL     1     -10.509   9.515  70.620  1.00  0.00    -0.286 N  
HETATM   25  O   UNL     1      -8.320   9.348  69.958  1.00  0.00    -0.140 OA 
BRANCH  24  26
HETATM   26  O   UNL     1     -10.127   9.178  71.946  1.00  0.00    -0.322 OA 
BRANCH  26  27
HETATM   27  C   UNL     1     -10.912   8.042  72.341  1.00  0.00    -0.338 C  
BRANCH  27  28
HETATM   28  C   UNL     1     -10.271   6.736  71.875  1.00  0.00    -0.189 C  
HETATM   29  O   UNL     1      -8.918   6.627  72.309  1.00  0.00    -0.134 OA 
HETATM   30  H   UNL     1      -8.519   5.816  72.019  1.00  0.00     0.000 HD 
ENDBRANCH  27  28
ENDBRANCH  26  27
ENDBRANCH  24  26
ENDBRANCH  10  22
TORSDOF 6
ENDMDL
MODEL      154
REMARK 921   NORMALIZED FREE ENERGY PREDICTED BY IDOCK:   -4.33 KCAL/MOL
REMARK 922        TOTAL FREE ENERGY PREDICTED BY IDOCK:   -7.12 KCAL/MOL
REMARK 923 INTER-LIGAND FREE ENERGY PREDICTED BY IDOCK:   -5.96 KCAL/MOL
REMARK 924 INTRA-LIGAND FREE ENERGY PREDICTED BY IDOCK:   -1.17 KCAL/MOL
REMARK 927      BINDING AFFINITY PREDICTED BY RF-SCORE:    0.00 PKD
ROOT
HETATM    1  C   UNL     1     -10.292  16.981  66.374  1.00  0.00    -0.303 C  
HETATM    2  N   UNL     1     -10.823  15.809  65.726  1.00  0.00    -0.308 NA 
HETATM    3  C   UNL     1     -11.581  15.807  64.591  1.00  0.00    -0.218 A  
HETATM    4  N   UNL     1     -11.938  14.589  64.253  1.00  0.00    -0.431 NA 
HETATM    5  C   UNL     1     -11.385  13.770  65.210  1.00  0.00    -0.304 A  
HETATM    6  C   UNL     1     -11.448  12.379  65.363  1.00  0.00    -0.358 A  
HETATM    7  F   UNL     1     -12.092  11.662  64.429  1.00  0.00    -0.332 F  
HETATM    8  C   UNL     1     -10.831  11.731  66.471  1.00  0.00    -0.282 A  
HETATM    9  C   UNL     1      -9.951  13.908  67.184  1.00  0.00    -0.239 A  
HETATM   10  C   UNL     1     -10.000  12.497  67.317  1.00  0.00    -0.211 A  
HETATM   11  C   UNL     1     -10.665  14.512  66.139  1.00  0.00    -0.310 A  
ENDROOT
BRANCH   8  12
HETATM   12  N   UNL     1     -10.985  10.307  66.633  1.00  0.00    -0.043 NA 
HETATM   13  H   UNL     1     -11.807   9.964  67.131  1.00  0.00     0.000 HD 
BRANCH  12  14
HETATM   14  C   UNL     1     -10.046   9.347  66.133  1.00  0.00    -0.254 A  
HETATM   15 BR   UNL     1      -6.717   6.298  64.849  1.00  0.00    -0.043 Br 
HETATM   16  C   UNL     1      -9.213   9.621  65.039  1.00  0.00    -0.310 A  
HETATM   17  C   UNL     1      -8.994   7.153  66.336  1.00  0.00    -0.178 A  
HETATM   18  C   UNL     1      -9.961   8.077  66.722  1.00  0.00    -0.274 A  
HETATM   19  C   UNL     1      -8.105   7.492  65.320  1.00  0.00    -0.130 A  
HETATM   20  C   UNL     1      -8.221   8.711  64.656  1.00  0.00    -0.167 A  
HETATM   21  F   UNL     1     -10.798   7.765  67.725  1.00  0.00    -0.279 F  
ENDBRANCH  12  14
ENDBRANCH   8  12
BRANCH  10  22
HETATM   22  C   UNL     1      -9.039  11.930  68.330  1.00  0.00    -0.183 C  
HETATM   23  H   UNL     1      -7.675  13.501  68.049  1.00  0.00     0.000 HD 
HETATM   24  N   UNL     1      -7.887  12.644  68.560  1.00  0.00    -0.130 N  
HETATM   25  O   UNL     1      -9.345  10.920  68.964  1.00  0.00    -0.188 OA 
BRANCH  24  26
HETATM   26  O   UNL     1      -7.010  12.125  69.548  1.00  0.00    -0.027 OA 
BRANCH  26  27
HETATM   27  C   UNL     1      -5.676  12.202  69.018  1.00  0.00    -0.062 C  
BRANCH  27  28
HETATM   28  C   UNL     1      -5.211  13.651  68.895  1.00  0.00    -0.071 C  
HETATM   29  O   UNL     1      -5.148  14.073  67.535  1.00  0.00    -0.324 OA 
HETATM   30  H   UNL     1      -4.858  14.974  67.459  1.00  0.00     0.000 HD 
ENDBRANCH  27  28
ENDBRANCH  26  27
ENDBRANCH  24  26
ENDBRANCH  10  22
TORSDOF 6
ENDMDL
MODEL      155
REMARK 921   NORMALIZED FREE ENERGY PREDICTED BY IDOCK:   -4.32 KCAL/MOL
REMARK 922        TOTAL FREE ENERGY PREDICTED BY IDOCK:   -7.12 KCAL/MOL
REMARK 923 INTER-LIGAND FREE ENERGY PREDICTED BY IDOCK:   -5.84 KCAL/MOL
REMARK 924 INTRA-LIGAND FREE ENERGY PREDICTED BY IDOCK:   -1.28 KCAL/MOL
REMARK 927      BINDING AFFINITY PREDICTED BY RF-SCORE:    0.00 PKD
ROOT
HETATM    1  C   UNL     1      -5.867   5.388  66.417  1.00  0.00    -0.018 C  
HETATM    2  N   UNL     1      -7.275   5.691  66.376  1.00  0.00    -0.076 NA 
HETATM    3  C   UNL     1      -7.990   5.981  65.250  1.00  0.00    -0.117 A  
HETATM    4  N   UNL     1      -9.248   6.238  65.531  1.00  0.00     0.095 NA 
HETATM    5  C   UNL     1      -9.348   6.108  66.897  1.00  0.00    -0.134 A  
HETATM    6  C   UNL     1     -10.447   6.279  67.748  1.00  0.00    -0.232 A  
HETATM    7  F   UNL     1     -11.640   6.565  67.202  1.00  0.00    -0.387 F  
HETATM    8  C   UNL     1     -10.315   6.138  69.159  1.00  0.00    -0.218 A  
HETATM    9  C   UNL     1      -7.972   5.492  68.820  1.00  0.00    -0.095 A  
HETATM   10  C   UNL     1      -9.096   5.644  69.672  1.00  0.00    -0.148 A  
HETATM   11  C   UNL     1      -8.125   5.748  67.450  1.00  0.00    -0.102 A  
ENDROOT
BRANCH   8  12
HETATM   12  N   UNL     1     -11.452   6.398  70.005  1.00  0.00    -0.430 NA 
HETATM   13  H   UNL     1     -12.057   5.616  70.257  1.00  0.00     0.000 HD 
BRANCH  12  14
HETATM   14  C   UNL     1     -11.781   7.697  70.512  1.00  0.00    -0.128 A  
HETATM   15 BR   UNL     1     -13.129  11.997  71.826  1.00  0.00    -0.334 Br 
HETATM   16  C   UNL     1     -10.906   8.787  70.390  1.00  0.00    -0.256 A  
HETATM   17  C   UNL     1     -13.398   9.168  71.599  1.00  0.00    -0.444 A  
HETATM   18  C   UNL     1     -12.996   7.902  71.183  1.00  0.00    -0.104 A  
HETATM   19  C   UNL     1     -12.560  10.254  71.366  1.00  0.00    -0.434 A  
HETATM   20  C   UNL     1     -11.309  10.069  70.782  1.00  0.00    -0.439 A  
HETATM   21  F   UNL     1     -13.818   6.859  71.377  1.00  0.00    -0.395 F  
ENDBRANCH  12  14
ENDBRANCH   8  12
BRANCH  10  22
HETATM   22  C   UNL     1      -8.887   5.145  71.078  1.00  0.00    -0.133 C  
HETATM   23  H   UNL     1      -8.395   7.060  71.782  1.00  0.00     0.000 HD 
HETATM   24  N   UNL     1      -8.538   6.079  72.023  1.00  0.00    -0.135 N  
HETATM   25  O   UNL     1      -9.112   3.964  71.347  1.00  0.00    -0.102 OA 
BRANCH  24  26
HETATM   26  O   UNL     1      -8.386   5.605  73.353  1.00  0.00    -0.116 OA 
BRANCH  26  27
HETATM   27  C   UNL     1      -9.496   6.109  74.114  1.00  0.00    -0.166 C  
BRANCH  27  28
HETATM   28  C   UNL     1     -10.638   5.097  74.165  1.00  0.00    -0.276 C  
HETATM   29  O   UNL     1     -11.723   5.481  73.324  1.00  0.00    -0.513 OA 
HETATM   30  H   UNL     1     -12.434   4.852  73.355  1.00  0.00     0.000 HD 
ENDBRANCH  27  28
ENDBRANCH  26  27
ENDBRANCH  24  26
ENDBRANCH  10  22
TORSDOF 6
ENDMDL
MODEL      156
REMARK 921   NORMALIZED FREE ENERGY PREDICTED BY IDOCK:   -4.26 KCAL/MOL
REMARK 922        TOTAL FREE ENERGY PREDICTED BY IDOCK:   -7.03 KCAL/MOL
REMARK 923 INTER-LIGAND FREE ENERGY PREDICTED BY IDOCK:   -5.75 KCAL/MOL
REMARK 924 INTRA-LIGAND FREE ENERGY PREDICTED BY IDOCK:   -1.28 KCAL/MOL
REMARK 927      BINDING AFFINITY PREDICTED BY RF-SCORE:    0.00 PKD
ROOT
HETATM    1  C   UNL     1      -7.971  17.211  68.574  1.00  0.00    -0.259 C  
HETATM    2  N   UNL     1      -9.230  16.534  68.398  1.00  0.00    -0.215 NA 
HETATM    3  C   UNL     1     -10.460  17.123  68.451  1.00  0.00    -0.376 A  
HETATM    4  N   UNL     1     -11.422  16.245  68.276  1.00  0.00    -0.288 NA 
HETATM    5  C   UNL     1     -10.785  15.038  68.102  1.00  0.00    -0.256 A  
HETATM    6  C   UNL     1     -11.309  13.756  67.892  1.00  0.00    -0.299 A  
HETATM    7  F   UNL     1     -12.639  13.620  67.776  1.00  0.00    -0.244 F  
HETATM    8  C   UNL     1     -10.456  12.621  67.783  1.00  0.00    -0.221 A  
HETATM    9  C   UNL     1      -8.524  14.126  67.948  1.00  0.00    -0.167 A  
HETATM   10  C   UNL     1      -9.062  12.835  67.711  1.00  0.00    -0.197 A  
HETATM   11  C   UNL     1      -9.406  15.196  68.158  1.00  0.00    -0.192 A  
ENDROOT
BRANCH   8  12
HETATM   12  N   UNL     1     -11.037  11.310  67.644  1.00  0.00    -0.257 NA 
HETATM   13  H   UNL     1     -11.541  11.094  66.784  1.00  0.00     0.000 HD 
BRANCH  12  14
HETATM   14  C   UNL     1     -10.947  10.293  68.649  1.00  0.00    -0.244 A  
HETATM   15 BR   UNL     1     -11.021   6.787  71.770  1.00  0.00    -0.280 Br 
HETATM   16  C   UNL     1     -11.280  10.539  69.989  1.00  0.00    -0.386 A  
HETATM   17  C   UNL     1     -10.478   7.969  69.232  1.00  0.00    -0.221 A  
HETATM   18  C   UNL     1     -10.483   9.012  68.311  1.00  0.00    -0.200 A  
HETATM   19  C   UNL     1     -10.919   8.210  70.529  1.00  0.00    -0.243 A  
HETATM   20  C   UNL     1     -11.302   9.493  70.919  1.00  0.00    -0.410 A  
HETATM   21  F   UNL     1     -10.090   8.772  67.050  1.00  0.00    -0.234 F  
ENDBRANCH  12  14
ENDBRANCH   8  12
BRANCH  10  22
HETATM   22  C   UNL     1      -8.049  11.803  67.289  1.00  0.00    -0.164 C  
HETATM   23  H   UNL     1      -7.131  11.801  69.177  1.00  0.00     0.000 HD 
HETATM   24  N   UNL     1      -7.141  11.400  68.240  1.00  0.00    -0.074 N  
HETATM   25  O   UNL     1      -8.115  11.304  66.165  1.00  0.00    -0.149 OA 
BRANCH  24  26
HETATM   26  O   UNL     1      -6.218  10.395  67.845  1.00  0.00    -0.058 OA 
BRANCH  26  27
HETATM   27  C   UNL     1      -6.745   9.134  68.290  1.00  0.00    -0.060 C  
BRANCH  27  28
HETATM   28  C   UNL     1      -5.686   8.036  68.220  1.00  0.00    -0.033 C  
HETATM   29  O   UNL     1      -5.298   7.591  69.518  1.00  0.00    -0.022 OA 
HETATM   30  H   UNL     1      -4.640   6.908  69.474  1.00  0.00     0.000 HD 
ENDBRANCH  27  28
ENDBRANCH  26  27
ENDBRANCH  24  26
ENDBRANCH  10  22
TORSDOF 6
ENDMDL
MODEL      157
REMARK 921   NORMALIZED FREE ENERGY PREDICTED BY IDOCK:   -4.25 KCAL/MOL
REMARK 922        TOTAL FREE ENERGY PREDICTED BY IDOCK:   -7.02 KCAL/MOL
REMARK 923 INTER-LIGAND FREE ENERGY PREDICTED BY IDOCK:   -6.06 KCAL/MOL
REMARK 924 INTRA-LIGAND FREE ENERGY PREDICTED BY IDOCK:   -0.96 KCAL/MOL
REMARK 927      BINDING AFFINITY PREDICTED BY RF-SCORE:    0.00 PKD
ROOT
HETATM    1  C   UNL     1      -9.164   2.839  64.886  1.00  0.00    -0.147 C  
HETATM    2  N   UNL     1      -8.632   4.054  64.323  1.00  0.00    -0.105 NA 
HETATM    3  C   UNL     1      -7.959   4.150  63.139  1.00  0.00    -0.079 A  
HETATM    4  N   UNL     1      -7.577   5.384  62.901  1.00  0.00    -0.062 NA 
HETATM    5  C   UNL     1      -8.024   6.116  63.977  1.00  0.00    -0.110 A  
HETATM    6  C   UNL     1      -7.891   7.480  64.267  1.00  0.00    -0.133 A  
HETATM    7  F   UNL     1      -7.287   8.269  63.365  1.00  0.00    -0.090 F  
HETATM    8  C   UNL     1      -8.398   8.029  65.480  1.00  0.00    -0.147 A  
HETATM    9  C   UNL     1      -9.316   5.820  66.030  1.00  0.00    -0.134 A  
HETATM   10  C   UNL     1      -9.198   7.207  66.304  1.00  0.00    -0.169 A  
HETATM   11  C   UNL     1      -8.706   5.305  64.877  1.00  0.00    -0.122 A  
ENDROOT
BRANCH   8  12
HETATM   12  N   UNL     1      -8.173   9.421  65.775  1.00  0.00    -0.114 NA 
HETATM   13  H   UNL     1      -7.352   9.671  66.326  1.00  0.00     0.000 HD 
BRANCH  12  14
HETATM   14  C   UNL     1      -9.040  10.474  65.336  1.00  0.00    -0.187 A  
HETATM   15 BR   UNL     1     -12.185  13.762  64.182  1.00  0.00    -0.387 Br 
HETATM   16  C   UNL     1      -9.691  10.433  64.094  1.00  0.00    -0.387 A  
HETATM   17  C   UNL     1     -10.148  12.599  65.803  1.00  0.00    -0.284 A  
HETATM   18  C   UNL     1      -9.236  11.604  66.143  1.00  0.00    -0.219 A  
HETATM   19  C   UNL     1     -10.865  12.480  64.616  1.00  0.00    -0.310 A  
HETATM   20  C   UNL     1     -10.628  11.414  63.750  1.00  0.00    -0.464 A  
HETATM   21  F   UNL     1      -8.569  11.701  67.304  1.00  0.00    -0.136 F  
ENDBRANCH  12  14
ENDBRANCH   8  12
BRANCH  10  22
HETATM   22  C   UNL     1     -10.058   7.695  67.440  1.00  0.00    -0.222 C  
HETATM   23  H   UNL     1      -9.315   6.234  68.751  1.00  0.00     0.000 HD 
HETATM   24  N   UNL     1      -9.935   7.036  68.640  1.00  0.00    -0.152 N  
HETATM   25  O   UNL     1     -10.761   8.694  67.288  1.00  0.00    -0.271 OA 
BRANCH  24  26
HETATM   26  O   UNL     1     -10.717   7.533  69.716  1.00  0.00    -0.241 OA 
BRANCH  26  27
HETATM   27  C   UNL     1     -11.597   6.474  70.128  1.00  0.00    -0.402 C  
BRANCH  27  28
HETATM   28  C   UNL     1     -12.399   6.870  71.366  1.00  0.00    -0.376 C  
HETATM   29  O   UNL     1     -13.642   7.477  71.019  1.00  0.00    -0.612 OA 
HETATM   30  H   UNL     1     -14.140   7.723  71.789  1.00  0.00     0.000 HD 
ENDBRANCH  27  28
ENDBRANCH  26  27
ENDBRANCH  24  26
ENDBRANCH  10  22
TORSDOF 6
ENDMDL
MODEL      158
REMARK 921   NORMALIZED FREE ENERGY PREDICTED BY IDOCK:   -4.20 KCAL/MOL
REMARK 922        TOTAL FREE ENERGY PREDICTED BY IDOCK:   -6.96 KCAL/MOL
REMARK 923 INTER-LIGAND FREE ENERGY PREDICTED BY IDOCK:   -5.84 KCAL/MOL
REMARK 924 INTRA-LIGAND FREE ENERGY PREDICTED BY IDOCK:   -1.12 KCAL/MOL
REMARK 927      BINDING AFFINITY PREDICTED BY RF-SCORE:    0.00 PKD
ROOT
HETATM    1  C   UNL     1      -6.878   8.110  63.511  1.00  0.00    -0.076 C  
HETATM    2  N   UNL     1      -7.488   7.205  64.453  1.00  0.00    -0.089 NA 
HETATM    3  C   UNL     1      -7.234   5.867  64.542  1.00  0.00    -0.063 A  
HETATM    4  N   UNL     1      -7.958   5.302  65.482  1.00  0.00    -0.104 NA 
HETATM    5  C   UNL     1      -8.710   6.320  66.022  1.00  0.00    -0.151 A  
HETATM    6  C   UNL     1      -9.667   6.299  67.045  1.00  0.00    -0.144 A  
HETATM    7  F   UNL     1      -9.897   5.140  67.681  1.00  0.00    -0.142 F  
HETATM    8  C   UNL     1     -10.370   7.479  67.420  1.00  0.00    -0.276 A  
HETATM    9  C   UNL     1      -9.007   8.736  65.812  1.00  0.00    -0.253 A  
HETATM   10  C   UNL     1      -9.957   8.710  66.865  1.00  0.00    -0.330 A  
HETATM   11  C   UNL     1      -8.420   7.530  65.403  1.00  0.00    -0.094 A  
ENDROOT
BRANCH   8  12
HETATM   12  N   UNL     1     -11.401   7.399  68.424  1.00  0.00    -0.213 NA 
HETATM   13  H   UNL     1     -12.373   7.484  68.126  1.00  0.00     0.000 HD 
BRANCH  12  14
HETATM   14  C   UNL     1     -11.135   7.207  69.819  1.00  0.00    -0.210 A  
HETATM   15 BR   UNL     1      -9.841   6.689  74.301  1.00  0.00    -0.357 Br 
HETATM   16  C   UNL     1     -11.029   5.929  70.387  1.00  0.00    -0.376 A  
HETATM   17  C   UNL     1     -10.642   8.177  72.004  1.00  0.00    -0.334 A  
HETATM   18  C   UNL     1     -11.002   8.316  70.667  1.00  0.00    -0.240 A  
HETATM   19  C   UNL     1     -10.433   6.901  72.518  1.00  0.00    -0.214 A  
HETATM   20  C   UNL     1     -10.644   5.775  71.723  1.00  0.00    -0.293 A  
HETATM   21  F   UNL     1     -11.170   9.548  70.161  1.00  0.00    -0.241 F  
ENDBRANCH  12  14
ENDBRANCH   8  12
BRANCH  10  22
HETATM   22  C   UNL     1     -10.368  10.068  67.370  1.00  0.00    -0.238 C  
HETATM   23  H   UNL     1      -8.385  10.612  67.792  1.00  0.00     0.000 HD 
HETATM   24  N   UNL     1      -9.362  10.905  67.791  1.00  0.00    -0.155 N  
HETATM   25  O   UNL     1     -11.550  10.409  67.313  1.00  0.00    -0.240 OA 
BRANCH  24  26
HETATM   26  O   UNL     1      -9.757  12.199  68.223  1.00  0.00    -0.209 OA 
BRANCH  26  27
HETATM   27  C   UNL     1      -8.585  13.031  68.204  1.00  0.00    -0.188 C  
BRANCH  27  28
HETATM   28  C   UNL     1      -7.416  12.327  67.519  1.00  0.00    -0.149 C  
HETATM   29  O   UNL     1      -6.450  13.256  67.035  1.00  0.00    -0.460 OA 
HETATM   30  H   UNL     1      -5.723  12.818  66.608  1.00  0.00     0.000 HD 
ENDBRANCH  27  28
ENDBRANCH  26  27
ENDBRANCH  24  26
ENDBRANCH  10  22
TORSDOF 6
ENDMDL
MODEL      159
REMARK 921   NORMALIZED FREE ENERGY PREDICTED BY IDOCK:   -4.19 KCAL/MOL
REMARK 922        TOTAL FREE ENERGY PREDICTED BY IDOCK:   -6.94 KCAL/MOL
REMARK 923 INTER-LIGAND FREE ENERGY PREDICTED BY IDOCK:   -6.46 KCAL/MOL
REMARK 924 INTRA-LIGAND FREE ENERGY PREDICTED BY IDOCK:   -0.49 KCAL/MOL
REMARK 927      BINDING AFFINITY PREDICTED BY RF-SCORE:    0.00 PKD
ROOT
HETATM    1  C   UNL     1     -14.211  14.281  72.061  1.00  0.00    -0.542 C  
HETATM    2  N   UNL     1     -13.602  13.020  71.723  1.00  0.00    -0.303 NA 
HETATM    3  C   UNL     1     -13.867  11.825  72.328  1.00  0.00     0.345 A  
HETATM    4  N   UNL     1     -13.140  10.856  71.819  1.00  0.00    -0.480 NA 
HETATM    5  C   UNL     1     -12.373  11.451  70.844  1.00  0.00    -0.381 A  
HETATM    6  C   UNL     1     -11.408  10.906  69.988  1.00  0.00    -0.307 A  
HETATM    7  F   UNL     1     -11.183   9.584  70.038  1.00  0.00    -0.240 F  
HETATM    8  C   UNL     1     -10.690  11.725  69.070  1.00  0.00    -0.169 A  
HETATM    9  C   UNL     1     -12.056  13.633  69.791  1.00  0.00    -0.396 A  
HETATM   10  C   UNL     1     -11.097  13.068  68.912  1.00  0.00    -0.307 A  
HETATM   11  C   UNL     1     -12.658  12.809  70.752  1.00  0.00    -0.225 A  
ENDROOT
BRANCH   8  12
HETATM   12  N   UNL     1      -9.651  11.139  68.262  1.00  0.00    -0.178 NA 
HETATM   13  H   UNL     1      -8.908  11.746  67.916  1.00  0.00     0.000 HD 
BRANCH  12  14
HETATM   14  C   UNL     1      -9.605   9.749  67.918  1.00  0.00    -0.138 A  
HETATM   15 BR   UNL     1      -9.104   5.292  66.533  1.00  0.00    -0.134 Br 
HETATM   16  C   UNL     1     -10.521   9.173  67.025  1.00  0.00    -0.311 A  
HETATM   17  C   UNL     1      -8.497   7.583  68.119  1.00  0.00    -0.124 A  
HETATM   18  C   UNL     1      -8.642   8.913  68.502  1.00  0.00    -0.133 A  
HETATM   19  C   UNL     1      -9.348   7.063  67.148  1.00  0.00    -0.143 A  
HETATM   20  C   UNL     1     -10.371   7.844  66.613  1.00  0.00    -0.270 A  
HETATM   21  F   UNL     1      -7.801   9.425  69.414  1.00  0.00    -0.073 F  
ENDBRANCH  12  14
ENDBRANCH   8  12
BRANCH  10  22
HETATM   22  C   UNL     1     -10.668  13.975  67.788  1.00  0.00    -0.243 C  
HETATM   23  H   UNL     1     -10.325  15.582  69.094  1.00  0.00     0.000 HD 
HETATM   24  N   UNL     1     -10.290  15.251  68.130  1.00  0.00    -0.239 N  
HETATM   25  O   UNL     1     -10.592  13.533  66.641  1.00  0.00    -0.276 OA 
BRANCH  24  26
HETATM   26  O   UNL     1      -9.846  16.084  67.068  1.00  0.00    -0.229 OA 
BRANCH  26  27
HETATM   27  C   UNL     1      -9.871  17.438  67.548  1.00  0.00    -0.277 C  
BRANCH  27  28
HETATM   28  C   UNL     1      -9.883  18.436  66.392  1.00  0.00    -0.360 C  
HETATM   29  O   UNL     1      -8.850  19.409  66.523  1.00  0.00    -0.321 OA 
HETATM   30  H   UNL     1      -8.858  20.030  65.804  1.00  0.00     0.000 HD 
ENDBRANCH  27  28
ENDBRANCH  26  27
ENDBRANCH  24  26
ENDBRANCH  10  22
TORSDOF 6
ENDMDL
MODEL      160
REMARK 921   NORMALIZED FREE ENERGY PREDICTED BY IDOCK:   -4.18 KCAL/MOL
REMARK 922        TOTAL FREE ENERGY PREDICTED BY IDOCK:   -6.93 KCAL/MOL
REMARK 923 INTER-LIGAND FREE ENERGY PREDICTED BY IDOCK:   -6.27 KCAL/MOL
REMARK 924 INTRA-LIGAND FREE ENERGY PREDICTED BY IDOCK:   -0.66 KCAL/MOL
REMARK 927      BINDING AFFINITY PREDICTED BY RF-SCORE:    0.00 PKD
ROOT
HETATM    1  C   UNL     1     -10.261  19.263  66.164  1.00  0.00    -0.470 C  
HETATM    2  N   UNL     1      -9.204  18.295  66.310  1.00  0.00    -0.461 NA 
HETATM    3  C   UNL     1      -7.969  18.378  65.732  1.00  0.00     0.158 A  
HETATM    4  N   UNL     1      -7.228  17.335  66.029  1.00  0.00    -0.302 NA 
HETATM    5  C   UNL     1      -8.018  16.546  66.833  1.00  0.00    -0.225 A  
HETATM    6  C   UNL     1      -7.754  15.307  67.432  1.00  0.00    -0.197 A  
HETATM    7  F   UNL     1      -6.532  14.772  67.282  1.00  0.00    -0.176 F  
HETATM    8  C   UNL     1      -8.747  14.633  68.199  1.00  0.00    -0.168 A  
HETATM    9  C   UNL     1     -10.229  16.562  67.873  1.00  0.00    -0.273 A  
HETATM   10  C   UNL     1      -9.944  15.320  68.496  1.00  0.00    -0.222 A  
HETATM   11  C   UNL     1      -9.259  17.136  67.038  1.00  0.00    -0.241 A  
ENDROOT
BRANCH   8  12
HETATM   12  N   UNL     1      -8.461  13.326  68.733  1.00  0.00    -0.363 NA 
HETATM   13  H   UNL     1      -8.240  13.248  69.726  1.00  0.00     0.000 HD 
BRANCH  12  14
HETATM   14  C   UNL     1      -8.470  12.129  67.945  1.00  0.00    -0.163 A  
HETATM   15 BR   UNL     1      -8.820   8.059  65.633  1.00  0.00    -0.083 Br 
HETATM   16  C   UNL     1      -7.463  11.158  68.055  1.00  0.00    -0.094 A  
HETATM   17  C   UNL     1      -9.594  10.722  66.297  1.00  0.00    -0.234 A  
HETATM   18  C   UNL     1      -9.490  11.914  67.007  1.00  0.00    -0.188 A  
HETATM   19  C   UNL     1      -8.644   9.727  66.506  1.00  0.00    -0.127 A  
HETATM   20  C   UNL     1      -7.568   9.945  67.365  1.00  0.00    -0.091 A  
HETATM   21  F   UNL     1     -10.425  12.861  66.832  1.00  0.00    -0.240 F  
ENDBRANCH  12  14
ENDBRANCH   8  12
BRANCH  10  22
HETATM   22  C   UNL     1     -10.952  14.894  69.531  1.00  0.00    -0.273 C  
HETATM   23  H   UNL     1     -11.252  13.034  68.606  1.00  0.00     0.000 HD 
HETATM   24  N   UNL     1     -11.494  13.639  69.390  1.00  0.00    -0.283 N  
HETATM   25  O   UNL     1     -11.189  15.628  70.491  1.00  0.00    -0.302 OA 
BRANCH  24  26
HETATM   26  O   UNL     1     -12.410  13.230  70.397  1.00  0.00    -0.333 OA 
BRANCH  26  27
HETATM   27  C   UNL     1     -12.175  11.835  70.646  1.00  0.00    -0.349 C  
BRANCH  27  28
HETATM   28  C   UNL     1     -12.352  11.007  69.375  1.00  0.00    -0.153 C  
HETATM   29  O   UNL     1     -11.452   9.902  69.334  1.00  0.00    -0.414 OA 
HETATM   30  H   UNL     1     -11.561   9.388  68.544  1.00  0.00     0.000 HD 
ENDBRANCH  27  28
ENDBRANCH  26  27
ENDBRANCH  24  26
ENDBRANCH  10  22
TORSDOF 6
ENDMDL
MODEL      161
REMARK 921   NORMALIZED FREE ENERGY PREDICTED BY IDOCK:   -4.18 KCAL/MOL
REMARK 922        TOTAL FREE ENERGY PREDICTED BY IDOCK:   -6.92 KCAL/MOL
REMARK 923 INTER-LIGAND FREE ENERGY PREDICTED BY IDOCK:   -5.60 KCAL/MOL
REMARK 924 INTRA-LIGAND FREE ENERGY PREDICTED BY IDOCK:   -1.32 KCAL/MOL
REMARK 927      BINDING AFFINITY PREDICTED BY RF-SCORE:    0.00 PKD
ROOT
HETATM    1  C   UNL     1     -12.227  13.789  66.736  1.00  0.00    -0.397 C  
HETATM    2  N   UNL     1     -11.675  12.869  65.774  1.00  0.00    -0.368 NA 
HETATM    3  C   UNL     1     -12.094  12.728  64.483  1.00  0.00    -0.414 A  
HETATM    4  N   UNL     1     -11.416  11.793  63.856  1.00  0.00    -0.397 NA 
HETATM    5  C   UNL     1     -10.520  11.312  64.783  1.00  0.00    -0.323 A  
HETATM    6  C   UNL     1      -9.557  10.300  64.675  1.00  0.00    -0.312 A  
HETATM    7  F   UNL     1      -9.391   9.699  63.487  1.00  0.00    -0.291 F  
HETATM    8  C   UNL     1      -8.755   9.925  65.791  1.00  0.00    -0.141 A  
HETATM    9  C   UNL     1      -9.812  11.724  67.084  1.00  0.00    -0.207 A  
HETATM   10  C   UNL     1      -8.822  10.715  66.960  1.00  0.00    -0.141 A  
HETATM   11  C   UNL     1     -10.652  11.984  65.992  1.00  0.00    -0.268 A  
ENDROOT
BRANCH   8  12
HETATM   12  N   UNL     1      -7.830   8.828  65.660  1.00  0.00    -0.094 NA 
HETATM   13  H   UNL     1      -6.831   9.032  65.694  1.00  0.00     0.000 HD 
BRANCH  12  14
HETATM   14  C   UNL     1      -8.238   7.466  65.487  1.00  0.00    -0.135 A  
HETATM   15 BR   UNL     1      -9.236   2.889  65.185  1.00  0.00    -0.124 Br 
HETATM   16  C   UNL     1      -7.976   6.755  64.305  1.00  0.00    -0.087 A  
HETATM   17  C   UNL     1      -9.272   5.460  66.418  1.00  0.00    -0.150 A  
HETATM   18  C   UNL     1      -8.948   6.811  66.503  1.00  0.00    -0.149 A  
HETATM   19  C   UNL     1      -8.902   4.747  65.281  1.00  0.00    -0.149 A  
HETATM   20  C   UNL     1      -8.274   5.391  64.216  1.00  0.00    -0.129 A  
HETATM   21  F   UNL     1      -9.274   7.490  67.614  1.00  0.00    -0.128 F  
ENDBRANCH  12  14
ENDBRANCH   8  12
BRANCH  10  22
HETATM   22  C   UNL     1      -7.840  10.658  68.101  1.00  0.00    -0.110 C  
HETATM   23  H   UNL     1      -9.351  10.247  69.499  1.00  0.00     0.000 HD 
HETATM   24  N   UNL     1      -8.351  10.379  69.346  1.00  0.00    -0.161 N  
HETATM   25  O   UNL     1      -6.635  10.776  67.876  1.00  0.00    -0.062 OA 
BRANCH  24  26
HETATM   26  O   UNL     1      -7.411  10.283  70.407  1.00  0.00    -0.250 OA 
BRANCH  26  27
HETATM   27  C   UNL     1      -7.406   8.917  70.851  1.00  0.00    -0.097 C  
BRANCH  27  28
HETATM   28  C   UNL     1      -8.806   8.461  71.256  1.00  0.00    -0.167 C  
HETATM   29  O   UNL     1      -9.023   8.602  72.658  1.00  0.00    -0.351 OA 
HETATM   30  H   UNL     1      -9.893   8.318  72.910  1.00  0.00     0.000 HD 
ENDBRANCH  27  28
ENDBRANCH  26  27
ENDBRANCH  24  26
ENDBRANCH  10  22
TORSDOF 6
ENDMDL
MODEL      162
REMARK 921   NORMALIZED FREE ENERGY PREDICTED BY IDOCK:   -4.17 KCAL/MOL
REMARK 922        TOTAL FREE ENERGY PREDICTED BY IDOCK:   -6.91 KCAL/MOL
REMARK 923 INTER-LIGAND FREE ENERGY PREDICTED BY IDOCK:   -5.83 KCAL/MOL
REMARK 924 INTRA-LIGAND FREE ENERGY PREDICTED BY IDOCK:   -1.08 KCAL/MOL
REMARK 927      BINDING AFFINITY PREDICTED BY RF-SCORE:    0.00 PKD
ROOT
HETATM    1  C   UNL     1      -8.063  20.739  67.897  1.00  0.00     0.094 C  
HETATM    2  N   UNL     1      -8.943  19.918  67.105  1.00  0.00    -0.324 NA 
HETATM    3  C   UNL     1      -9.657  20.339  66.020  1.00  0.00    -0.209 A  
HETATM    4  N   UNL     1     -10.388  19.369  65.519  1.00  0.00    -0.436 NA 
HETATM    5  C   UNL     1     -10.134  18.275  66.313  1.00  0.00    -0.380 A  
HETATM    6  C   UNL     1     -10.645  16.972  66.256  1.00  0.00    -0.185 A  
HETATM    7  F   UNL     1     -11.483  16.658  65.256  1.00  0.00    -0.033 F  
HETATM    8  C   UNL     1     -10.275  15.993  67.222  1.00  0.00    -0.277 A  
HETATM    9  C   UNL     1      -8.739  17.631  68.213  1.00  0.00    -0.276 A  
HETATM   10  C   UNL     1      -9.243  16.308  68.134  1.00  0.00    -0.199 A  
HETATM   11  C   UNL     1      -9.215  18.590  67.308  1.00  0.00    -0.276 A  
ENDROOT
BRANCH   8  12
HETATM   12  N   UNL     1     -10.883  14.687  67.174  1.00  0.00    -0.296 NA 
HETATM   13  H   UNL     1     -11.745  14.536  67.697  1.00  0.00     0.000 HD 
BRANCH  12  14
HETATM   14  C   UNL     1     -10.340  13.589  66.431  1.00  0.00    -0.289 A  
HETATM   15 BR   UNL     1      -8.942   9.773  64.082  1.00  0.00    -0.275 Br 
HETATM   16  C   UNL     1      -9.349  12.749  66.960  1.00  0.00    -0.229 A  
HETATM   17  C   UNL     1     -10.353  12.230  64.403  1.00  0.00    -0.358 A  
HETATM   18  C   UNL     1     -10.777  13.345  65.120  1.00  0.00    -0.330 A  
HETATM   19  C   UNL     1      -9.452  11.349  64.993  1.00  0.00    -0.185 A  
HETATM   20  C   UNL     1      -8.933  11.612  66.259  1.00  0.00    -0.194 A  
HETATM   21  F   UNL     1     -11.672  14.177  64.565  1.00  0.00    -0.357 F  
ENDBRANCH  12  14
ENDBRANCH   8  12
BRANCH  10  22
HETATM   22  C   UNL     1      -8.522  15.310  69.001  1.00  0.00    -0.221 C  
HETATM   23  H   UNL     1      -6.764  15.455  67.863  1.00  0.00     0.000 HD 
HETATM   24  N   UNL     1      -7.216  15.032  68.673  1.00  0.00    -0.110 N  
HETATM   25  O   UNL     1      -9.079  14.851  69.999  1.00  0.00     0.176 OA 
BRANCH  24  26
HETATM   26  O   UNL     1      -6.531  14.124  69.524  1.00  0.00    -0.115 OA 
BRANCH  26  27
HETATM   27  C   UNL     1      -6.305  12.921  68.771  1.00  0.00    -0.080 C  
BRANCH  27  28
HETATM   28  C   UNL     1      -6.568  11.678  69.619  1.00  0.00    -0.096 C  
HETATM   29  O   UNL     1      -7.929  11.263  69.540  1.00  0.00    -0.369 OA 
HETATM   30  H   UNL     1      -8.093  10.490  70.068  1.00  0.00     0.000 HD 
ENDBRANCH  27  28
ENDBRANCH  26  27
ENDBRANCH  24  26
ENDBRANCH  10  22
TORSDOF 6
ENDMDL
MODEL      163
REMARK 921   NORMALIZED FREE ENERGY PREDICTED BY IDOCK:   -4.13 KCAL/MOL
REMARK 922        TOTAL FREE ENERGY PREDICTED BY IDOCK:   -6.86 KCAL/MOL
REMARK 923 INTER-LIGAND FREE ENERGY PREDICTED BY IDOCK:   -5.91 KCAL/MOL
REMARK 924 INTRA-LIGAND FREE ENERGY PREDICTED BY IDOCK:   -0.95 KCAL/MOL
REMARK 927      BINDING AFFINITY PREDICTED BY RF-SCORE:    0.00 PKD
ROOT
HETATM    1  C   UNL     1     -10.261  18.552  67.938  1.00  0.00    -0.384 C  
HETATM    2  N   UNL     1      -9.037  17.792  67.977  1.00  0.00    -0.263 NA 
HETATM    3  C   UNL     1      -7.803  18.293  68.272  1.00  0.00    -0.298 A  
HETATM    4  N   UNL     1      -6.877  17.364  68.206  1.00  0.00    -0.184 NA 
HETATM    5  C   UNL     1      -7.543  16.213  67.852  1.00  0.00    -0.134 A  
HETATM    6  C   UNL     1      -7.061  14.918  67.624  1.00  0.00    -0.186 A  
HETATM    7  F   UNL     1      -5.754  14.679  67.816  1.00  0.00    -0.129 F  
HETATM    8  C   UNL     1      -7.933  13.868  67.216  1.00  0.00    -0.129 A  
HETATM    9  C   UNL     1      -9.817  15.428  67.425  1.00  0.00    -0.216 A  
HETATM   10  C   UNL     1      -9.324  14.114  67.220  1.00  0.00    -0.225 A  
HETATM   11  C   UNL     1      -8.905  16.452  67.719  1.00  0.00    -0.189 A  
ENDROOT
BRANCH   8  12
HETATM   12  N   UNL     1      -7.386  12.569  66.916  1.00  0.00    -0.380 NA 
HETATM   13  H   UNL     1      -6.725  12.490  66.144  1.00  0.00     0.000 HD 
BRANCH  12  14
HETATM   14  C   UNL     1      -7.720  11.382  67.646  1.00  0.00    -0.121 A  
HETATM   15 BR   UNL     1      -8.379   7.403  70.046  1.00  0.00    -0.138 Br 
HETATM   16  C   UNL     1      -8.279  10.258  67.021  1.00  0.00    -0.122 A  
HETATM   17  C   UNL     1      -7.732  10.165  69.762  1.00  0.00    -0.176 A  
HETATM   18  C   UNL     1      -7.518  11.331  69.033  1.00  0.00    -0.116 A  
HETATM   19  C   UNL     1      -8.182   9.027  69.100  1.00  0.00    -0.121 A  
HETATM   20  C   UNL     1      -8.475   9.071  67.738  1.00  0.00    -0.117 A  
HETATM   21  F   UNL     1      -7.052  12.420  69.665  1.00  0.00    -0.006 F  
ENDBRANCH  12  14
ENDBRANCH   8  12
BRANCH  10  22
HETATM   22  C   UNL     1     -10.390  13.054  67.122  1.00  0.00    -0.243 C  
HETATM   23  H   UNL     1     -10.783  13.131  69.182  1.00  0.00     0.000 HD 
HETATM   24  N   UNL     1     -11.034  12.712  68.287  1.00  0.00    -0.235 N  
HETATM   25  O   UNL     1     -10.701  12.601  66.020  1.00  0.00    -0.262 OA 
BRANCH  24  26
HETATM   26  O   UNL     1     -12.067  11.744  68.176  1.00  0.00    -0.556 OA 
BRANCH  26  27
HETATM   27  C   UNL     1     -11.543  10.501  68.672  1.00  0.00    -0.171 C  
BRANCH  27  28
HETATM   28  C   UNL     1     -11.876  10.310  70.150  1.00  0.00    -0.263 C  
HETATM   29  O   UNL     1     -13.283  10.270  70.374  1.00  0.00    -0.546 OA 
HETATM   30  H   UNL     1     -13.491  10.152  71.293  1.00  0.00     0.000 HD 
ENDBRANCH  27  28
ENDBRANCH  26  27
ENDBRANCH  24  26
ENDBRANCH  10  22
TORSDOF 6
ENDMDL
MODEL      164
REMARK 921   NORMALIZED FREE ENERGY PREDICTED BY IDOCK:   -4.09 KCAL/MOL
REMARK 922        TOTAL FREE ENERGY PREDICTED BY IDOCK:   -6.81 KCAL/MOL
REMARK 923 INTER-LIGAND FREE ENERGY PREDICTED BY IDOCK:   -5.91 KCAL/MOL
REMARK 924 INTRA-LIGAND FREE ENERGY PREDICTED BY IDOCK:   -0.90 KCAL/MOL
REMARK 927      BINDING AFFINITY PREDICTED BY RF-SCORE:    0.00 PKD
ROOT
HETATM    1  C   UNL     1      -8.963  13.890  67.655  1.00  0.00    -0.192 C  
HETATM    2  N   UNL     1     -10.062  13.281  68.359  1.00  0.00    -0.242 NA 
HETATM    3  C   UNL     1     -11.088  13.953  68.959  1.00  0.00    -0.268 A  
HETATM    4  N   UNL     1     -11.929  13.128  69.542  1.00  0.00    -0.309 NA 
HETATM    5  C   UNL     1     -11.424  11.870  69.307  1.00  0.00    -0.306 A  
HETATM    6  C   UNL     1     -11.896  10.613  69.704  1.00  0.00    -0.286 A  
HETATM    7  F   UNL     1     -13.054  10.549  70.380  1.00  0.00    -0.397 F  
HETATM    8  C   UNL     1     -11.181   9.423  69.387  1.00  0.00     0.008 A  
HETATM    9  C   UNL     1      -9.581  10.789  68.122  1.00  0.00    -0.167 A  
HETATM   10  C   UNL     1     -10.080   9.518  68.508  1.00  0.00    -0.198 A  
HETATM   11  C   UNL     1     -10.260  11.938  68.551  1.00  0.00    -0.215 A  
ENDROOT
BRANCH   8  12
HETATM   12  N   UNL     1     -11.660   8.157  69.880  1.00  0.00    -0.422 NA 
HETATM   13  H   UNL     1     -12.574   7.831  69.566  1.00  0.00     0.000 HD 
BRANCH  12  14
HETATM   14  C   UNL     1     -10.921   7.329  70.787  1.00  0.00    -0.251 A  
HETATM   15 BR   UNL     1      -8.135   4.834  73.623  1.00  0.00    -0.106 Br 
HETATM   16  C   UNL     1     -10.644   5.983  70.509  1.00  0.00    -0.329 A  
HETATM   17  C   UNL     1      -9.670   7.116  72.873  1.00  0.00    -0.200 A  
HETATM   18  C   UNL     1     -10.478   7.853  72.011  1.00  0.00    -0.231 A  
HETATM   19  C   UNL     1      -9.316   5.817  72.522  1.00  0.00    -0.141 A  
HETATM   20  C   UNL     1      -9.813   5.239  71.355  1.00  0.00    -0.232 A  
HETATM   21  F   UNL     1     -10.792   9.117  72.332  1.00  0.00    -0.361 F  
ENDBRANCH  12  14
ENDBRANCH   8  12
BRANCH  10  22
HETATM   22  C   UNL     1      -9.412   8.351  67.828  1.00  0.00    -0.149 C  
HETATM   23  H   UNL     1     -10.321   8.787  65.987  1.00  0.00     0.000 HD 
HETATM   24  N   UNL     1      -9.678   8.176  66.491  1.00  0.00    -0.239 N  
HETATM   25  O   UNL     1      -8.606   7.660  68.452  1.00  0.00    -0.125 OA 
BRANCH  24  26
HETATM   26  O   UNL     1      -9.009   7.100  65.850  1.00  0.00    -0.146 OA 
BRANCH  26  27
HETATM   27  C   UNL     1      -7.856   7.647  65.190  1.00  0.00    -0.124 C  
BRANCH  27  28
HETATM   28  C   UNL     1      -8.192   8.959  64.483  1.00  0.00    -0.166 C  
HETATM   29  O   UNL     1      -7.027   9.748  64.252  1.00  0.00    -0.112 OA 
HETATM   30  H   UNL     1      -7.236  10.564  63.813  1.00  0.00     0.000 HD 
ENDBRANCH  27  28
ENDBRANCH  26  27
ENDBRANCH  24  26
ENDBRANCH  10  22
TORSDOF 6
ENDMDL
MODEL      165
REMARK 921   NORMALIZED FREE ENERGY PREDICTED BY IDOCK:   -4.08 KCAL/MOL
REMARK 922        TOTAL FREE ENERGY PREDICTED BY IDOCK:   -6.79 KCAL/MOL
REMARK 923 INTER-LIGAND FREE ENERGY PREDICTED BY IDOCK:   -5.31 KCAL/MOL
REMARK 924 INTRA-LIGAND FREE ENERGY PREDICTED BY IDOCK:   -1.48 KCAL/MOL
REMARK 927      BINDING AFFINITY PREDICTED BY RF-SCORE:    0.00 PKD
ROOT
HETATM    1  C   UNL     1     -11.689  15.267  67.175  1.00  0.00    -0.053 C  
HETATM    2  N   UNL     1     -11.592  14.057  66.400  1.00  0.00    -0.352 NA 
HETATM    3  C   UNL     1     -12.543  13.588  65.540  1.00  0.00    -0.481 A  
HETATM    4  N   UNL     1     -12.181  12.449  64.996  1.00  0.00    -0.469 NA 
HETATM    5  C   UNL     1     -10.942  12.171  65.526  1.00  0.00    -0.301 A  
HETATM    6  C   UNL     1     -10.088  11.081  65.317  1.00  0.00    -0.275 A  
HETATM    7  F   UNL     1     -10.452  10.146  64.425  1.00  0.00    -0.346 F  
HETATM    8  C   UNL     1      -8.852  10.968  66.015  1.00  0.00    -0.191 A  
HETATM    9  C   UNL     1      -9.288  13.162  67.026  1.00  0.00    -0.238 A  
HETATM   10  C   UNL     1      -8.419  12.067  66.790  1.00  0.00    -0.155 A  
HETATM   11  C   UNL     1     -10.542  13.175  66.399  1.00  0.00    -0.286 A  
ENDROOT
BRANCH   8  12
HETATM   12  N   UNL     1      -8.039   9.794  65.830  1.00  0.00    -0.116 NA 
HETATM   13  H   UNL     1      -7.210   9.869  65.240  1.00  0.00     0.000 HD 
BRANCH  12  14
HETATM   14  C   UNL     1      -8.331   8.525  66.428  1.00  0.00    -0.114 A  
HETATM   15 BR   UNL     1      -8.859   4.270  68.338  1.00  0.00    -0.149 Br 
HETATM   16  C   UNL     1      -8.995   7.507  65.728  1.00  0.00    -0.077 A  
HETATM   17  C   UNL     1      -8.152   7.032  68.352  1.00  0.00    -0.124 A  
HETATM   18  C   UNL     1      -7.980   8.283  67.765  1.00  0.00    -0.122 A  
HETATM   19  C   UNL     1      -8.711   6.004  67.600  1.00  0.00    -0.104 A  
HETATM   20  C   UNL     1      -9.152   6.239  66.298  1.00  0.00    -0.166 A  
HETATM   21  F   UNL     1      -7.409   9.266  68.478  1.00  0.00    -0.072 F  
ENDBRANCH  12  14
ENDBRANCH   8  12
BRANCH  10  22
HETATM   22  C   UNL     1      -7.025  12.246  67.333  1.00  0.00    -0.151 C  
HETATM   23  H   UNL     1      -7.701  13.435  68.926  1.00  0.00     0.000 HD 
HETATM   24  N   UNL     1      -6.897  12.994  68.479  1.00  0.00    -0.088 N  
HETATM   25  O   UNL     1      -6.081  11.664  66.798  1.00  0.00    -0.144 OA 
BRANCH  24  26
HETATM   26  O   UNL     1      -5.584  13.120  69.007  1.00  0.00    -0.068 OA 
BRANCH  26  27
HETATM   27  C   UNL     1      -5.658  12.818  70.410  1.00  0.00    -0.165 C  
BRANCH  27  28
HETATM   28  C   UNL     1      -5.495  11.321  70.663  1.00  0.00    -0.134 C  
HETATM   29  O   UNL     1      -6.741  10.699  70.970  1.00  0.00    -0.371 OA 
HETATM   30  H   UNL     1      -6.640   9.768  71.128  1.00  0.00     0.000 HD 
ENDBRANCH  27  28
ENDBRANCH  26  27
ENDBRANCH  24  26
ENDBRANCH  10  22
TORSDOF 6
ENDMDL
MODEL      166
REMARK 921   NORMALIZED FREE ENERGY PREDICTED BY IDOCK:   -4.08 KCAL/MOL
REMARK 922        TOTAL FREE ENERGY PREDICTED BY IDOCK:   -6.79 KCAL/MOL
REMARK 923 INTER-LIGAND FREE ENERGY PREDICTED BY IDOCK:   -5.43 KCAL/MOL
REMARK 924 INTRA-LIGAND FREE ENERGY PREDICTED BY IDOCK:   -1.35 KCAL/MOL
REMARK 927      BINDING AFFINITY PREDICTED BY RF-SCORE:    0.00 PKD
ROOT
HETATM    1  C   UNL     1     -10.378  11.052  63.452  1.00  0.00    -0.312 C  
HETATM    2  N   UNL     1     -10.567  10.997  64.879  1.00  0.00    -0.288 NA 
HETATM    3  C   UNL     1     -11.421  11.785  65.596  1.00  0.00    -0.186 A  
HETATM    4  N   UNL     1     -11.357  11.519  66.881  1.00  0.00    -0.420 NA 
HETATM    5  C   UNL     1     -10.421  10.517  66.998  1.00  0.00    -0.249 A  
HETATM    6  C   UNL     1      -9.937   9.854  68.133  1.00  0.00    -0.151 A  
HETATM    7  F   UNL     1     -10.468  10.160  69.327  1.00  0.00    -0.178 F  
HETATM    8  C   UNL     1      -8.918   8.865  68.029  1.00  0.00    -0.140 A  
HETATM    9  C   UNL     1      -8.998   9.117  65.589  1.00  0.00    -0.249 A  
HETATM   10  C   UNL     1      -8.531   8.434  66.741  1.00  0.00    -0.114 A  
HETATM   11  C   UNL     1      -9.922  10.160  65.751  1.00  0.00    -0.271 A  
ENDROOT
BRANCH   8  12
HETATM   12  N   UNL     1      -8.393   8.262  69.228  1.00  0.00    -0.121 NA 
HETATM   13  H   UNL     1      -7.410   8.416  69.456  1.00  0.00     0.000 HD 
BRANCH  12  14
HETATM   14  C   UNL     1      -9.176   7.458  70.118  1.00  0.00    -0.151 A  
HETATM   15 BR   UNL     1     -11.362   4.717  73.240  1.00  0.00    -0.332 Br 
HETATM   16  C   UNL     1      -9.702   6.216  69.732  1.00  0.00    -0.187 A  
HETATM   17  C   UNL     1     -10.132   7.127  72.340  1.00  0.00    -0.207 A  
HETATM   18  C   UNL     1      -9.464   7.919  71.411  1.00  0.00    -0.150 A  
HETATM   19  C   UNL     1     -10.547   5.852  71.967  1.00  0.00    -0.221 A  
HETATM   20  C   UNL     1     -10.354   5.399  70.663  1.00  0.00    -0.333 A  
HETATM   21  F   UNL     1      -9.034   9.136  71.781  1.00  0.00    -0.281 F  
ENDBRANCH  12  14
ENDBRANCH   8  12
BRANCH  10  22
HETATM   22  C   UNL     1      -7.713   7.203  66.450  1.00  0.00    -0.100 C  
HETATM   23  H   UNL     1      -9.014   6.590  64.921  1.00  0.00     0.000 HD 
HETATM   24  N   UNL     1      -8.156   6.390  65.434  1.00  0.00    -0.123 N  
HETATM   25  O   UNL     1      -6.658   7.013  67.056  1.00  0.00    -0.051 OA 
BRANCH  24  26
HETATM   26  O   UNL     1      -7.354   5.255  65.139  1.00  0.00    -0.066 OA 
BRANCH  26  27
HETATM   27  C   UNL     1      -8.244   4.150  64.915  1.00  0.00    -0.098 C  
BRANCH  27  28
HETATM   28  C   UNL     1      -9.701   4.606  64.899  1.00  0.00    -0.041 C  
HETATM   29  O   UNL     1     -10.487   3.898  65.855  1.00  0.00    -0.412 OA 
HETATM   30  H   UNL     1     -11.393   4.181  65.845  1.00  0.00     0.000 HD 
ENDBRANCH  27  28
ENDBRANCH  26  27
ENDBRANCH  24  26
ENDBRANCH  10  22
TORSDOF 6
ENDMDL
MODEL      167
REMARK 921   NORMALIZED FREE ENERGY PREDICTED BY IDOCK:   -4.03 KCAL/MOL
REMARK 922        TOTAL FREE ENERGY PREDICTED BY IDOCK:   -6.72 KCAL/MOL
REMARK 923 INTER-LIGAND FREE ENERGY PREDICTED BY IDOCK:   -5.80 KCAL/MOL
REMARK 924 INTRA-LIGAND FREE ENERGY PREDICTED BY IDOCK:   -0.93 KCAL/MOL
REMARK 927      BINDING AFFINITY PREDICTED BY RF-SCORE:    0.00 PKD
ROOT
HETATM    1  C   UNL     1     -10.660  10.375  65.618  1.00  0.00    -0.026 C  
HETATM    2  N   UNL     1     -11.033  11.698  65.185  1.00  0.00    -0.287 NA 
HETATM    3  C   UNL     1     -12.105  11.999  64.395  1.00  0.00    -0.286 A  
HETATM    4  N   UNL     1     -12.175  13.288  64.150  1.00  0.00    -0.550 NA 
HETATM    5  C   UNL     1     -11.104  13.842  64.812  1.00  0.00    -0.377 A  
HETATM    6  C   UNL     1     -10.674  15.173  64.892  1.00  0.00    -0.398 A  
HETATM    7  F   UNL     1     -11.413  16.120  64.292  1.00  0.00    -0.500 F  
HETATM    8  C   UNL     1      -9.493  15.524  65.605  1.00  0.00    -0.236 A  
HETATM    9  C   UNL     1      -9.274  13.177  66.288  1.00  0.00    -0.074 A  
HETATM   10  C   UNL     1      -8.860  14.530  66.383  1.00  0.00    -0.068 A  
HETATM   11  C   UNL     1     -10.380  12.865  65.485  1.00  0.00    -0.291 A  
ENDROOT
BRANCH   8  12
HETATM   12  N   UNL     1      -9.043  16.893  65.598  1.00  0.00    -0.441 NA 
HETATM   13  H   UNL     1      -8.412  17.190  64.853  1.00  0.00     0.000 HD 
BRANCH  12  14
HETATM   14  C   UNL     1      -9.433  17.860  66.581  1.00  0.00    -0.298 A  
HETATM   15 BR   UNL     1     -10.493  21.329  69.560  1.00  0.00     1.786 Br 
HETATM   16  C   UNL     1      -8.820  17.929  67.841  1.00  0.00    -0.260 A  
HETATM   17  C   UNL     1     -10.820  19.774  67.192  1.00  0.00    -0.467 A  
HETATM   18  C   UNL     1     -10.479  18.755  66.308  1.00  0.00    -0.435 A  
HETATM   19  C   UNL     1     -10.121  19.891  68.390  1.00  0.00    -0.437 A  
HETATM   20  C   UNL     1      -9.137  18.964  68.728  1.00  0.00    -0.352 A  
HETATM   21  F   UNL     1     -11.129  18.661  65.138  1.00  0.00    -0.365 F  
ENDBRANCH  12  14
ENDBRANCH   8  12
BRANCH  10  22
HETATM   22  C   UNL     1      -7.805  14.789  67.427  1.00  0.00    -0.200 C  
HETATM   23  H   UNL     1      -8.941  13.870  68.934  1.00  0.00     0.000 HD 
HETATM   24  N   UNL     1      -8.064  14.334  68.698  1.00  0.00    -0.145 N  
HETATM   25  O   UNL     1      -6.738  15.311  67.102  1.00  0.00    -0.276 OA 
BRANCH  24  26
HETATM   26  O   UNL     1      -7.045  14.545  69.664  1.00  0.00    -0.145 OA 
BRANCH  26  27
HETATM   27  C   UNL     1      -6.226  13.365  69.685  1.00  0.00    -0.120 C  
BRANCH  27  28
HETATM   28  C   UNL     1      -5.600  13.148  71.061  1.00  0.00    -0.175 C  
HETATM   29  O   UNL     1      -5.627  11.776  71.444  1.00  0.00    -0.374 OA 
HETATM   30  H   UNL     1      -5.239  11.641  72.300  1.00  0.00     0.000 HD 
ENDBRANCH  27  28
ENDBRANCH  26  27
ENDBRANCH  24  26
ENDBRANCH  10  22
TORSDOF 6
ENDMDL
MODEL      168
REMARK 921   NORMALIZED FREE ENERGY PREDICTED BY IDOCK:   -4.01 KCAL/MOL
REMARK 922        TOTAL FREE ENERGY PREDICTED BY IDOCK:   -6.69 KCAL/MOL
REMARK 923 INTER-LIGAND FREE ENERGY PREDICTED BY IDOCK:   -5.52 KCAL/MOL
REMARK 924 INTRA-LIGAND FREE ENERGY PREDICTED BY IDOCK:   -1.18 KCAL/MOL
REMARK 927      BINDING AFFINITY PREDICTED BY RF-SCORE:    0.00 PKD
ROOT
HETATM    1  C   UNL     1      -9.217  18.032  67.401  1.00  0.00    -0.253 C  
HETATM    2  N   UNL     1      -9.744  17.015  66.527  1.00  0.00    -0.269 NA 
HETATM    3  C   UNL     1     -10.663  17.218  65.539  1.00  0.00    -0.100 A  
HETATM    4  N   UNL     1     -10.967  16.097  64.925  1.00  0.00    -0.584 NA 
HETATM    5  C   UNL     1     -10.210  15.128  65.544  1.00  0.00    -0.376 A  
HETATM    6  C   UNL     1     -10.136  13.749  65.314  1.00  0.00    -0.288 A  
HETATM    7  F   UNL     1     -10.854  13.229  64.306  1.00  0.00    -0.345 F  
HETATM    8  C   UNL     1      -9.307  12.912  66.115  1.00  0.00    -0.092 A  
HETATM    9  C   UNL     1      -8.508  14.917  67.284  1.00  0.00    -0.229 A  
HETATM   10  C   UNL     1      -8.422  13.524  67.029  1.00  0.00    -0.137 A  
HETATM   11  C   UNL     1      -9.419  15.683  66.543  1.00  0.00    -0.274 A  
ENDROOT
BRANCH   8  12
HETATM   12  N   UNL     1      -9.319  11.488  65.897  1.00  0.00    -0.225 NA 
HETATM   13  H   UNL     1      -9.096  11.140  64.965  1.00  0.00     0.000 HD 
BRANCH  12  14
HETATM   14  C   UNL     1      -9.626  10.533  66.920  1.00  0.00    -0.175 A  
HETATM   15 BR   UNL     1     -10.827   7.159  69.955  1.00  0.00    -0.279 Br 
HETATM   16  C   UNL     1     -10.651  10.746  67.854  1.00  0.00    -0.258 A  
HETATM   17  C   UNL     1      -9.202   8.356  67.941  1.00  0.00    -0.144 A  
HETATM   18  C   UNL     1      -8.872   9.355  67.030  1.00  0.00    -0.127 A  
HETATM   19  C   UNL     1     -10.294   8.543  68.782  1.00  0.00    -0.213 A  
HETATM   20  C   UNL     1     -11.008   9.740  68.758  1.00  0.00    -0.185 A  
HETATM   21  F   UNL     1      -7.839   9.161  66.194  1.00  0.00    -0.098 F  
ENDBRANCH  12  14
ENDBRANCH   8  12
BRANCH  10  22
HETATM   22  C   UNL     1      -7.275  12.832  67.719  1.00  0.00    -0.132 C  
HETATM   23  H   UNL     1      -8.267  12.838  69.569  1.00  0.00     0.000 HD 
HETATM   24  N   UNL     1      -7.430  12.559  69.057  1.00  0.00     0.016 N  
HETATM   25  O   UNL     1      -6.298  12.468  67.064  1.00  0.00    -0.190 OA 
BRANCH  24  26
HETATM   26  O   UNL     1      -6.361  11.867  69.688  1.00  0.00    -0.113 OA 
BRANCH  26  27
HETATM   27  C   UNL     1      -6.794  10.513  69.896  1.00  0.00    -0.149 C  
BRANCH  27  28
HETATM   28  C   UNL     1      -5.694   9.673  70.542  1.00  0.00    -0.052 C  
HETATM   29  O   UNL     1      -5.663   9.841  71.957  1.00  0.00    -0.247 OA 
HETATM   30  H   UNL     1      -4.978   9.319  72.358  1.00  0.00     0.000 HD 
ENDBRANCH  27  28
ENDBRANCH  26  27
ENDBRANCH  24  26
ENDBRANCH  10  22
TORSDOF 6
ENDMDL
MODEL      169
REMARK 921   NORMALIZED FREE ENERGY PREDICTED BY IDOCK:   -3.96 KCAL/MOL
REMARK 922        TOTAL FREE ENERGY PREDICTED BY IDOCK:   -6.63 KCAL/MOL
REMARK 923 INTER-LIGAND FREE ENERGY PREDICTED BY IDOCK:   -5.71 KCAL/MOL
REMARK 924 INTRA-LIGAND FREE ENERGY PREDICTED BY IDOCK:   -0.92 KCAL/MOL
REMARK 927      BINDING AFFINITY PREDICTED BY RF-SCORE:    0.00 PKD
ROOT
HETATM    1  C   UNL     1      -8.994  13.019  68.034  1.00  0.00    -0.199 C  
HETATM    2  N   UNL     1     -10.087  12.359  68.700  1.00  0.00    -0.181 NA 
HETATM    3  C   UNL     1     -11.217  12.969  69.163  1.00  0.00    -0.241 A  
HETATM    4  N   UNL     1     -12.023  12.111  69.746  1.00  0.00    -0.317 NA 
HETATM    5  C   UNL     1     -11.385  10.895  69.656  1.00  0.00    -0.292 A  
HETATM    6  C   UNL     1     -11.770   9.630  70.118  1.00  0.00    -0.089 A  
HETATM    7  F   UNL     1     -12.970   9.503  70.707  1.00  0.00    -0.301 F  
HETATM    8  C   UNL     1     -10.924   8.497  69.955  1.00  0.00    -0.196 A  
HETATM    9  C   UNL     1      -9.358   9.916  68.708  1.00  0.00    -0.157 A  
HETATM   10  C   UNL     1      -9.766   8.635  69.158  1.00  0.00    -0.173 A  
HETATM   11  C   UNL     1     -10.174  11.022  68.987  1.00  0.00    -0.200 A  
ENDROOT
BRANCH   8  12
HETATM   12  N   UNL     1     -11.322   7.230  70.514  1.00  0.00    -0.279 NA 
HETATM   13  H   UNL     1     -12.240   6.860  70.265  1.00  0.00     0.000 HD 
BRANCH  12  14
HETATM   14  C   UNL     1     -10.500   6.461  71.400  1.00  0.00    -0.218 A  
HETATM   15 BR   UNL     1      -7.465   4.201  74.177  1.00  0.00    -0.069 Br 
HETATM   16  C   UNL     1     -10.068   5.165  71.078  1.00  0.00    -0.297 A  
HETATM   17  C   UNL     1      -9.246   6.318  73.490  1.00  0.00    -0.137 A  
HETATM   18  C   UNL     1     -10.127   6.988  72.645  1.00  0.00    -0.181 A  
HETATM   19  C   UNL     1      -8.743   5.082  73.098  1.00  0.00    -0.112 A  
HETATM   20  C   UNL     1      -9.163   4.492  71.907  1.00  0.00    -0.178 A  
HETATM   21  F   UNL     1     -10.586   8.196  73.007  1.00  0.00    -0.379 F  
ENDBRANCH  12  14
ENDBRANCH   8  12
BRANCH  10  22
HETATM   22  C   UNL     1      -8.939   7.493  68.629  1.00  0.00    -0.132 C  
HETATM   23  H   UNL     1     -10.373   7.005  67.177  1.00  0.00     0.000 HD 
HETATM   24  N   UNL     1      -9.458   6.788  67.570  1.00  0.00    -0.126 N  
HETATM   25  O   UNL     1      -7.818   7.284  69.094  1.00  0.00    -0.112 OA 
BRANCH  24  26
HETATM   26  O   UNL     1      -8.649   5.741  67.051  1.00  0.00    -0.111 OA 
BRANCH  26  27
HETATM   27  C   UNL     1      -9.186   5.384  65.767  1.00  0.00    -0.138 C  
BRANCH  27  28
HETATM   28  C   UNL     1     -10.530   4.672  65.907  1.00  0.00    -0.268 C  
HETATM   29  O   UNL     1     -10.988   4.157  64.659  1.00  0.00    -0.625 OA 
HETATM   30  H   UNL     1     -11.824   3.714  64.746  1.00  0.00     0.000 HD 
ENDBRANCH  27  28
ENDBRANCH  26  27
ENDBRANCH  24  26
ENDBRANCH  10  22
TORSDOF 6
ENDMDL
MODEL      170
REMARK 921   NORMALIZED FREE ENERGY PREDICTED BY IDOCK:   -3.96 KCAL/MOL
REMARK 922        TOTAL FREE ENERGY PREDICTED BY IDOCK:   -6.63 KCAL/MOL
REMARK 923 INTER-LIGAND FREE ENERGY PREDICTED BY IDOCK:   -5.28 KCAL/MOL
REMARK 924 INTRA-LIGAND FREE ENERGY PREDICTED BY IDOCK:   -1.35 KCAL/MOL
REMARK 927      BINDING AFFINITY PREDICTED BY RF-SCORE:    0.00 PKD
ROOT
HETATM    1  C   UNL     1      -8.896  15.986  68.643  1.00  0.00    -0.210 C  
HETATM    2  N   UNL     1      -9.807  15.240  67.813  1.00  0.00    -0.220 NA 
HETATM    3  C   UNL     1     -11.030  15.676  67.389  1.00  0.00    -0.293 A  
HETATM    4  N   UNL     1     -11.640  14.766  66.664  1.00  0.00    -0.345 NA 
HETATM    5  C   UNL     1     -10.774  13.698  66.618  1.00  0.00    -0.280 A  
HETATM    6  C   UNL     1     -10.905  12.448  65.999  1.00  0.00    -0.273 A  
HETATM    7  F   UNL     1     -12.007  12.207  65.272  1.00  0.00    -0.415 F  
HETATM    8  C   UNL     1      -9.890  11.457  66.119  1.00  0.00    -0.222 A  
HETATM    9  C   UNL     1      -8.536  13.075  67.373  1.00  0.00    -0.200 A  
HETATM   10  C   UNL     1      -8.667  11.821  66.723  1.00  0.00    -0.192 A  
HETATM   11  C   UNL     1      -9.607  13.978  67.319  1.00  0.00    -0.238 A  
ENDROOT
BRANCH   8  12
HETATM   12  N   UNL     1     -10.097  10.157  65.533  1.00  0.00    -0.289 NA 
HETATM   13  H   UNL     1     -10.434  10.109  64.571  1.00  0.00     0.000 HD 
BRANCH  12  14
HETATM   14  C   UNL     1      -9.856   8.927  66.227  1.00  0.00    -0.285 A  
HETATM   15 BR   UNL     1      -9.309   4.698  68.190  1.00  0.00    -0.192 Br 
HETATM   16  C   UNL     1     -10.516   8.606  67.423  1.00  0.00    -0.351 A  
HETATM   17  C   UNL     1      -8.723   6.766  66.317  1.00  0.00    -0.152 A  
HETATM   18  C   UNL     1      -8.913   8.015  65.731  1.00  0.00    -0.102 A  
HETATM   19  C   UNL     1      -9.472   6.426  67.439  1.00  0.00    -0.116 A  
HETATM   20  C   UNL     1     -10.352   7.345  68.008  1.00  0.00    -0.247 A  
HETATM   21  F   UNL     1      -8.216   8.331  64.629  1.00  0.00    -0.140 F  
ENDBRANCH  12  14
ENDBRANCH   8  12
BRANCH  10  22
HETATM   22  C   UNL     1      -7.396  11.015  66.658  1.00  0.00    -0.143 C  
HETATM   23  H   UNL     1      -7.570  10.409  68.660  1.00  0.00     0.000 HD 
HETATM   24  N   UNL     1      -7.027  10.343  67.799  1.00  0.00    -0.082 N  
HETATM   25  O   UNL     1      -6.788  10.917  65.591  1.00  0.00    -0.070 OA 
BRANCH  24  26
HETATM   26  O   UNL     1      -5.851   9.550  67.713  1.00  0.00    -0.044 OA 
BRANCH  26  27
HETATM   27  C   UNL     1      -6.078   8.365  68.493  1.00  0.00    -0.045 C  
BRANCH  27  28
HETATM   28  C   UNL     1      -6.986   8.652  69.687  1.00  0.00    -0.050 C  
HETATM   29  O   UNL     1      -7.541   7.456  70.228  1.00  0.00    -0.085 OA 
HETATM   30  H   UNL     1      -8.106   7.634  70.970  1.00  0.00     0.000 HD 
ENDBRANCH  27  28
ENDBRANCH  26  27
ENDBRANCH  24  26
ENDBRANCH  10  22
TORSDOF 6
ENDMDL
MODEL      171
REMARK 921   NORMALIZED FREE ENERGY PREDICTED BY IDOCK:   -3.94 KCAL/MOL
REMARK 922        TOTAL FREE ENERGY PREDICTED BY IDOCK:   -6.61 KCAL/MOL
REMARK 923 INTER-LIGAND FREE ENERGY PREDICTED BY IDOCK:   -6.20 KCAL/MOL
REMARK 924 INTRA-LIGAND FREE ENERGY PREDICTED BY IDOCK:   -0.41 KCAL/MOL
REMARK 927      BINDING AFFINITY PREDICTED BY RF-SCORE:    0.00 PKD
ROOT
HETATM    1  C   UNL     1     -10.646  11.228  64.265  1.00  0.00    -0.358 C  
HETATM    2  N   UNL     1     -11.118  11.541  65.590  1.00  0.00    -0.246 NA 
HETATM    3  C   UNL     1     -12.067  12.475  65.892  1.00  0.00    -0.352 A  
HETATM    4  N   UNL     1     -12.271  12.551  67.188  1.00  0.00    -0.416 NA 
HETATM    5  C   UNL     1     -11.418  11.627  67.745  1.00  0.00    -0.302 A  
HETATM    6  C   UNL     1     -11.197  11.286  69.085  1.00  0.00    -0.273 A  
HETATM    7  F   UNL     1     -11.943  11.882  70.028  1.00  0.00    -0.344 F  
HETATM    8  C   UNL     1     -10.217  10.317  69.447  1.00  0.00    -0.235 A  
HETATM    9  C   UNL     1      -9.798   9.930  67.060  1.00  0.00    -0.241 A  
HETATM   10  C   UNL     1      -9.598   9.574  68.418  1.00  0.00    -0.152 A  
HETATM   11  C   UNL     1     -10.694  10.966  66.759  1.00  0.00    -0.252 A  
ENDROOT
BRANCH   8  12
HETATM   12  N   UNL     1      -9.966  10.051  70.841  1.00  0.00    -0.205 NA 
HETATM   13  H   UNL     1      -9.482  10.763  71.389  1.00  0.00     0.000 HD 
BRANCH  12  14
HETATM   14  C   UNL     1     -10.361   8.842  71.500  1.00  0.00    -0.303 A  
HETATM   15 BR   UNL     1     -11.352   4.668  73.405  1.00  0.00    -0.313 Br 
HETATM   16  C   UNL     1     -11.566   8.190  71.200  1.00  0.00    -0.306 A  
HETATM   17  C   UNL     1      -9.840   7.065  73.091  1.00  0.00    -0.229 A  
HETATM   18  C   UNL     1      -9.546   8.290  72.500  1.00  0.00    -0.295 A  
HETATM   19  C   UNL     1     -10.986   6.381  72.696  1.00  0.00    -0.253 A  
HETATM   20  C   UNL     1     -11.861   6.945  71.769  1.00  0.00    -0.354 A  
HETATM   21  F   UNL     1      -8.423   8.934  72.856  1.00  0.00    -0.168 F  
ENDBRANCH  12  14
ENDBRANCH   8  12
BRANCH  10  22
HETATM   22  C   UNL     1      -8.788   8.321  68.624  1.00  0.00    -0.133 C  
HETATM   23  H   UNL     1      -8.967   7.766  66.607  1.00  0.00     0.000 HD 
HETATM   24  N   UNL     1      -8.572   7.533  67.518  1.00  0.00    -0.122 N  
HETATM   25  O   UNL     1      -8.286   8.091  69.724  1.00  0.00    -0.119 OA 
BRANCH  24  26
HETATM   26  O   UNL     1      -7.770   6.377  67.714  1.00  0.00    -0.100 OA 
BRANCH  26  27
HETATM   27  C   UNL     1      -7.191   6.040  66.443  1.00  0.00    -0.076 C  
BRANCH  27  28
HETATM   28  C   UNL     1      -5.770   6.587  66.318  1.00  0.00    -0.014 C  
HETATM   29  O   UNL     1      -5.709   7.702  65.433  1.00  0.00    -0.036 OA 
HETATM   30  H   UNL     1      -4.825   8.042  65.355  1.00  0.00     0.000 HD 
ENDBRANCH  27  28
ENDBRANCH  26  27
ENDBRANCH  24  26
ENDBRANCH  10  22
TORSDOF 6
ENDMDL
MODEL      172
REMARK 921   NORMALIZED FREE ENERGY PREDICTED BY IDOCK:   -3.92 KCAL/MOL
REMARK 922        TOTAL FREE ENERGY PREDICTED BY IDOCK:   -6.58 KCAL/MOL
REMARK 923 INTER-LIGAND FREE ENERGY PREDICTED BY IDOCK:   -6.30 KCAL/MOL
REMARK 924 INTRA-LIGAND FREE ENERGY PREDICTED BY IDOCK:   -0.28 KCAL/MOL
REMARK 927      BINDING AFFINITY PREDICTED BY RF-SCORE:    0.00 PKD
ROOT
HETATM    1  C   UNL     1     -10.478   8.507  71.526  1.00  0.00    -0.248 C  
HETATM    2  N   UNL     1     -11.263   9.648  71.129  1.00  0.00    -0.360 NA 
HETATM    3  C   UNL     1     -12.478   9.992  71.647  1.00  0.00    -0.418 A  
HETATM    4  N   UNL     1     -12.961  11.069  71.070  1.00  0.00    -0.326 NA 
HETATM    5  C   UNL     1     -12.015  11.436  70.140  1.00  0.00    -0.377 A  
HETATM    6  C   UNL     1     -12.003  12.499  69.228  1.00  0.00    -0.250 A  
HETATM    7  F   UNL     1     -13.024  13.370  69.247  1.00  0.00     0.176 F  
HETATM    8  C   UNL     1     -10.927  12.669  68.310  1.00  0.00    -0.248 A  
HETATM    9  C   UNL     1      -9.801  10.759  69.361  1.00  0.00    -0.112 A  
HETATM   10  C   UNL     1      -9.785  11.852  68.457  1.00  0.00    -0.173 A  
HETATM   11  C   UNL     1     -10.930  10.568  70.170  1.00  0.00    -0.270 A  
ENDROOT
BRANCH   8  12
HETATM   12  N   UNL     1     -10.990  13.730  67.336  1.00  0.00    -0.280 NA 
HETATM   13  H   UNL     1     -11.466  13.547  66.453  1.00  0.00     0.000 HD 
BRANCH  12  14
HETATM   14  C   UNL     1     -10.418  15.028  67.541  1.00  0.00    -0.256 A  
HETATM   15 BR   UNL     1      -8.959  19.443  68.183  1.00  0.00    -0.387 Br 
HETATM   16  C   UNL     1      -9.718  15.701  66.529  1.00  0.00    -0.286 A  
HETATM   17  C   UNL     1     -10.074  16.951  69.006  1.00  0.00    -0.292 A  
HETATM   18  C   UNL     1     -10.523  15.650  68.794  1.00  0.00    -0.225 A  
HETATM   19  C   UNL     1      -9.482  17.641  67.952  1.00  0.00    -0.276 A  
HETATM   20  C   UNL     1      -9.283  17.017  66.721  1.00  0.00    -0.270 A  
HETATM   21  F   UNL     1     -11.125  14.996  69.799  1.00  0.00    -0.235 F  
ENDBRANCH  12  14
ENDBRANCH   8  12
BRANCH  10  22
HETATM   22  C   UNL     1      -8.456  12.095  67.792  1.00  0.00    -0.160 C  
HETATM   23  H   UNL     1      -7.711  13.136  69.456  1.00  0.00     0.000 HD 
HETATM   24  N   UNL     1      -7.513  12.780  68.521  1.00  0.00    -0.121 N  
HETATM   25  O   UNL     1      -8.231  11.614  66.681  1.00  0.00    -0.170 OA 
BRANCH  24  26
HETATM   26  O   UNL     1      -6.248  12.965  67.902  1.00  0.00    -0.093 OA 
BRANCH  26  27
HETATM   27  C   UNL     1      -5.250  12.495  68.822  1.00  0.00    -0.055 C  
BRANCH  27  28
HETATM   28  C   UNL     1      -5.494  13.034  70.229  1.00  0.00    -0.132 C  
HETATM   29  O   UNL     1      -5.809  11.991  71.148  1.00  0.00    -0.456 OA 
HETATM   30  H   UNL     1      -5.962  12.327  72.023  1.00  0.00     0.000 HD 
ENDBRANCH  27  28
ENDBRANCH  26  27
ENDBRANCH  24  26
ENDBRANCH  10  22
TORSDOF 6
ENDMDL
MODEL      173
REMARK 921   NORMALIZED FREE ENERGY PREDICTED BY IDOCK:   -3.84 KCAL/MOL
REMARK 922        TOTAL FREE ENERGY PREDICTED BY IDOCK:   -6.47 KCAL/MOL
REMARK 923 INTER-LIGAND FREE ENERGY PREDICTED BY IDOCK:   -6.53 KCAL/MOL
REMARK 924 INTRA-LIGAND FREE ENERGY PREDICTED BY IDOCK:    0.06 KCAL/MOL
REMARK 927      BINDING AFFINITY PREDICTED BY RF-SCORE:    0.00 PKD
ROOT
HETATM    1  C   UNL     1     -10.085  19.800  68.186  1.00  0.00    -0.452 C  
HETATM    2  N   UNL     1      -9.703  18.492  67.720  1.00  0.00    -0.295 NA 
HETATM    3  C   UNL     1      -8.750  18.233  66.778  1.00  0.00    -0.272 A  
HETATM    4  N   UNL     1      -8.640  16.945  66.544  1.00  0.00    -0.247 NA 
HETATM    5  C   UNL     1      -9.562  16.347  67.371  1.00  0.00    -0.231 A  
HETATM    6  C   UNL     1      -9.894  14.996  67.536  1.00  0.00    -0.217 A  
HETATM    7  F   UNL     1      -9.200  14.079  66.843  1.00  0.00    -0.219 F  
HETATM    8  C   UNL     1     -10.929  14.594  68.428  1.00  0.00    -0.251 A  
HETATM    9  C   UNL     1     -11.181  16.941  69.102  1.00  0.00     0.081 A  
HETATM   10  C   UNL     1     -11.494  15.569  69.280  1.00  0.00    -0.349 A  
HETATM   11  C   UNL     1     -10.232  17.296  68.133  1.00  0.00    -0.343 A  
ENDROOT
BRANCH   8  12
HETATM   12  N   UNL     1     -11.292  13.202  68.510  1.00  0.00    -0.265 NA 
HETATM   13  H   UNL     1     -12.055  12.938  69.132  1.00  0.00     0.000 HD 
BRANCH  12  14
HETATM   14  C   UNL     1     -10.637  12.168  67.764  1.00  0.00    -0.204 A  
HETATM   15 BR   UNL     1      -8.212   9.093  65.176  1.00  0.00    -0.160 Br 
HETATM   16  C   UNL     1     -11.185  11.641  66.585  1.00  0.00    -0.362 A  
HETATM   17  C   UNL     1      -8.708  10.700  67.479  1.00  0.00    -0.125 A  
HETATM   18  C   UNL     1      -9.426  11.630  68.225  1.00  0.00    -0.191 A  
HETATM   19  C   UNL     1      -9.218  10.275  66.256  1.00  0.00    -0.159 A  
HETATM   20  C   UNL     1     -10.461  10.724  65.814  1.00  0.00    -0.256 A  
HETATM   21  F   UNL     1      -8.918  12.067  69.388  1.00  0.00     0.294 F  
ENDBRANCH  12  14
ENDBRANCH   8  12
BRANCH  10  22
HETATM   22  C   UNL     1     -12.358  15.274  70.478  1.00  0.00    -0.387 C  
HETATM   23  H   UNL     1     -11.192  13.616  71.025  1.00  0.00     0.000 HD 
HETATM   24  N   UNL     1     -11.992  14.204  71.259  1.00  0.00    -0.274 N  
HETATM   25  O   UNL     1     -13.289  16.029  70.760  1.00  0.00    -0.266 OA 
BRANCH  24  26
HETATM   26  O   UNL     1     -12.788  13.962  72.411  1.00  0.00    -0.335 OA 
BRANCH  26  27
HETATM   27  C   UNL     1     -13.598  12.808  72.134  1.00  0.00    -0.451 C  
BRANCH  27  28
HETATM   28  C   UNL     1     -12.741  11.619  71.704  1.00  0.00    -0.270 C  
HETATM   29  O   UNL     1     -13.510  10.423  71.603  1.00  0.00    -0.326 OA 
HETATM   30  H   UNL     1     -12.977   9.683  71.336  1.00  0.00     0.000 HD 
ENDBRANCH  27  28
ENDBRANCH  26  27
ENDBRANCH  24  26
ENDBRANCH  10  22
TORSDOF 6
ENDMDL
MODEL      174
REMARK 921   NORMALIZED FREE ENERGY PREDICTED BY IDOCK:   -3.84 KCAL/MOL
REMARK 922        TOTAL FREE ENERGY PREDICTED BY IDOCK:   -6.47 KCAL/MOL
REMARK 923 INTER-LIGAND FREE ENERGY PREDICTED BY IDOCK:   -5.44 KCAL/MOL
REMARK 924 INTRA-LIGAND FREE ENERGY PREDICTED BY IDOCK:   -1.03 KCAL/MOL
REMARK 927      BINDING AFFINITY PREDICTED BY RF-SCORE:    0.00 PKD
ROOT
HETATM    1  C   UNL     1     -12.011  15.055  64.345  1.00  0.00    -0.353 C  
HETATM    2  N   UNL     1     -11.210  14.946  65.537  1.00  0.00    -0.342 NA 
HETATM    3  C   UNL     1     -11.019  15.936  66.457  1.00  0.00    -0.121 A  
HETATM    4  N   UNL     1     -10.220  15.547  67.425  1.00  0.00    -0.251 NA 
HETATM    5  C   UNL     1      -9.882  14.250  67.117  1.00  0.00    -0.252 A  
HETATM    6  C   UNL     1      -9.048  13.345  67.785  1.00  0.00    -0.202 A  
HETATM    7  F   UNL     1      -8.499  13.723  68.951  1.00  0.00    -0.126 F  
HETATM    8  C   UNL     1      -8.796  12.046  67.257  1.00  0.00    -0.183 A  
HETATM    9  C   UNL     1     -10.374  12.539  65.443  1.00  0.00    -0.305 A  
HETATM   10  C   UNL     1      -9.547  11.621  66.140  1.00  0.00    -0.252 A  
HETATM   11  C   UNL     1     -10.505  13.842  65.943  1.00  0.00    -0.305 A  
ENDROOT
BRANCH   8  12
HETATM   12  N   UNL     1      -7.871  11.174  67.935  1.00  0.00    -0.108 NA 
HETATM   13  H   UNL     1      -6.929  11.081  67.556  1.00  0.00     0.000 HD 
BRANCH  12  14
HETATM   14  C   UNL     1      -8.203  10.430  69.114  1.00  0.00    -0.157 A  
HETATM   15 BR   UNL     1      -9.183   7.625  72.748  1.00  0.00    -0.251 Br 
HETATM   16  C   UNL     1      -9.532  10.204  69.502  1.00  0.00    -0.235 A  
HETATM   17  C   UNL     1      -7.460   9.115  71.032  1.00  0.00    -0.120 A  
HETATM   18  C   UNL     1      -7.184   9.928  69.937  1.00  0.00    -0.129 A  
HETATM   19  C   UNL     1      -8.785   8.812  71.331  1.00  0.00    -0.214 A  
HETATM   20  C   UNL     1      -9.823   9.368  70.585  1.00  0.00    -0.340 A  
HETATM   21  F   UNL     1      -5.905  10.193  69.627  1.00  0.00    -0.039 F  
ENDBRANCH  12  14
ENDBRANCH   8  12
BRANCH  10  22
HETATM   22  C   UNL     1      -9.638  10.200  65.649  1.00  0.00    -0.243 C  
HETATM   23  H   UNL     1      -8.008  10.447  64.350  1.00  0.00     0.000 HD 
HETATM   24  N   UNL     1      -8.709   9.803  64.717  1.00  0.00    -0.177 N  
HETATM   25  O   UNL     1     -10.466   9.434  66.145  1.00  0.00    -0.162 OA 
BRANCH  24  26
HETATM   26  O   UNL     1      -8.777   8.449  64.294  1.00  0.00    -0.008 OA 
BRANCH  26  27
HETATM   27  C   UNL     1      -7.764   8.264  63.292  1.00  0.00    -0.142 C  
BRANCH  27  28
HETATM   28  C   UNL     1      -7.552   6.783  62.986  1.00  0.00    -0.088 C  
HETATM   29  O   UNL     1      -8.569   5.971  63.568  1.00  0.00    -0.336 OA 
HETATM   30  H   UNL     1      -8.436   5.051  63.378  1.00  0.00     0.000 HD 
ENDBRANCH  27  28
ENDBRANCH  26  27
ENDBRANCH  24  26
ENDBRANCH  10  22
TORSDOF 6
ENDMDL
MODEL      175
REMARK 921   NORMALIZED FREE ENERGY PREDICTED BY IDOCK:   -3.83 KCAL/MOL
REMARK 922        TOTAL FREE ENERGY PREDICTED BY IDOCK:   -6.46 KCAL/MOL
REMARK 923 INTER-LIGAND FREE ENERGY PREDICTED BY IDOCK:   -5.12 KCAL/MOL
REMARK 924 INTRA-LIGAND FREE ENERGY PREDICTED BY IDOCK:   -1.34 KCAL/MOL
REMARK 927      BINDING AFFINITY PREDICTED BY RF-SCORE:    0.00 PKD
ROOT
HETATM    1  C   UNL     1      -9.294   7.624  73.968  1.00  0.00    -0.132 C  
HETATM    2  N   UNL     1      -9.685   6.757  72.886  1.00  0.00    -0.152 NA 
HETATM    3  C   UNL     1      -9.892   5.411  72.986  1.00  0.00    -0.162 A  
HETATM    4  N   UNL     1     -10.218   4.887  71.826  1.00  0.00    -0.201 NA 
HETATM    5  C   UNL     1     -10.223   5.941  70.940  1.00  0.00    -0.213 A  
HETATM    6  C   UNL     1     -10.485   5.970  69.565  1.00  0.00    -0.266 A  
HETATM    7  F   UNL     1     -10.851   4.829  68.959  1.00  0.00    -0.038 F  
HETATM    8  C   UNL     1     -10.388   7.181  68.822  1.00  0.00    -0.192 A  
HETATM    9  C   UNL     1      -9.905   8.363  70.919  1.00  0.00    -0.223 A  
HETATM   10  C   UNL     1     -10.197   8.388  69.531  1.00  0.00    -0.207 A  
HETATM   11  C   UNL     1      -9.908   7.130  71.586  1.00  0.00    -0.162 A  
ENDROOT
BRANCH   8  12
HETATM   12  N   UNL     1     -10.590   7.155  67.396  1.00  0.00    -0.275 NA 
HETATM   13  H   UNL     1     -11.485   7.478  67.029  1.00  0.00     0.000 HD 
BRANCH  12  14
HETATM   14  C   UNL     1      -9.602   6.699  66.464  1.00  0.00    -0.140 A  
HETATM   15 BR   UNL     1      -6.180   4.980  63.749  1.00  0.00    -0.022 Br 
HETATM   16  C   UNL     1      -8.565   7.529  66.013  1.00  0.00    -0.164 A  
HETATM   17  C   UNL     1      -8.675   4.880  65.125  1.00  0.00    -0.148 A  
HETATM   18  C   UNL     1      -9.670   5.395  65.950  1.00  0.00    -0.068 A  
HETATM   19  C   UNL     1      -7.597   5.689  64.781  1.00  0.00    -0.084 A  
HETATM   20  C   UNL     1      -7.545   7.016  65.203  1.00  0.00    -0.102 A  
HETATM   21  F   UNL     1     -10.694   4.605  66.311  1.00  0.00    -0.308 F  
ENDBRANCH  12  14
ENDBRANCH   8  12
BRANCH  10  22
HETATM   22  C   UNL     1     -10.378   9.768  68.954  1.00  0.00    -0.210 C  
HETATM   23  H   UNL     1      -8.529   9.695  67.962  1.00  0.00     0.000 HD 
HETATM   24  N   UNL     1      -9.373  10.238  68.143  1.00  0.00    -0.138 N  
HETATM   25  O   UNL     1     -11.427  10.380  69.154  1.00  0.00    -0.238 OA 
BRANCH  24  26
HETATM   26  O   UNL     1      -9.574  11.522  67.569  1.00  0.00    -0.170 OA 
BRANCH  26  27
HETATM   27  C   UNL     1      -9.970  11.322  66.203  1.00  0.00    -0.228 C  
BRANCH  27  28
HETATM   28  C   UNL     1     -11.129  12.240  65.821  1.00  0.00    -0.323 C  
HETATM   29  O   UNL     1     -12.206  12.147  66.751  1.00  0.00    -0.553 OA 
HETATM   30  H   UNL     1     -12.927  12.718  66.513  1.00  0.00     0.000 HD 
ENDBRANCH  27  28
ENDBRANCH  26  27
ENDBRANCH  24  26
ENDBRANCH  10  22
TORSDOF 6
ENDMDL
MODEL      176
REMARK 921   NORMALIZED FREE ENERGY PREDICTED BY IDOCK:   -3.77 KCAL/MOL
REMARK 922        TOTAL FREE ENERGY PREDICTED BY IDOCK:   -6.37 KCAL/MOL
REMARK 923 INTER-LIGAND FREE ENERGY PREDICTED BY IDOCK:   -5.48 KCAL/MOL
REMARK 924 INTRA-LIGAND FREE ENERGY PREDICTED BY IDOCK:   -0.88 KCAL/MOL
REMARK 927      BINDING AFFINITY PREDICTED BY RF-SCORE:    0.00 PKD
ROOT
HETATM    1  C   UNL     1     -10.963   8.068  72.004  1.00  0.00    -0.282 C  
HETATM    2  N   UNL     1     -11.534   9.095  71.171  1.00  0.00    -0.293 NA 
HETATM    3  C   UNL     1     -12.755   9.677  71.355  1.00  0.00    -0.374 A  
HETATM    4  N   UNL     1     -13.011  10.564  70.420  1.00  0.00    -0.246 NA 
HETATM    5  C   UNL     1     -11.907  10.555  69.599  1.00  0.00    -0.234 A  
HETATM    6  C   UNL     1     -11.634  11.287  68.436  1.00  0.00    -0.308 A  
HETATM    7  F   UNL     1     -12.528  12.203  68.032  1.00  0.00    -0.133 F  
HETATM    8  C   UNL     1     -10.429  11.084  67.704  1.00  0.00    -0.204 A  
HETATM    9  C   UNL     1      -9.712   9.497  69.433  1.00  0.00    -0.190 A  
HETATM   10  C   UNL     1      -9.432  10.260  68.270  1.00  0.00    -0.147 A  
HETATM   11  C   UNL     1     -10.957   9.652  70.059  1.00  0.00    -0.260 A  
ENDROOT
BRANCH   8  12
HETATM   12  N   UNL     1     -10.221  11.801  66.472  1.00  0.00    -0.204 NA 
HETATM   13  H   UNL     1      -9.974  11.268  65.638  1.00  0.00     0.000 HD 
BRANCH  12  14
HETATM   14  C   UNL     1     -10.341  13.224  66.354  1.00  0.00    -0.286 A  
HETATM   15 BR   UNL     1     -10.511  17.852  65.585  1.00  0.00     0.078 Br 
HETATM   16  C   UNL     1      -9.562  14.103  67.121  1.00  0.00    -0.244 A  
HETATM   17  C   UNL     1     -11.360  15.150  65.252  1.00  0.00    -0.318 A  
HETATM   18  C   UNL     1     -11.282  13.778  65.473  1.00  0.00    -0.299 A  
HETATM   19  C   UNL     1     -10.498  15.996  65.944  1.00  0.00    -0.359 A  
HETATM   20  C   UNL     1      -9.614  15.483  66.891  1.00  0.00    -0.241 A  
HETATM   21  F   UNL     1     -12.089  12.959  64.781  1.00  0.00    -0.371 F  
ENDBRANCH  12  14
ENDBRANCH   8  12
BRANCH  10  22
HETATM   22  C   UNL     1      -8.004  10.182  67.799  1.00  0.00    -0.102 C  
HETATM   23  H   UNL     1      -7.768  12.266  67.880  1.00  0.00     0.000 HD 
HETATM   24  N   UNL     1      -7.321  11.370  67.686  1.00  0.00    -0.097 N  
HETATM   25  O   UNL     1      -7.480   9.082  67.617  1.00  0.00    -0.084 OA 
BRANCH  24  26
HETATM   26  O   UNL     1      -5.962  11.281  67.283  1.00  0.00    -0.055 OA 
BRANCH  26  27
HETATM   27  C   UNL     1      -5.178  11.959  68.278  1.00  0.00    -0.044 C  
BRANCH  27  28
HETATM   28  C   UNL     1      -5.136  13.464  68.019  1.00  0.00    -0.108 C  
HETATM   29  O   UNL     1      -6.047  14.170  68.857  1.00  0.00    -0.080 OA 
HETATM   30  H   UNL     1      -6.022  15.105  68.696  1.00  0.00     0.000 HD 
ENDBRANCH  27  28
ENDBRANCH  26  27
ENDBRANCH  24  26
ENDBRANCH  10  22
TORSDOF 6
ENDMDL
MODEL      177
REMARK 921   NORMALIZED FREE ENERGY PREDICTED BY IDOCK:   -3.74 KCAL/MOL
REMARK 922        TOTAL FREE ENERGY PREDICTED BY IDOCK:   -6.33 KCAL/MOL
REMARK 923 INTER-LIGAND FREE ENERGY PREDICTED BY IDOCK:   -6.34 KCAL/MOL
REMARK 924 INTRA-LIGAND FREE ENERGY PREDICTED BY IDOCK:    0.01 KCAL/MOL
REMARK 927      BINDING AFFINITY PREDICTED BY RF-SCORE:    0.00 PKD
ROOT
HETATM    1  C   UNL     1     -13.220  10.207  71.062  1.00  0.00    -0.335 C  
HETATM    2  N   UNL     1     -12.791  11.576  70.931  1.00  0.00    -0.255 NA 
HETATM    3  C   UNL     1     -13.325  12.641  71.596  1.00  0.00    -0.223 A  
HETATM    4  N   UNL     1     -12.741  13.767  71.252  1.00  0.00    -0.357 NA 
HETATM    5  C   UNL     1     -11.787  13.412  70.326  1.00  0.00    -0.245 A  
HETATM    6  C   UNL     1     -10.877  14.201  69.611  1.00  0.00    -0.019 A  
HETATM    7  F   UNL     1     -10.839  15.519  69.861  1.00  0.00    -0.220 F  
HETATM    8  C   UNL     1      -9.997  13.623  68.652  1.00  0.00    -0.161 A  
HETATM    9  C   UNL     1     -10.866  11.412  69.266  1.00  0.00    -0.242 A  
HETATM   10  C   UNL     1      -9.932  12.216  68.564  1.00  0.00    -0.180 A  
HETATM   11  C   UNL     1     -11.787  12.038  70.119  1.00  0.00    -0.301 A  
ENDROOT
BRANCH   8  12
HETATM   12  N   UNL     1      -9.130  14.479  67.882  1.00  0.00    -0.185 NA 
HETATM   13  H   UNL     1      -8.264  14.085  67.515  1.00  0.00     0.000 HD 
BRANCH  12  14
HETATM   14  C   UNL     1      -9.419  15.855  67.603  1.00  0.00    -0.219 A  
HETATM   15 BR   UNL     1     -10.126  20.314  66.320  1.00  0.00    -0.362 Br 
HETATM   16  C   UNL     1      -8.785  16.902  68.287  1.00  0.00    -0.235 A  
HETATM   17  C   UNL     1     -10.623  17.507  66.268  1.00  0.00    -0.198 A  
HETATM   18  C   UNL     1     -10.386  16.188  66.642  1.00  0.00    -0.296 A  
HETATM   19  C   UNL     1      -9.899  18.524  66.883  1.00  0.00    -0.334 A  
HETATM   20  C   UNL     1      -8.996  18.232  67.904  1.00  0.00    -0.285 A  
HETATM   21  F   UNL     1     -11.059  15.204  66.025  1.00  0.00    -0.329 F  
ENDBRANCH  12  14
ENDBRANCH   8  12
BRANCH  10  22
HETATM   22  C   UNL     1      -8.857  11.442  67.846  1.00  0.00    -0.149 C  
HETATM   23  H   UNL     1      -9.105  12.557  66.085  1.00  0.00     0.000 HD 
HETATM   24  N   UNL     1      -8.585  11.814  66.551  1.00  0.00    -0.175 N  
HETATM   25  O   UNL     1      -8.216  10.581  68.450  1.00  0.00    -0.111 OA 
BRANCH  24  26
HETATM   26  O   UNL     1      -7.540  11.107  65.897  1.00  0.00    -0.055 OA 
BRANCH  26  27
HETATM   27  C   UNL     1      -8.121  10.434  64.769  1.00  0.00    -0.124 C  
BRANCH  27  28
HETATM   28  C   UNL     1      -9.622  10.227  64.960  1.00  0.00    -0.285 C  
HETATM   29  O   UNL     1      -9.910   8.964  65.555  1.00  0.00    -0.458 OA 
HETATM   30  H   UNL     1     -10.843   8.834  65.673  1.00  0.00     0.000 HD 
ENDBRANCH  27  28
ENDBRANCH  26  27
ENDBRANCH  24  26
ENDBRANCH  10  22
TORSDOF 6
ENDMDL
MODEL      178
REMARK 921   NORMALIZED FREE ENERGY PREDICTED BY IDOCK:   -3.73 KCAL/MOL
REMARK 922        TOTAL FREE ENERGY PREDICTED BY IDOCK:   -6.32 KCAL/MOL
REMARK 923 INTER-LIGAND FREE ENERGY PREDICTED BY IDOCK:   -5.82 KCAL/MOL
REMARK 924 INTRA-LIGAND FREE ENERGY PREDICTED BY IDOCK:   -0.50 KCAL/MOL
REMARK 927      BINDING AFFINITY PREDICTED BY RF-SCORE:    0.00 PKD
ROOT
HETATM    1  C   UNL     1      -5.336   9.895  72.243  1.00  0.00     0.050 C  
HETATM    2  N   UNL     1      -5.907  10.440  71.038  1.00  0.00    -0.253 NA 
HETATM    3  C   UNL     1      -5.339  11.406  70.258  1.00  0.00    -0.104 A  
HETATM    4  N   UNL     1      -6.107  11.715  69.239  1.00  0.00    -0.069 NA 
HETATM    5  C   UNL     1      -7.219  10.915  69.366  1.00  0.00    -0.126 A  
HETATM    6  C   UNL     1      -8.371  10.826  68.574  1.00  0.00    -0.138 A  
HETATM    7  F   UNL     1      -8.442  11.578  67.464  1.00  0.00    -0.130 F  
HETATM    8  C   UNL     1      -9.437   9.949  68.920  1.00  0.00    -0.170 A  
HETATM    9  C   UNL     1      -8.085   9.136  70.800  1.00  0.00    -0.207 A  
HETATM   10  C   UNL     1      -9.237   9.035  69.978  1.00  0.00    -0.193 A  
HETATM   11  C   UNL     1      -7.110  10.092  70.481  1.00  0.00    -0.068 A  
ENDROOT
BRANCH   8  12
HETATM   12  N   UNL     1     -10.637   9.944  68.121  1.00  0.00    -0.213 NA 
HETATM   13  H   UNL     1     -11.215   9.103  68.123  1.00  0.00     0.000 HD 
BRANCH  12  14
HETATM   14  C   UNL     1     -11.062  11.056  67.325  1.00  0.00    -0.294 A  
HETATM   15 BR   UNL     1     -12.028  14.823  64.696  1.00  0.00    -0.406 Br 
HETATM   16  C   UNL     1     -11.702  12.172  67.886  1.00  0.00    -0.403 A  
HETATM   17  C   UNL     1     -11.175  12.139  65.140  1.00  0.00    -0.378 A  
HETATM   18  C   UNL     1     -10.871  11.038  65.935  1.00  0.00    -0.115 A  
HETATM   19  C   UNL     1     -11.706  13.278  65.737  1.00  0.00    -0.359 A  
HETATM   20  C   UNL     1     -11.990  13.295  67.101  1.00  0.00    -0.400 A  
HETATM   21  F   UNL     1     -10.327   9.952  65.366  1.00  0.00    -0.368 F  
ENDBRANCH  12  14
ENDBRANCH   8  12
BRANCH  10  22
HETATM   22  C   UNL     1     -10.115   7.848  70.274  1.00  0.00    -0.196 C  
HETATM   23  H   UNL     1      -9.130   6.652  68.858  1.00  0.00     0.000 HD 
HETATM   24  N   UNL     1      -9.859   6.695  69.570  1.00  0.00    -0.152 N  
HETATM   25  O   UNL     1     -10.955   7.918  71.172  1.00  0.00    -0.233 OA 
BRANCH  24  26
HETATM   26  O   UNL     1     -10.663   5.569  69.889  1.00  0.00    -0.319 OA 
BRANCH  26  27
HETATM   27  C   UNL     1      -9.993   4.406  69.375  1.00  0.00    -0.095 C  
BRANCH  27  28
HETATM   28  C   UNL     1      -9.532   4.624  67.935  1.00  0.00    -0.152 C  
HETATM   29  O   UNL     1      -9.814   3.494  67.113  1.00  0.00    -0.336 OA 
HETATM   30  H   UNL     1      -9.527   3.629  66.218  1.00  0.00     0.000 HD 
ENDBRANCH  27  28
ENDBRANCH  26  27
ENDBRANCH  24  26
ENDBRANCH  10  22
TORSDOF 6
ENDMDL
MODEL      179
REMARK 921   NORMALIZED FREE ENERGY PREDICTED BY IDOCK:   -3.67 KCAL/MOL
REMARK 922        TOTAL FREE ENERGY PREDICTED BY IDOCK:   -6.24 KCAL/MOL
REMARK 923 INTER-LIGAND FREE ENERGY PREDICTED BY IDOCK:   -5.29 KCAL/MOL
REMARK 924 INTRA-LIGAND FREE ENERGY PREDICTED BY IDOCK:   -0.95 KCAL/MOL
REMARK 927      BINDING AFFINITY PREDICTED BY RF-SCORE:    0.00 PKD
ROOT
HETATM    1  C   UNL     1      -9.531   5.815  69.666  1.00  0.00    -0.140 C  
HETATM    2  N   UNL     1      -9.125   6.941  68.864  1.00  0.00    -0.134 NA 
HETATM    3  C   UNL     1      -8.254   6.893  67.814  1.00  0.00    -0.117 A  
HETATM    4  N   UNL     1      -8.062   8.084  67.293  1.00  0.00    -0.120 NA 
HETATM    5  C   UNL     1      -8.844   8.937  68.038  1.00  0.00    -0.133 A  
HETATM    6  C   UNL     1      -9.023  10.323  67.942  1.00  0.00    -0.131 A  
HETATM    7  F   UNL     1      -8.401  10.980  66.951  1.00  0.00    -0.122 F  
HETATM    8  C   UNL     1      -9.857  11.023  68.860  1.00  0.00    -0.177 A  
HETATM    9  C   UNL     1     -10.450   8.869  69.877  1.00  0.00    -0.223 A  
HETATM   10  C   UNL     1     -10.644  10.269  69.758  1.00  0.00    -0.312 A  
HETATM   11  C   UNL     1      -9.536   8.240  69.021  1.00  0.00    -0.155 A  
ENDROOT
BRANCH   8  12
HETATM   12  N   UNL     1      -9.953  12.458  68.775  1.00  0.00    -0.418 NA 
HETATM   13  H   UNL     1      -9.660  13.010  69.581  1.00  0.00     0.000 HD 
BRANCH  12  14
HETATM   14  C   UNL     1     -10.438  13.152  67.620  1.00  0.00    -0.221 A  
HETATM   15 BR   UNL     1     -12.262  15.682  64.112  1.00  0.00     0.342 Br 
HETATM   16  C   UNL     1     -11.410  12.599  66.773  1.00  0.00    -0.373 A  
HETATM   17  C   UNL     1     -10.432  15.164  66.236  1.00  0.00    -0.312 A  
HETATM   18  C   UNL     1      -9.917  14.412  67.288  1.00  0.00    -0.247 A  
HETATM   19  C   UNL     1     -11.475  14.639  65.478  1.00  0.00    -0.341 A  
HETATM   20  C   UNL     1     -11.953  13.354  65.727  1.00  0.00    -0.447 A  
HETATM   21  F   UNL     1      -8.935  14.931  68.041  1.00  0.00    -0.161 F  
ENDBRANCH  12  14
ENDBRANCH   8  12
BRANCH  10  22
HETATM   22  C   UNL     1     -11.792  10.813  70.569  1.00  0.00    -0.356 C  
HETATM   23  H   UNL     1     -12.598   8.900  70.879  1.00  0.00     0.000 HD 
HETATM   24  N   UNL     1     -12.686   9.898  71.070  1.00  0.00    -0.336 N  
HETATM   25  O   UNL     1     -11.845  12.017  70.820  1.00  0.00    -0.186 OA 
BRANCH  24  26
HETATM   26  O   UNL     1     -13.739  10.417  71.870  1.00  0.00    -0.212 OA 
BRANCH  26  27
HETATM   27  C   UNL     1     -14.013   9.449  72.895  1.00  0.00     0.144 C  
BRANCH  27  28
HETATM   28  C   UNL     1     -13.076   8.249  72.789  1.00  0.00     0.127 C  
HETATM   29  O   UNL     1     -13.660   7.186  72.041  1.00  0.00    -0.532 OA 
HETATM   30  H   UNL     1     -13.077   6.439  71.975  1.00  0.00     0.000 HD 
ENDBRANCH  27  28
ENDBRANCH  26  27
ENDBRANCH  24  26
ENDBRANCH  10  22
TORSDOF 6
ENDMDL
MODEL      180
REMARK 921   NORMALIZED FREE ENERGY PREDICTED BY IDOCK:   -3.66 KCAL/MOL
REMARK 922        TOTAL FREE ENERGY PREDICTED BY IDOCK:   -6.23 KCAL/MOL
REMARK 923 INTER-LIGAND FREE ENERGY PREDICTED BY IDOCK:   -5.32 KCAL/MOL
REMARK 924 INTRA-LIGAND FREE ENERGY PREDICTED BY IDOCK:   -0.91 KCAL/MOL
REMARK 927      BINDING AFFINITY PREDICTED BY RF-SCORE:    0.00 PKD
ROOT
HETATM    1  C   UNL     1     -11.161  19.829  67.016  1.00  0.00    -0.070 C  
HETATM    2  N   UNL     1      -9.736  19.630  67.086  1.00  0.00    -0.335 NA 
HETATM    3  C   UNL     1      -8.798  20.622  67.118  1.00  0.00    -0.214 A  
HETATM    4  N   UNL     1      -7.580  20.132  67.159  1.00  0.00    -0.285 NA 
HETATM    5  C   UNL     1      -7.738  18.765  67.153  1.00  0.00    -0.232 A  
HETATM    6  C   UNL     1      -6.784  17.739  67.170  1.00  0.00    -0.167 A  
HETATM    7  F   UNL     1      -5.488  18.074  67.261  1.00  0.00    -0.123 F  
HETATM    8  C   UNL     1      -7.173  16.371  67.111  1.00  0.00    -0.198 A  
HETATM    9  C   UNL     1      -9.518  17.091  67.175  1.00  0.00    -0.245 A  
HETATM   10  C   UNL     1      -8.546  16.059  67.218  1.00  0.00    -0.205 A  
HETATM   11  C   UNL     1      -9.085  18.424  67.125  1.00  0.00    -0.267 A  
ENDROOT
BRANCH   8  12
HETATM   12  N   UNL     1      -6.158  15.349  67.053  1.00  0.00    -0.159 NA 
HETATM   13  H   UNL     1      -5.652  15.220  66.177  1.00  0.00     0.000 HD 
BRANCH  12  14
HETATM   14  C   UNL     1      -5.822  14.503  68.160  1.00  0.00    -0.133 A  
HETATM   15 BR   UNL     1      -5.137  11.580  71.768  1.00  0.00     0.144 Br 
HETATM   16  C   UNL     1      -5.705  14.999  69.467  1.00  0.00    -0.101 A  
HETATM   17  C   UNL     1      -5.340  12.265  69.007  1.00  0.00    -0.055 A  
HETATM   18  C   UNL     1      -5.568  13.140  67.949  1.00  0.00    -0.126 A  
HETATM   19  C   UNL     1      -5.339  12.763  70.307  1.00  0.00    -0.124 A  
HETATM   20  C   UNL     1      -5.500  14.127  70.542  1.00  0.00    -0.127 A  
HETATM   21  F   UNL     1      -5.603  12.655  66.698  1.00  0.00     0.069 F  
ENDBRANCH  12  14
ENDBRANCH   8  12
BRANCH  10  22
HETATM   22  C   UNL     1      -9.104  14.685  67.483  1.00  0.00    -0.190 C  
HETATM   23  H   UNL     1      -9.923  14.545  65.556  1.00  0.00     0.000 HD 
HETATM   24  N   UNL     1      -9.778  14.078  66.451  1.00  0.00    -0.288 N  
HETATM   25  O   UNL     1      -8.873  14.129  68.557  1.00  0.00    -0.187 OA 
BRANCH  24  26
HETATM   26  O   UNL     1     -10.262  12.766  66.697  1.00  0.00    -0.233 OA 
BRANCH  26  27
HETATM   27  C   UNL     1     -11.627  12.887  67.126  1.00  0.00    -0.363 C  
BRANCH  27  28
HETATM   28  C   UNL     1     -11.843  12.223  68.484  1.00  0.00    -0.307 C  
HETATM   29  O   UNL     1     -12.382  10.910  68.351  1.00  0.00    -0.803 OA 
HETATM   30  H   UNL     1     -12.517  10.497  69.195  1.00  0.00     0.000 HD 
ENDBRANCH  27  28
ENDBRANCH  26  27
ENDBRANCH  24  26
ENDBRANCH  10  22
TORSDOF 6
ENDMDL
MODEL      181
REMARK 921   NORMALIZED FREE ENERGY PREDICTED BY IDOCK:   -3.61 KCAL/MOL
REMARK 922        TOTAL FREE ENERGY PREDICTED BY IDOCK:   -6.16 KCAL/MOL
REMARK 923 INTER-LIGAND FREE ENERGY PREDICTED BY IDOCK:   -4.96 KCAL/MOL
REMARK 924 INTRA-LIGAND FREE ENERGY PREDICTED BY IDOCK:   -1.20 KCAL/MOL
REMARK 927      BINDING AFFINITY PREDICTED BY RF-SCORE:    0.00 PKD
ROOT
HETATM    1  C   UNL     1      -8.949   9.763  62.960  1.00  0.00    -0.254 C  
HETATM    2  N   UNL     1      -8.842   9.729  64.396  1.00  0.00    -0.211 NA 
HETATM    3  C   UNL     1      -9.048  10.788  65.231  1.00  0.00    -0.195 A  
HETATM    4  N   UNL     1      -8.855  10.456  66.487  1.00  0.00    -0.137 NA 
HETATM    5  C   UNL     1      -8.509   9.124  66.462  1.00  0.00    -0.123 A  
HETATM    6  C   UNL     1      -8.178   8.251  67.505  1.00  0.00    -0.122 A  
HETATM    7  F   UNL     1      -8.240   8.709  68.766  1.00  0.00    -0.112 F  
HETATM    8  C   UNL     1      -7.801   6.902  67.246  1.00  0.00    -0.110 A  
HETATM    9  C   UNL     1      -8.253   7.293  64.865  1.00  0.00    -0.075 A  
HETATM   10  C   UNL     1      -7.942   6.409  65.930  1.00  0.00    -0.117 A  
HETATM   11  C   UNL     1      -8.511   8.639  65.159  1.00  0.00    -0.179 A  
ENDROOT
BRANCH   8  12
HETATM   12  N   UNL     1      -7.393   6.059  68.340  1.00  0.00    -0.083 NA 
HETATM   13  H   UNL     1      -6.472   5.622  68.296  1.00  0.00     0.000 HD 
BRANCH  12  14
HETATM   14  C   UNL     1      -8.211   5.800  69.488  1.00  0.00    -0.108 A  
HETATM   15 BR   UNL     1     -11.142   5.295  73.119  1.00  0.00    -0.387 Br 
HETATM   16  C   UNL     1      -7.806   6.149  70.785  1.00  0.00    -0.103 A  
HETATM   17  C   UNL     1     -10.315   4.973  70.409  1.00  0.00    -0.297 A  
HETATM   18  C   UNL     1      -9.446   5.151  69.337  1.00  0.00    -0.140 A  
HETATM   19  C   UNL     1      -9.937   5.429  71.669  1.00  0.00    -0.186 A  
HETATM   20  C   UNL     1      -8.680   5.997  71.867  1.00  0.00    -0.137 A  
HETATM   21  F   UNL     1      -9.824   4.743  68.116  1.00  0.00    -0.178 F  
ENDBRANCH  12  14
ENDBRANCH   8  12
BRANCH  10  22
HETATM   22  C   UNL     1      -7.891   4.955  65.541  1.00  0.00    -0.095 C  
HETATM   23  H   UNL     1      -8.865   5.314  63.717  1.00  0.00     0.000 HD 
HETATM   24  N   UNL     1      -8.426   4.619  64.320  1.00  0.00    -0.125 N  
HETATM   25  O   UNL     1      -7.314   4.147  66.270  1.00  0.00    -0.077 OA 
BRANCH  24  26
HETATM   26  O   UNL     1      -8.333   3.253  63.944  1.00  0.00    -0.089 OA 
BRANCH  26  27
HETATM   27  C   UNL     1      -9.645   2.683  64.079  1.00  0.00    -0.139 C  
BRANCH  27  28
HETATM   28  C   UNL     1     -10.723   3.661  63.619  1.00  0.00    -0.251 C  
HETATM   29  O   UNL     1     -11.511   4.130  64.711  1.00  0.00    -0.923 OA 
HETATM   30  H   UNL     1     -12.183   4.738  64.425  1.00  0.00     0.000 HD 
ENDBRANCH  27  28
ENDBRANCH  26  27
ENDBRANCH  24  26
ENDBRANCH  10  22
TORSDOF 6
ENDMDL
MODEL      182
REMARK 921   NORMALIZED FREE ENERGY PREDICTED BY IDOCK:   -3.59 KCAL/MOL
REMARK 922        TOTAL FREE ENERGY PREDICTED BY IDOCK:   -6.13 KCAL/MOL
REMARK 923 INTER-LIGAND FREE ENERGY PREDICTED BY IDOCK:   -5.29 KCAL/MOL
REMARK 924 INTRA-LIGAND FREE ENERGY PREDICTED BY IDOCK:   -0.84 KCAL/MOL
REMARK 927      BINDING AFFINITY PREDICTED BY RF-SCORE:    0.00 PKD
ROOT
HETATM    1  C   UNL     1     -10.445   9.329  66.516  1.00  0.00    -0.134 C  
HETATM    2  N   UNL     1     -10.381  10.735  66.206  1.00  0.00    -0.248 NA 
HETATM    3  C   UNL     1     -11.216  11.397  65.353  1.00  0.00    -0.070 A  
HETATM    4  N   UNL     1     -10.896  12.668  65.256  1.00  0.00    -0.281 NA 
HETATM    5  C   UNL     1      -9.808  12.832  66.082  1.00  0.00    -0.267 A  
HETATM    6  C   UNL     1      -9.042  13.971  66.360  1.00  0.00    -0.093 A  
HETATM    7  F   UNL     1      -9.406  15.138  65.805  1.00  0.00    -0.337 F  
HETATM    8  C   UNL     1      -7.912  13.906  67.224  1.00  0.00    -0.129 A  
HETATM    9  C   UNL     1      -8.439  11.546  67.645  1.00  0.00    -0.135 A  
HETATM   10  C   UNL     1      -7.684  12.710  67.940  1.00  0.00    -0.141 A  
HETATM   11  C   UNL     1      -9.475  11.635  66.704  1.00  0.00    -0.201 A  
ENDROOT
BRANCH   8  12
HETATM   12  N   UNL     1      -7.104  15.083  67.423  1.00  0.00    -0.196 NA 
HETATM   13  H   UNL     1      -6.102  14.963  67.568  1.00  0.00     0.000 HD 
BRANCH  12  14
HETATM   14  C   UNL     1      -7.634  16.415  67.430  1.00  0.00    -0.158 A  
HETATM   15 BR   UNL     1      -9.763  20.597  67.347  1.00  0.00    -0.431 Br 
HETATM   16  C   UNL     1      -7.394  17.316  66.382  1.00  0.00    -0.336 A  
HETATM   17  C   UNL     1      -9.012  18.109  68.520  1.00  0.00    -0.309 A  
HETATM   18  C   UNL     1      -8.394  16.862  68.521  1.00  0.00    -0.257 A  
HETATM   19  C   UNL     1      -8.850  18.943  67.418  1.00  0.00    -0.273 A  
HETATM   20  C   UNL     1      -8.029  18.563  66.358  1.00  0.00    -0.291 A  
HETATM   21  F   UNL     1      -8.578  16.043  69.568  1.00  0.00    -0.247 F  
ENDBRANCH  12  14
ENDBRANCH   8  12
BRANCH  10  22
HETATM   22  C   UNL     1      -6.743  12.566  69.107  1.00  0.00    -0.089 C  
HETATM   23  H   UNL     1      -7.556  10.709  69.651  1.00  0.00     0.000 HD 
HETATM   24  N   UNL     1      -6.852  11.418  69.855  1.00  0.00    -0.040 N  
HETATM   25  O   UNL     1      -5.874  13.417  69.301  1.00  0.00    -0.078 OA 
BRANCH  24  26
HETATM   26  O   UNL     1      -5.931  11.272  70.927  1.00  0.00    -0.348 OA 
BRANCH  26  27
HETATM   27  C   UNL     1      -5.816   9.867  71.202  1.00  0.00    -0.058 C  
BRANCH  27  28
HETATM   28  C   UNL     1      -7.089   9.119  70.812  1.00  0.00    -0.102 C  
HETATM   29  O   UNL     1      -6.802   7.935  70.073  1.00  0.00    -0.044 OA 
HETATM   30  H   UNL     1      -7.593   7.470  69.830  1.00  0.00     0.000 HD 
ENDBRANCH  27  28
ENDBRANCH  26  27
ENDBRANCH  24  26
ENDBRANCH  10  22
TORSDOF 6
ENDMDL
MODEL      183
REMARK 921   NORMALIZED FREE ENERGY PREDICTED BY IDOCK:   -3.58 KCAL/MOL
REMARK 922        TOTAL FREE ENERGY PREDICTED BY IDOCK:   -6.11 KCAL/MOL
REMARK 923 INTER-LIGAND FREE ENERGY PREDICTED BY IDOCK:   -5.13 KCAL/MOL
REMARK 924 INTRA-LIGAND FREE ENERGY PREDICTED BY IDOCK:   -0.98 KCAL/MOL
REMARK 927      BINDING AFFINITY PREDICTED BY RF-SCORE:    0.00 PKD
ROOT
HETATM    1  C   UNL     1      -8.904   6.431  65.913  1.00  0.00    -0.131 C  
HETATM    2  N   UNL     1      -8.107   7.631  65.920  1.00  0.00    -0.115 NA 
HETATM    3  C   UNL     1      -7.008   7.856  65.143  1.00  0.00    -0.059 A  
HETATM    4  N   UNL     1      -6.477   9.033  65.388  1.00  0.00    -0.067 NA 
HETATM    5  C   UNL     1      -7.269   9.591  66.364  1.00  0.00    -0.089 A  
HETATM    6  C   UNL     1      -7.171  10.826  67.019  1.00  0.00    -0.109 A  
HETATM    7  F   UNL     1      -6.200  11.673  66.642  1.00  0.00    -0.127 F  
HETATM    8  C   UNL     1      -8.086  11.190  68.048  1.00  0.00    -0.123 A  
HETATM    9  C   UNL     1      -9.298   9.096  67.633  1.00  0.00    -0.154 A  
HETATM   10  C   UNL     1      -9.205  10.359  68.273  1.00  0.00    -0.149 A  
HETATM   11  C   UNL     1      -8.311   8.737  66.704  1.00  0.00    -0.108 A  
ENDROOT
BRANCH   8  12
HETATM   12  N   UNL     1      -7.903  12.435  68.749  1.00  0.00    -0.306 NA 
HETATM   13  H   UNL     1      -7.802  12.408  69.763  1.00  0.00     0.000 HD 
BRANCH  12  14
HETATM   14  C   UNL     1      -7.856  13.711  68.098  1.00  0.00    -0.143 A  
HETATM   15 BR   UNL     1      -7.779  18.072  66.363  1.00  0.00    -0.303 Br 
HETATM   16  C   UNL     1      -8.913  14.181  67.305  1.00  0.00    -0.221 A  
HETATM   17  C   UNL     1      -6.669  15.805  67.689  1.00  0.00    -0.198 A  
HETATM   18  C   UNL     1      -6.715  14.518  68.218  1.00  0.00    -0.116 A  
HETATM   19  C   UNL     1      -7.776  16.292  67.000  1.00  0.00    -0.214 A  
HETATM   20  C   UNL     1      -8.890  15.481  66.788  1.00  0.00    -0.297 A  
HETATM   21  F   UNL     1      -5.661  14.060  68.912  1.00  0.00    -0.078 F  
ENDBRANCH  12  14
ENDBRANCH   8  12
BRANCH  10  22
HETATM   22  C   UNL     1     -10.415  10.739  69.086  1.00  0.00    -0.218 C  
HETATM   23  H   UNL     1     -11.024  12.172  67.678  1.00  0.00     0.000 HD 
HETATM   24  N   UNL     1     -11.236  11.708  68.561  1.00  0.00    -0.232 N  
HETATM   25  O   UNL     1     -10.669  10.128  70.125  1.00  0.00    -0.273 OA 
BRANCH  24  26
HETATM   26  O   UNL     1     -12.398  12.027  69.314  1.00  0.00    -0.133 OA 
BRANCH  26  27
HETATM   27  C   UNL     1     -12.019  13.018  70.283  1.00  0.00    -0.285 C  
BRANCH  27  28
HETATM   28  C   UNL     1     -11.627  14.331  69.609  1.00  0.00    -0.296 C  
HETATM   29  O   UNL     1     -12.532  14.680  68.565  1.00  0.00    -0.587 OA 
HETATM   30  H   UNL     1     -12.288  15.496  68.145  1.00  0.00     0.000 HD 
ENDBRANCH  27  28
ENDBRANCH  26  27
ENDBRANCH  24  26
ENDBRANCH  10  22
TORSDOF 6
ENDMDL
MODEL      184
REMARK 921   NORMALIZED FREE ENERGY PREDICTED BY IDOCK:   -3.56 KCAL/MOL
REMARK 922        TOTAL FREE ENERGY PREDICTED BY IDOCK:   -6.10 KCAL/MOL
REMARK 923 INTER-LIGAND FREE ENERGY PREDICTED BY IDOCK:   -5.01 KCAL/MOL
REMARK 924 INTRA-LIGAND FREE ENERGY PREDICTED BY IDOCK:   -1.09 KCAL/MOL
REMARK 927      BINDING AFFINITY PREDICTED BY RF-SCORE:    0.00 PKD
ROOT
HETATM    1  C   UNL     1      -9.825   5.001  69.388  1.00  0.00    -0.203 C  
HETATM    2  N   UNL     1      -9.548   5.553  68.086  1.00  0.00    -0.115 NA 
HETATM    3  C   UNL     1      -9.426   4.835  66.932  1.00  0.00    -0.155 A  
HETATM    4  N   UNL     1      -9.150   5.611  65.909  1.00  0.00    -0.158 NA 
HETATM    5  C   UNL     1      -9.091   6.885  66.426  1.00  0.00    -0.159 A  
HETATM    6  C   UNL     1      -8.818   8.108  65.800  1.00  0.00    -0.135 A  
HETATM    7  F   UNL     1      -8.626   8.118  64.471  1.00  0.00    -0.147 F  
HETATM    8  C   UNL     1      -8.761   9.320  66.545  1.00  0.00    -0.132 A  
HETATM    9  C   UNL     1      -9.417   8.057  68.545  1.00  0.00    -0.143 A  
HETATM   10  C   UNL     1      -9.164   9.294  67.898  1.00  0.00    -0.140 A  
HETATM   11  C   UNL     1      -9.355   6.877  67.790  1.00  0.00    -0.120 A  
ENDROOT
BRANCH   8  12
HETATM   12  N   UNL     1      -8.401  10.545  65.877  1.00  0.00    -0.156 NA 
HETATM   13  H   UNL     1      -7.420  10.698  65.644  1.00  0.00     0.000 HD 
BRANCH  12  14
HETATM   14  C   UNL     1      -9.348  11.561  65.522  1.00  0.00    -0.185 A  
HETATM   15 BR   UNL     1     -12.644  14.812  64.752  1.00  0.00     0.075 Br 
HETATM   16  C   UNL     1     -10.367  11.335  64.585  1.00  0.00    -0.373 A  
HETATM   17  C   UNL     1     -10.210  13.820  65.857  1.00  0.00    -0.322 A  
HETATM   18  C   UNL     1      -9.253  12.839  66.094  1.00  0.00    -0.030 A  
HETATM   19  C   UNL     1     -11.276  13.534  65.008  1.00  0.00    -0.322 A  
HETATM   20  C   UNL     1     -11.349  12.305  64.356  1.00  0.00    -0.396 A  
HETATM   21  F   UNL     1      -8.244  13.102  66.939  1.00  0.00    -0.170 F  
ENDBRANCH  12  14
ENDBRANCH   8  12
BRANCH  10  22
HETATM   22  C   UNL     1      -9.461  10.510  68.736  1.00  0.00    -0.180 C  
HETATM   23  H   UNL     1     -11.524  10.118  68.736  1.00  0.00     0.000 HD 
HETATM   24  N   UNL     1     -10.777  10.730  69.067  1.00  0.00    -0.213 N  
HETATM   25  O   UNL     1      -8.535  11.203  69.158  1.00  0.00    -0.089 OA 
BRANCH  24  26
HETATM   26  O   UNL     1     -11.042  11.854  69.894  1.00  0.00    -0.063 OA 
BRANCH  26  27
HETATM   27  C   UNL     1     -12.465  11.925  70.076  1.00  0.00    -0.021 C  
BRANCH  27  28
HETATM   28  C   UNL     1     -12.894  11.231  71.367  1.00  0.00    -0.410 C  
HETATM   29  O   UNL     1     -13.547  12.131  72.259  1.00  0.00    -0.550 OA 
HETATM   30  H   UNL     1     -13.813  11.700  73.062  1.00  0.00     0.000 HD 
ENDBRANCH  27  28
ENDBRANCH  26  27
ENDBRANCH  24  26
ENDBRANCH  10  22
TORSDOF 6
ENDMDL
MODEL      185
REMARK 921   NORMALIZED FREE ENERGY PREDICTED BY IDOCK:   -3.56 KCAL/MOL
REMARK 922        TOTAL FREE ENERGY PREDICTED BY IDOCK:   -6.09 KCAL/MOL
REMARK 923 INTER-LIGAND FREE ENERGY PREDICTED BY IDOCK:   -4.91 KCAL/MOL
REMARK 924 INTRA-LIGAND FREE ENERGY PREDICTED BY IDOCK:   -1.18 KCAL/MOL
REMARK 927      BINDING AFFINITY PREDICTED BY RF-SCORE:    0.00 PKD
ROOT
HETATM    1  C   UNL     1      -9.431   2.617  68.060  1.00  0.00    -0.149 C  
HETATM    2  N   UNL     1      -9.404   3.837  67.294  1.00  0.00    -0.185 NA 
HETATM    3  C   UNL     1      -9.494   3.921  65.935  1.00  0.00    -0.181 A  
HETATM    4  N   UNL     1      -9.416   5.166  65.523  1.00  0.00    -0.125 NA 
HETATM    5  C   UNL     1      -9.271   5.918  66.666  1.00  0.00    -0.140 A  
HETATM    6  C   UNL     1      -9.126   7.301  66.832  1.00  0.00    -0.141 A  
HETATM    7  F   UNL     1      -9.184   8.085  65.744  1.00  0.00    -0.209 F  
HETATM    8  C   UNL     1      -8.940   7.873  68.123  1.00  0.00    -0.131 A  
HETATM    9  C   UNL     1      -9.206   5.634  69.092  1.00  0.00    -0.136 A  
HETATM   10  C   UNL     1      -9.085   7.038  69.253  1.00  0.00    -0.137 A  
HETATM   11  C   UNL     1      -9.277   5.107  67.795  1.00  0.00    -0.115 A  
ENDROOT
BRANCH   8  12
HETATM   12  N   UNL     1      -8.718   9.292  68.243  1.00  0.00    -0.128 NA 
HETATM   13  H   UNL     1      -7.863   9.610  68.699  1.00  0.00     0.000 HD 
BRANCH  12  14
HETATM   14  C   UNL     1      -9.634  10.280  67.757  1.00  0.00    -0.152 A  
HETATM   15 BR   UNL     1     -12.395  13.821  66.387  1.00  0.00    -0.416 Br 
HETATM   16  C   UNL     1     -10.924  10.426  68.290  1.00  0.00    -0.321 A  
HETATM   17  C   UNL     1     -10.081  12.159  66.264  1.00  0.00    -0.247 A  
HETATM   18  C   UNL     1      -9.263  11.120  66.696  1.00  0.00    -0.175 A  
HETATM   19  C   UNL     1     -11.311  12.354  66.884  1.00  0.00    -0.333 A  
HETATM   20  C   UNL     1     -11.746  11.482  67.881  1.00  0.00    -0.317 A  
HETATM   21  F   UNL     1      -8.061  10.953  66.122  1.00  0.00    -0.147 F  
ENDBRANCH  12  14
ENDBRANCH   8  12
BRANCH  10  22
HETATM   22  C   UNL     1      -9.230   7.520  70.673  1.00  0.00    -0.159 C  
HETATM   23  H   UNL     1      -7.856   6.104  71.390  1.00  0.00     0.000 HD 
HETATM   24  N   UNL     1      -8.468   6.885  71.625  1.00  0.00    -0.117 N  
HETATM   25  O   UNL     1      -9.941   8.495  70.917  1.00  0.00    -0.178 OA 
BRANCH  24  26
HETATM   26  O   UNL     1      -8.579   7.377  72.953  1.00  0.00    -0.117 OA 
BRANCH  26  27
HETATM   27  C   UNL     1      -7.287   7.244  73.566  1.00  0.00    -0.079 C  
BRANCH  27  28
HETATM   28  C   UNL     1      -6.222   8.011  72.786  1.00  0.00    -0.071 C  
HETATM   29  O   UNL     1      -6.668   9.315  72.424  1.00  0.00    -0.303 OA 
HETATM   30  H   UNL     1      -6.005   9.792  71.939  1.00  0.00     0.000 HD 
ENDBRANCH  27  28
ENDBRANCH  26  27
ENDBRANCH  24  26
ENDBRANCH  10  22
TORSDOF 6
ENDMDL
MODEL      186
REMARK 921   NORMALIZED FREE ENERGY PREDICTED BY IDOCK:   -3.52 KCAL/MOL
REMARK 922        TOTAL FREE ENERGY PREDICTED BY IDOCK:   -6.03 KCAL/MOL
REMARK 923 INTER-LIGAND FREE ENERGY PREDICTED BY IDOCK:   -5.13 KCAL/MOL
REMARK 924 INTRA-LIGAND FREE ENERGY PREDICTED BY IDOCK:   -0.91 KCAL/MOL
REMARK 927      BINDING AFFINITY PREDICTED BY RF-SCORE:    0.00 PKD
ROOT
HETATM    1  C   UNL     1      -6.988   4.807  65.872  1.00  0.00    -0.063 C  
HETATM    2  N   UNL     1      -8.260   5.162  66.447  1.00  0.00    -0.108 NA 
HETATM    3  C   UNL     1      -9.454   5.167  65.785  1.00  0.00    -0.141 A  
HETATM    4  N   UNL     1     -10.436   5.557  66.567  1.00  0.00    -0.266 NA 
HETATM    5  C   UNL     1      -9.850   5.814  67.785  1.00  0.00    -0.126 A  
HETATM    6  C   UNL     1     -10.410   6.271  68.985  1.00  0.00    -0.206 A  
HETATM    7  F   UNL     1     -11.738   6.457  69.040  1.00  0.00    -0.397 F  
HETATM    8  C   UNL     1      -9.599   6.517  70.129  1.00  0.00    -0.160 A  
HETATM    9  C   UNL     1      -7.665   5.680  68.871  1.00  0.00    -0.089 A  
HETATM   10  C   UNL     1      -8.245   6.120  70.089  1.00  0.00    -0.120 A  
HETATM   11  C   UNL     1      -8.485   5.557  67.740  1.00  0.00    -0.098 A  
ENDROOT
BRANCH   8  12
HETATM   12  N   UNL     1     -10.203   7.060  71.320  1.00  0.00    -0.191 NA 
HETATM   13  H   UNL     1     -10.040   6.581  72.206  1.00  0.00     0.000 HD 
BRANCH  12  14
HETATM   14  C   UNL     1     -11.020   8.237  71.327  1.00  0.00    -0.243 A  
HETATM   15 BR   UNL     1     -13.403  12.269  71.634  1.00  0.00    -0.096 Br 
HETATM   16  C   UNL     1     -12.233   8.296  72.029  1.00  0.00    -0.398 A  
HETATM   17  C   UNL     1     -11.339  10.562  70.655  1.00  0.00    -0.363 A  
HETATM   18  C   UNL     1     -10.630   9.366  70.593  1.00  0.00    -0.290 A  
HETATM   19  C   UNL     1     -12.481  10.630  71.448  1.00  0.00    -0.390 A  
HETATM   20  C   UNL     1     -12.943   9.499  72.119  1.00  0.00    -0.497 A  
HETATM   21  F   UNL     1      -9.510   9.310  69.855  1.00  0.00    -0.156 F  
ENDBRANCH  12  14
ENDBRANCH   8  12
BRANCH  10  22
HETATM   22  C   UNL     1      -7.337   6.017  71.287  1.00  0.00    -0.080 C  
HETATM   23  H   UNL     1      -6.066   7.524  70.566  1.00  0.00     0.000 HD 
HETATM   24  N   UNL     1      -6.261   6.871  71.325  1.00  0.00    -0.037 N  
HETATM   25  O   UNL     1      -7.625   5.252  72.208  1.00  0.00    -0.092 OA 
BRANCH  24  26
HETATM   26  O   UNL     1      -5.437   6.796  72.480  1.00  0.00    -0.036 OA 
BRANCH  26  27
HETATM   27  C   UNL     1      -5.413   8.105  73.073  1.00  0.00    -0.048 C  
BRANCH  27  28
HETATM   28  C   UNL     1      -6.094   8.106  74.440  1.00  0.00    -0.106 C  
HETATM   29  O   UNL     1      -7.400   8.675  74.379  1.00  0.00    -0.330 OA 
HETATM   30  H   UNL     1      -7.823   8.676  75.229  1.00  0.00     0.000 HD 
ENDBRANCH  27  28
ENDBRANCH  26  27
ENDBRANCH  24  26
ENDBRANCH  10  22
TORSDOF 6
ENDMDL
MODEL      187
REMARK 921   NORMALIZED FREE ENERGY PREDICTED BY IDOCK:   -3.52 KCAL/MOL
REMARK 922        TOTAL FREE ENERGY PREDICTED BY IDOCK:   -6.03 KCAL/MOL
REMARK 923 INTER-LIGAND FREE ENERGY PREDICTED BY IDOCK:   -4.98 KCAL/MOL
REMARK 924 INTRA-LIGAND FREE ENERGY PREDICTED BY IDOCK:   -1.05 KCAL/MOL
REMARK 927      BINDING AFFINITY PREDICTED BY RF-SCORE:    0.00 PKD
ROOT
HETATM    1  C   UNL     1      -6.910   6.220  73.345  1.00  0.00    -0.075 C  
HETATM    2  N   UNL     1      -8.024   5.904  72.488  1.00  0.00    -0.102 NA 
HETATM    3  C   UNL     1      -8.752   4.749  72.529  1.00  0.00    -0.116 A  
HETATM    4  N   UNL     1      -9.690   4.739  71.609  1.00  0.00    -0.161 NA 
HETATM    5  C   UNL     1      -9.563   5.939  70.948  1.00  0.00    -0.170 A  
HETATM    6  C   UNL     1     -10.286   6.463  69.869  1.00  0.00    -0.183 A  
HETATM    7  F   UNL     1     -11.319   5.754  69.387  1.00  0.00    -0.437 F  
HETATM    8  C   UNL     1      -9.951   7.725  69.301  1.00  0.00    -0.182 A  
HETATM    9  C   UNL     1      -8.238   7.990  71.039  1.00  0.00    -0.106 A  
HETATM   10  C   UNL     1      -8.991   8.523  69.961  1.00  0.00    -0.142 A  
HETATM   11  C   UNL     1      -8.533   6.697  71.493  1.00  0.00    -0.120 A  
ENDROOT
BRANCH   8  12
HETATM   12  N   UNL     1     -10.669   8.193  68.143  1.00  0.00    -0.433 NA 
HETATM   13  H   UNL     1     -11.688   8.227  68.187  1.00  0.00     0.000 HD 
BRANCH  12  14
HETATM   14  C   UNL     1     -10.031   8.614  66.931  1.00  0.00    -0.260 A  
HETATM   15 BR   UNL     1      -7.581  10.093  63.210  1.00  0.00    -0.126 Br 
HETATM   16  C   UNL     1     -10.349   9.829  66.305  1.00  0.00    -0.235 A  
HETATM   17  C   UNL     1      -8.358   8.205  65.201  1.00  0.00    -0.152 A  
HETATM   18  C   UNL     1      -9.075   7.790  66.318  1.00  0.00    -0.178 A  
HETATM   19  C   UNL     1      -8.614   9.463  64.663  1.00  0.00    -0.187 A  
HETATM   20  C   UNL     1      -9.618  10.269  65.196  1.00  0.00    -0.337 A  
HETATM   21  F   UNL     1      -8.805   6.591  66.859  1.00  0.00    -0.114 F  
ENDBRANCH  12  14
ENDBRANCH   8  12
BRANCH  10  22
HETATM   22  C   UNL     1      -8.744   9.984  69.688  1.00  0.00    -0.194 C  
HETATM   23  H   UNL     1      -6.671   9.697  69.529  1.00  0.00     0.000 HD 
HETATM   24  N   UNL     1      -7.440  10.364  69.475  1.00  0.00    -0.134 N  
HETATM   25  O   UNL     1      -9.698  10.756  69.584  1.00  0.00    -0.080 OA 
BRANCH  24  26
HETATM   26  O   UNL     1      -7.224  11.736  69.175  1.00  0.00    -0.105 OA 
BRANCH  26  27
HETATM   27  C   UNL     1      -5.894  11.851  68.643  1.00  0.00    -0.049 C  
BRANCH  27  28
HETATM   28  C   UNL     1      -5.875  12.710  67.381  1.00  0.00    -0.118 C  
HETATM   29  O   UNL     1      -6.070  11.928  66.206  1.00  0.00    -0.487 OA 
HETATM   30  H   UNL     1      -6.058  12.462  65.421  1.00  0.00     0.000 HD 
ENDBRANCH  27  28
ENDBRANCH  26  27
ENDBRANCH  24  26
ENDBRANCH  10  22
TORSDOF 6
ENDMDL
MODEL      188
REMARK 921   NORMALIZED FREE ENERGY PREDICTED BY IDOCK:   -3.43 KCAL/MOL
REMARK 922        TOTAL FREE ENERGY PREDICTED BY IDOCK:   -5.92 KCAL/MOL
REMARK 923 INTER-LIGAND FREE ENERGY PREDICTED BY IDOCK:   -4.96 KCAL/MOL
REMARK 924 INTRA-LIGAND FREE ENERGY PREDICTED BY IDOCK:   -0.96 KCAL/MOL
REMARK 927      BINDING AFFINITY PREDICTED BY RF-SCORE:    0.00 PKD
ROOT
HETATM    1  C   UNL     1      -8.973   8.257  73.145  1.00  0.00    -0.231 C  
HETATM    2  N   UNL     1      -9.572   7.384  72.168  1.00  0.00    -0.145 NA 
HETATM    3  C   UNL     1     -10.176   6.190  72.438  1.00  0.00    -0.188 A  
HETATM    4  N   UNL     1     -10.607   5.610  71.341  1.00  0.00    -0.248 NA 
HETATM    5  C   UNL     1     -10.266   6.466  70.319  1.00  0.00    -0.195 A  
HETATM    6  C   UNL     1     -10.463   6.356  68.937  1.00  0.00    -0.223 A  
HETATM    7  F   UNL     1     -11.135   5.292  68.470  1.00  0.00    -0.113 F  
HETATM    8  C   UNL     1      -9.981   7.353  68.042  1.00  0.00    -0.164 A  
HETATM    9  C   UNL     1      -9.234   8.655  69.984  1.00  0.00    -0.160 A  
HETATM   10  C   UNL     1      -9.459   8.547  68.588  1.00  0.00    -0.144 A  
HETATM   11  C   UNL     1      -9.629   7.597  70.815  1.00  0.00    -0.166 A  
ENDROOT
BRANCH   8  12
HETATM   12  N   UNL     1     -10.136   7.164  66.622  1.00  0.00    -0.396 NA 
HETATM   13  H   UNL     1     -10.707   7.833  66.105  1.00  0.00     0.000 HD 
BRANCH  12  14
HETATM   14  C   UNL     1      -9.532   6.087  65.896  1.00  0.00     0.029 A  
HETATM   15 BR   UNL     1      -7.605   2.803  63.151  1.00  0.00    -0.063 Br 
HETATM   16  C   UNL     1     -10.224   4.901  65.610  1.00  0.00    -0.155 A  
HETATM   17  C   UNL     1      -7.605   5.210  64.680  1.00  0.00    -0.079 A  
HETATM   18  C   UNL     1      -8.197   6.187  65.475  1.00  0.00    -0.144 A  
HETATM   19  C   UNL     1      -8.350   4.092  64.316  1.00  0.00    -0.098 A  
HETATM   20  C   UNL     1      -9.649   3.923  64.792  1.00  0.00    -0.177 A  
HETATM   21  F   UNL     1      -7.490   7.281  65.799  1.00  0.00    -0.074 F  
ENDBRANCH  12  14
ENDBRANCH   8  12
BRANCH  10  22
HETATM   22  C   UNL     1      -9.198   9.811  67.812  1.00  0.00    -0.130 C  
HETATM   23  H   UNL     1     -11.245  10.255  67.670  1.00  0.00     0.000 HD 
HETATM   24  N   UNL     1     -10.296  10.556  67.452  1.00  0.00    -0.210 N  
HETATM   25  O   UNL     1      -8.040  10.172  67.604  1.00  0.00    -0.109 OA 
BRANCH  24  26
HETATM   26  O   UNL     1     -10.036  11.769  66.759  1.00  0.00    -0.198 OA 
BRANCH  26  27
HETATM   27  C   UNL     1     -10.748  11.710  65.513  1.00  0.00    -0.281 C  
BRANCH  27  28
HETATM   28  C   UNL     1      -9.838  11.255  64.375  1.00  0.00    -0.269 C  
HETATM   29  O   UNL     1      -9.689  12.266  63.380  1.00  0.00    -0.627 OA 
HETATM   30  H   UNL     1      -9.124  11.982  62.672  1.00  0.00     0.000 HD 
ENDBRANCH  27  28
ENDBRANCH  26  27
ENDBRANCH  24  26
ENDBRANCH  10  22
TORSDOF 6
ENDMDL
MODEL      189
REMARK 921   NORMALIZED FREE ENERGY PREDICTED BY IDOCK:   -3.42 KCAL/MOL
REMARK 922        TOTAL FREE ENERGY PREDICTED BY IDOCK:   -5.90 KCAL/MOL
REMARK 923 INTER-LIGAND FREE ENERGY PREDICTED BY IDOCK:   -5.26 KCAL/MOL
REMARK 924 INTRA-LIGAND FREE ENERGY PREDICTED BY IDOCK:   -0.64 KCAL/MOL
REMARK 927      BINDING AFFINITY PREDICTED BY RF-SCORE:    0.00 PKD
ROOT
HETATM    1  C   UNL     1     -11.547   6.685  71.231  1.00  0.00    -0.323 C  
HETATM    2  N   UNL     1     -10.481   7.654  71.239  1.00  0.00    -0.206 NA 
HETATM    3  C   UNL     1      -9.886   8.168  72.354  1.00  0.00    -0.276 A  
HETATM    4  N   UNL     1      -8.962   9.049  72.044  1.00  0.00    -0.351 NA 
HETATM    5  C   UNL     1      -8.961   9.106  70.670  1.00  0.00    -0.244 A  
HETATM    6  C   UNL     1      -8.193   9.883  69.792  1.00  0.00    -0.180 A  
HETATM    7  F   UNL     1      -7.248  10.684  70.309  1.00  0.00    -0.162 F  
HETATM    8  C   UNL     1      -8.392   9.816  68.384  1.00  0.00    -0.110 A  
HETATM    9  C   UNL     1     -10.051   8.047  68.757  1.00  0.00    -0.206 A  
HETATM   10  C   UNL     1      -9.252   8.819  67.875  1.00  0.00    -0.149 A  
HETATM   11  C   UNL     1      -9.896   8.226  70.139  1.00  0.00    -0.184 A  
ENDROOT
BRANCH   8  12
HETATM   12  N   UNL     1      -7.635  10.688  67.521  1.00  0.00    -0.093 NA 
HETATM   13  H   UNL     1      -6.912  10.276  66.932  1.00  0.00     0.000 HD 
BRANCH  12  14
HETATM   14  C   UNL     1      -7.845  12.104  67.446  1.00  0.00    -0.168 A  
HETATM   15 BR   UNL     1      -8.483  16.703  66.757  1.00  0.00    -0.298 Br 
HETATM   16  C   UNL     1      -6.851  13.024  67.811  1.00  0.00    -0.144 A  
HETATM   17  C   UNL     1      -9.296  13.971  66.839  1.00  0.00    -0.266 A  
HETATM   18  C   UNL     1      -9.085  12.608  67.025  1.00  0.00    -0.215 A  
HETATM   19  C   UNL     1      -8.257  14.858  67.102  1.00  0.00    -0.215 A  
HETATM   20  C   UNL     1      -7.042  14.395  67.605  1.00  0.00    -0.202 A  
HETATM   21  F   UNL     1     -10.075  11.749  66.739  1.00  0.00    -0.214 F  
ENDBRANCH  12  14
ENDBRANCH   8  12
BRANCH  10  22
HETATM   22  C   UNL     1      -9.339   8.406  66.429  1.00  0.00    -0.214 C  
HETATM   23  H   UNL     1      -8.428  10.180  65.774  1.00  0.00     0.000 HD 
HETATM   24  N   UNL     1      -8.823   9.280  65.502  1.00  0.00    -0.174 N  
HETATM   25  O   UNL     1      -9.779   7.294  66.136  1.00  0.00    -0.060 OA 
BRANCH  24  26
HETATM   26  O   UNL     1      -8.869   8.862  64.145  1.00  0.00    -0.115 OA 
BRANCH  26  27
HETATM   27  C   UNL     1      -7.521   8.574  63.741  1.00  0.00    -0.118 C  
BRANCH  27  28
HETATM   28  C   UNL     1      -7.226   7.078  63.817  1.00  0.00    -0.067 C  
HETATM   29  O   UNL     1      -8.393   6.296  63.573  1.00  0.00    -0.304 OA 
HETATM   30  H   UNL     1      -8.210   5.366  63.621  1.00  0.00     0.000 HD 
ENDBRANCH  27  28
ENDBRANCH  26  27
ENDBRANCH  24  26
ENDBRANCH  10  22
TORSDOF 6
ENDMDL
MODEL      190
REMARK 921   NORMALIZED FREE ENERGY PREDICTED BY IDOCK:   -3.24 KCAL/MOL
REMARK 922        TOTAL FREE ENERGY PREDICTED BY IDOCK:   -5.66 KCAL/MOL
REMARK 923 INTER-LIGAND FREE ENERGY PREDICTED BY IDOCK:   -5.18 KCAL/MOL
REMARK 924 INTRA-LIGAND FREE ENERGY PREDICTED BY IDOCK:   -0.49 KCAL/MOL
REMARK 927      BINDING AFFINITY PREDICTED BY RF-SCORE:    0.00 PKD
ROOT
HETATM    1  C   UNL     1      -9.523   3.877  69.286  1.00  0.00    -0.186 C  
HETATM    2  N   UNL     1      -8.934   4.984  68.578  1.00  0.00    -0.105 NA 
HETATM    3  C   UNL     1      -8.004   4.884  67.584  1.00  0.00    -0.094 A  
HETATM    4  N   UNL     1      -7.639   6.067  67.145  1.00  0.00    -0.091 NA 
HETATM    5  C   UNL     1      -8.365   6.969  67.887  1.00  0.00    -0.118 A  
HETATM    6  C   UNL     1      -8.374   8.370  67.861  1.00  0.00    -0.131 A  
HETATM    7  F   UNL     1      -7.612   8.996  66.950  1.00  0.00    -0.090 F  
HETATM    8  C   UNL     1      -9.182   9.119  68.763  1.00  0.00    -0.136 A  
HETATM    9  C   UNL     1     -10.092   7.005  69.615  1.00  0.00    -0.194 A  
HETATM   10  C   UNL     1     -10.112   8.422  69.565  1.00  0.00    -0.200 A  
HETATM   11  C   UNL     1      -9.200   6.313  68.783  1.00  0.00    -0.125 A  
ENDROOT
BRANCH   8  12
HETATM   12  N   UNL     1      -9.103  10.558  68.756  1.00  0.00    -0.158 NA 
HETATM   13  H   UNL     1      -8.583  11.017  69.503  1.00  0.00     0.000 HD 
BRANCH  12  14
HETATM   14  C   UNL     1      -9.716  11.379  67.754  1.00  0.00    -0.175 A  
HETATM   15 BR   UNL     1     -11.996  14.218  64.792  1.00  0.00    -0.474 Br 
HETATM   16  C   UNL     1     -10.590  10.851  66.792  1.00  0.00    -0.313 A  
HETATM   17  C   UNL     1     -10.076  13.600  66.807  1.00  0.00    -0.269 A  
HETATM   18  C   UNL     1      -9.425  12.750  67.696  1.00  0.00    -0.190 A  
HETATM   19  C   UNL     1     -11.022  13.070  65.936  1.00  0.00    -0.271 A  
HETATM   20  C   UNL     1     -11.269  11.698  65.909  1.00  0.00    -0.296 A  
HETATM   21  F   UNL     1      -8.536  13.265  68.560  1.00  0.00    -0.168 F  
ENDBRANCH  12  14
ENDBRANCH   8  12
BRANCH  10  22
HETATM   22  C   UNL     1     -11.241   9.059  70.332  1.00  0.00    -0.241 C  
HETATM   23  H   UNL     1     -10.221  10.887  70.494  1.00  0.00     0.000 HD 
HETATM   24  N   UNL     1     -11.078  10.373  70.701  1.00  0.00    -0.285 N  
HETATM   25  O   UNL     1     -12.281   8.428  70.526  1.00  0.00     0.005 OA 
BRANCH  24  26
HETATM   26  O   UNL     1     -12.166  10.977  71.385  1.00  0.00    -0.295 OA 
BRANCH  26  27
HETATM   27  C   UNL     1     -12.712  11.983  70.515  1.00  0.00    -0.001 C  
BRANCH  27  28
HETATM   28  C   UNL     1     -12.038  13.334  70.740  1.00  0.00    -0.226 C  
HETATM   29  O   UNL     1     -12.393  14.277  69.731  1.00  0.00    -0.352 OA 
HETATM   30  H   UNL     1     -11.973  15.117  69.871  1.00  0.00     0.000 HD 
ENDBRANCH  27  28
ENDBRANCH  26  27
ENDBRANCH  24  26
ENDBRANCH  10  22
TORSDOF 6
ENDMDL
MODEL      191
REMARK 921   NORMALIZED FREE ENERGY PREDICTED BY IDOCK:   -3.24 KCAL/MOL
REMARK 922        TOTAL FREE ENERGY PREDICTED BY IDOCK:   -5.65 KCAL/MOL
REMARK 923 INTER-LIGAND FREE ENERGY PREDICTED BY IDOCK:   -4.87 KCAL/MOL
REMARK 924 INTRA-LIGAND FREE ENERGY PREDICTED BY IDOCK:   -0.78 KCAL/MOL
REMARK 927      BINDING AFFINITY PREDICTED BY RF-SCORE:    0.00 PKD
ROOT
HETATM    1  C   UNL     1      -6.972   3.925  64.760  1.00  0.00    -0.050 C  
HETATM    2  N   UNL     1      -8.207   4.447  65.288  1.00  0.00    -0.108 NA 
HETATM    3  C   UNL     1      -9.454   4.174  64.804  1.00  0.00    -0.170 A  
HETATM    4  N   UNL     1     -10.382   4.815  65.477  1.00  0.00    -0.171 NA 
HETATM    5  C   UNL     1      -9.706   5.532  66.437  1.00  0.00    -0.163 A  
HETATM    6  C   UNL     1     -10.182   6.403  67.425  1.00  0.00    -0.178 A  
HETATM    7  F   UNL     1     -11.509   6.569  67.544  1.00  0.00    -0.397 F  
HETATM    8  C   UNL     1      -9.288   7.086  68.298  1.00  0.00    -0.126 A  
HETATM    9  C   UNL     1      -7.429   5.869  67.256  1.00  0.00    -0.081 A  
HETATM   10  C   UNL     1      -7.922   6.731  68.269  1.00  0.00    -0.111 A  
HETATM   11  C   UNL     1      -8.338   5.304  66.350  1.00  0.00    -0.109 A  
ENDROOT
BRANCH   8  12
HETATM   12  N   UNL     1      -9.813   8.032  69.249  1.00  0.00    -0.175 NA 
HETATM   13  H   UNL     1      -9.889   7.745  70.225  1.00  0.00     0.000 HD 
BRANCH  12  14
HETATM   14  C   UNL     1     -10.236   9.356  68.898  1.00  0.00    -0.200 A  
HETATM   15 BR   UNL     1     -12.035  13.530  67.729  1.00  0.00    -0.330 Br 
HETATM   16  C   UNL     1     -10.022   9.891  67.620  1.00  0.00    -0.212 A  
HETATM   17  C   UNL     1     -11.376  11.420  69.530  1.00  0.00    -0.357 A  
HETATM   18  C   UNL     1     -10.858  10.170  69.856  1.00  0.00    -0.299 A  
HETATM   19  C   UNL     1     -11.249  11.884  68.224  1.00  0.00    -0.261 A  
HETATM   20  C   UNL     1     -10.559  11.136  67.272  1.00  0.00    -0.279 A  
HETATM   21  F   UNL     1     -11.009   9.708  71.107  1.00  0.00    -0.350 F  
ENDBRANCH  12  14
ENDBRANCH   8  12
BRANCH  10  22
HETATM   22  C   UNL     1      -6.906   7.114  69.313  1.00  0.00    -0.057 C  
HETATM   23  H   UNL     1      -8.003   6.195  70.849  1.00  0.00     0.000 HD 
HETATM   24  N   UNL     1      -7.156   6.706  70.602  1.00  0.00    -0.067 N  
HETATM   25  O   UNL     1      -5.871   7.691  68.977  1.00  0.00    -0.029 OA 
BRANCH  24  26
HETATM   26  O   UNL     1      -6.170   7.034  71.570  1.00  0.00    -0.037 OA 
BRANCH  26  27
HETATM   27  C   UNL     1      -6.637   8.194  72.279  1.00  0.00    -0.075 C  
BRANCH  27  28
HETATM   28  C   UNL     1      -6.570   7.984  73.790  1.00  0.00    -0.113 C  
HETATM   29  O   UNL     1      -6.607   9.221  74.497  1.00  0.00    -0.366 OA 
HETATM   30  H   UNL     1      -6.565   9.091  75.437  1.00  0.00     0.000 HD 
ENDBRANCH  27  28
ENDBRANCH  26  27
ENDBRANCH  24  26
ENDBRANCH  10  22
TORSDOF 6
ENDMDL
MODEL      192
REMARK 921   NORMALIZED FREE ENERGY PREDICTED BY IDOCK:   -3.16 KCAL/MOL
REMARK 922        TOTAL FREE ENERGY PREDICTED BY IDOCK:   -5.55 KCAL/MOL
REMARK 923 INTER-LIGAND FREE ENERGY PREDICTED BY IDOCK:   -5.12 KCAL/MOL
REMARK 924 INTRA-LIGAND FREE ENERGY PREDICTED BY IDOCK:   -0.43 KCAL/MOL
REMARK 927      BINDING AFFINITY PREDICTED BY RF-SCORE:    0.00 PKD
ROOT
HETATM    1  C   UNL     1      -6.285   4.065  72.034  1.00  0.00    -0.014 C  
HETATM    2  N   UNL     1      -7.667   4.392  71.790  1.00  0.00    -0.077 NA 
HETATM    3  C   UNL     1      -8.740   3.665  72.216  1.00  0.00    -0.092 A  
HETATM    4  N   UNL     1      -9.873   4.201  71.820  1.00  0.00    -0.175 NA 
HETATM    5  C   UNL     1      -9.514   5.323  71.109  1.00  0.00    -0.158 A  
HETATM    6  C   UNL     1     -10.305   6.269  70.445  1.00  0.00    -0.208 A  
HETATM    7  F   UNL     1     -11.640   6.153  70.520  1.00  0.00    -0.396 F  
HETATM    8  C   UNL     1      -9.715   7.344  69.720  1.00  0.00    -0.170 A  
HETATM    9  C   UNL     1      -7.512   6.575  70.482  1.00  0.00    -0.090 A  
HETATM   10  C   UNL     1      -8.321   7.542  69.833  1.00  0.00    -0.133 A  
HETATM   11  C   UNL     1      -8.133   5.475  71.090  1.00  0.00    -0.112 A  
ENDROOT
BRANCH   8  12
HETATM   12  N   UNL     1     -10.561   8.251  68.987  1.00  0.00    -0.342 NA 
HETATM   13  H   UNL     1     -10.684   8.095  67.987  1.00  0.00     0.000 HD 
BRANCH  12  14
HETATM   14  C   UNL     1     -11.238   9.362  69.587  1.00  0.00    -0.074 A  
HETATM   15 BR   UNL     1     -13.059  13.185  71.612  1.00  0.00    -0.388 Br 
HETATM   16  C   UNL     1     -11.768   9.298  70.885  1.00  0.00    -0.360 A  
HETATM   17  C   UNL     1     -11.976  11.685  69.443  1.00  0.00    -0.381 A  
HETATM   18  C   UNL     1     -11.416  10.550  68.863  1.00  0.00    -0.226 A  
HETATM   19  C   UNL     1     -12.393  11.630  70.770  1.00  0.00    -0.358 A  
HETATM   20  C   UNL     1     -12.311  10.438  71.488  1.00  0.00    -0.468 A  
HETATM   21  F   UNL     1     -10.983  10.612  67.594  1.00  0.00    -0.260 F  
ENDBRANCH  12  14
ENDBRANCH   8  12
BRANCH  10  22
HETATM   22  C   UNL     1      -7.586   8.784  69.399  1.00  0.00    -0.088 C  
HETATM   23  H   UNL     1      -7.313   9.423  71.380  1.00  0.00     0.000 HD 
HETATM   24  N   UNL     1      -7.134   9.617  70.395  1.00  0.00    -0.122 N  
HETATM   25  O   UNL     1      -7.346   8.967  68.206  1.00  0.00    -0.081 OA 
BRANCH  24  26
HETATM   26  O   UNL     1      -6.404  10.762  69.977  1.00  0.00    -0.105 OA 
BRANCH  26  27
HETATM   27  C   UNL     1      -7.298  11.579  69.204  1.00  0.00    -0.057 C  
BRANCH  27  28
HETATM   28  C   UNL     1      -6.787  13.015  69.102  1.00  0.00    -0.058 C  
HETATM   29  O   UNL     1      -7.508  13.895  69.960  1.00  0.00    -0.127 OA 
HETATM   30  H   UNL     1      -7.191  14.788  69.896  1.00  0.00     0.000 HD 
ENDBRANCH  27  28
ENDBRANCH  26  27
ENDBRANCH  24  26
ENDBRANCH  10  22
TORSDOF 6
ENDMDL
MODEL      193
REMARK 921   NORMALIZED FREE ENERGY PREDICTED BY IDOCK:   -3.15 KCAL/MOL
REMARK 922        TOTAL FREE ENERGY PREDICTED BY IDOCK:   -5.54 KCAL/MOL
REMARK 923 INTER-LIGAND FREE ENERGY PREDICTED BY IDOCK:   -5.08 KCAL/MOL
REMARK 924 INTRA-LIGAND FREE ENERGY PREDICTED BY IDOCK:   -0.46 KCAL/MOL
REMARK 927      BINDING AFFINITY PREDICTED BY RF-SCORE:    0.00 PKD
ROOT
HETATM    1  C   UNL     1      -6.790   6.848  72.629  1.00  0.00    -0.069 C  
HETATM    2  N   UNL     1      -8.006   6.574  71.906  1.00  0.00    -0.103 NA 
HETATM    3  C   UNL     1      -8.777   5.457  72.048  1.00  0.00    -0.131 A  
HETATM    4  N   UNL     1      -9.811   5.479  71.237  1.00  0.00    -0.169 NA 
HETATM    5  C   UNL     1      -9.702   6.662  70.542  1.00  0.00    -0.176 A  
HETATM    6  C   UNL     1     -10.514   7.205  69.539  1.00  0.00    -0.225 A  
HETATM    7  F   UNL     1     -11.627   6.540  69.188  1.00  0.00    -0.372 F  
HETATM    8  C   UNL     1     -10.186   8.442  68.914  1.00  0.00    -0.210 A  
HETATM    9  C   UNL     1      -8.281   8.648  70.448  1.00  0.00    -0.122 A  
HETATM   10  C   UNL     1      -9.123   9.201  69.450  1.00  0.00    -0.148 A  
HETATM   11  C   UNL     1      -8.584   7.377  70.957  1.00  0.00    -0.134 A  
ENDROOT
BRANCH   8  12
HETATM   12  N   UNL     1     -11.006   8.928  67.833  1.00  0.00    -0.493 NA 
HETATM   13  H   UNL     1     -12.019   8.893  67.942  1.00  0.00     0.000 HD 
BRANCH  12  14
HETATM   14  C   UNL     1     -10.474   9.457  66.612  1.00  0.00    -0.168 A  
HETATM   15 BR   UNL     1      -9.116  11.076  62.421  1.00  0.00    -0.267 Br 
HETATM   16  C   UNL     1      -9.509   8.769  65.861  1.00  0.00    -0.278 A  
HETATM   17  C   UNL     1     -10.480  11.217  64.921  1.00  0.00    -0.375 A  
HETATM   18  C   UNL     1     -10.893  10.714  66.151  1.00  0.00     0.001 A  
HETATM   19  C   UNL     1      -9.608  10.464  64.140  1.00  0.00    -0.322 A  
HETATM   20  C   UNL     1      -9.105   9.253  64.611  1.00  0.00    -0.177 A  
HETATM   21  F   UNL     1     -11.760  11.424  66.889  1.00  0.00    -0.346 F  
ENDBRANCH  12  14
ENDBRANCH   8  12
BRANCH  10  22
HETATM   22  C   UNL     1      -8.840  10.645  69.123  1.00  0.00    -0.122 C  
HETATM   23  H   UNL     1      -6.908  10.204  68.431  1.00  0.00     0.000 HD 
HETATM   24  N   UNL     1      -7.610  10.929  68.579  1.00  0.00    -0.103 N  
HETATM   25  O   UNL     1      -9.724  11.489  69.271  1.00  0.00     0.061 OA 
BRANCH  24  26
HETATM   26  O   UNL     1      -7.371  12.286  68.235  1.00  0.00    -0.092 OA 
BRANCH  26  27
HETATM   27  C   UNL     1      -8.266  12.618  67.161  1.00  0.00    -0.159 C  
BRANCH  27  28
HETATM   28  C   UNL     1      -8.426  14.130  67.020  1.00  0.00    -0.156 C  
HETATM   29  O   UNL     1      -9.765  14.546  67.273  1.00  0.00    -0.225 OA 
HETATM   30  H   UNL     1      -9.865  15.486  67.185  1.00  0.00     0.000 HD 
ENDBRANCH  27  28
ENDBRANCH  26  27
ENDBRANCH  24  26
ENDBRANCH  10  22
TORSDOF 6
ENDMDL
MODEL      194
REMARK 921   NORMALIZED FREE ENERGY PREDICTED BY IDOCK:   -3.14 KCAL/MOL
REMARK 922        TOTAL FREE ENERGY PREDICTED BY IDOCK:   -5.53 KCAL/MOL
REMARK 923 INTER-LIGAND FREE ENERGY PREDICTED BY IDOCK:   -4.60 KCAL/MOL
REMARK 924 INTRA-LIGAND FREE ENERGY PREDICTED BY IDOCK:   -0.93 KCAL/MOL
REMARK 927      BINDING AFFINITY PREDICTED BY RF-SCORE:    0.00 PKD
ROOT
HETATM    1  C   UNL     1      -5.158  13.096  72.222  1.00  0.00    -0.046 C  
HETATM    2  N   UNL     1      -5.489  13.146  70.821  1.00  0.00    -0.164 NA 
HETATM    3  C   UNL     1      -5.214  14.185  69.979  1.00  0.00    -0.091 A  
HETATM    4  N   UNL     1      -5.657  13.951  68.765  1.00  0.00    -0.078 NA 
HETATM    5  C   UNL     1      -6.242  12.707  68.826  1.00  0.00    -0.075 A  
HETATM    6  C   UNL     1      -6.890  11.958  67.835  1.00  0.00    -0.083 A  
HETATM    7  F   UNL     1      -6.936  12.452  66.588  1.00  0.00    -0.035 F  
HETATM    8  C   UNL     1      -7.473  10.693  68.131  1.00  0.00    -0.090 A  
HETATM    9  C   UNL     1      -6.596  10.886  70.416  1.00  0.00     0.033 A  
HETATM   10  C   UNL     1      -7.229  10.124  69.400  1.00  0.00    -0.096 A  
HETATM   11  C   UNL     1      -6.134  12.173  70.104  1.00  0.00    -0.121 A  
ENDROOT
BRANCH   8  12
HETATM   12  N   UNL     1      -8.197   9.989  67.103  1.00  0.00    -0.117 NA 
HETATM   13  H   UNL     1      -7.985   9.003  66.951  1.00  0.00     0.000 HD 
BRANCH  12  14
HETATM   14  C   UNL     1      -9.199  10.600  66.281  1.00  0.00    -0.170 A  
HETATM   15 BR   UNL     1     -12.208  12.950  63.550  1.00  0.00    -0.546 Br 
HETATM   16  C   UNL     1     -10.367  11.158  66.823  1.00  0.00    -0.284 A  
HETATM   17  C   UNL     1      -9.940  11.299  64.063  1.00  0.00    -0.362 A  
HETATM   18  C   UNL     1      -9.044  10.627  64.887  1.00  0.00    -0.204 A  
HETATM   19  C   UNL     1     -11.034  11.941  64.636  1.00  0.00    -0.316 A  
HETATM   20  C   UNL     1     -11.264  11.858  66.008  1.00  0.00    -0.377 A  
HETATM   21  F   UNL     1      -7.970  10.036  64.339  1.00  0.00    -0.130 F  
ENDBRANCH  12  14
ENDBRANCH   8  12
BRANCH  10  22
HETATM   22  C   UNL     1      -7.496   8.688  69.771  1.00  0.00    -0.060 C  
HETATM   23  H   UNL     1      -9.532   9.062  70.118  1.00  0.00     0.000 HD 
HETATM   24  N   UNL     1      -8.791   8.362  70.097  1.00  0.00    -0.138 N  
HETATM   25  O   UNL     1      -6.591   7.858  69.691  1.00  0.00    -0.037 OA 
BRANCH  24  26
HETATM   26  O   UNL     1      -9.041   6.997  70.402  1.00  0.00    -0.155 OA 
BRANCH  26  27
HETATM   27  C   UNL     1      -9.753   6.435  69.288  1.00  0.00    -0.136 C  
BRANCH  27  28
HETATM   28  C   UNL     1     -11.149   5.972  69.701  1.00  0.00    -0.404 C  
HETATM   29  O   UNL     1     -11.470   6.378  71.029  1.00  0.00    -0.313 OA 
HETATM   30  H   UNL     1     -12.338   6.090  71.285  1.00  0.00     0.000 HD 
ENDBRANCH  27  28
ENDBRANCH  26  27
ENDBRANCH  24  26
ENDBRANCH  10  22
TORSDOF 6
ENDMDL
MODEL      195
REMARK 921   NORMALIZED FREE ENERGY PREDICTED BY IDOCK:   -3.08 KCAL/MOL
REMARK 922        TOTAL FREE ENERGY PREDICTED BY IDOCK:   -5.44 KCAL/MOL
REMARK 923 INTER-LIGAND FREE ENERGY PREDICTED BY IDOCK:   -4.87 KCAL/MOL
REMARK 924 INTRA-LIGAND FREE ENERGY PREDICTED BY IDOCK:   -0.56 KCAL/MOL
REMARK 927      BINDING AFFINITY PREDICTED BY RF-SCORE:    0.00 PKD
ROOT
HETATM    1  C   UNL     1      -7.337   4.069  65.175  1.00  0.00    -0.072 C  
HETATM    2  N   UNL     1      -8.505   4.497  65.903  1.00  0.00    -0.114 NA 
HETATM    3  C   UNL     1      -9.742   4.705  65.364  1.00  0.00    -0.162 A  
HETATM    4  N   UNL     1     -10.599   5.114  66.271  1.00  0.00    -0.302 NA 
HETATM    5  C   UNL     1      -9.885   5.171  67.446  1.00  0.00    -0.166 A  
HETATM    6  C   UNL     1     -10.283   5.554  68.733  1.00  0.00    -0.199 A  
HETATM    7  F   UNL     1     -11.570   5.878  68.935  1.00  0.00    -0.328 F  
HETATM    8  C   UNL     1      -9.354   5.583  69.813  1.00  0.00    -0.142 A  
HETATM    9  C   UNL     1      -7.648   4.680  68.297  1.00  0.00    -0.076 A  
HETATM   10  C   UNL     1      -8.065   5.046  69.602  1.00  0.00    -0.078 A  
HETATM   11  C   UNL     1      -8.570   4.771  67.244  1.00  0.00    -0.104 A  
ENDROOT
BRANCH   8  12
HETATM   12  N   UNL     1      -9.785   6.057  71.104  1.00  0.00    -0.175 NA 
HETATM   13  H   UNL     1      -9.566   5.491  71.923  1.00  0.00     0.000 HD 
BRANCH  12  14
HETATM   14  C   UNL     1     -10.505   7.281  71.298  1.00  0.00    -0.201 A  
HETATM   15 BR   UNL     1     -13.107  11.177  71.582  1.00  0.00    -0.441 Br 
HETATM   16  C   UNL     1      -9.964   8.526  70.947  1.00  0.00    -0.237 A  
HETATM   17  C   UNL     1     -12.553   8.411  71.997  1.00  0.00    -0.400 A  
HETATM   18  C   UNL     1     -11.779   7.259  71.884  1.00  0.00    -0.287 A  
HETATM   19  C   UNL     1     -12.037   9.619  71.538  1.00  0.00    -0.401 A  
HETATM   20  C   UNL     1     -10.740   9.688  71.032  1.00  0.00    -0.393 A  
HETATM   21  F   UNL     1     -12.289   6.088  72.295  1.00  0.00    -0.377 F  
ENDBRANCH  12  14
ENDBRANCH   8  12
BRANCH  10  22
HETATM   22  C   UNL     1      -7.078   4.715  70.690  1.00  0.00    -0.041 C  
HETATM   23  H   UNL     1      -8.600   4.398  72.101  1.00  0.00     0.000 HD 
HETATM   24  N   UNL     1      -7.596   4.388  71.921  1.00  0.00    -0.073 N  
HETATM   25  O   UNL     1      -5.875   4.667  70.430  1.00  0.00    -0.015 OA 
BRANCH  24  26
HETATM   26  O   UNL     1      -6.658   4.034  72.927  1.00  0.00    -0.036 OA 
BRANCH  26  27
HETATM   27  C   UNL     1      -7.062   2.762  73.459  1.00  0.00    -0.040 C  
BRANCH  27  28
HETATM   28  C   UNL     1      -6.235   1.625  72.865  1.00  0.00    -0.009 C  
HETATM   29  O   UNL     1      -5.486   2.052  71.730  1.00  0.00    -0.004 OA 
HETATM   30  H   UNL     1      -4.972   1.345  71.360  1.00  0.00     0.000 HD 
ENDBRANCH  27  28
ENDBRANCH  26  27
ENDBRANCH  24  26
ENDBRANCH  10  22
TORSDOF 6
ENDMDL
MODEL      196
REMARK 921   NORMALIZED FREE ENERGY PREDICTED BY IDOCK:   -3.07 KCAL/MOL
REMARK 922        TOTAL FREE ENERGY PREDICTED BY IDOCK:   -5.42 KCAL/MOL
REMARK 923 INTER-LIGAND FREE ENERGY PREDICTED BY IDOCK:   -4.06 KCAL/MOL
REMARK 924 INTRA-LIGAND FREE ENERGY PREDICTED BY IDOCK:   -1.36 KCAL/MOL
REMARK 927      BINDING AFFINITY PREDICTED BY RF-SCORE:    0.00 PKD
ROOT
HETATM    1  C   UNL     1      -9.214   1.658  64.399  1.00  0.00    -0.124 C  
HETATM    2  N   UNL     1      -8.990   3.060  64.154  1.00  0.00    -0.101 NA 
HETATM    3  C   UNL     1      -8.978   3.658  62.926  1.00  0.00    -0.097 A  
HETATM    4  N   UNL     1      -8.725   4.943  63.019  1.00  0.00    -0.129 NA 
HETATM    5  C   UNL     1      -8.568   5.186  64.364  1.00  0.00    -0.118 A  
HETATM    6  C   UNL     1      -8.270   6.374  65.045  1.00  0.00    -0.125 A  
HETATM    7  F   UNL     1      -8.161   7.507  64.334  1.00  0.00    -0.144 F  
HETATM    8  C   UNL     1      -8.104   6.391  66.459  1.00  0.00    -0.111 A  
HETATM    9  C   UNL     1      -8.699   4.010  66.502  1.00  0.00    -0.116 A  
HETATM   10  C   UNL     1      -8.422   5.222  67.185  1.00  0.00    -0.106 A  
HETATM   11  C   UNL     1      -8.746   4.021  65.100  1.00  0.00    -0.120 A  
ENDROOT
BRANCH   8  12
HETATM   12  N   UNL     1      -7.722   7.617  67.112  1.00  0.00    -0.110 NA 
HETATM   13  H   UNL     1      -6.732   7.859  67.145  1.00  0.00     0.000 HD 
BRANCH  12  14
HETATM   14  C   UNL     1      -8.659   8.517  67.717  1.00  0.00    -0.134 A  
HETATM   15 BR   UNL     1     -11.885  11.114  69.925  1.00  0.00    -0.477 Br 
HETATM   16  C   UNL     1      -9.781   8.998  67.026  1.00  0.00    -0.247 A  
HETATM   17  C   UNL     1      -9.389   9.757  69.689  1.00  0.00    -0.237 A  
HETATM   18  C   UNL     1      -8.452   8.967  69.029  1.00  0.00    -0.132 A  
HETATM   19  C   UNL     1     -10.550  10.131  69.019  1.00  0.00    -0.223 A  
HETATM   20  C   UNL     1     -10.742   9.773  67.685  1.00  0.00    -0.334 A  
HETATM   21  F   UNL     1      -7.348   8.579  69.686  1.00  0.00    -0.056 F  
ENDBRANCH  12  14
ENDBRANCH   8  12
BRANCH  10  22
HETATM   22  C   UNL     1      -8.602   5.153  68.679  1.00  0.00    -0.087 C  
HETATM   23  H   UNL     1     -10.490   4.253  68.501  1.00  0.00     0.000 HD 
HETATM   24  N   UNL     1      -9.766   4.585  69.138  1.00  0.00    -0.184 N  
HETATM   25  O   UNL     1      -7.691   5.520  69.422  1.00  0.00    -0.083 OA 
BRANCH  24  26
HETATM   26  O   UNL     1      -9.907   4.486  70.548  1.00  0.00    -0.202 OA 
BRANCH  26  27
HETATM   27  C   UNL     1      -9.599   3.130  70.913  1.00  0.00    -0.155 C  
BRANCH  27  28
HETATM   28  C   UNL     1      -8.649   3.080  72.108  1.00  0.00    -0.074 C  
HETATM   29  O   UNL     1      -7.306   2.821  71.706  1.00  0.00    -0.038 OA 
HETATM   30  H   UNL     1      -6.716   2.790  72.449  1.00  0.00     0.000 HD 
ENDBRANCH  27  28
ENDBRANCH  26  27
ENDBRANCH  24  26
ENDBRANCH  10  22
TORSDOF 6
ENDMDL
MODEL      197
REMARK 921   NORMALIZED FREE ENERGY PREDICTED BY IDOCK:   -3.05 KCAL/MOL
REMARK 922        TOTAL FREE ENERGY PREDICTED BY IDOCK:   -5.41 KCAL/MOL
REMARK 923 INTER-LIGAND FREE ENERGY PREDICTED BY IDOCK:   -4.26 KCAL/MOL
REMARK 924 INTRA-LIGAND FREE ENERGY PREDICTED BY IDOCK:   -1.15 KCAL/MOL
REMARK 927      BINDING AFFINITY PREDICTED BY RF-SCORE:    0.00 PKD
ROOT
HETATM    1  C   UNL     1      -5.577   9.159  72.660  1.00  0.00    -0.060 C  
HETATM    2  N   UNL     1      -5.577  10.155  71.618  1.00  0.00    -0.266 NA 
HETATM    3  C   UNL     1      -5.187  11.454  71.765  1.00  0.00     0.140 A  
HETATM    4  N   UNL     1      -5.320  12.127  70.644  1.00  0.00    -0.138 NA 
HETATM    5  C   UNL     1      -5.817  11.221  69.735  1.00  0.00    -0.091 A  
HETATM    6  C   UNL     1      -6.165  11.384  68.388  1.00  0.00    -0.045 A  
HETATM    7  F   UNL     1      -5.954  12.579  67.813  1.00  0.00    -0.068 F  
HETATM    8  C   UNL     1      -6.713  10.308  67.634  1.00  0.00    -0.074 A  
HETATM    9  C   UNL     1      -6.404   8.854  69.587  1.00  0.00    -0.042 A  
HETATM   10  C   UNL     1      -6.731   9.022  68.217  1.00  0.00    -0.061 A  
HETATM   11  C   UNL     1      -5.971   9.970  70.318  1.00  0.00    -0.070 A  
ENDROOT
BRANCH   8  12
HETATM   12  N   UNL     1      -7.130  10.537  66.273  1.00  0.00    -0.125 NA 
HETATM   13  H   UNL     1      -6.449  10.388  65.528  1.00  0.00     0.000 HD 
BRANCH  12  14
HETATM   14  C   UNL     1      -8.449  10.964  65.911  1.00  0.00    -0.158 A  
HETATM   15 BR   UNL     1     -12.589  12.540  64.359  1.00  0.00    -0.431 Br 
HETATM   16  C   UNL     1      -9.079  12.049  66.538  1.00  0.00    -0.202 A  
HETATM   17  C   UNL     1     -10.402  10.713  64.468  1.00  0.00    -0.352 A  
HETATM   18  C   UNL     1      -9.163  10.271  64.922  1.00  0.00    -0.227 A  
HETATM   19  C   UNL     1     -10.958  11.859  65.029  1.00  0.00    -0.312 A  
HETATM   20  C   UNL     1     -10.313  12.518  66.075  1.00  0.00    -0.277 A  
HETATM   21  F   UNL     1      -8.611   9.185  64.358  1.00  0.00    -0.165 F  
ENDBRANCH  12  14
ENDBRANCH   8  12
BRANCH  10  22
HETATM   22  C   UNL     1      -6.978   7.737  67.471  1.00  0.00    -0.078 C  
HETATM   23  H   UNL     1      -9.043   8.096  67.353  1.00  0.00     0.000 HD 
HETATM   24  N   UNL     1      -8.277   7.471  67.106  1.00  0.00    -0.113 N  
HETATM   25  O   UNL     1      -6.027   7.025  67.148  1.00  0.00    -0.023 OA 
BRANCH  24  26
HETATM   26  O   UNL     1      -8.492   6.278  66.365  1.00  0.00    -0.116 OA 
BRANCH  26  27
HETATM   27  C   UNL     1      -9.463   5.499  67.083  1.00  0.00    -0.122 C  
BRANCH  27  28
HETATM   28  C   UNL     1     -10.402   6.393  67.891  1.00  0.00    -0.190 C  
HETATM   29  O   UNL     1     -11.705   6.448  67.315  1.00  0.00    -0.594 OA 
HETATM   30  H   UNL     1     -12.289   7.004  67.817  1.00  0.00     0.000 HD 
ENDBRANCH  27  28
ENDBRANCH  26  27
ENDBRANCH  24  26
ENDBRANCH  10  22
TORSDOF 6
ENDMDL
MODEL      198
REMARK 921   NORMALIZED FREE ENERGY PREDICTED BY IDOCK:   -3.04 KCAL/MOL
REMARK 922        TOTAL FREE ENERGY PREDICTED BY IDOCK:   -5.39 KCAL/MOL
REMARK 923 INTER-LIGAND FREE ENERGY PREDICTED BY IDOCK:   -5.26 KCAL/MOL
REMARK 924 INTRA-LIGAND FREE ENERGY PREDICTED BY IDOCK:   -0.13 KCAL/MOL
REMARK 927      BINDING AFFINITY PREDICTED BY RF-SCORE:    0.00 PKD
ROOT
HETATM    1  C   UNL     1      -8.786   3.769  68.328  1.00  0.00    -0.112 C  
HETATM    2  N   UNL     1      -9.570   4.972  68.447  1.00  0.00    -0.137 NA 
HETATM    3  C   UNL     1     -10.553   5.188  69.369  1.00  0.00    -0.034 A  
HETATM    4  N   UNL     1     -11.105   6.371  69.216  1.00  0.00    -0.354 NA 
HETATM    5  C   UNL     1     -10.448   6.943  68.150  1.00  0.00    -0.204 A  
HETATM    6  C   UNL     1     -10.627   8.188  67.535  1.00  0.00    -0.221 A  
HETATM    7  F   UNL     1     -11.533   9.032  68.052  1.00  0.00     0.085 F  
HETATM    8  C   UNL     1      -9.857   8.565  66.398  1.00  0.00    -0.257 A  
HETATM    9  C   UNL     1      -8.612   6.461  66.613  1.00  0.00    -0.121 A  
HETATM   10  C   UNL     1      -8.783   7.734  66.011  1.00  0.00    -0.184 A  
HETATM   11  C   UNL     1      -9.467   6.090  67.660  1.00  0.00    -0.112 A  
ENDROOT
BRANCH   8  12
HETATM   12  N   UNL     1     -10.125   9.822  65.747  1.00  0.00    -0.278 NA 
HETATM   13  H   UNL     1     -10.308   9.818  64.744  1.00  0.00     0.000 HD 
BRANCH  12  14
HETATM   14  C   UNL     1     -10.148  11.080  66.433  1.00  0.00    -0.229 A  
HETATM   15 BR   UNL     1      -9.964  15.357  68.357  1.00  0.00    -0.218 Br 
HETATM   16  C   UNL     1      -9.400  11.306  67.598  1.00  0.00    -0.162 A  
HETATM   17  C   UNL     1     -10.934  13.389  66.536  1.00  0.00    -0.299 A  
HETATM   18  C   UNL     1     -10.960  12.122  65.961  1.00  0.00    -0.293 A  
HETATM   19  C   UNL     1     -10.098  13.620  67.625  1.00  0.00    -0.242 A  
HETATM   20  C   UNL     1      -9.346  12.582  68.171  1.00  0.00    -0.210 A  
HETATM   21  F   UNL     1     -11.741  11.907  64.891  1.00  0.00    -0.383 F  
ENDBRANCH  12  14
ENDBRANCH   8  12
BRANCH  10  22
HETATM   22  C   UNL     1      -7.691   8.122  65.048  1.00  0.00    -0.113 C  
HETATM   23  H   UNL     1      -8.602   9.964  64.617  1.00  0.00     0.000 HD 
HETATM   24  N   UNL     1      -7.803   9.353  64.447  1.00  0.00    -0.116 N  
HETATM   25  O   UNL     1      -6.717   7.384  64.898  1.00  0.00    -0.046 OA 
BRANCH  24  26
HETATM   26  O   UNL     1      -6.746   9.728  63.575  1.00  0.00    -0.107 OA 
BRANCH  26  27
HETATM   27  C   UNL     1      -7.345  10.219  62.364  1.00  0.00    -0.138 C  
BRANCH  27  28
HETATM   28  C   UNL     1      -8.814  10.578  62.579  1.00  0.00    -0.261 C  
HETATM   29  O   UNL     1      -8.996  11.982  62.745  1.00  0.00    -0.512 OA 
HETATM   30  H   UNL     1      -9.909  12.205  62.879  1.00  0.00     0.000 HD 
ENDBRANCH  27  28
ENDBRANCH  26  27
ENDBRANCH  24  26
ENDBRANCH  10  22
TORSDOF 6
ENDMDL
MODEL      199
REMARK 921   NORMALIZED FREE ENERGY PREDICTED BY IDOCK:   -2.92 KCAL/MOL
REMARK 922        TOTAL FREE ENERGY PREDICTED BY IDOCK:   -5.23 KCAL/MOL
REMARK 923 INTER-LIGAND FREE ENERGY PREDICTED BY IDOCK:   -4.20 KCAL/MOL
REMARK 924 INTRA-LIGAND FREE ENERGY PREDICTED BY IDOCK:   -1.03 KCAL/MOL
REMARK 927      BINDING AFFINITY PREDICTED BY RF-SCORE:    0.00 PKD
ROOT
HETATM    1  C   UNL     1      -8.806  15.581  68.845  1.00  0.00    -0.217 C  
HETATM    2  N   UNL     1      -9.712  14.717  68.133  1.00  0.00    -0.213 NA 
HETATM    3  C   UNL     1     -10.820  15.124  67.447  1.00  0.00    -0.302 A  
HETATM    4  N   UNL     1     -11.462  14.105  66.921  1.00  0.00    -0.340 NA 
HETATM    5  C   UNL     1     -10.736  12.994  67.282  1.00  0.00    -0.250 A  
HETATM    6  C   UNL     1     -10.957  11.637  67.013  1.00  0.00    -0.288 A  
HETATM    7  F   UNL     1     -11.999  11.301  66.237  1.00  0.00     0.028 F  
HETATM    8  C   UNL     1     -10.091  10.632  67.532  1.00  0.00    -0.184 A  
HETATM    9  C   UNL     1      -8.682  12.410  68.470  1.00  0.00    -0.060 A  
HETATM   10  C   UNL     1      -8.901  11.040  68.172  1.00  0.00    -0.141 A  
HETATM   11  C   UNL     1      -9.621  13.353  68.030  1.00  0.00    -0.219 A  
ENDROOT
BRANCH   8  12
HETATM   12  N   UNL     1     -10.397   9.244  67.296  1.00  0.00    -0.250 NA 
HETATM   13  H   UNL     1     -10.677   8.964  66.356  1.00  0.00     0.000 HD 
BRANCH  12  14
HETATM   14  C   UNL     1     -10.331   8.236  68.312  1.00  0.00    -0.198 A  
HETATM   15 BR   UNL     1     -10.384   4.687  71.385  1.00  0.00    -0.092 Br 
HETATM   16  C   UNL     1     -11.027   8.353  69.524  1.00  0.00    -0.051 A  
HETATM   17  C   UNL     1      -9.514   6.052  69.037  1.00  0.00    -0.143 A  
HETATM   18  C   UNL     1      -9.527   7.102  68.123  1.00  0.00    -0.132 A  
HETATM   19  C   UNL     1     -10.302   6.143  70.181  1.00  0.00    -0.212 A  
HETATM   20  C   UNL     1     -11.043   7.294  70.440  1.00  0.00    -0.291 A  
HETATM   21  F   UNL     1      -8.794   7.000  67.003  1.00  0.00    -0.117 F  
ENDBRANCH  12  14
ENDBRANCH   8  12
BRANCH  10  22
HETATM   22  C   UNL     1      -7.740  10.136  68.498  1.00  0.00    -0.090 C  
HETATM   23  H   UNL     1      -8.305   9.987  70.514  1.00  0.00     0.000 HD 
HETATM   24  N   UNL     1      -7.643   9.694  69.796  1.00  0.00    -0.106 N  
HETATM   25  O   UNL     1      -6.984   9.764  67.600  1.00  0.00    -0.084 OA 
BRANCH  24  26
HETATM   26  O   UNL     1      -6.570   8.808  70.082  1.00  0.00    -0.037 OA 
BRANCH  26  27
HETATM   27  C   UNL     1      -7.052   7.850  71.039  1.00  0.00    -0.049 C  
BRANCH  27  28
HETATM   28  C   UNL     1      -7.127   8.454  72.439  1.00  0.00    -0.087 C  
HETATM   29  O   UNL     1      -5.833   8.610  73.017  1.00  0.00    -0.074 OA 
HETATM   30  H   UNL     1      -5.879   8.986  73.888  1.00  0.00     0.000 HD 
ENDBRANCH  27  28
ENDBRANCH  26  27
ENDBRANCH  24  26
ENDBRANCH  10  22
TORSDOF 6
ENDMDL
MODEL      200
REMARK 921   NORMALIZED FREE ENERGY PREDICTED BY IDOCK:   -2.90 KCAL/MOL
REMARK 922        TOTAL FREE ENERGY PREDICTED BY IDOCK:   -5.20 KCAL/MOL
REMARK 923 INTER-LIGAND FREE ENERGY PREDICTED BY IDOCK:   -3.88 KCAL/MOL
REMARK 924 INTRA-LIGAND FREE ENERGY PREDICTED BY IDOCK:   -1.32 KCAL/MOL
REMARK 927      BINDING AFFINITY PREDICTED BY RF-SCORE:    0.00 PKD
ROOT
HETATM    1  C   UNL     1     -11.208  12.185  63.048  1.00  0.00     0.032 C  
HETATM    2  N   UNL     1     -10.218  11.226  63.470  1.00  0.00    -0.366 NA 
HETATM    3  C   UNL     1      -9.639  10.283  62.671  1.00  0.00    -0.212 A  
HETATM    4  N   UNL     1      -8.790   9.539  63.343  1.00  0.00    -0.231 NA 
HETATM    5  C   UNL     1      -8.824  10.022  64.631  1.00  0.00    -0.200 A  
HETATM    6  C   UNL     1      -8.136   9.604  65.777  1.00  0.00    -0.113 A  
HETATM    7  F   UNL     1      -7.243   8.609  65.659  1.00  0.00    -0.078 F  
HETATM    8  C   UNL     1      -8.359  10.226  67.038  1.00  0.00    -0.126 A  
HETATM    9  C   UNL     1      -9.872  11.808  65.928  1.00  0.00    -0.265 A  
HETATM   10  C   UNL     1      -9.153  11.393  67.078  1.00  0.00    -0.169 A  
HETATM   11  C   UNL     1      -9.702  11.095  64.732  1.00  0.00    -0.257 A  
ENDROOT
BRANCH   8  12
HETATM   12  N   UNL     1      -7.689   9.716  68.207  1.00  0.00    -0.082 NA 
HETATM   13  H   UNL     1      -6.876  10.222  68.558  1.00  0.00     0.000 HD 
BRANCH  12  14
HETATM   14  C   UNL     1      -8.103   8.534  68.904  1.00  0.00    -0.119 A  
HETATM   15 BR   UNL     1      -9.604   4.509  70.796  1.00  0.00    -0.268 Br 
HETATM   16  C   UNL     1      -9.246   8.512  69.717  1.00  0.00    -0.157 A  
HETATM   17  C   UNL     1      -7.761   6.165  69.386  1.00  0.00    -0.099 A  
HETATM   18  C   UNL     1      -7.340   7.360  68.810  1.00  0.00    -0.095 A  
HETATM   19  C   UNL     1      -8.958   6.142  70.095  1.00  0.00    -0.148 A  
HETATM   20  C   UNL     1      -9.693   7.311  70.281  1.00  0.00    -0.175 A  
HETATM   21  F   UNL     1      -6.203   7.377  68.097  1.00  0.00    -0.036 F  
ENDBRANCH  12  14
ENDBRANCH   8  12
BRANCH  10  22
HETATM   22  C   UNL     1      -9.240  12.341  68.245  1.00  0.00    -0.189 C  
HETATM   23  H   UNL     1      -9.152  14.028  66.998  1.00  0.00     0.000 HD 
HETATM   24  N   UNL     1      -9.239  13.685  67.955  1.00  0.00    -0.194 N  
HETATM   25  O   UNL     1      -9.390  11.897  69.384  1.00  0.00     0.494 OA 
BRANCH  24  26
HETATM   26  O   UNL     1      -9.365  14.570  69.059  1.00  0.00    -0.168 OA 
BRANCH  26  27
HETATM   27  C   UNL     1      -8.236  15.457  69.026  1.00  0.00    -0.217 C  
BRANCH  27  28
HETATM   28  C   UNL     1      -7.893  15.866  67.595  1.00  0.00    -0.146 C  
HETATM   29  O   UNL     1      -6.640  15.329  67.178  1.00  0.00    -0.292 OA 
HETATM   30  H   UNL     1      -6.427  15.583  66.288  1.00  0.00     0.000 HD 
ENDBRANCH  27  28
ENDBRANCH  26  27
ENDBRANCH  24  26
ENDBRANCH  10  22
TORSDOF 6
ENDMDL
MODEL      201
REMARK 921   NORMALIZED FREE ENERGY PREDICTED BY IDOCK:   -2.73 KCAL/MOL
REMARK 922        TOTAL FREE ENERGY PREDICTED BY IDOCK:   -4.96 KCAL/MOL
REMARK 923 INTER-LIGAND FREE ENERGY PREDICTED BY IDOCK:   -3.60 KCAL/MOL
REMARK 924 INTRA-LIGAND FREE ENERGY PREDICTED BY IDOCK:   -1.36 KCAL/MOL
REMARK 927      BINDING AFFINITY PREDICTED BY RF-SCORE:    0.00 PKD
ROOT
HETATM    1  C   UNL     1     -10.758   4.872  66.236  1.00  0.00    -0.158 C  
HETATM    2  N   UNL     1      -9.706   5.290  67.128  1.00  0.00    -0.140 NA 
HETATM    3  C   UNL     1      -9.454   4.758  68.360  1.00  0.00    -0.144 A  
HETATM    4  N   UNL     1      -8.445   5.360  68.947  1.00  0.00    -0.099 NA 
HETATM    5  C   UNL     1      -8.028   6.322  68.056  1.00  0.00    -0.108 A  
HETATM    6  C   UNL     1      -7.002   7.270  68.155  1.00  0.00    -0.076 A  
HETATM    7  F   UNL     1      -6.225   7.258  69.250  1.00  0.00    -0.030 F  
HETATM    8  C   UNL     1      -6.769   8.216  67.117  1.00  0.00    -0.065 A  
HETATM    9  C   UNL     1      -8.532   7.125  65.804  1.00  0.00    -0.151 A  
HETATM   10  C   UNL     1      -7.475   8.065  65.903  1.00  0.00    -0.081 A  
HETATM   11  C   UNL     1      -8.794   6.286  66.897  1.00  0.00    -0.115 A  
ENDROOT
BRANCH   8  12
HETATM   12  N   UNL     1      -5.753   9.223  67.292  1.00  0.00    -0.041 NA 
HETATM   13  H   UNL     1      -4.852   9.085  66.836  1.00  0.00     0.000 HD 
BRANCH  12  14
HETATM   14  C   UNL     1      -5.942  10.410  68.073  1.00  0.00    -0.044 A  
HETATM   15 BR   UNL     1      -6.182  14.450  70.450  1.00  0.00    -0.143 Br 
HETATM   16  C   UNL     1      -5.685  10.441  69.452  1.00  0.00    -0.037 A  
HETATM   17  C   UNL     1      -6.524  12.779  68.165  1.00  0.00    -0.085 A  
HETATM   18  C   UNL     1      -6.425  11.579  67.467  1.00  0.00    -0.079 A  
HETATM   19  C   UNL     1      -6.157  12.811  69.507  1.00  0.00    -0.118 A  
HETATM   20  C   UNL     1      -5.757  11.647  70.160  1.00  0.00    -0.141 A  
HETATM   21  F   UNL     1      -6.747  11.554  66.164  1.00  0.00    -0.077 F  
ENDBRANCH  12  14
ENDBRANCH   8  12
BRANCH  10  22
HETATM   22  C   UNL     1      -7.138   8.766  64.613  1.00  0.00    -0.088 C  
HETATM   23  H   UNL     1      -9.124   8.675  63.939  1.00  0.00     0.000 HD 
HETATM   24  N   UNL     1      -8.175   8.993  63.740  1.00  0.00    -0.165 N  
HETATM   25  O   UNL     1      -5.993   9.178  64.422  1.00  0.00    -0.068 OA 
BRANCH  24  26
HETATM   26  O   UNL     1      -7.855   9.693  62.547  1.00  0.00    -0.114 OA 
BRANCH  26  27
HETATM   27  C   UNL     1      -8.628  10.904  62.542  1.00  0.00    -0.273 C  
BRANCH  27  28
HETATM   28  C   UNL     1      -9.934  10.731  63.314  1.00  0.00    -0.315 C  
HETATM   29  O   UNL     1     -10.917  11.681  62.911  1.00  0.00    -0.641 OA 
HETATM   30  H   UNL     1     -11.729  11.573  63.392  1.00  0.00     0.000 HD 
ENDBRANCH  27  28
ENDBRANCH  26  27
ENDBRANCH  24  26
ENDBRANCH  10  22
TORSDOF 6
ENDMDL
MODEL      202
REMARK 921   NORMALIZED FREE ENERGY PREDICTED BY IDOCK:   -2.72 KCAL/MOL
REMARK 922        TOTAL FREE ENERGY PREDICTED BY IDOCK:   -4.96 KCAL/MOL
REMARK 923 INTER-LIGAND FREE ENERGY PREDICTED BY IDOCK:   -4.46 KCAL/MOL
REMARK 924 INTRA-LIGAND FREE ENERGY PREDICTED BY IDOCK:   -0.50 KCAL/MOL
REMARK 927      BINDING AFFINITY PREDICTED BY RF-SCORE:    0.00 PKD
ROOT
HETATM    1  C   UNL     1     -11.129  15.739  66.378  1.00  0.00    -0.070 C  
HETATM    2  N   UNL     1     -11.014  14.553  65.569  1.00  0.00    -0.319 NA 
HETATM    3  C   UNL     1     -11.389  14.447  64.261  1.00  0.00    -0.151 A  
HETATM    4  N   UNL     1     -11.183  13.235  63.798  1.00  0.00    -0.279 NA 
HETATM    5  C   UNL     1     -10.651  12.529  64.853  1.00  0.00    -0.301 A  
HETATM    6  C   UNL     1     -10.253  11.189  64.941  1.00  0.00    -0.303 A  
HETATM    7  F   UNL     1     -10.324  10.427  63.838  1.00  0.00    -0.382 F  
HETATM    8  C   UNL     1      -9.765  10.644  66.163  1.00  0.00    -0.205 A  
HETATM    9  C   UNL     1      -9.944  12.877  67.165  1.00  0.00    -0.240 A  
HETATM   10  C   UNL     1      -9.520  11.526  67.238  1.00  0.00    -0.176 A  
HETATM   11  C   UNL     1     -10.519  13.340  65.973  1.00  0.00    -0.286 A  
ENDROOT
BRANCH   8  12
HETATM   12  N   UNL     1      -9.438   9.242  66.232  1.00  0.00    -0.203 NA 
HETATM   13  H   UNL     1      -9.955   8.658  66.889  1.00  0.00     0.000 HD 
BRANCH  12  14
HETATM   14  C   UNL     1      -8.427   8.625  65.427  1.00  0.00    -0.172 A  
HETATM   15 BR   UNL     1      -5.270   6.838  62.448  1.00  0.00    -0.032 Br 
HETATM   16  C   UNL     1      -8.533   7.297  64.987  1.00  0.00     0.015 A  
HETATM   17  C   UNL     1      -6.315   8.815  64.217  1.00  0.00    -0.071 A  
HETATM   18  C   UNL     1      -7.271   9.341  65.080  1.00  0.00    -0.094 A  
HETATM   19  C   UNL     1      -6.499   7.534  63.704  1.00  0.00    -0.053 A  
HETATM   20  C   UNL     1      -7.591   6.765  64.099  1.00  0.00    -0.105 A  
HETATM   21  F   UNL     1      -7.112  10.589  65.549  1.00  0.00    -0.133 F  
ENDBRANCH  12  14
ENDBRANCH   8  12
BRANCH  10  22
HETATM   22  C   UNL     1      -8.728  11.184  68.474  1.00  0.00    -0.161 C  
HETATM   23  H   UNL     1      -7.078  12.317  67.840  1.00  0.00     0.000 HD 
HETATM   24  N   UNL     1      -7.472  11.732  68.577  1.00  0.00    -0.104 N  
HETATM   25  O   UNL     1      -9.247  10.514  69.366  1.00  0.00    -0.184 OA 
BRANCH  24  26
HETATM   26  O   UNL     1      -6.751  11.440  69.765  1.00  0.00    -0.132 OA 
BRANCH  26  27
HETATM   27  C   UNL     1      -6.184  10.129  69.609  1.00  0.00    -0.052 C  
BRANCH  27  28
HETATM   28  C   UNL     1      -5.164   9.832  70.706  1.00  0.00    -0.048 C  
HETATM   29  O   UNL     1      -5.794   9.588  71.962  1.00  0.00    -0.215 OA 
HETATM   30  H   UNL     1      -5.159   9.404  72.644  1.00  0.00     0.000 HD 
ENDBRANCH  27  28
ENDBRANCH  26  27
ENDBRANCH  24  26
ENDBRANCH  10  22
TORSDOF 6
ENDMDL
MODEL      203
REMARK 921   NORMALIZED FREE ENERGY PREDICTED BY IDOCK:   -2.56 KCAL/MOL
REMARK 922        TOTAL FREE ENERGY PREDICTED BY IDOCK:   -4.73 KCAL/MOL
REMARK 923 INTER-LIGAND FREE ENERGY PREDICTED BY IDOCK:   -3.73 KCAL/MOL
REMARK 924 INTRA-LIGAND FREE ENERGY PREDICTED BY IDOCK:   -1.00 KCAL/MOL
REMARK 927      BINDING AFFINITY PREDICTED BY RF-SCORE:    0.00 PKD
ROOT
HETATM    1  C   UNL     1     -10.935  15.441  71.478  1.00  0.00    -0.091 C  
HETATM    2  N   UNL     1     -11.382  15.107  70.150  1.00  0.00    -0.253 NA 
HETATM    3  C   UNL     1     -12.630  15.346  69.651  1.00  0.00    -0.036 A  
HETATM    4  N   UNL     1     -12.747  14.909  68.418  1.00  0.00     0.605 NA 
HETATM    5  C   UNL     1     -11.522  14.365  68.108  1.00  0.00    -0.310 A  
HETATM    6  C   UNL     1     -11.075  13.741  66.936  1.00  0.00    -0.302 A  
HETATM    7  F   UNL     1     -11.910  13.678  65.887  1.00  0.00    -0.326 F  
HETATM    8  C   UNL     1      -9.761  13.200  66.845  1.00  0.00    -0.243 A  
HETATM    9  C   UNL     1      -9.306  14.072  69.093  1.00  0.00     0.250 A  
HETATM   10  C   UNL     1      -8.854  13.463  67.894  1.00  0.00    -0.194 A  
HETATM   11  C   UNL     1     -10.641  14.492  69.175  1.00  0.00    -0.234 A  
ENDROOT
BRANCH   8  12
HETATM   12  N   UNL     1      -9.366  12.497  65.650  1.00  0.00    -0.449 NA 
HETATM   13  H   UNL     1      -9.216  13.039  64.799  1.00  0.00     0.000 HD 
BRANCH  12  14
HETATM   14  C   UNL     1      -9.174  11.079  65.593  1.00  0.00    -0.210 A  
HETATM   15 BR   UNL     1      -8.427   6.451  65.834  1.00  0.00    -0.151 Br 
HETATM   16  C   UNL     1      -8.056  10.504  64.970  1.00  0.00    -0.096 A  
HETATM   17  C   UNL     1      -9.938   8.841  66.200  1.00  0.00    -0.244 A  
HETATM   18  C   UNL     1     -10.135  10.217  66.143  1.00  0.00    -0.242 A  
HETATM   19  C   UNL     1      -8.767   8.303  65.674  1.00  0.00    -0.156 A  
HETATM   20  C   UNL     1      -7.834   9.124  65.042  1.00  0.00    -0.112 A  
HETATM   21  F   UNL     1     -11.249  10.740  66.680  1.00  0.00    -0.292 F  
ENDBRANCH  12  14
ENDBRANCH   8  12
BRANCH  10  22
HETATM   22  C   UNL     1      -7.365  13.243  67.827  1.00  0.00    -0.147 C  
HETATM   23  H   UNL     1      -7.498  11.417  68.854  1.00  0.00     0.000 HD 
HETATM   24  N   UNL     1      -6.883  12.084  68.387  1.00  0.00    -0.066 N  
HETATM   25  O   UNL     1      -6.656  14.043  67.217  1.00  0.00    -0.266 OA 
BRANCH  24  26
HETATM   26  O   UNL     1      -5.484  11.865  68.279  1.00  0.00    -0.043 OA 
BRANCH  26  27
HETATM   27  C   UNL     1      -5.192  10.628  68.951  1.00  0.00    -0.041 C  
BRANCH  27  28
HETATM   28  C   UNL     1      -5.125   9.465  67.964  1.00  0.00    -0.033 C  
HETATM   29  O   UNL     1      -6.183   8.532  68.173  1.00  0.00    -0.049 OA 
HETATM   30  H   UNL     1      -6.141   7.808  67.560  1.00  0.00     0.000 HD 
ENDBRANCH  27  28
ENDBRANCH  26  27
ENDBRANCH  24  26
ENDBRANCH  10  22
TORSDOF 6
ENDMDL
MODEL      204
REMARK 921   NORMALIZED FREE ENERGY PREDICTED BY IDOCK:   -2.49 KCAL/MOL
REMARK 922        TOTAL FREE ENERGY PREDICTED BY IDOCK:   -4.65 KCAL/MOL
REMARK 923 INTER-LIGAND FREE ENERGY PREDICTED BY IDOCK:   -3.87 KCAL/MOL
REMARK 924 INTRA-LIGAND FREE ENERGY PREDICTED BY IDOCK:   -0.78 KCAL/MOL
REMARK 927      BINDING AFFINITY PREDICTED BY RF-SCORE:    0.00 PKD
ROOT
HETATM    1  C   UNL     1     -13.115  11.557  63.472  1.00  0.00     0.451 C  
HETATM    2  N   UNL     1     -11.712  11.661  63.783  1.00  0.00    -0.369 NA 
HETATM    3  C   UNL     1     -10.701  11.721  62.867  1.00  0.00     0.115 A  
HETATM    4  N   UNL     1      -9.526  11.789  63.451  1.00  0.00    -0.224 NA 
HETATM    5  C   UNL     1      -9.791  11.773  64.802  1.00  0.00    -0.211 A  
HETATM    6  C   UNL     1      -8.921  11.808  65.899  1.00  0.00    -0.059 A  
HETATM    7  F   UNL     1      -7.604  11.932  65.667  1.00  0.00     0.450 F  
HETATM    8  C   UNL     1      -9.413  11.733  67.233  1.00  0.00    -0.170 A  
HETATM    9  C   UNL     1     -11.696  11.744  66.331  1.00  0.00    -0.131 A  
HETATM   10  C   UNL     1     -10.809  11.805  67.436  1.00  0.00    -0.299 A  
HETATM   11  C   UNL     1     -11.159  11.710  65.036  1.00  0.00    -0.249 A  
ENDROOT
BRANCH   8  12
HETATM   12  N   UNL     1      -8.481  11.695  68.330  1.00  0.00    -0.156 NA 
HETATM   13  H   UNL     1      -8.418  10.839  68.881  1.00  0.00     0.000 HD 
BRANCH  12  14
HETATM   14  C   UNL     1      -7.636  12.795  68.690  1.00  0.00    -0.085 A  
HETATM   15 BR   UNL     1      -5.126  16.451  70.229  1.00  0.00    -0.192 Br 
HETATM   16  C   UNL     1      -7.714  14.036  68.042  1.00  0.00    -0.149 A  
HETATM   17  C   UNL     1      -5.905  13.709  70.149  1.00  0.00    -0.145 A  
HETATM   18  C   UNL     1      -6.673  12.640  69.699  1.00  0.00     0.085 A  
HETATM   19  C   UNL     1      -6.080  14.960  69.565  1.00  0.00    -0.113 A  
HETATM   20  C   UNL     1      -6.965  15.126  68.501  1.00  0.00    -0.105 A  
HETATM   21  F   UNL     1      -6.530  11.441  70.285  1.00  0.00    -0.152 F  
ENDBRANCH  12  14
ENDBRANCH   8  12
BRANCH  10  22
HETATM   22  C   UNL     1     -11.479  12.051  68.763  1.00  0.00    -0.300 C  
HETATM   23  H   UNL     1     -11.683  14.105  68.382  1.00  0.00     0.000 HD 
HETATM   24  N   UNL     1     -11.866  13.342  69.033  1.00  0.00    -0.313 N  
HETATM   25  O   UNL     1     -11.727  11.102  69.507  1.00  0.00    -0.273 OA 
BRANCH  24  26
HETATM   26  O   UNL     1     -12.536  13.554  70.267  1.00  0.00    -0.254 OA 
BRANCH  26  27
HETATM   27  C   UNL     1     -13.015  14.909  70.265  1.00  0.00    -0.150 C  
BRANCH  27  28
HETATM   28  C   UNL     1     -13.104  15.468  71.683  1.00  0.00    -0.481 C  
HETATM   29  O   UNL     1     -11.876  15.315  72.389  1.00  0.00    -0.386 OA 
HETATM   30  H   UNL     1     -11.931  15.663  73.272  1.00  0.00     0.000 HD 
ENDBRANCH  27  28
ENDBRANCH  26  27
ENDBRANCH  24  26
ENDBRANCH  10  22
TORSDOF 6
ENDMDL
MODEL      205
REMARK 921   NORMALIZED FREE ENERGY PREDICTED BY IDOCK:   -2.48 KCAL/MOL
REMARK 922        TOTAL FREE ENERGY PREDICTED BY IDOCK:   -4.62 KCAL/MOL
REMARK 923 INTER-LIGAND FREE ENERGY PREDICTED BY IDOCK:   -3.54 KCAL/MOL
REMARK 924 INTRA-LIGAND FREE ENERGY PREDICTED BY IDOCK:   -1.08 KCAL/MOL
REMARK 927      BINDING AFFINITY PREDICTED BY RF-SCORE:    0.00 PKD
ROOT
HETATM    1  C   UNL     1     -12.907  13.167  66.029  1.00  0.00     0.289 C  
HETATM    2  N   UNL     1     -11.774  13.160  66.919  1.00  0.00    -0.367 NA 
HETATM    3  C   UNL     1     -11.659  13.901  68.060  1.00  0.00    -0.333 A  
HETATM    4  N   UNL     1     -10.502  13.700  68.649  1.00  0.00    -0.243 NA 
HETATM    5  C   UNL     1      -9.843  12.791  67.854  1.00  0.00    -0.223 A  
HETATM    6  C   UNL     1      -8.568  12.225  67.986  1.00  0.00    -0.176 A  
HETATM    7  F   UNL     1      -7.840  12.537  69.069  1.00  0.00    -0.061 F  
HETATM    8  C   UNL     1      -8.057  11.326  67.007  1.00  0.00    -0.149 A  
HETATM    9  C   UNL     1     -10.211  11.460  65.839  1.00  0.00    -0.292 A  
HETATM   10  C   UNL     1      -8.929  10.873  65.993  1.00  0.00    -0.200 A  
HETATM   11  C   UNL     1     -10.629  12.423  66.769  1.00  0.00    -0.226 A  
ENDROOT
BRANCH   8  12
HETATM   12  N   UNL     1      -6.712  10.826  67.140  1.00  0.00    -0.079 NA 
HETATM   13  H   UNL     1      -5.956  11.352  66.701  1.00  0.00     0.000 HD 
BRANCH  12  14
HETATM   14  C   UNL     1      -6.378   9.630  67.855  1.00  0.00    -0.057 A  
HETATM   15 BR   UNL     1      -5.645   5.527  70.013  1.00  0.00    -0.009 Br 
HETATM   16  C   UNL     1      -6.608   9.499  69.233  1.00  0.00    -0.048 A  
HETATM   17  C   UNL     1      -5.530   7.341  67.816  1.00  0.00    -0.025 A  
HETATM   18  C   UNL     1      -5.775   8.556  67.183  1.00  0.00    -0.039 A  
HETATM   19  C   UNL     1      -5.870   7.198  69.158  1.00  0.00    -0.019 A  
HETATM   20  C   UNL     1      -6.389   8.275  69.875  1.00  0.00    -0.032 A  
HETATM   21  F   UNL     1      -5.479   8.685  65.881  1.00  0.00    -0.035 F  
ENDBRANCH  12  14
ENDBRANCH   8  12
BRANCH  10  22
HETATM   22  C   UNL     1      -8.661   9.707  65.078  1.00  0.00    -0.162 C  
HETATM   23  H   UNL     1      -8.299  10.963  63.435  1.00  0.00     0.000 HD 
HETATM   24  N   UNL     1      -8.331  10.002  63.776  1.00  0.00    -0.159 N  
HETATM   25  O   UNL     1      -8.662   8.562  65.531  1.00  0.00    -0.171 OA 
BRANCH  24  26
HETATM   26  O   UNL     1      -8.037   8.897  62.934  1.00  0.00    -0.155 OA 
BRANCH  26  27
HETATM   27  C   UNL     1      -6.689   9.064  62.466  1.00  0.00    -0.093 C  
BRANCH  27  28
HETATM   28  C   UNL     1      -6.298  10.540  62.416  1.00  0.00    -0.141 C  
HETATM   29  O   UNL     1      -5.510  10.917  63.541  1.00  0.00    -0.338 OA 
HETATM   30  H   UNL     1      -5.267  11.835  63.510  1.00  0.00     0.000 HD 
ENDBRANCH  27  28
ENDBRANCH  26  27
ENDBRANCH  24  26
ENDBRANCH  10  22
TORSDOF 6
ENDMDL
MODEL      206
REMARK 921   NORMALIZED FREE ENERGY PREDICTED BY IDOCK:   -2.47 KCAL/MOL
REMARK 922        TOTAL FREE ENERGY PREDICTED BY IDOCK:   -4.62 KCAL/MOL
REMARK 923 INTER-LIGAND FREE ENERGY PREDICTED BY IDOCK:   -4.44 KCAL/MOL
REMARK 924 INTRA-LIGAND FREE ENERGY PREDICTED BY IDOCK:   -0.18 KCAL/MOL
REMARK 927      BINDING AFFINITY PREDICTED BY RF-SCORE:    0.00 PKD
ROOT
HETATM    1  C   UNL     1      -5.126  10.717  72.162  1.00  0.00     0.081 C  
HETATM    2  N   UNL     1      -5.890  11.264  71.071  1.00  0.00    -0.363 NA 
HETATM    3  C   UNL     1      -5.767  12.528  70.572  1.00  0.00    -0.170 A  
HETATM    4  N   UNL     1      -6.615  12.745  69.593  1.00  0.00    -0.043 NA 
HETATM    5  C   UNL     1      -7.316  11.569  69.453  1.00  0.00     0.053 A  
HETATM    6  C   UNL     1      -8.353  11.228  68.575  1.00  0.00    -0.155 A  
HETATM    7  F   UNL     1      -8.738  12.131  67.660  1.00  0.00    -0.147 F  
HETATM    8  C   UNL     1      -8.976   9.949  68.633  1.00  0.00    -0.128 A  
HETATM    9  C   UNL     1      -7.376   9.310  70.381  1.00  0.00    -0.111 A  
HETATM   10  C   UNL     1      -8.409   8.965  69.472  1.00  0.00    -0.119 A  
HETATM   11  C   UNL     1      -6.867  10.616  70.359  1.00  0.00     0.077 A  
ENDROOT
BRANCH   8  12
HETATM   12  N   UNL     1     -10.091   9.665  67.765  1.00  0.00    -0.175 NA 
HETATM   13  H   UNL     1     -10.615   8.804  67.918  1.00  0.00     0.000 HD 
BRANCH  12  14
HETATM   14  C   UNL     1     -10.503  10.528  66.698  1.00  0.00    -0.228 A  
HETATM   15 BR   UNL     1     -12.244  13.145  63.212  1.00  0.00    -0.203 Br 
HETATM   16  C   UNL     1     -10.061  10.344  65.379  1.00  0.00    -0.354 A  
HETATM   17  C   UNL     1     -11.855  12.414  65.940  1.00  0.00    -0.467 A  
HETATM   18  C   UNL     1     -11.349  11.615  66.961  1.00  0.00    -0.305 A  
HETATM   19  C   UNL     1     -11.489  12.142  64.625  1.00  0.00    -0.328 A  
HETATM   20  C   UNL     1     -10.580  11.125  64.340  1.00  0.00    -0.411 A  
HETATM   21  F   UNL     1     -11.728  11.856  68.226  1.00  0.00    -0.310 F  
ENDBRANCH  12  14
ENDBRANCH   8  12
BRANCH  10  22
HETATM   22  C   UNL     1      -8.738   7.495  69.427  1.00  0.00    -0.137 C  
HETATM   23  H   UNL     1      -6.720   6.946  69.613  1.00  0.00     0.000 HD 
HETATM   24  N   UNL     1      -7.684   6.620  69.536  1.00  0.00    -0.102 N  
HETATM   25  O   UNL     1      -9.914   7.133  69.380  1.00  0.00    -0.160 OA 
BRANCH  24  26
HETATM   26  O   UNL     1      -8.009   5.237  69.537  1.00  0.00    -0.085 OA 
BRANCH  26  27
HETATM   27  C   UNL     1      -7.091   4.582  68.646  1.00  0.00    -0.052 C  
BRANCH  27  28
HETATM   28  C   UNL     1      -7.378   3.085  68.557  1.00  0.00    -0.049 C  
HETATM   29  O   UNL     1      -7.499   2.493  69.848  1.00  0.00    -0.043 OA 
HETATM   30  H   UNL     1      -7.677   1.561  69.793  1.00  0.00     0.000 HD 
ENDBRANCH  27  28
ENDBRANCH  26  27
ENDBRANCH  24  26
ENDBRANCH  10  22
TORSDOF 6
ENDMDL
MODEL      207
REMARK 921   NORMALIZED FREE ENERGY PREDICTED BY IDOCK:   -2.45 KCAL/MOL
REMARK 922        TOTAL FREE ENERGY PREDICTED BY IDOCK:   -4.59 KCAL/MOL
REMARK 923 INTER-LIGAND FREE ENERGY PREDICTED BY IDOCK:   -4.38 KCAL/MOL
REMARK 924 INTRA-LIGAND FREE ENERGY PREDICTED BY IDOCK:   -0.21 KCAL/MOL
REMARK 927      BINDING AFFINITY PREDICTED BY RF-SCORE:    0.00 PKD
ROOT
HETATM    1  C   UNL     1      -5.126  11.604  71.657  1.00  0.00     0.015 C  
HETATM    2  N   UNL     1      -5.960  12.072  70.580  1.00  0.00    -0.300 NA 
HETATM    3  C   UNL     1      -5.933  13.328  70.046  1.00  0.00    -0.134 A  
HETATM    4  N   UNL     1      -6.826  13.465  69.092  1.00  0.00    -0.101 NA 
HETATM    5  C   UNL     1      -7.456  12.245  69.007  1.00  0.00     0.058 A  
HETATM    6  C   UNL     1      -8.499  11.817  68.176  1.00  0.00    -0.158 A  
HETATM    7  F   UNL     1      -8.972  12.669  67.253  1.00  0.00    -0.165 F  
HETATM    8  C   UNL     1      -9.040  10.504  68.289  1.00  0.00    -0.146 A  
HETATM    9  C   UNL     1      -7.343  10.012  69.994  1.00  0.00    -0.172 A  
HETATM   10  C   UNL     1      -8.384   9.580  69.132  1.00  0.00    -0.125 A  
HETATM   11  C   UNL     1      -6.918  11.347  69.921  1.00  0.00     0.127 A  
ENDROOT
BRANCH   8  12
HETATM   12  N   UNL     1     -10.163  10.129  67.469  1.00  0.00    -0.197 NA 
HETATM   13  H   UNL     1     -10.641   9.252  67.676  1.00  0.00     0.000 HD 
BRANCH  12  14
HETATM   14  C   UNL     1     -10.646  10.921  66.377  1.00  0.00    -0.229 A  
HETATM   15 BR   UNL     1     -12.610  13.291  62.833  1.00  0.00     1.120 Br 
HETATM   16  C   UNL     1     -10.240  10.692  65.054  1.00  0.00    -0.380 A  
HETATM   17  C   UNL     1     -12.102  12.710  65.578  1.00  0.00    -0.515 A  
HETATM   18  C   UNL     1     -11.530  11.983  66.618  1.00  0.00    -0.346 A  
HETATM   19  C   UNL     1     -11.768  12.390  64.266  1.00  0.00    -0.380 A  
HETATM   20  C   UNL     1     -10.826  11.399  63.998  1.00  0.00    -0.450 A  
HETATM   21  F   UNL     1     -11.878  12.269  67.883  1.00  0.00    -0.363 F  
ENDBRANCH  12  14
ENDBRANCH   8  12
BRANCH  10  22
HETATM   22  C   UNL     1      -8.621   8.092  69.135  1.00  0.00    -0.136 C  
HETATM   23  H   UNL     1      -9.379   8.127  71.093  1.00  0.00     0.000 HD 
HETATM   24  N   UNL     1      -9.170   7.554  70.275  1.00  0.00    -0.157 N  
HETATM   25  O   UNL     1      -8.402   7.436  68.117  1.00  0.00    -0.123 OA 
BRANCH  24  26
HETATM   26  O   UNL     1      -9.431   6.158  70.252  1.00  0.00    -0.158 OA 
BRANCH  26  27
HETATM   27  C   UNL     1     -10.591   5.927  71.068  1.00  0.00    -0.250 C  
BRANCH  27  28
HETATM   28  C   UNL     1     -10.757   7.023  72.118  1.00  0.00    -0.218 C  
HETATM   29  O   UNL     1     -11.907   6.806  72.932  1.00  0.00    -0.494 OA 
HETATM   30  H   UNL     1     -12.010   7.487  73.585  1.00  0.00     0.000 HD 
ENDBRANCH  27  28
ENDBRANCH  26  27
ENDBRANCH  24  26
ENDBRANCH  10  22
TORSDOF 6
ENDMDL
MODEL      208
REMARK 921   NORMALIZED FREE ENERGY PREDICTED BY IDOCK:   -2.24 KCAL/MOL
REMARK 922        TOTAL FREE ENERGY PREDICTED BY IDOCK:   -4.31 KCAL/MOL
REMARK 923 INTER-LIGAND FREE ENERGY PREDICTED BY IDOCK:   -4.26 KCAL/MOL
REMARK 924 INTRA-LIGAND FREE ENERGY PREDICTED BY IDOCK:   -0.04 KCAL/MOL
REMARK 927      BINDING AFFINITY PREDICTED BY RF-SCORE:    0.00 PKD
ROOT
HETATM    1  C   UNL     1     -10.573   4.837  66.274  1.00  0.00    -0.198 C  
HETATM    2  N   UNL     1     -10.304   5.750  67.355  1.00  0.00    -0.199 NA 
HETATM    3  C   UNL     1     -10.732   5.601  68.642  1.00  0.00    -0.179 A  
HETATM    4  N   UNL     1     -10.350   6.607  69.396  1.00  0.00    -0.188 NA 
HETATM    5  C   UNL     1      -9.644   7.441  68.559  1.00  0.00    -0.146 A  
HETATM    6  C   UNL     1      -9.018   8.667  68.814  1.00  0.00    -0.138 A  
HETATM    7  F   UNL     1      -9.023   9.138  70.071  1.00  0.00    -0.138 F  
HETATM    8  C   UNL     1      -8.373   9.395  67.774  1.00  0.00    -0.115 A  
HETATM    9  C   UNL     1      -8.871   7.542  66.243  1.00  0.00    -0.184 A  
HETATM   10  C   UNL     1      -8.219   8.772  66.516  1.00  0.00    -0.111 A  
HETATM   11  C   UNL     1      -9.587   6.915  67.273  1.00  0.00    -0.142 A  
ENDROOT
BRANCH   8  12
HETATM   12  N   UNL     1      -7.808  10.689  68.061  1.00  0.00    -0.103 NA 
HETATM   13  H   UNL     1      -6.810  10.746  68.265  1.00  0.00     0.000 HD 
BRANCH  12  14
HETATM   14  C   UNL     1      -8.572  11.901  68.077  1.00  0.00    -0.168 A  
HETATM   15 BR   UNL     1     -11.061  15.849  68.574  1.00  0.00    -0.357 Br 
HETATM   16  C   UNL     1      -9.945  11.919  67.790  1.00  0.00    -0.191 A  
HETATM   17  C   UNL     1      -8.665  14.307  68.483  1.00  0.00    -0.175 A  
HETATM   18  C   UNL     1      -7.943  13.124  68.356  1.00  0.00    -0.130 A  
HETATM   19  C   UNL     1     -10.045  14.279  68.304  1.00  0.00    -0.238 A  
HETATM   20  C   UNL     1     -10.687  13.097  67.939  1.00  0.00    -0.249 A  
HETATM   21  F   UNL     1      -6.617  13.143  68.563  1.00  0.00    -0.069 F  
ENDBRANCH  12  14
ENDBRANCH   8  12
BRANCH  10  22
HETATM   22  C   UNL     1      -7.309   9.255  65.417  1.00  0.00    -0.090 C  
HETATM   23  H   UNL     1      -8.557   8.477  63.918  1.00  0.00     0.000 HD 
HETATM   24  N   UNL     1      -7.704   8.997  64.126  1.00  0.00    -0.118 N  
HETATM   25  O   UNL     1      -6.311   9.919  65.697  1.00  0.00    -0.072 OA 
BRANCH  24  26
HETATM   26  O   UNL     1      -6.861   9.495  63.096  1.00  0.00    -0.099 OA 
BRANCH  26  27
HETATM   27  C   UNL     1      -7.257  10.852  62.840  1.00  0.00     0.230 C  
BRANCH  27  28
HETATM   28  C   UNL     1      -8.696  10.924  62.334  1.00  0.00    -0.309 C  
HETATM   29  O   UNL     1      -9.571  10.111  63.113  1.00  0.00    -0.387 OA 
HETATM   30  H   UNL     1     -10.466  10.156  62.798  1.00  0.00     0.000 HD 
ENDBRANCH  27  28
ENDBRANCH  26  27
ENDBRANCH  24  26
ENDBRANCH  10  22
TORSDOF 6
ENDMDL
MODEL      209
REMARK 921   NORMALIZED FREE ENERGY PREDICTED BY IDOCK:   -2.22 KCAL/MOL
REMARK 922        TOTAL FREE ENERGY PREDICTED BY IDOCK:   -4.28 KCAL/MOL
REMARK 923 INTER-LIGAND FREE ENERGY PREDICTED BY IDOCK:   -4.04 KCAL/MOL
REMARK 924 INTRA-LIGAND FREE ENERGY PREDICTED BY IDOCK:   -0.23 KCAL/MOL
REMARK 927      BINDING AFFINITY PREDICTED BY RF-SCORE:    0.00 PKD
ROOT
HETATM    1  C   UNL     1      -9.858   7.970  65.993  1.00  0.00     0.153 C  
HETATM    2  N   UNL     1     -10.026   9.399  66.070  1.00  0.00    -0.300 NA 
HETATM    3  C   UNL     1     -10.854  10.143  65.279  1.00  0.00     0.703 A  
HETATM    4  N   UNL     1     -10.776  11.422  65.569  1.00  0.00    -0.272 NA 
HETATM    5  C   UNL     1      -9.858  11.507  66.591  1.00  0.00    -0.202 A  
HETATM    6  C   UNL     1      -9.370  12.622  67.285  1.00  0.00    -0.195 A  
HETATM    7  F   UNL     1      -9.878  13.829  66.990  1.00  0.00    -0.229 F  
HETATM    8  C   UNL     1      -8.373  12.485  68.292  1.00  0.00    -0.167 A  
HETATM    9  C   UNL     1      -8.485  10.051  67.993  1.00  0.00    -0.117 A  
HETATM   10  C   UNL     1      -8.014  11.184  68.706  1.00  0.00    -0.144 A  
HETATM   11  C   UNL     1      -9.385  10.246  66.936  1.00  0.00    -0.158 A  
ENDROOT
BRANCH   8  12
HETATM   12  N   UNL     1      -7.842  13.665  68.927  1.00  0.00    -0.317 NA 
HETATM   13  H   UNL     1      -7.033  13.561  69.539  1.00  0.00     0.000 HD 
BRANCH  12  14
HETATM   14  C   UNL     1      -8.390  14.976  68.745  1.00  0.00    -0.174 A  
HETATM   15 BR   UNL     1      -9.879  19.417  68.438  1.00  0.00    -0.545 Br 
HETATM   16  C   UNL     1      -9.607  15.361  69.325  1.00  0.00    -0.268 A  
HETATM   17  C   UNL     1      -8.163  17.225  67.822  1.00  0.00    -0.205 A  
HETATM   18  C   UNL     1      -7.720  15.911  67.941  1.00  0.00    -0.135 A  
HETATM   19  C   UNL     1      -9.315  17.614  68.498  1.00  0.00    -0.291 A  
HETATM   20  C   UNL     1     -10.051  16.685  69.233  1.00  0.00    -0.257 A  
HETATM   21  F   UNL     1      -6.590  15.543  67.316  1.00  0.00    -0.184 F  
ENDBRANCH  12  14
ENDBRANCH   8  12
BRANCH  10  22
HETATM   22  C   UNL     1      -7.225  10.857  69.947  1.00  0.00     0.016 C  
HETATM   23  H   UNL     1      -8.382   9.152  70.345  1.00  0.00     0.000 HD 
HETATM   24  N   UNL     1      -7.593   9.728  70.638  1.00  0.00    -0.089 N  
HETATM   25  O   UNL     1      -6.250  11.546  70.250  1.00  0.00    -0.161 OA 
BRANCH  24  26
HETATM   26  O   UNL     1      -6.815   9.405  71.782  1.00  0.00    -0.309 OA 
BRANCH  26  27
HETATM   27  C   UNL     1      -6.947   7.992  72.003  1.00  0.00    -0.075 C  
BRANCH  27  28
HETATM   28  C   UNL     1      -7.377   7.269  70.729  1.00  0.00    -0.071 C  
HETATM   29  O   UNL     1      -6.807   5.965  70.642  1.00  0.00    -0.050 OA 
HETATM   30  H   UNL     1      -7.074   5.516  69.849  1.00  0.00     0.000 HD 
ENDBRANCH  27  28
ENDBRANCH  26  27
ENDBRANCH  24  26
ENDBRANCH  10  22
TORSDOF 6
ENDMDL
MODEL      210
REMARK 921   NORMALIZED FREE ENERGY PREDICTED BY IDOCK:   -1.43 KCAL/MOL
REMARK 922        TOTAL FREE ENERGY PREDICTED BY IDOCK:   -3.21 KCAL/MOL
REMARK 923 INTER-LIGAND FREE ENERGY PREDICTED BY IDOCK:   -2.57 KCAL/MOL
REMARK 924 INTRA-LIGAND FREE ENERGY PREDICTED BY IDOCK:   -0.64 KCAL/MOL
REMARK 927      BINDING AFFINITY PREDICTED BY RF-SCORE:    0.00 PKD
ROOT
HETATM    1  C   UNL     1      -8.071  16.190  70.565  1.00  0.00     2.411 C  
HETATM    2  N   UNL     1      -8.473  16.110  69.184  1.00  0.00    -0.253 NA 
HETATM    3  C   UNL     1      -8.529  17.160  68.313  1.00  0.00    -0.236 A  
HETATM    4  N   UNL     1      -8.955  16.781  67.129  1.00  0.00    -0.201 NA 
HETATM    5  C   UNL     1      -9.182  15.429  67.241  1.00  0.00    -0.207 A  
HETATM    6  C   UNL     1      -9.656  14.506  66.299  1.00  0.00    -0.304 A  
HETATM    7  F   UNL     1      -9.895  14.934  65.050  1.00  0.00    -0.365 F  
HETATM    8  C   UNL     1      -9.864  13.141  66.646  1.00  0.00    -0.261 A  
HETATM    9  C   UNL     1      -8.956  13.626  68.874  1.00  0.00     0.189 A  
HETATM   10  C   UNL     1      -9.413  12.694  67.907  1.00  0.00    -0.204 A  
HETATM   11  C   UNL     1      -8.871  14.980  68.518  1.00  0.00    -0.181 A  
ENDROOT
BRANCH   8  12
HETATM   12  N   UNL     1     -10.425  12.241  65.670  1.00  0.00    -0.254 NA 
HETATM   13  H   UNL     1     -11.438  12.227  65.553  1.00  0.00     0.000 HD 
BRANCH  12  14
HETATM   14  C   UNL     1      -9.637  11.364  64.856  1.00  0.00    -0.215 A  
HETATM   15 BR   UNL     1      -7.304   8.159  62.343  1.00  0.00    -0.102 Br 
HETATM   16  C   UNL     1      -8.331  10.993  65.210  1.00  0.00     0.056 A  
HETATM   17  C   UNL     1      -9.464   9.941  62.880  1.00  0.00    -0.126 A  
HETATM   18  C   UNL     1     -10.154  10.874  63.648  1.00  0.00    -0.355 A  
HETATM   19  C   UNL     1      -8.215   9.503  63.311  1.00  0.00    -0.162 A  
HETATM   20  C   UNL     1      -7.636  10.038  64.460  1.00  0.00    -0.142 A  
HETATM   21  F   UNL     1     -11.374  11.272  63.251  1.00  0.00    -0.434 F  
ENDBRANCH  12  14
ENDBRANCH   8  12
BRANCH  10  22
HETATM   22  C   UNL     1      -9.268  11.250  68.313  1.00  0.00    -0.176 C  
HETATM   23  H   UNL     1      -7.412  11.599  69.228  1.00  0.00     0.000 HD 
HETATM   24  N   UNL     1      -8.136  10.913  69.016  1.00  0.00    -0.143 N  
HETATM   25  O   UNL     1     -10.181  10.456  68.082  1.00  0.00    -0.151 OA 
BRANCH  24  26
HETATM   26  O   UNL     1      -8.031   9.559  69.431  1.00  0.00    -0.085 OA 
BRANCH  26  27
HETATM   27  C   UNL     1      -8.925   9.383  70.542  1.00  0.00    -0.253 C  
BRANCH  27  28
HETATM   28  C   UNL     1      -9.538   7.984  70.544  1.00  0.00    -0.170 C  
HETATM   29  O   UNL     1     -10.836   7.974  69.955  1.00  0.00    -0.248 OA 
HETATM   30  H   UNL     1     -11.217   7.105  69.956  1.00  0.00     0.000 HD 
ENDBRANCH  27  28
ENDBRANCH  26  27
ENDBRANCH  24  26
ENDBRANCH  10  22
TORSDOF 6
ENDMDL
MODEL      211
REMARK 921   NORMALIZED FREE ENERGY PREDICTED BY IDOCK:   -0.99 KCAL/MOL
REMARK 922        TOTAL FREE ENERGY PREDICTED BY IDOCK:   -2.62 KCAL/MOL
REMARK 923 INTER-LIGAND FREE ENERGY PREDICTED BY IDOCK:   -3.45 KCAL/MOL
REMARK 924 INTRA-LIGAND FREE ENERGY PREDICTED BY IDOCK:    0.84 KCAL/MOL
REMARK 927      BINDING AFFINITY PREDICTED BY RF-SCORE:    0.00 PKD
ROOT
HETATM    1  C   UNL     1     -11.101   9.421  70.979  1.00  0.00    -0.344 C  
HETATM    2  N   UNL     1     -11.582  10.392  70.030  1.00  0.00    -0.280 NA 
HETATM    3  C   UNL     1     -12.887  10.755  69.861  1.00  0.00     0.080 A  
HETATM    4  N   UNL     1     -13.019  11.646  68.904  1.00  0.00     0.991 NA 
HETATM    5  C   UNL     1     -11.744  11.867  68.436  1.00  0.00    -0.326 A  
HETATM    6  C   UNL     1     -11.285  12.705  67.412  1.00  0.00    -0.290 A  
HETATM    7  F   UNL     1     -12.173  13.487  66.779  1.00  0.00    -0.409 F  
HETATM    8  C   UNL     1      -9.906  12.746  67.056  1.00  0.00    -0.231 A  
HETATM    9  C   UNL     1      -9.442  11.191  68.898  1.00  0.00    -0.136 A  
HETATM   10  C   UNL     1      -8.983  12.061  67.876  1.00  0.00    -0.182 A  
HETATM   11  C   UNL     1     -10.821  11.103  69.139  1.00  0.00    -0.238 A  
ENDROOT
BRANCH   8  12
HETATM   12  N   UNL     1      -9.486  13.563  65.946  1.00  0.00    -0.499 NA 
HETATM   13  H   UNL     1      -8.897  13.139  65.230  1.00  0.00     0.000 HD 
BRANCH  12  14
HETATM   14  C   UNL     1      -9.852  14.940  65.794  1.00  0.00    -0.348 A  
HETATM   15 BR   UNL     1     -11.273  19.412  65.677  1.00  0.00     0.730 Br 
HETATM   16  C   UNL     1     -10.829  15.354  64.876  1.00  0.00    -0.445 A  
HETATM   17  C   UNL     1      -9.600  17.260  66.512  1.00  0.00    -0.286 A  
HETATM   18  C   UNL     1      -9.205  15.926  66.554  1.00  0.00    -0.279 A  
HETATM   19  C   UNL     1     -10.648  17.628  65.675  1.00  0.00    -0.135 A  
HETATM   20  C   UNL     1     -11.252  16.687  64.842  1.00  0.00    -0.065 A  
HETATM   21  F   UNL     1      -8.216  15.564  67.387  1.00  0.00    -0.145 F  
ENDBRANCH  12  14
ENDBRANCH   8  12
BRANCH  10  22
HETATM   22  C   UNL     1      -7.488  12.245  67.836  1.00  0.00    -0.121 C  
HETATM   23  H   UNL     1      -7.644  14.006  66.704  1.00  0.00     0.000 HD 
HETATM   24  N   UNL     1      -7.016  13.353  67.174  1.00  0.00     0.078 N  
HETATM   25  O   UNL     1      -6.760  11.466  68.452  1.00  0.00    -0.060 OA 
BRANCH  24  26
HETATM   26  O   UNL     1      -5.608  13.541  67.181  1.00  0.00    -0.288 OA 
BRANCH  26  27
HETATM   27  C   UNL     1      -5.350  14.813  67.797  1.00  0.00    -0.018 C  
BRANCH  27  28
HETATM   28  C   UNL     1      -6.183  14.994  69.064  1.00  0.00    -0.098 C  
HETATM   29  O   UNL     1      -5.772  14.103  70.098  1.00  0.00    -0.111 OA 
HETATM   30  H   UNL     1      -6.290  14.215  70.886  1.00  0.00     0.000 HD 
ENDBRANCH  27  28
ENDBRANCH  26  27
ENDBRANCH  24  26
ENDBRANCH  10  22
TORSDOF 6
ENDMDL
MODEL      212
REMARK 921   NORMALIZED FREE ENERGY PREDICTED BY IDOCK:   -0.82 KCAL/MOL
REMARK 922        TOTAL FREE ENERGY PREDICTED BY IDOCK:   -2.39 KCAL/MOL
REMARK 923 INTER-LIGAND FREE ENERGY PREDICTED BY IDOCK:   -2.78 KCAL/MOL
REMARK 924 INTRA-LIGAND FREE ENERGY PREDICTED BY IDOCK:    0.39 KCAL/MOL
REMARK 927      BINDING AFFINITY PREDICTED BY RF-SCORE:    0.00 PKD
ROOT
HETATM    1  C   UNL     1      -7.683   8.338  63.796  1.00  0.00    -0.145 C  
HETATM    2  N   UNL     1      -7.381   8.309  65.205  1.00  0.00    -0.079 NA 
HETATM    3  C   UNL     1      -6.982   9.379  65.951  1.00  0.00    -0.090 A  
HETATM    4  N   UNL     1      -6.758   9.039  67.200  1.00  0.00    -0.065 NA 
HETATM    5  C   UNL     1      -7.026   7.690  67.262  1.00  0.00    -0.084 A  
HETATM    6  C   UNL     1      -6.944   6.796  68.337  1.00  0.00    -0.077 A  
HETATM    7  F   UNL     1      -6.609   7.277  69.545  1.00  0.00    -0.036 F  
HETATM    8  C   UNL     1      -7.227   5.411  68.166  1.00  0.00    -0.071 A  
HETATM    9  C   UNL     1      -7.829   5.879  65.833  1.00  0.00    -0.105 A  
HETATM   10  C   UNL     1      -7.767   4.985  66.933  1.00  0.00    -0.092 A  
HETATM   11  C   UNL     1      -7.436   7.211  66.024  1.00  0.00    -0.080 A  
ENDROOT
BRANCH   8  12
HETATM   12  N   UNL     1      -7.057   4.512  69.279  1.00  0.00    -0.050 NA 
HETATM   13  H   UNL     1      -6.208   3.947  69.318  1.00  0.00     0.000 HD 
BRANCH  12  14
HETATM   14  C   UNL     1      -8.015   4.368  70.335  1.00  0.00    -0.056 A  
HETATM   15 BR   UNL     1     -11.034   4.304  73.928  1.00  0.00    -0.258 Br 
HETATM   16  C   UNL     1      -7.773   3.559  71.454  1.00  0.00    -0.056 A  
HETATM   17  C   UNL     1     -10.168   4.994  71.301  1.00  0.00    -0.273 A  
HETATM   18  C   UNL     1      -9.252   5.024  70.253  1.00  0.00    -0.139 A  
HETATM   19  C   UNL     1      -9.856   4.274  72.450  1.00  0.00    -0.158 A  
HETATM   20  C   UNL     1      -8.674   3.540  72.526  1.00  0.00    -0.096 A  
HETATM   21  F   UNL     1      -9.537   5.746  69.158  1.00  0.00    -0.132 F  
ENDBRANCH  12  14
ENDBRANCH   8  12
BRANCH  10  22
HETATM   22  C   UNL     1      -8.405   3.643  66.685  1.00  0.00    -0.104 C  
HETATM   23  H   UNL     1      -6.812   3.008  65.475  1.00  0.00     0.000 HD 
HETATM   24  N   UNL     1      -7.706   2.759  65.898  1.00  0.00    -0.079 N  
HETATM   25  O   UNL     1      -9.462   3.356  67.247  1.00  0.00    -0.203 OA 
BRANCH  24  26
HETATM   26  O   UNL     1      -8.296   1.481  65.707  1.00  0.00    -0.080 OA 
BRANCH  26  27
HETATM   27  C   UNL     1      -9.519   1.680  64.980  1.00  0.00     0.012 C  
BRANCH  27  28
HETATM   28  C   UNL     1      -9.301   2.579  63.764  1.00  0.00    -0.111 C  
HETATM   29  O   UNL     1      -8.619   1.895  62.717  1.00  0.00    -0.071 OA 
HETATM   30  H   UNL     1      -8.483   2.453  61.961  1.00  0.00     0.000 HD 
ENDBRANCH  27  28
ENDBRANCH  26  27
ENDBRANCH  24  26
ENDBRANCH  10  22
TORSDOF 6
ENDMDL
MODEL      213
REMARK 921   NORMALIZED FREE ENERGY PREDICTED BY IDOCK:   -0.04 KCAL/MOL
REMARK 922        TOTAL FREE ENERGY PREDICTED BY IDOCK:   -1.34 KCAL/MOL
REMARK 923 INTER-LIGAND FREE ENERGY PREDICTED BY IDOCK:   -0.63 KCAL/MOL
REMARK 924 INTRA-LIGAND FREE ENERGY PREDICTED BY IDOCK:   -0.71 KCAL/MOL
REMARK 927      BINDING AFFINITY PREDICTED BY RF-SCORE:    0.00 PKD
ROOT
HETATM    1  C   UNL     1      -5.128  11.965  71.214  1.00  0.00    -0.101 C  
HETATM    2  N   UNL     1      -6.090  12.602  70.353  1.00  0.00    -0.112 NA 
HETATM    3  C   UNL     1      -6.036  13.898  69.927  1.00  0.00    -0.140 A  
HETATM    4  N   UNL     1      -7.067  14.199  69.170  1.00  0.00    -0.112 NA 
HETATM    5  C   UNL     1      -7.817  13.048  69.103  1.00  0.00     0.382 A  
HETATM    6  C   UNL     1      -9.028  12.788  68.448  1.00  0.00    -0.120 A  
HETATM    7  F   UNL     1      -9.572  13.762  67.701  1.00  0.00    -0.201 F  
HETATM    8  C   UNL     1      -9.664  11.519  68.552  1.00  0.00    -0.189 A  
HETATM    9  C   UNL     1      -7.748  10.728  69.866  1.00  0.00     0.200 A  
HETATM   10  C   UNL     1      -8.962  10.467  69.179  1.00  0.00    -0.188 A  
HETATM   11  C   UNL     1      -7.215  12.024  69.825  1.00  0.00     0.549 A  
ENDROOT
BRANCH   8  12
HETATM   12  N   UNL     1     -10.947  11.317  67.926  1.00  0.00    -0.228 NA 
HETATM   13  H   UNL     1     -11.664  10.814  68.447  1.00  0.00     0.000 HD 
BRANCH  12  14
HETATM   14  C   UNL     1     -11.269  11.786  66.611  1.00  0.00    -0.323 A  
HETATM   15 BR   UNL     1     -12.715  13.117  62.349  1.00  0.00     3.574 Br 
HETATM   16  C   UNL     1     -10.722  11.203  65.458  1.00  0.00    -0.251 A  
HETATM   17  C   UNL     1     -12.551  13.301  65.189  1.00  0.00    -0.512 A  
HETATM   18  C   UNL     1     -12.131  12.880  66.448  1.00  0.00    -0.329 A  
HETATM   19  C   UNL     1     -12.080  12.634  64.062  1.00  0.00    -0.462 A  
HETATM   20  C   UNL     1     -11.154  11.600  64.188  1.00  0.00    -0.435 A  
HETATM   21  F   UNL     1     -12.611  13.501  67.537  1.00  0.00    -0.263 F  
ENDBRANCH  12  14
ENDBRANCH   8  12
BRANCH  10  22
HETATM   22  C   UNL     1      -9.338   9.010  69.106  1.00  0.00    -0.148 C  
HETATM   23  H   UNL     1      -8.017   8.656  67.513  1.00  0.00     0.000 HD 
HETATM   24  N   UNL     1      -8.695   8.250  68.158  1.00  0.00    -0.136 N  
HETATM   25  O   UNL     1     -10.126   8.540  69.927  1.00  0.00    -0.187 OA 
BRANCH  24  26
HETATM   26  O   UNL     1      -9.025   6.869  68.127  1.00  0.00    -0.125 OA 
BRANCH  26  27
HETATM   27  C   UNL     1      -9.933   6.672  67.031  1.00  0.00    -0.169 C  
BRANCH  27  28
HETATM   28  C   UNL     1     -10.803   5.435  67.247  1.00  0.00     0.041 C  
HETATM   29  O   UNL     1     -11.143   4.806  66.015  1.00  0.00    -0.642 OA 
HETATM   30  H   UNL     1     -11.684   4.037  66.149  1.00  0.00     0.000 HD 
ENDBRANCH  27  28
ENDBRANCH  26  27
ENDBRANCH  24  26
ENDBRANCH  10  22
TORSDOF 6
ENDMDL
MODEL      214
REMARK 921   NORMALIZED FREE ENERGY PREDICTED BY IDOCK:    2.46 KCAL/MOL
REMARK 922        TOTAL FREE ENERGY PREDICTED BY IDOCK:    2.05 KCAL/MOL
REMARK 923 INTER-LIGAND FREE ENERGY PREDICTED BY IDOCK:   -2.55 KCAL/MOL
REMARK 924 INTRA-LIGAND FREE ENERGY PREDICTED BY IDOCK:    4.60 KCAL/MOL
REMARK 927      BINDING AFFINITY PREDICTED BY RF-SCORE:    0.00 PKD
ROOT
HETATM    1  C   UNL     1     -10.102   3.009  68.062  1.00  0.00     1.070 C  
HETATM    2  N   UNL     1      -9.652   3.790  66.939  1.00  0.00    -0.206 NA 
HETATM    3  C   UNL     1      -9.275   3.288  65.726  1.00  0.00    -0.149 A  
HETATM    4  N   UNL     1      -8.892   4.243  64.909  1.00  0.00    -0.132 NA 
HETATM    5  C   UNL     1      -9.027   5.410  65.625  1.00  0.00    -0.156 A  
HETATM    6  C   UNL     1      -8.753   6.735  65.263  1.00  0.00     0.076 A  
HETATM    7  F   UNL     1      -8.337   6.983  64.011  1.00  0.00    -0.090 F  
HETATM    8  C   UNL     1      -8.925   7.802  66.190  1.00  0.00    -0.163 A  
HETATM    9  C   UNL     1      -9.809   6.181  67.808  1.00  0.00    -0.131 A  
HETATM   10  C   UNL     1      -9.550   7.523  67.425  1.00  0.00    -0.187 A  
HETATM   11  C   UNL     1      -9.520   5.153  66.898  1.00  0.00    -0.139 A  
ENDROOT
BRANCH   8  12
HETATM   12  N   UNL     1      -8.557   9.141  65.804  1.00  0.00    -0.144 NA 
HETATM   13  H   UNL     1      -8.891   9.493  64.907  1.00  0.00     0.000 HD 
BRANCH  12  14
HETATM   14  C   UNL     1      -7.749  10.005  66.613  1.00  0.00    -0.104 A  
HETATM   15 BR   UNL     1      -5.477  12.966  69.459  1.00  0.00    -0.090 Br 
HETATM   16  C   UNL     1      -7.200  11.194  66.112  1.00  0.00     0.000 A  
HETATM   17  C   UNL     1      -6.767  10.513  68.789  1.00  0.00    -0.054 A  
HETATM   18  C   UNL     1      -7.460   9.655  67.940  1.00  0.00    -0.083 A  
HETATM   19  C   UNL     1      -6.327  11.739  68.299  1.00  0.00    -0.050 A  
HETATM   20  C   UNL     1      -6.522  12.077  66.961  1.00  0.00    -0.114 A  
HETATM   21  F   UNL     1      -7.914   8.487  68.421  1.00  0.00    -0.108 F  
ENDBRANCH  12  14
ENDBRANCH   8  12
BRANCH  10  22
HETATM   22  C   UNL     1     -10.086   8.559  68.378  1.00  0.00    -0.194 C  
HETATM   23  H   UNL     1      -9.438   7.481  70.058  1.00  0.00     0.000 HD 
HETATM   24  N   UNL     1      -9.894   8.328  69.719  1.00  0.00    -0.184 N  
HETATM   25  O   UNL     1     -10.591   9.592  67.937  1.00  0.00    -0.231 OA 
BRANCH  24  26
HETATM   26  O   UNL     1     -10.364   9.332  70.607  1.00  0.00    -0.222 OA 
BRANCH  26  27
HETATM   27  C   UNL     1      -9.911   8.983  71.925  1.00  0.00    -0.234 C  
BRANCH  27  28
HETATM   28  C   UNL     1     -10.755   7.858  72.521  1.00  0.00    -0.328 C  
HETATM   29  O   UNL     1     -10.000   7.052  73.422  1.00  0.00    -0.204 OA 
HETATM   30  H   UNL     1     -10.525   6.352  73.793  1.00  0.00     0.000 HD 
ENDBRANCH  27  28
ENDBRANCH  26  27
ENDBRANCH  24  26
ENDBRANCH  10  22
TORSDOF 6
ENDMDL
MODEL      215
REMARK 921   NORMALIZED FREE ENERGY PREDICTED BY IDOCK:   16.49 KCAL/MOL
REMARK 922        TOTAL FREE ENERGY PREDICTED BY IDOCK:   20.99 KCAL/MOL
REMARK 923 INTER-LIGAND FREE ENERGY PREDICTED BY IDOCK:   20.67 KCAL/MOL
REMARK 924 INTRA-LIGAND FREE ENERGY PREDICTED BY IDOCK:    0.31 KCAL/MOL
REMARK 927      BINDING AFFINITY PREDICTED BY RF-SCORE:    0.00 PKD
ROOT
HETATM    1  C   UNL     1      -5.766  16.250  65.337  1.00  0.00     4.873 C  
HETATM    2  N   UNL     1      -5.987  14.996  66.010  1.00  0.00     4.561 NA 
HETATM    3  C   UNL     1      -5.141  13.925  65.988  1.00  0.00     5.812 A  
HETATM    4  N   UNL     1      -5.624  12.916  66.676  1.00  0.00     0.473 NA 
HETATM    5  C   UNL     1      -6.833  13.355  67.164  1.00  0.00     0.305 A  
HETATM    6  C   UNL     1      -7.788  12.698  67.951  1.00  0.00    -0.154 A  
HETATM    7  F   UNL     1      -7.519  11.454  68.378  1.00  0.00    -0.085 F  
HETATM    8  C   UNL     1      -9.011  13.334  68.309  1.00  0.00    -0.176 A  
HETATM    9  C   UNL     1      -8.215  15.369  67.192  1.00  0.00    -0.250 A  
HETATM   10  C   UNL     1      -9.166  14.705  68.009  1.00  0.00    -0.197 A  
HETATM   11  C   UNL     1      -7.077  14.666  66.774  1.00  0.00     1.121 A  
ENDROOT
BRANCH   8  12
HETATM   12  N   UNL     1     -10.000  12.597  69.054  1.00  0.00    -0.410 NA 
HETATM   13  H   UNL     1     -10.756  13.117  69.499  1.00  0.00     0.000 HD 
BRANCH  12  14
HETATM   14  C   UNL     1      -9.978  11.172  69.204  1.00  0.00    -0.082 A  
HETATM   15 BR   UNL     1      -9.464   6.533  69.700  1.00  0.00    -0.152 Br 
HETATM   16  C   UNL     1     -10.245  10.307  68.133  1.00  0.00    -0.192 A  
HETATM   17  C   UNL     1      -9.583   9.227  70.626  1.00  0.00    -0.334 A  
HETATM   18  C   UNL     1      -9.715  10.602  70.459  1.00  0.00     1.404 A  
HETATM   19  C   UNL     1      -9.742   8.394  69.522  1.00  0.00    -0.177 A  
HETATM   20  C   UNL     1     -10.092   8.923  68.281  1.00  0.00    -0.219 A  
HETATM   21  F   UNL     1      -9.528  11.409  71.515  1.00  0.00     6.225 F  
ENDBRANCH  12  14
ENDBRANCH   8  12
BRANCH  10  22
HETATM   22  C   UNL     1     -10.236  15.600  68.577  1.00  0.00    -0.211 C  
HETATM   23  H   UNL     1     -11.764  14.265  68.040  1.00  0.00     0.000 HD 
HETATM   24  N   UNL     1     -11.532  15.149  68.493  1.00  0.00    -0.305 N  
HETATM   25  O   UNL     1      -9.920  16.638  69.158  1.00  0.00    -0.263 OA 
BRANCH  24  26
HETATM   26  O   UNL     1     -12.528  15.979  69.071  1.00  0.00     0.058 OA 
BRANCH  26  27
HETATM   27  C   UNL     1     -12.424  15.842  70.497  1.00  0.00    -0.203 C  
BRANCH  27  28
HETATM   28  C   UNL     1     -12.816  14.437  70.949  1.00  0.00    -0.351 C  
HETATM   29  O   UNL     1     -14.128  14.408  71.507  1.00  0.00    -0.398 OA 
HETATM   30  H   UNL     1     -14.372  13.535  71.789  1.00  0.00     0.000 HD 
ENDBRANCH  27  28
ENDBRANCH  26  27
ENDBRANCH  24  26
ENDBRANCH  10  22
TORSDOF 6
ENDMDL
MODEL      216
REMARK 921   NORMALIZED FREE ENERGY PREDICTED BY IDOCK:   44.20 KCAL/MOL
REMARK 922        TOTAL FREE ENERGY PREDICTED BY IDOCK:   58.42 KCAL/MOL
REMARK 923 INTER-LIGAND FREE ENERGY PREDICTED BY IDOCK:   56.83 KCAL/MOL
REMARK 924 INTRA-LIGAND FREE ENERGY PREDICTED BY IDOCK:    1.59 KCAL/MOL
REMARK 927      BINDING AFFINITY PREDICTED BY RF-SCORE:    0.00 PKD
ROOT
HETATM    1  C   UNL     1      -5.800  16.226  64.842  1.00  0.00     7.683 C  
HETATM    2  N   UNL     1      -5.936  14.812  65.080  1.00  0.00    13.996 NA 
HETATM    3  C   UNL     1      -5.269  13.828  64.408  1.00  0.00    16.862 A  
HETATM    4  N   UNL     1      -5.618  12.634  64.831  1.00  0.00     6.119 NA 
HETATM    5  C   UNL     1      -6.550  12.857  65.819  1.00  0.00     5.151 A  
HETATM    6  C   UNL     1      -7.272  11.953  66.608  1.00  0.00     0.076 A  
HETATM    7  F   UNL     1      -7.023  10.641  66.466  1.00  0.00    -0.094 F  
HETATM    8  C   UNL     1      -8.236  12.406  67.553  1.00  0.00    -0.173 A  
HETATM    9  C   UNL     1      -7.612  14.714  66.998  1.00  0.00     0.070 A  
HETATM   10  C   UNL     1      -8.321  13.792  67.810  1.00  0.00    -0.180 A  
HETATM   11  C   UNL     1      -6.755  14.219  66.006  1.00  0.00     5.935 A  
ENDROOT
BRANCH   8  12
HETATM   12  N   UNL     1      -9.012  11.441  68.290  1.00  0.00    -0.169 NA 
HETATM   13  H   UNL     1      -9.212  11.631  69.272  1.00  0.00     0.000 HD 
BRANCH  12  14
HETATM   14  C   UNL     1      -9.519  10.230  67.717  1.00  0.00    -0.148 A  
HETATM   15 BR   UNL     1     -11.132   6.076  66.242  1.00  0.00     0.691 Br 
HETATM   16  C   UNL     1      -8.739   9.420  66.878  1.00  0.00    -0.137 A  
HETATM   17  C   UNL     1     -11.343   8.619  67.513  1.00  0.00     1.028 A  
HETATM   18  C   UNL     1     -10.843   9.837  67.964  1.00  0.00    -0.223 A  
HETATM   19  C   UNL     1     -10.513   7.780  66.776  1.00  0.00    -0.248 A  
HETATM   20  C   UNL     1      -9.221   8.181  66.439  1.00  0.00    -0.250 A  
HETATM   21  F   UNL     1     -11.632  10.632  68.704  1.00  0.00    -0.308 F  
ENDBRANCH  12  14
ENDBRANCH   8  12
BRANCH  10  22
HETATM   22  C   UNL     1      -9.046  14.413  68.976  1.00  0.00     0.001 C  
HETATM   23  H   UNL     1     -10.735  13.201  68.688  1.00  0.00     0.000 HD 
HETATM   24  N   UNL     1     -10.300  13.926  69.258  1.00  0.00    -0.008 N  
HETATM   25  O   UNL     1      -8.476  15.254  69.672  1.00  0.00    -0.233 OA 
BRANCH  24  26
HETATM   26  O   UNL     1     -10.956  14.488  70.386  1.00  0.00    -0.082 OA 
BRANCH  26  27
HETATM   27  C   UNL     1     -12.352  14.586  70.062  1.00  0.00    -0.323 C  
BRANCH  27  28
HETATM   28  C   UNL     1     -12.572  15.421  68.803  1.00  0.00     0.514 C  
HETATM   29  O   UNL     1     -13.168  16.681  69.101  1.00  0.00     1.278 OA 
HETATM   30  H   UNL     1     -13.305  17.200  68.318  1.00  0.00     0.000 HD 
ENDBRANCH  27  28
ENDBRANCH  26  27
ENDBRANCH  24  26
ENDBRANCH  10  22
TORSDOF 6
ENDMDL
MODEL      217
REMARK 921   NORMALIZED FREE ENERGY PREDICTED BY IDOCK:   49.55 KCAL/MOL
REMARK 922        TOTAL FREE ENERGY PREDICTED BY IDOCK:   65.65 KCAL/MOL
REMARK 923 INTER-LIGAND FREE ENERGY PREDICTED BY IDOCK:   63.82 KCAL/MOL
REMARK 924 INTRA-LIGAND FREE ENERGY PREDICTED BY IDOCK:    1.82 KCAL/MOL
REMARK 927      BINDING AFFINITY PREDICTED BY RF-SCORE:    0.00 PKD
ROOT
HETATM    1  C   UNL     1     -14.300   9.884  65.850  1.00  0.00    24.328 C  
HETATM    2  N   UNL     1     -13.496  11.036  65.528  1.00  0.00     7.406 NA 
HETATM    3  C   UNL     1     -13.571  11.754  64.369  1.00  0.00     2.040 A  
HETATM    4  N   UNL     1     -12.697  12.735  64.354  1.00  0.00    -0.706 NA 
HETATM    5  C   UNL     1     -12.031  12.646  65.555  1.00  0.00    -0.456 A  
HETATM    6  C   UNL     1     -10.987  13.422  66.075  1.00  0.00    -0.271 A  
HETATM    7  F   UNL     1     -10.555  14.474  65.361  1.00  0.00    -0.293 F  
HETATM    8  C   UNL     1     -10.405  13.122  67.339  1.00  0.00    -0.239 A  
HETATM    9  C   UNL     1     -12.060  11.330  67.613  1.00  0.00     0.341 A  
HETATM   10  C   UNL     1     -11.019  12.136  68.142  1.00  0.00    -0.271 A  
HETATM   11  C   UNL     1     -12.527  11.596  66.318  1.00  0.00     2.159 A  
ENDROOT
BRANCH   8  12
HETATM   12  N   UNL     1      -9.283  13.897  67.804  1.00  0.00    -0.189 NA 
HETATM   13  H   UNL     1      -8.605  13.446  68.417  1.00  0.00     0.000 HD 
BRANCH  12  14
HETATM   14  C   UNL     1      -9.067  15.269  67.450  1.00  0.00    -0.192 A  
HETATM   15 BR   UNL     1      -8.775  19.762  66.125  1.00  0.00    -0.295 Br 
HETATM   16  C   UNL     1      -8.272  15.639  66.355  1.00  0.00    -0.133 A  
HETATM   17  C   UNL     1      -9.537  17.630  67.857  1.00  0.00    -0.282 A  
HETATM   18  C   UNL     1      -9.635  16.291  68.225  1.00  0.00    -0.218 A  
HETATM   19  C   UNL     1      -8.835  17.964  66.703  1.00  0.00    -0.268 A  
HETATM   20  C   UNL     1      -8.185  16.979  65.961  1.00  0.00    -0.179 A  
HETATM   21  F   UNL     1     -10.341  15.965  69.319  1.00  0.00    -0.194 F  
ENDBRANCH  12  14
ENDBRANCH   8  12
BRANCH  10  22
HETATM   22  C   UNL     1     -10.736  11.910  69.604  1.00  0.00     0.279 C  
HETATM   23  H   UNL     1     -11.911  13.553  70.179  1.00  0.00     0.000 HD 
HETATM   24  N   UNL     1     -11.330  12.775  70.493  1.00  0.00     0.566 N  
HETATM   25  O   UNL     1     -10.069  10.937  69.954  1.00  0.00     0.053 OA 
BRANCH  24  26
HETATM   26  O   UNL     1     -11.092  12.527  71.871  1.00  0.00     4.705 OA 
BRANCH  26  27
HETATM   27  C   UNL     1      -9.832  11.842  71.969  1.00  0.00    15.756 C  
BRANCH  27  28
HETATM   28  C   UNL     1      -9.960  10.563  72.793  1.00  0.00    10.464 C  
HETATM   29  O   UNL     1     -10.312   9.445  71.981  1.00  0.00    -0.085 OA 
HETATM   30  H   UNL     1     -10.393   8.649  72.493  1.00  0.00     0.000 HD 
ENDBRANCH  27  28
ENDBRANCH  26  27
ENDBRANCH  24  26
ENDBRANCH  10  22
TORSDOF 6
ENDMDL
