MODEL        1
REMARK 921   NORMALIZED FREE ENERGY PREDICTED BY IDOCK:   -6.18 KCAL/MOL
REMARK 922        TOTAL FREE ENERGY PREDICTED BY IDOCK:   -9.86 KCAL/MOL
REMARK 923 INTER-LIGAND FREE ENERGY PREDICTED BY IDOCK:   -8.34 KCAL/MOL
REMARK 924 INTRA-LIGAND FREE ENERGY PREDICTED BY IDOCK:   -1.52 KCAL/MOL
REMARK 927      BINDING AFFINITY PREDICTED BY RF-SCORE:    0.00 PKD
ROOT
HETATM    1  C   UNL     1     -11.782  10.819  69.566  1.00  0.00    -0.384 C  
HETATM    2  C   UNL     1     -12.114  10.827  71.032  1.00  0.00    -0.452 C  
HETATM    3  C   UNL     1     -12.624  11.910  71.650  1.00  0.00    -0.237 C  
HETATM    4  C   UNL     1     -11.888   9.560  71.803  1.00  0.00    -0.430 C  
ENDROOT
BRANCH   3   5
HETATM    5  C   UNL     1     -12.972  13.192  71.034  1.00  0.00    -0.212 C  
HETATM    6  C   UNL     1     -11.920  14.272  70.846  1.00  0.00    -0.389 C  
HETATM    7  C   UNL     1     -13.050  14.468  71.851  1.00  0.00    -0.427 C  
HETATM    8  C   UNL     1     -12.650  14.489  73.305  1.00  0.00    -0.433 C  
HETATM    9  C   UNL     1     -14.208  15.393  71.545  1.00  0.00    -0.584 C  
BRANCH   6  10
HETATM   10  C   UNL     1     -11.892  14.979  69.546  1.00  0.00    -0.330 C  
HETATM   11  O   UNL     1     -11.563  16.151  69.484  1.00  0.00    -0.316 OA 
BRANCH  10  12
HETATM   12  O   UNL     1     -12.271  14.199  68.494  1.00  0.00    -0.311 OA 
BRANCH  12  13
HETATM   13  C   UNL     1     -11.570  14.338  67.229  1.00  0.00    -0.377 C  
HETATM   14  C   UNL     1     -12.502  14.319  66.023  1.00  0.00    -0.392 C  
HETATM   15  C   UNL     1     -12.264  12.936  65.494  1.00  0.00    -0.474 C  
HETATM   16  C   UNL     1     -11.041  12.332  66.083  1.00  0.00    -0.349 C  
HETATM   17  O   UNL     1     -12.949  12.399  64.635  1.00  0.00    -0.793 OA 
HETATM   18  C   UNL     1      -9.387  13.119  67.862  1.00  0.00    -0.215 C  
HETATM   19  C   UNL     1     -10.604  13.204  67.012  1.00  0.00    -0.259 C  
BRANCH  16  20
HETATM   20  C   UNL     1     -10.637  10.944  65.734  1.00  0.00    -0.230 C  
BRANCH  20  21
HETATM   21  C   UNL     1      -9.665  10.899  64.600  1.00  0.00    -0.333 C  
HETATM   22  C   UNL     1     -10.020  10.997  63.311  1.00  0.00    -0.414 C  
ENDBRANCH  20  21
ENDBRANCH  16  20
ENDBRANCH  12  13
ENDBRANCH  10  12
ENDBRANCH   6  10
ENDBRANCH   3   5
TORSDOF 6
ENDMDL
MODEL        2
REMARK 921   NORMALIZED FREE ENERGY PREDICTED BY IDOCK:   -6.05 KCAL/MOL
REMARK 922        TOTAL FREE ENERGY PREDICTED BY IDOCK:   -9.69 KCAL/MOL
REMARK 923 INTER-LIGAND FREE ENERGY PREDICTED BY IDOCK:   -8.33 KCAL/MOL
REMARK 924 INTRA-LIGAND FREE ENERGY PREDICTED BY IDOCK:   -1.37 KCAL/MOL
REMARK 927      BINDING AFFINITY PREDICTED BY RF-SCORE:    0.00 PKD
ROOT
HETATM    1  C   UNL     1     -12.183  11.592  63.381  1.00  0.00    -0.319 C  
HETATM    2  C   UNL     1     -10.704  11.828  63.503  1.00  0.00    -0.501 C  
HETATM    3  C   UNL     1     -10.194  12.933  64.081  1.00  0.00    -0.311 C  
HETATM    4  C   UNL     1      -9.784  10.762  62.981  1.00  0.00    -0.374 C  
ENDROOT
BRANCH   3   5
HETATM    5  C   UNL     1     -10.945  14.026  64.702  1.00  0.00    -0.401 C  
HETATM    6  C   UNL     1     -10.235  15.282  65.177  1.00  0.00    -0.374 C  
HETATM    7  C   UNL     1     -10.839  14.314  66.189  1.00  0.00    -0.310 C  
HETATM    8  C   UNL     1      -9.861  13.568  67.060  1.00  0.00    -0.251 C  
HETATM    9  C   UNL     1     -12.131  14.647  66.902  1.00  0.00    -0.224 C  
BRANCH   6  10
HETATM   10  C   UNL     1     -10.864  16.584  64.860  1.00  0.00    -0.204 C  
HETATM   11  O   UNL     1     -11.770  16.653  64.048  1.00  0.00    -1.143 OA 
BRANCH  10  12
HETATM   12  O   UNL     1     -10.322  17.631  65.545  1.00  0.00    -0.627 OA 
BRANCH  12  13
HETATM   13  C   UNL     1      -9.734  17.385  66.851  1.00  0.00    -0.286 C  
HETATM   14  C   UNL     1     -10.543  17.987  67.994  1.00  0.00    -0.361 C  
HETATM   15  C   UNL     1      -9.712  19.187  68.338  1.00  0.00    -0.388 C  
HETATM   16  C   UNL     1      -8.357  19.101  67.734  1.00  0.00    -0.325 C  
HETATM   17  O   UNL     1     -10.077  20.090  69.078  1.00  0.00    -0.389 OA 
HETATM   18  C   UNL     1      -7.247  17.418  66.167  1.00  0.00    -0.327 C  
HETATM   19  C   UNL     1      -8.364  17.999  66.958  1.00  0.00    -0.248 C  
BRANCH  16  20
HETATM   20  C   UNL     1      -7.378  20.206  67.908  1.00  0.00    -0.326 C  
BRANCH  20  21
HETATM   21  C   UNL     1      -6.284  19.856  68.864  1.00  0.00    -0.326 C  
HETATM   22  C   UNL     1      -6.433  19.859  70.197  1.00  0.00    -0.314 C  
ENDBRANCH  20  21
ENDBRANCH  16  20
ENDBRANCH  12  13
ENDBRANCH  10  12
ENDBRANCH   6  10
ENDBRANCH   3   5
TORSDOF 6
ENDMDL
MODEL        3
REMARK 921   NORMALIZED FREE ENERGY PREDICTED BY IDOCK:   -5.87 KCAL/MOL
REMARK 922        TOTAL FREE ENERGY PREDICTED BY IDOCK:   -9.45 KCAL/MOL
REMARK 923 INTER-LIGAND FREE ENERGY PREDICTED BY IDOCK:   -7.83 KCAL/MOL
REMARK 924 INTRA-LIGAND FREE ENERGY PREDICTED BY IDOCK:   -1.63 KCAL/MOL
REMARK 927      BINDING AFFINITY PREDICTED BY RF-SCORE:    0.00 PKD
ROOT
HETATM    1  C   UNL     1     -12.248  14.574  69.432  1.00  0.00    -0.285 C  
HETATM    2  C   UNL     1     -11.490  15.514  70.328  1.00  0.00    -0.352 C  
HETATM    3  C   UNL     1     -10.819  16.580  69.852  1.00  0.00    -0.285 C  
HETATM    4  C   UNL     1     -11.526  15.248  71.805  1.00  0.00    -0.494 C  
ENDROOT
BRANCH   3   5
HETATM    5  C   UNL     1     -10.744  17.022  68.458  1.00  0.00    -0.352 C  
HETATM    6  C   UNL     1      -9.408  17.099  67.740  1.00  0.00    -0.245 C  
HETATM    7  C   UNL     1     -10.166  18.375  68.086  1.00  0.00    -0.410 C  
HETATM    8  C   UNL     1      -9.532  19.265  69.125  1.00  0.00    -0.306 C  
HETATM    9  C   UNL     1     -10.906  19.151  67.018  1.00  0.00    -0.479 C  
BRANCH   6  10
HETATM   10  C   UNL     1      -9.343  16.572  66.359  1.00  0.00    -0.287 C  
HETATM   11  O   UNL     1      -8.414  16.862  65.626  1.00  0.00    -0.414 OA 
BRANCH  10  12
HETATM   12  O   UNL     1     -10.402  15.778  66.030  1.00  0.00    -0.302 OA 
BRANCH  12  13
HETATM   13  C   UNL     1     -10.145  14.483  65.422  1.00  0.00    -0.364 C  
HETATM   14  C   UNL     1     -11.235  14.053  64.446  1.00  0.00    -0.318 C  
HETATM   15  C   UNL     1     -11.967  13.029  65.261  1.00  0.00    -0.407 C  
HETATM   16  C   UNL     1     -11.174  12.608  66.445  1.00  0.00    -0.350 C  
HETATM   17  O   UNL     1     -13.049  12.548  64.954  1.00  0.00    -0.833 OA 
HETATM   18  C   UNL     1      -8.930  13.362  67.402  1.00  0.00    -0.215 C  
HETATM   19  C   UNL     1     -10.080  13.395  66.460  1.00  0.00    -0.280 C  
BRANCH  16  20
HETATM   20  C   UNL     1     -11.727  11.631  67.420  1.00  0.00    -0.278 C  
BRANCH  20  21
HETATM   21  C   UNL     1     -10.888  10.400  67.534  1.00  0.00    -0.358 C  
HETATM   22  C   UNL     1     -10.429   9.712  66.477  1.00  0.00    -0.213 C  
ENDBRANCH  20  21
ENDBRANCH  16  20
ENDBRANCH  12  13
ENDBRANCH  10  12
ENDBRANCH   6  10
ENDBRANCH   3   5
TORSDOF 6
ENDMDL
MODEL        4
REMARK 921   NORMALIZED FREE ENERGY PREDICTED BY IDOCK:   -5.77 KCAL/MOL
REMARK 922        TOTAL FREE ENERGY PREDICTED BY IDOCK:   -9.32 KCAL/MOL
REMARK 923 INTER-LIGAND FREE ENERGY PREDICTED BY IDOCK:   -7.77 KCAL/MOL
REMARK 924 INTRA-LIGAND FREE ENERGY PREDICTED BY IDOCK:   -1.55 KCAL/MOL
REMARK 927      BINDING AFFINITY PREDICTED BY RF-SCORE:    0.00 PKD
ROOT
HETATM    1  C   UNL     1      -9.100   8.643  71.880  1.00  0.00    -0.326 C  
HETATM    2  C   UNL     1     -10.600   8.677  71.800  1.00  0.00    -0.395 C  
HETATM    3  C   UNL     1     -11.257   9.376  70.854  1.00  0.00    -0.393 C  
HETATM    4  C   UNL     1     -11.369   7.869  72.805  1.00  0.00    -0.453 C  
ENDROOT
BRANCH   3   5
HETATM    5  C   UNL     1     -10.663  10.152  69.763  1.00  0.00    -0.317 C  
HETATM    6  C   UNL     1     -11.419  10.363  68.462  1.00  0.00    -0.231 C  
HETATM    7  C   UNL     1     -10.173   9.483  68.492  1.00  0.00    -0.223 C  
HETATM    8  C   UNL     1     -10.393   8.011  68.250  1.00  0.00    -0.240 C  
HETATM    9  C   UNL     1      -8.859   9.983  67.934  1.00  0.00    -0.125 C  
BRANCH   6  10
HETATM   10  C   UNL     1     -11.408  11.723  67.879  1.00  0.00    -0.292 C  
HETATM   11  O   UNL     1     -11.648  11.892  66.696  1.00  0.00    -0.465 OA 
BRANCH  10  12
HETATM   12  O   UNL     1     -11.102  12.698  68.780  1.00  0.00    -0.240 OA 
BRANCH  12  13
HETATM   13  C   UNL     1     -12.122  13.670  69.137  1.00  0.00    -0.319 C  
HETATM   14  C   UNL     1     -11.790  15.084  68.678  1.00  0.00    -0.325 C  
HETATM   15  C   UNL     1     -11.366  15.717  69.970  1.00  0.00    -0.351 C  
HETATM   16  C   UNL     1     -11.769  14.892  71.137  1.00  0.00    -0.377 C  
HETATM   17  O   UNL     1     -10.819  16.807  70.057  1.00  0.00    -0.282 OA 
HETATM   18  C   UNL     1     -12.899  12.613  71.359  1.00  0.00    -0.358 C  
HETATM   19  C   UNL     1     -12.293  13.759  70.630  1.00  0.00    -0.445 C  
BRANCH  16  20
HETATM   20  C   UNL     1     -11.412  15.307  72.520  1.00  0.00    -0.422 C  
BRANCH  20  21
HETATM   21  C   UNL     1     -12.608  15.682  73.332  1.00  0.00    -0.652 C  
HETATM   22  C   UNL     1     -13.817  15.929  72.806  1.00  0.00    -0.532 C  
ENDBRANCH  20  21
ENDBRANCH  16  20
ENDBRANCH  12  13
ENDBRANCH  10  12
ENDBRANCH   6  10
ENDBRANCH   3   5
TORSDOF 6
ENDMDL
MODEL        5
REMARK 921   NORMALIZED FREE ENERGY PREDICTED BY IDOCK:   -5.72 KCAL/MOL
REMARK 922        TOTAL FREE ENERGY PREDICTED BY IDOCK:   -9.25 KCAL/MOL
REMARK 923 INTER-LIGAND FREE ENERGY PREDICTED BY IDOCK:   -7.66 KCAL/MOL
REMARK 924 INTRA-LIGAND FREE ENERGY PREDICTED BY IDOCK:   -1.59 KCAL/MOL
REMARK 927      BINDING AFFINITY PREDICTED BY RF-SCORE:    0.00 PKD
ROOT
HETATM    1  C   UNL     1     -10.729   5.697  69.458  1.00  0.00    -0.380 C  
HETATM    2  C   UNL     1      -9.652   6.712  69.720  1.00  0.00    -0.155 C  
HETATM    3  C   UNL     1      -9.930   7.987  70.056  1.00  0.00    -0.191 C  
HETATM    4  C   UNL     1      -8.226   6.254  69.630  1.00  0.00    -0.124 C  
ENDROOT
BRANCH   3   5
HETATM    5  C   UNL     1     -11.256   8.574  70.258  1.00  0.00    -0.185 C  
HETATM    6  C   UNL     1     -11.424   9.843  71.077  1.00  0.00    -0.466 C  
HETATM    7  C   UNL     1     -11.951   8.513  71.606  1.00  0.00    -0.372 C  
HETATM    8  C   UNL     1     -11.252   7.956  72.820  1.00  0.00    -0.466 C  
HETATM    9  C   UNL     1     -13.432   8.203  71.584  1.00  0.00    -0.363 C  
BRANCH   6  10
HETATM   10  C   UNL     1     -12.323  10.888  70.540  1.00  0.00    -0.374 C  
HETATM   11  O   UNL     1     -12.998  11.571  71.291  1.00  0.00    -0.380 OA 
BRANCH  10  12
HETATM   12  O   UNL     1     -12.307  10.972  69.180  1.00  0.00    -0.451 OA 
BRANCH  12  13
HETATM   13  C   UNL     1     -11.267  11.759  68.538  1.00  0.00    -0.252 C  
HETATM   14  C   UNL     1     -11.626  13.235  68.410  1.00  0.00    -0.372 C  
HETATM   15  C   UNL     1     -11.974  13.324  66.953  1.00  0.00    -0.375 C  
HETATM   16  C   UNL     1     -11.502  12.128  66.208  1.00  0.00    -0.433 C  
HETATM   17  O   UNL     1     -12.515  14.288  66.431  1.00  0.00    -0.441 OA 
HETATM   18  C   UNL     1     -10.362   9.960  66.927  1.00  0.00    -0.300 C  
HETATM   19  C   UNL     1     -11.009  11.282  67.134  1.00  0.00    -0.348 C  
BRANCH  16  20
HETATM   20  C   UNL     1     -11.778  11.983  64.754  1.00  0.00    -0.342 C  
BRANCH  20  21
HETATM   21  C   UNL     1     -10.560  12.195  63.916  1.00  0.00    -0.457 C  
HETATM   22  C   UNL     1      -9.953  11.218  63.226  1.00  0.00    -0.428 C  
ENDBRANCH  20  21
ENDBRANCH  16  20
ENDBRANCH  12  13
ENDBRANCH  10  12
ENDBRANCH   6  10
ENDBRANCH   3   5
TORSDOF 6
ENDMDL
MODEL        6
REMARK 921   NORMALIZED FREE ENERGY PREDICTED BY IDOCK:   -5.71 KCAL/MOL
REMARK 922        TOTAL FREE ENERGY PREDICTED BY IDOCK:   -9.23 KCAL/MOL
REMARK 923 INTER-LIGAND FREE ENERGY PREDICTED BY IDOCK:   -7.70 KCAL/MOL
REMARK 924 INTRA-LIGAND FREE ENERGY PREDICTED BY IDOCK:   -1.53 KCAL/MOL
REMARK 927      BINDING AFFINITY PREDICTED BY RF-SCORE:    0.00 PKD
ROOT
HETATM    1  C   UNL     1      -9.799  11.930  68.262  1.00  0.00    -0.199 C  
HETATM    2  C   UNL     1     -11.182  12.494  68.436  1.00  0.00    -0.313 C  
HETATM    3  C   UNL     1     -11.722  13.363  67.560  1.00  0.00    -0.406 C  
HETATM    4  C   UNL     1     -11.979  12.029  69.620  1.00  0.00    -0.360 C  
ENDROOT
BRANCH   3   5
HETATM    5  C   UNL     1     -11.113  13.858  66.323  1.00  0.00    -0.304 C  
HETATM    6  C   UNL     1     -11.888  14.774  65.391  1.00  0.00    -0.249 C  
HETATM    7  C   UNL     1     -11.556  13.348  64.964  1.00  0.00    -0.339 C  
HETATM    8  C   UNL     1     -12.725  12.406  64.827  1.00  0.00    -0.324 C  
HETATM    9  C   UNL     1     -10.458  13.076  63.959  1.00  0.00    -0.337 C  
BRANCH   6  10
HETATM   10  C   UNL     1     -11.175  15.947  64.838  1.00  0.00    -0.337 C  
HETATM   11  O   UNL     1     -11.613  16.539  63.868  1.00  0.00    -1.175 OA 
BRANCH  10  12
HETATM   12  O   UNL     1     -10.028  16.251  65.509  1.00  0.00    -0.491 OA 
BRANCH  12  13
HETATM   13  C   UNL     1     -10.102  17.136  66.660  1.00  0.00    -0.306 C  
HETATM   14  C   UNL     1     -10.172  18.610  66.279  1.00  0.00    -0.462 C  
HETATM   15  C   UNL     1      -8.774  19.056  66.585  1.00  0.00    -0.310 C  
HETATM   16  C   UNL     1      -8.056  18.060  67.421  1.00  0.00    -0.227 C  
HETATM   17  O   UNL     1      -8.305  20.134  66.249  1.00  0.00    -0.295 OA 
HETATM   18  C   UNL     1      -8.680  15.747  68.305  1.00  0.00    -0.172 C  
HETATM   19  C   UNL     1      -8.882  17.001  67.532  1.00  0.00    -0.214 C  
BRANCH  16  20
HETATM   20  C   UNL     1      -6.636  18.276  67.809  1.00  0.00    -0.204 C  
BRANCH  20  21
HETATM   21  C   UNL     1      -6.489  18.689  69.236  1.00  0.00    -0.289 C  
HETATM   22  C   UNL     1      -6.507  19.966  69.647  1.00  0.00    -0.388 C  
ENDBRANCH  20  21
ENDBRANCH  16  20
ENDBRANCH  12  13
ENDBRANCH  10  12
ENDBRANCH   6  10
ENDBRANCH   3   5
TORSDOF 6
ENDMDL
MODEL        7
REMARK 921   NORMALIZED FREE ENERGY PREDICTED BY IDOCK:   -5.63 KCAL/MOL
REMARK 922        TOTAL FREE ENERGY PREDICTED BY IDOCK:   -9.12 KCAL/MOL
REMARK 923 INTER-LIGAND FREE ENERGY PREDICTED BY IDOCK:   -8.14 KCAL/MOL
REMARK 924 INTRA-LIGAND FREE ENERGY PREDICTED BY IDOCK:   -0.99 KCAL/MOL
REMARK 927      BINDING AFFINITY PREDICTED BY RF-SCORE:    0.00 PKD
ROOT
HETATM    1  C   UNL     1     -13.189  13.817  71.739  1.00  0.00    -0.467 C  
HETATM    2  C   UNL     1     -12.304  14.923  71.237  1.00  0.00    -0.385 C  
HETATM    3  C   UNL     1     -11.872  14.978  69.962  1.00  0.00    -0.360 C  
HETATM    4  C   UNL     1     -11.930  16.009  72.204  1.00  0.00    -0.629 C  
ENDROOT
BRANCH   3   5
HETATM    5  C   UNL     1     -12.202  14.048  68.880  1.00  0.00    -0.261 C  
HETATM    6  C   UNL     1     -11.203  12.995  68.433  1.00  0.00    -0.304 C  
HETATM    7  C   UNL     1     -11.552  14.160  67.514  1.00  0.00    -0.396 C  
HETATM    8  C   UNL     1     -10.449  15.155  67.254  1.00  0.00    -0.271 C  
HETATM    9  C   UNL     1     -12.460  13.961  66.320  1.00  0.00    -0.454 C  
BRANCH   6  10
HETATM   10  C   UNL     1     -11.713  11.626  68.196  1.00  0.00    -0.295 C  
HETATM   11  O   UNL     1     -11.578  11.093  67.109  1.00  0.00    -0.495 OA 
BRANCH  10  12
HETATM   12  O   UNL     1     -12.328  11.080  69.284  1.00  0.00    -0.412 OA 
BRANCH  12  13
HETATM   13  C   UNL     1     -11.511  10.627  70.397  1.00  0.00    -0.334 C  
HETATM   14  C   UNL     1     -10.179  10.030  69.959  1.00  0.00    -0.306 C  
HETATM   15  C   UNL     1     -10.445   8.565  70.136  1.00  0.00    -0.220 C  
HETATM   16  C   UNL     1     -11.660   8.328  70.956  1.00  0.00    -0.301 C  
HETATM   17  O   UNL     1      -9.716   7.676  69.717  1.00  0.00    -0.170 OA 
HETATM   18  C   UNL     1     -13.403   9.885  71.986  1.00  0.00    -0.532 C  
HETATM   19  C   UNL     1     -12.204   9.541  71.177  1.00  0.00    -0.421 C  
BRANCH  16  20
HETATM   20  C   UNL     1     -12.139   6.946  71.222  1.00  0.00    -0.419 C  
BRANCH  20  21
HETATM   21  C   UNL     1     -11.425   6.303  72.366  1.00  0.00    -0.335 C  
HETATM   22  C   UNL     1     -10.764   6.989  73.311  1.00  0.00    -0.373 C  
ENDBRANCH  20  21
ENDBRANCH  16  20
ENDBRANCH  12  13
ENDBRANCH  10  12
ENDBRANCH   6  10
ENDBRANCH   3   5
TORSDOF 6
ENDMDL
MODEL        8
REMARK 921   NORMALIZED FREE ENERGY PREDICTED BY IDOCK:   -5.58 KCAL/MOL
REMARK 922        TOTAL FREE ENERGY PREDICTED BY IDOCK:   -9.05 KCAL/MOL
REMARK 923 INTER-LIGAND FREE ENERGY PREDICTED BY IDOCK:   -7.72 KCAL/MOL
REMARK 924 INTRA-LIGAND FREE ENERGY PREDICTED BY IDOCK:   -1.33 KCAL/MOL
REMARK 927      BINDING AFFINITY PREDICTED BY RF-SCORE:    0.00 PKD
ROOT
HETATM    1  C   UNL     1      -9.165   9.782  69.915  1.00  0.00    -0.263 C  
HETATM    2  C   UNL     1     -10.606  10.128  69.665  1.00  0.00    -0.286 C  
HETATM    3  C   UNL     1     -11.047  10.564  68.469  1.00  0.00    -0.329 C  
HETATM    4  C   UNL     1     -11.572   9.942  70.799  1.00  0.00    -0.430 C  
ENDROOT
BRANCH   3   5
HETATM    5  C   UNL     1     -10.256  10.729  67.248  1.00  0.00    -0.245 C  
HETATM    6  C   UNL     1     -10.889  10.525  65.882  1.00  0.00     0.025 C  
HETATM    7  C   UNL     1      -9.849   9.538  66.401  1.00  0.00    -0.320 C  
HETATM    8  C   UNL     1     -10.348   8.150  66.715  1.00  0.00    -0.361 C  
HETATM    9  C   UNL     1      -8.435   9.548  65.863  1.00  0.00    -0.133 C  
BRANCH   6  10
HETATM   10  C   UNL     1     -10.576  11.516  64.829  1.00  0.00    -0.305 C  
HETATM   11  O   UNL     1     -10.638  11.211  63.651  1.00  0.00    -0.371 OA 
BRANCH  10  12
HETATM   12  O   UNL     1     -10.220  12.737  65.320  1.00  0.00    -0.285 OA 
BRANCH  12  13
HETATM   13  C   UNL     1     -11.261  13.632  65.797  1.00  0.00    -0.295 C  
HETATM   14  C   UNL     1     -11.996  14.350  64.671  1.00  0.00    -0.475 C  
HETATM   15  C   UNL     1     -11.394  15.721  64.760  1.00  0.00    -0.314 C  
HETATM   16  C   UNL     1     -10.667  15.914  66.041  1.00  0.00    -0.289 C  
HETATM   17  O   UNL     1     -11.540  16.594  63.916  1.00  0.00    -1.204 OA 
HETATM   18  C   UNL     1     -10.153  14.369  68.007  1.00  0.00    -0.232 C  
HETATM   19  C   UNL     1     -10.689  14.721  66.666  1.00  0.00    -0.309 C  
BRANCH  16  20
HETATM   20  C   UNL     1      -9.953  17.188  66.324  1.00  0.00    -0.316 C  
BRANCH  20  21
HETATM   21  C   UNL     1     -10.642  18.011  67.363  1.00  0.00    -0.378 C  
HETATM   22  C   UNL     1     -10.734  19.349  67.311  1.00  0.00    -0.603 C  
ENDBRANCH  20  21
ENDBRANCH  16  20
ENDBRANCH  12  13
ENDBRANCH  10  12
ENDBRANCH   6  10
ENDBRANCH   3   5
TORSDOF 6
ENDMDL
MODEL        9
REMARK 921   NORMALIZED FREE ENERGY PREDICTED BY IDOCK:   -5.54 KCAL/MOL
REMARK 922        TOTAL FREE ENERGY PREDICTED BY IDOCK:   -9.01 KCAL/MOL
REMARK 923 INTER-LIGAND FREE ENERGY PREDICTED BY IDOCK:   -7.59 KCAL/MOL
REMARK 924 INTRA-LIGAND FREE ENERGY PREDICTED BY IDOCK:   -1.41 KCAL/MOL
REMARK 927      BINDING AFFINITY PREDICTED BY RF-SCORE:    0.00 PKD
ROOT
HETATM    1  C   UNL     1     -12.884  15.359  70.605  1.00  0.00    -0.484 C  
HETATM    2  C   UNL     1     -12.878  13.983  71.209  1.00  0.00    -0.430 C  
HETATM    3  C   UNL     1     -12.226  12.949  70.643  1.00  0.00    -0.386 C  
HETATM    4  C   UNL     1     -13.607  13.790  72.507  1.00  0.00    -0.680 C  
ENDROOT
BRANCH   3   5
HETATM    5  C   UNL     1     -11.411  12.983  69.426  1.00  0.00    -0.323 C  
HETATM    6  C   UNL     1     -12.008  12.600  68.083  1.00  0.00    -0.274 C  
HETATM    7  C   UNL     1     -10.961  11.707  68.739  1.00  0.00    -0.274 C  
HETATM    8  C   UNL     1     -11.438  10.357  69.210  1.00  0.00    -0.281 C  
HETATM    9  C   UNL     1      -9.535  11.685  68.233  1.00  0.00    -0.191 C  
BRANCH   6  10
HETATM   10  C   UNL     1     -11.692  13.464  66.924  1.00  0.00    -0.389 C  
HETATM   11  O   UNL     1     -12.018  13.134  65.797  1.00  0.00    -0.377 OA 
BRANCH  10  12
HETATM   12  O   UNL     1     -11.018  14.600  67.260  1.00  0.00    -0.300 OA 
BRANCH  12  13
HETATM   13  C   UNL     1      -9.880  15.006  66.453  1.00  0.00    -0.272 C  
HETATM   14  C   UNL     1      -8.600  15.173  67.263  1.00  0.00    -0.218 C  
HETATM   15  C   UNL     1      -8.505  16.668  67.352  1.00  0.00    -0.188 C  
HETATM   16  C   UNL     1      -9.409  17.329  66.376  1.00  0.00    -0.281 C  
HETATM   17  O   UNL     1      -7.732  17.267  68.086  1.00  0.00    -0.202 OA 
HETATM   18  C   UNL     1     -11.134  16.443  64.715  1.00  0.00    -0.246 C  
HETATM   19  C   UNL     1     -10.122  16.341  65.800  1.00  0.00    -0.373 C  
BRANCH  16  20
HETATM   20  C   UNL     1      -9.511  18.811  66.320  1.00  0.00    -0.288 C  
BRANCH  20  21
HETATM   21  C   UNL     1     -10.492  19.355  67.308  1.00  0.00    -0.579 C  
HETATM   22  C   UNL     1     -10.150  19.804  68.525  1.00  0.00    -0.555 C  
ENDBRANCH  20  21
ENDBRANCH  16  20
ENDBRANCH  12  13
ENDBRANCH  10  12
ENDBRANCH   6  10
ENDBRANCH   3   5
TORSDOF 6
ENDMDL
MODEL       10
REMARK 921   NORMALIZED FREE ENERGY PREDICTED BY IDOCK:   -5.54 KCAL/MOL
REMARK 922        TOTAL FREE ENERGY PREDICTED BY IDOCK:   -9.01 KCAL/MOL
REMARK 923 INTER-LIGAND FREE ENERGY PREDICTED BY IDOCK:   -7.86 KCAL/MOL
REMARK 924 INTRA-LIGAND FREE ENERGY PREDICTED BY IDOCK:   -1.15 KCAL/MOL
REMARK 927      BINDING AFFINITY PREDICTED BY RF-SCORE:    0.00 PKD
ROOT
HETATM    1  C   UNL     1      -5.674  18.497  65.533  1.00  0.00    -0.238 C  
HETATM    2  C   UNL     1      -6.518  19.676  65.140  1.00  0.00    -0.319 C  
HETATM    3  C   UNL     1      -7.629  20.026  65.816  1.00  0.00    -0.284 C  
HETATM    4  C   UNL     1      -6.065  20.495  63.965  1.00  0.00    -0.328 C  
ENDROOT
BRANCH   3   5
HETATM    5  C   UNL     1      -8.165  19.385  67.019  1.00  0.00    -0.297 C  
HETATM    6  C   UNL     1      -8.833  18.023  66.939  1.00  0.00    -0.266 C  
HETATM    7  C   UNL     1      -9.659  19.265  67.253  1.00  0.00    -0.394 C  
HETATM    8  C   UNL     1     -10.651  19.689  66.199  1.00  0.00    -0.584 C  
HETATM    9  C   UNL     1     -10.142  19.538  68.661  1.00  0.00    -0.535 C  
BRANCH   6  10
HETATM   10  C   UNL     1      -8.481  17.028  67.976  1.00  0.00    -0.216 C  
HETATM   11  O   UNL     1      -7.661  17.293  68.838  1.00  0.00    -0.258 OA 
BRANCH  10  12
HETATM   12  O   UNL     1      -9.146  15.845  67.842  1.00  0.00    -0.188 OA 
BRANCH  12  13
HETATM   13  C   UNL     1     -10.569  15.870  67.548  1.00  0.00    -0.315 C  
HETATM   14  C   UNL     1     -11.428  15.365  68.702  1.00  0.00    -0.357 C  
HETATM   15  C   UNL     1     -11.802  13.999  68.209  1.00  0.00    -0.371 C  
HETATM   16  C   UNL     1     -11.524  13.849  66.757  1.00  0.00    -0.369 C  
HETATM   17  O   UNL     1     -12.333  13.139  68.897  1.00  0.00    -0.147 OA 
HETATM   18  C   UNL     1     -10.448  15.379  65.018  1.00  0.00    -0.411 C  
HETATM   19  C   UNL     1     -10.901  14.982  66.378  1.00  0.00    -0.326 C  
BRANCH  16  20
HETATM   20  C   UNL     1     -11.776  12.558  66.065  1.00  0.00    -0.472 C  
BRANCH  20  21
HETATM   21  C   UNL     1     -12.657  12.713  64.868  1.00  0.00    -0.525 C  
HETATM   22  C   UNL     1     -12.436  12.097  63.697  1.00  0.00    -0.658 C  
ENDBRANCH  20  21
ENDBRANCH  16  20
ENDBRANCH  12  13
ENDBRANCH  10  12
ENDBRANCH   6  10
ENDBRANCH   3   5
TORSDOF 6
ENDMDL
MODEL       11
REMARK 921   NORMALIZED FREE ENERGY PREDICTED BY IDOCK:   -5.53 KCAL/MOL
REMARK 922        TOTAL FREE ENERGY PREDICTED BY IDOCK:   -8.99 KCAL/MOL
REMARK 923 INTER-LIGAND FREE ENERGY PREDICTED BY IDOCK:   -7.35 KCAL/MOL
REMARK 924 INTRA-LIGAND FREE ENERGY PREDICTED BY IDOCK:   -1.64 KCAL/MOL
REMARK 927      BINDING AFFINITY PREDICTED BY RF-SCORE:    0.00 PKD
ROOT
HETATM    1  C   UNL     1      -5.538  20.865  68.595  1.00  0.00    -0.389 C  
HETATM    2  C   UNL     1      -6.210  20.079  69.685  1.00  0.00    -0.383 C  
HETATM    3  C   UNL     1      -7.284  19.299  69.454  1.00  0.00    -0.248 C  
HETATM    4  C   UNL     1      -5.624  20.159  71.065  1.00  0.00    -0.342 C  
ENDROOT
BRANCH   3   5
HETATM    5  C   UNL     1      -7.931  19.053  68.164  1.00  0.00    -0.334 C  
HETATM    6  C   UNL     1      -8.793  17.820  67.952  1.00  0.00    -0.251 C  
HETATM    7  C   UNL     1      -7.453  17.951  67.236  1.00  0.00    -0.213 C  
HETATM    8  C   UNL     1      -6.375  16.986  67.661  1.00  0.00    -0.165 C  
HETATM    9  C   UNL     1      -7.392  18.292  65.763  1.00  0.00    -0.171 C  
BRANCH   6  10
HETATM   10  C   UNL     1     -10.082  18.000  67.248  1.00  0.00    -0.342 C  
HETATM   11  O   UNL     1     -10.517  19.117  67.027  1.00  0.00    -0.385 OA 
BRANCH  10  12
HETATM   12  O   UNL     1     -10.688  16.826  66.913  1.00  0.00    -0.257 OA 
BRANCH  12  13
HETATM   13  C   UNL     1     -10.255  16.133  65.710  1.00  0.00    -0.374 C  
HETATM   14  C   UNL     1     -11.275  16.204  64.579  1.00  0.00    -0.275 C  
HETATM   15  C   UNL     1     -11.861  14.824  64.629  1.00  0.00    -0.436 C  
HETATM   16  C   UNL     1     -11.019  13.905  65.438  1.00  0.00    -0.316 C  
HETATM   17  O   UNL     1     -12.866  14.479  64.025  1.00  0.00    -0.672 OA 
HETATM   18  C   UNL     1      -8.899  14.241  66.822  1.00  0.00    -0.207 C  
HETATM   19  C   UNL     1     -10.043  14.665  65.972  1.00  0.00    -0.330 C  
BRANCH  16  20
HETATM   20  C   UNL     1     -11.433  12.494  65.661  1.00  0.00    -0.400 C  
BRANCH  20  21
HETATM   21  C   UNL     1     -10.646  11.530  64.835  1.00  0.00    -0.360 C  
HETATM   22  C   UNL     1     -10.454  11.664  63.514  1.00  0.00    -0.498 C  
ENDBRANCH  20  21
ENDBRANCH  16  20
ENDBRANCH  12  13
ENDBRANCH  10  12
ENDBRANCH   6  10
ENDBRANCH   3   5
TORSDOF 6
ENDMDL
MODEL       12
REMARK 921   NORMALIZED FREE ENERGY PREDICTED BY IDOCK:   -5.52 KCAL/MOL
REMARK 922        TOTAL FREE ENERGY PREDICTED BY IDOCK:   -8.97 KCAL/MOL
REMARK 923 INTER-LIGAND FREE ENERGY PREDICTED BY IDOCK:   -7.89 KCAL/MOL
REMARK 924 INTRA-LIGAND FREE ENERGY PREDICTED BY IDOCK:   -1.08 KCAL/MOL
REMARK 927      BINDING AFFINITY PREDICTED BY RF-SCORE:    0.00 PKD
ROOT
HETATM    1  C   UNL     1     -10.264  19.742  66.381  1.00  0.00    -0.614 C  
HETATM    2  C   UNL     1     -10.048  19.178  67.757  1.00  0.00    -0.469 C  
HETATM    3  C   UNL     1      -9.761  17.878  67.967  1.00  0.00    -0.303 C  
HETATM    4  C   UNL     1     -10.131  20.125  68.918  1.00  0.00    -0.292 C  
ENDROOT
BRANCH   3   5
HETATM    5  C   UNL     1      -9.571  16.844  66.948  1.00  0.00    -0.262 C  
HETATM    6  C   UNL     1     -10.751  16.035  66.437  1.00  0.00    -0.232 C  
HETATM    7  C   UNL     1      -9.676  15.368  67.289  1.00  0.00    -0.212 C  
HETATM    8  C   UNL     1     -10.103  14.913  68.661  1.00  0.00    -0.237 C  
HETATM    9  C   UNL     1      -8.643  14.459  66.660  1.00  0.00    -0.053 C  
BRANCH   6  10
HETATM   10  C   UNL     1     -10.847  15.814  64.976  1.00  0.00    -0.443 C  
HETATM   11  O   UNL     1     -11.243  16.701  64.240  1.00  0.00    -1.098 OA 
BRANCH  10  12
HETATM   12  O   UNL     1     -10.469  14.563  64.590  1.00  0.00    -0.388 OA 
BRANCH  12  13
HETATM   13  C   UNL     1     -11.481  13.524  64.490  1.00  0.00    -0.381 C  
HETATM   14  C   UNL     1     -12.436  13.503  65.678  1.00  0.00    -0.528 C  
HETATM   15  C   UNL     1     -11.926  12.314  66.439  1.00  0.00    -0.209 C  
HETATM   16  C   UNL     1     -11.019  11.484  65.606  1.00  0.00    -0.296 C  
HETATM   17  O   UNL     1     -12.268  12.026  67.577  1.00  0.00    -0.490 OA 
HETATM   18  C   UNL     1     -10.086  11.748  63.243  1.00  0.00    -0.448 C  
HETATM   19  C   UNL     1     -10.855  12.155  64.449  1.00  0.00    -0.372 C  
BRANCH  16  20
HETATM   20  C   UNL     1     -10.361  10.277  66.173  1.00  0.00    -0.253 C  
BRANCH  20  21
HETATM   21  C   UNL     1      -9.076  10.598  66.864  1.00  0.00    -0.168 C  
HETATM   22  C   UNL     1      -8.976  10.819  68.183  1.00  0.00    -0.140 C  
ENDBRANCH  20  21
ENDBRANCH  16  20
ENDBRANCH  12  13
ENDBRANCH  10  12
ENDBRANCH   6  10
ENDBRANCH   3   5
TORSDOF 6
ENDMDL
MODEL       13
REMARK 921   NORMALIZED FREE ENERGY PREDICTED BY IDOCK:   -5.50 KCAL/MOL
REMARK 922        TOTAL FREE ENERGY PREDICTED BY IDOCK:   -8.95 KCAL/MOL
REMARK 923 INTER-LIGAND FREE ENERGY PREDICTED BY IDOCK:   -7.63 KCAL/MOL
REMARK 924 INTRA-LIGAND FREE ENERGY PREDICTED BY IDOCK:   -1.32 KCAL/MOL
REMARK 927      BINDING AFFINITY PREDICTED BY RF-SCORE:    0.00 PKD
ROOT
HETATM    1  C   UNL     1      -7.124  21.061  67.450  1.00  0.00    -0.393 C  
HETATM    2  C   UNL     1      -6.483  20.134  68.445  1.00  0.00    -0.336 C  
HETATM    3  C   UNL     1      -7.069  18.989  68.846  1.00  0.00    -0.363 C  
HETATM    4  C   UNL     1      -5.127  20.506  68.970  1.00  0.00    -0.281 C  
ENDROOT
BRANCH   3   5
HETATM    5  C   UNL     1      -8.346  18.445  68.379  1.00  0.00    -0.328 C  
HETATM    6  C   UNL     1      -8.520  16.951  68.166  1.00  0.00    -0.217 C  
HETATM    7  C   UNL     1      -8.508  17.900  66.972  1.00  0.00    -0.248 C  
HETATM    8  C   UNL     1      -7.328  17.782  66.041  1.00  0.00    -0.307 C  
HETATM    9  C   UNL     1      -9.791  18.260  66.256  1.00  0.00    -0.323 C  
BRANCH   6  10
HETATM   10  C   UNL     1      -9.768  16.330  68.665  1.00  0.00    -0.235 C  
HETATM   11  O   UNL     1     -10.517  16.949  69.400  1.00  0.00    -0.321 OA 
BRANCH  10  12
HETATM   12  O   UNL     1      -9.949  15.051  68.231  1.00  0.00    -0.218 OA 
BRANCH  12  13
HETATM   13  C   UNL     1     -11.125  14.740  67.436  1.00  0.00    -0.324 C  
HETATM   14  C   UNL     1     -12.048  13.727  68.102  1.00  0.00    -0.316 C  
HETATM   15  C   UNL     1     -11.736  12.488  67.315  1.00  0.00    -0.362 C  
HETATM   16  C   UNL     1     -10.999  12.810  66.066  1.00  0.00    -0.306 C  
HETATM   17  O   UNL     1     -12.101  11.363  67.626  1.00  0.00    -0.630 OA 
HETATM   18  C   UNL     1     -10.078  14.983  65.091  1.00  0.00    -0.350 C  
HETATM   19  C   UNL     1     -10.744  14.132  66.112  1.00  0.00    -0.297 C  
BRANCH  16  20
HETATM   20  C   UNL     1     -10.547  11.727  65.152  1.00  0.00    -0.332 C  
BRANCH  20  21
HETATM   21  C   UNL     1     -11.254  11.756  63.837  1.00  0.00    -0.493 C  
HETATM   22  C   UNL     1     -12.500  12.225  63.672  1.00  0.00    -0.647 C  
ENDBRANCH  20  21
ENDBRANCH  16  20
ENDBRANCH  12  13
ENDBRANCH  10  12
ENDBRANCH   6  10
ENDBRANCH   3   5
TORSDOF 6
ENDMDL
MODEL       14
REMARK 921   NORMALIZED FREE ENERGY PREDICTED BY IDOCK:   -5.49 KCAL/MOL
REMARK 922        TOTAL FREE ENERGY PREDICTED BY IDOCK:   -8.93 KCAL/MOL
REMARK 923 INTER-LIGAND FREE ENERGY PREDICTED BY IDOCK:   -7.85 KCAL/MOL
REMARK 924 INTRA-LIGAND FREE ENERGY PREDICTED BY IDOCK:   -1.08 KCAL/MOL
REMARK 927      BINDING AFFINITY PREDICTED BY RF-SCORE:    0.00 PKD
ROOT
HETATM    1  C   UNL     1     -12.195  14.713  64.556  1.00  0.00    -0.473 C  
HETATM    2  C   UNL     1     -12.174  13.275  64.996  1.00  0.00    -0.477 C  
HETATM    3  C   UNL     1     -12.022  12.918  66.286  1.00  0.00    -0.472 C  
HETATM    4  C   UNL     1     -12.363  12.223  63.942  1.00  0.00    -0.606 C  
ENDROOT
BRANCH   3   5
HETATM    5  C   UNL     1     -11.901  13.813  67.438  1.00  0.00    -0.431 C  
HETATM    6  C   UNL     1     -10.551  14.061  68.088  1.00  0.00    -0.252 C  
HETATM    7  C   UNL     1     -11.627  13.277  68.831  1.00  0.00    -0.357 C  
HETATM    8  C   UNL     1     -11.344  11.814  69.063  1.00  0.00    -0.338 C  
HETATM    9  C   UNL     1     -12.408  13.913  69.961  1.00  0.00    -0.378 C  
BRANCH   6  10
HETATM   10  C   UNL     1     -10.208  15.457  68.441  1.00  0.00    -0.221 C  
HETATM   11  O   UNL     1      -9.381  15.693  69.304  1.00  0.00    -0.234 OA 
BRANCH  10  12
HETATM   12  O   UNL     1     -10.907  16.384  67.726  1.00  0.00    -0.332 OA 
BRANCH  12  13
HETATM   13  C   UNL     1     -10.284  16.982  66.556  1.00  0.00    -0.320 C  
HETATM   14  C   UNL     1      -9.078  16.198  66.054  1.00  0.00    -0.354 C  
HETATM   15  C   UNL     1      -7.949  17.057  66.543  1.00  0.00    -0.295 C  
HETATM   16  C   UNL     1      -8.428  18.402  66.952  1.00  0.00    -0.272 C  
HETATM   17  O   UNL     1      -6.774  16.718  66.541  1.00  0.00    -0.219 OA 
HETATM   18  C   UNL     1     -10.747  19.461  67.098  1.00  0.00    -0.593 C  
HETATM   19  C   UNL     1      -9.772  18.365  66.857  1.00  0.00    -0.324 C  
BRANCH  16  20
HETATM   20  C   UNL     1      -7.484  19.406  67.512  1.00  0.00    -0.271 C  
BRANCH  20  21
HETATM   21  C   UNL     1      -7.106  20.453  66.517  1.00  0.00    -0.300 C  
HETATM   22  C   UNL     1      -6.878  20.200  65.219  1.00  0.00    -0.334 C  
ENDBRANCH  20  21
ENDBRANCH  16  20
ENDBRANCH  12  13
ENDBRANCH  10  12
ENDBRANCH   6  10
ENDBRANCH   3   5
TORSDOF 6
ENDMDL
MODEL       15
REMARK 921   NORMALIZED FREE ENERGY PREDICTED BY IDOCK:   -5.48 KCAL/MOL
REMARK 922        TOTAL FREE ENERGY PREDICTED BY IDOCK:   -8.92 KCAL/MOL
REMARK 923 INTER-LIGAND FREE ENERGY PREDICTED BY IDOCK:   -7.68 KCAL/MOL
REMARK 924 INTRA-LIGAND FREE ENERGY PREDICTED BY IDOCK:   -1.24 KCAL/MOL
REMARK 927      BINDING AFFINITY PREDICTED BY RF-SCORE:    0.00 PKD
ROOT
HETATM    1  C   UNL     1      -9.980  12.376  63.820  1.00  0.00    -0.241 C  
HETATM    2  C   UNL     1     -11.374  12.618  64.329  1.00  0.00    -0.416 C  
HETATM    3  C   UNL     1     -11.624  13.383  65.409  1.00  0.00    -0.335 C  
HETATM    4  C   UNL     1     -12.510  11.998  63.568  1.00  0.00    -0.654 C  
ENDROOT
BRANCH   3   5
HETATM    5  C   UNL     1     -10.645  14.115  66.215  1.00  0.00    -0.284 C  
HETATM    6  C   UNL     1     -11.088  15.217  67.161  1.00  0.00    -0.323 C  
HETATM    7  C   UNL     1     -10.287  15.558  65.909  1.00  0.00    -0.365 C  
HETATM    8  C   UNL     1     -11.019  16.333  64.842  1.00  0.00    -0.321 C  
HETATM    9  C   UNL     1      -8.822  15.921  66.002  1.00  0.00    -0.298 C  
BRANCH   6  10
HETATM   10  C   UNL     1     -10.485  15.242  68.512  1.00  0.00    -0.235 C  
HETATM   11  O   UNL     1      -9.885  16.227  68.905  1.00  0.00    -0.224 OA 
BRANCH  10  12
HETATM   12  O   UNL     1     -10.667  14.085  69.210  1.00  0.00    -0.210 OA 
BRANCH  12  13
HETATM   13  C   UNL     1     -11.978  13.458  69.198  1.00  0.00    -0.317 C  
HETATM   14  C   UNL     1     -12.878  13.931  70.333  1.00  0.00    -0.200 C  
HETATM   15  C   UNL     1     -12.815  12.756  71.264  1.00  0.00    -0.262 C  
HETATM   16  C   UNL     1     -12.257  11.557  70.587  1.00  0.00    -0.473 C  
HETATM   17  O   UNL     1     -13.234  12.763  72.412  1.00  0.00    -0.456 OA 
HETATM   18  C   UNL     1     -11.295  11.156  68.256  1.00  0.00    -0.365 C  
HETATM   19  C   UNL     1     -11.871  11.965  69.362  1.00  0.00    -0.389 C  
BRANCH  16  20
HETATM   20  C   UNL     1     -12.061  10.287  71.335  1.00  0.00    -0.457 C  
BRANCH  20  21
HETATM   21  C   UNL     1     -13.277   9.419  71.317  1.00  0.00    -0.364 C  
HETATM   22  C   UNL     1     -13.983   9.105  72.413  1.00  0.00    -0.488 C  
ENDBRANCH  20  21
ENDBRANCH  16  20
ENDBRANCH  12  13
ENDBRANCH  10  12
ENDBRANCH   6  10
ENDBRANCH   3   5
TORSDOF 6
ENDMDL
MODEL       16
REMARK 921   NORMALIZED FREE ENERGY PREDICTED BY IDOCK:   -5.48 KCAL/MOL
REMARK 922        TOTAL FREE ENERGY PREDICTED BY IDOCK:   -8.92 KCAL/MOL
REMARK 923 INTER-LIGAND FREE ENERGY PREDICTED BY IDOCK:   -7.56 KCAL/MOL
REMARK 924 INTRA-LIGAND FREE ENERGY PREDICTED BY IDOCK:   -1.36 KCAL/MOL
REMARK 927      BINDING AFFINITY PREDICTED BY RF-SCORE:    0.00 PKD
ROOT
HETATM    1  C   UNL     1      -6.963  16.343  68.392  1.00  0.00    -0.144 C  
HETATM    2  C   UNL     1      -6.880  17.194  67.157  1.00  0.00    -0.211 C  
HETATM    3  C   UNL     1      -7.839  17.188  66.210  1.00  0.00    -0.351 C  
HETATM    4  C   UNL     1      -5.689  18.098  67.013  1.00  0.00    -0.162 C  
ENDROOT
BRANCH   3   5
HETATM    5  C   UNL     1      -9.090  16.428  66.231  1.00  0.00    -0.362 C  
HETATM    6  C   UNL     1     -10.305  16.914  65.460  1.00  0.00    -0.196 C  
HETATM    7  C   UNL     1     -10.308  16.929  66.985  1.00  0.00    -0.307 C  
HETATM    8  C   UNL     1     -10.318  18.288  67.637  1.00  0.00    -0.414 C  
HETATM    9  C   UNL     1     -11.086  15.893  67.767  1.00  0.00    -0.288 C  
BRANCH   6  10
HETATM   10  C   UNL     1     -11.065  15.912  64.681  1.00  0.00    -0.354 C  
HETATM   11  O   UNL     1     -12.040  16.243  64.028  1.00  0.00    -0.928 OA 
BRANCH  10  12
HETATM   12  O   UNL     1     -10.570  14.647  64.792  1.00  0.00    -0.421 OA 
BRANCH  12  13
HETATM   13  C   UNL     1     -11.482  13.522  64.668  1.00  0.00    -0.358 C  
HETATM   14  C   UNL     1     -12.379  13.342  65.887  1.00  0.00    -0.493 C  
HETATM   15  C   UNL     1     -11.728  12.168  66.557  1.00  0.00    -0.321 C  
HETATM   16  C   UNL     1     -10.783  11.477  65.642  1.00  0.00    -0.323 C  
HETATM   17  O   UNL     1     -11.992  11.786  67.687  1.00  0.00    -0.599 OA 
HETATM   18  C   UNL     1      -9.982  11.961  63.266  1.00  0.00    -0.409 C  
HETATM   19  C   UNL     1     -10.733  12.224  64.522  1.00  0.00    -0.358 C  
BRANCH  16  20
HETATM   20  C   UNL     1      -9.991  10.310  66.111  1.00  0.00    -0.300 C  
BRANCH  20  21
HETATM   21  C   UNL     1      -8.608  10.688  66.531  1.00  0.00    -0.143 C  
HETATM   22  C   UNL     1      -8.309  11.196  67.737  1.00  0.00    -0.123 C  
ENDBRANCH  20  21
ENDBRANCH  16  20
ENDBRANCH  12  13
ENDBRANCH  10  12
ENDBRANCH   6  10
ENDBRANCH   3   5
TORSDOF 6
ENDMDL
MODEL       17
REMARK 921   NORMALIZED FREE ENERGY PREDICTED BY IDOCK:   -5.47 KCAL/MOL
REMARK 922        TOTAL FREE ENERGY PREDICTED BY IDOCK:   -8.91 KCAL/MOL
REMARK 923 INTER-LIGAND FREE ENERGY PREDICTED BY IDOCK:   -7.48 KCAL/MOL
REMARK 924 INTRA-LIGAND FREE ENERGY PREDICTED BY IDOCK:   -1.43 KCAL/MOL
REMARK 927      BINDING AFFINITY PREDICTED BY RF-SCORE:    0.00 PKD
ROOT
HETATM    1  C   UNL     1     -10.898  15.009  64.933  1.00  0.00    -0.430 C  
HETATM    2  C   UNL     1     -11.793  14.004  65.600  1.00  0.00    -0.384 C  
HETATM    3  C   UNL     1     -11.955  13.956  66.937  1.00  0.00    -0.467 C  
HETATM    4  C   UNL     1     -12.547  13.050  64.719  1.00  0.00    -0.460 C  
ENDROOT
BRANCH   3   5
HETATM    5  C   UNL     1     -11.357  14.854  67.927  1.00  0.00    -0.340 C  
HETATM    6  C   UNL     1     -10.100  14.450  68.680  1.00  0.00    -0.242 C  
HETATM    7  C   UNL     1     -11.433  14.556  69.414  1.00  0.00    -0.323 C  
HETATM    8  C   UNL     1     -12.018  13.263  69.921  1.00  0.00    -0.400 C  
HETATM    9  C   UNL     1     -11.727  15.732  70.320  1.00  0.00    -0.373 C  
BRANCH   6  10
HETATM   10  C   UNL     1      -9.037  15.468  68.829  1.00  0.00    -0.207 C  
HETATM   11  O   UNL     1      -8.194  15.361  69.702  1.00  0.00    -0.235 OA 
BRANCH  10  12
HETATM   12  O   UNL     1      -9.127  16.485  67.925  1.00  0.00    -0.203 OA 
BRANCH  12  13
HETATM   13  C   UNL     1      -9.377  17.833  68.408  1.00  0.00    -0.294 C  
HETATM   14  C   UNL     1     -10.505  18.536  67.662  1.00  0.00    -0.452 C  
HETATM   15  C   UNL     1      -9.733  19.471  66.781  1.00  0.00    -0.366 C  
HETATM   16  C   UNL     1      -8.320  19.595  67.225  1.00  0.00    -0.337 C  
HETATM   17  O   UNL     1     -10.219  20.107  65.856  1.00  0.00    -0.464 OA 
HETATM   18  C   UNL     1      -6.962  18.459  69.065  1.00  0.00    -0.272 C  
HETATM   19  C   UNL     1      -8.166  18.710  68.229  1.00  0.00    -0.349 C  
BRANCH  16  20
HETATM   20  C   UNL     1      -7.358  20.438  66.467  1.00  0.00    -0.287 C  
BRANCH  20  21
HETATM   21  C   UNL     1      -6.774  19.725  65.292  1.00  0.00    -0.317 C  
HETATM   22  C   UNL     1      -5.996  18.637  65.393  1.00  0.00    -0.280 C  
ENDBRANCH  20  21
ENDBRANCH  16  20
ENDBRANCH  12  13
ENDBRANCH  10  12
ENDBRANCH   6  10
ENDBRANCH   3   5
TORSDOF 6
ENDMDL
MODEL       18
REMARK 921   NORMALIZED FREE ENERGY PREDICTED BY IDOCK:   -5.45 KCAL/MOL
REMARK 922        TOTAL FREE ENERGY PREDICTED BY IDOCK:   -8.88 KCAL/MOL
REMARK 923 INTER-LIGAND FREE ENERGY PREDICTED BY IDOCK:   -7.79 KCAL/MOL
REMARK 924 INTRA-LIGAND FREE ENERGY PREDICTED BY IDOCK:   -1.09 KCAL/MOL
REMARK 927      BINDING AFFINITY PREDICTED BY RF-SCORE:    0.00 PKD
ROOT
HETATM    1  C   UNL     1     -11.939  15.056  71.192  1.00  0.00    -0.375 C  
HETATM    2  C   UNL     1     -13.080  14.221  71.702  1.00  0.00    -0.417 C  
HETATM    3  C   UNL     1     -13.152  12.892  71.492  1.00  0.00    -0.390 C  
HETATM    4  C   UNL     1     -14.148  14.914  72.499  1.00  0.00    -0.478 C  
ENDROOT
BRANCH   3   5
HETATM    5  C   UNL     1     -12.166  12.056  70.805  1.00  0.00    -0.382 C  
HETATM    6  C   UNL     1     -12.535  11.306  69.536  1.00  0.00    -0.127 C  
HETATM    7  C   UNL     1     -12.260  10.541  70.827  1.00  0.00    -0.468 C  
HETATM    8  C   UNL     1     -13.441   9.842  71.450  1.00  0.00    -0.397 C  
HETATM    9  C   UNL     1     -10.960   9.791  71.020  1.00  0.00    -0.402 C  
BRANCH   6  10
HETATM   10  C   UNL     1     -11.567  11.337  68.418  1.00  0.00    -0.308 C  
HETATM   11  O   UNL     1     -11.705  10.601  67.457  1.00  0.00    -0.445 OA 
BRANCH  10  12
HETATM   12  O   UNL     1     -10.555  12.233  68.600  1.00  0.00    -0.228 OA 
BRANCH  12  13
HETATM   13  C   UNL     1     -10.618  13.511  67.911  1.00  0.00    -0.248 C  
HETATM   14  C   UNL     1     -12.040  13.930  67.554  1.00  0.00    -0.366 C  
HETATM   15  C   UNL     1     -12.069  13.638  66.083  1.00  0.00    -0.436 C  
HETATM   16  C   UNL     1     -10.700  13.435  65.542  1.00  0.00    -0.301 C  
HETATM   17  O   UNL     1     -13.083  13.635  65.400  1.00  0.00    -0.704 OA 
HETATM   18  C   UNL     1      -8.388  13.364  66.623  1.00  0.00     0.234 C  
HETATM   19  C   UNL     1      -9.871  13.464  66.604  1.00  0.00    -0.278 C  
BRANCH  16  20
HETATM   20  C   UNL     1     -10.493  13.089  64.111  1.00  0.00    -0.395 C  
BRANCH  20  21
HETATM   21  C   UNL     1     -10.842  11.668  63.810  1.00  0.00    -0.493 C  
HETATM   22  C   UNL     1     -10.182  10.616  64.318  1.00  0.00    -0.391 C  
ENDBRANCH  20  21
ENDBRANCH  16  20
ENDBRANCH  12  13
ENDBRANCH  10  12
ENDBRANCH   6  10
ENDBRANCH   3   5
TORSDOF 6
ENDMDL
MODEL       19
REMARK 921   NORMALIZED FREE ENERGY PREDICTED BY IDOCK:   -5.42 KCAL/MOL
REMARK 922        TOTAL FREE ENERGY PREDICTED BY IDOCK:   -8.85 KCAL/MOL
REMARK 923 INTER-LIGAND FREE ENERGY PREDICTED BY IDOCK:   -7.67 KCAL/MOL
REMARK 924 INTRA-LIGAND FREE ENERGY PREDICTED BY IDOCK:   -1.18 KCAL/MOL
REMARK 927      BINDING AFFINITY PREDICTED BY RF-SCORE:    0.00 PKD
ROOT
HETATM    1  C   UNL     1     -11.803  14.612  71.807  1.00  0.00    -0.300 C  
HETATM    2  C   UNL     1     -13.085  13.828  71.800  1.00  0.00    -0.463 C  
HETATM    3  C   UNL     1     -13.156  12.564  71.338  1.00  0.00    -0.303 C  
HETATM    4  C   UNL     1     -14.310  14.490  72.362  1.00  0.00    -0.375 C  
ENDROOT
BRANCH   3   5
HETATM    5  C   UNL     1     -12.050  11.751  70.829  1.00  0.00    -0.352 C  
HETATM    6  C   UNL     1     -12.245  10.843  69.627  1.00  0.00    -0.354 C  
HETATM    7  C   UNL     1     -12.024  10.245  71.012  1.00  0.00    -0.483 C  
HETATM    8  C   UNL     1     -13.196   9.512  71.614  1.00  0.00    -0.486 C  
HETATM    9  C   UNL     1     -10.691   9.637  71.389  1.00  0.00    -0.246 C  
BRANCH   6  10
HETATM   10  C   UNL     1     -11.187  10.843  68.592  1.00  0.00    -0.267 C  
HETATM   11  O   UNL     1     -10.677   9.798  68.227  1.00  0.00    -0.229 OA 
BRANCH  10  12
HETATM   12  O   UNL     1     -10.871  12.089  68.138  1.00  0.00    -0.202 OA 
BRANCH  12  13
HETATM   13  C   UNL     1     -11.809  12.777  67.267  1.00  0.00    -0.350 C  
HETATM   14  C   UNL     1     -11.821  12.228  65.845  1.00  0.00    -0.420 C  
HETATM   15  C   UNL     1     -11.051  13.289  65.117  1.00  0.00    -0.297 C  
HETATM   16  C   UNL     1     -10.928  14.526  65.931  1.00  0.00    -0.320 C  
HETATM   17  O   UNL     1     -10.637  13.178  63.972  1.00  0.00    -0.402 OA 
HETATM   18  C   UNL     1     -11.642  15.132  68.306  1.00  0.00    -0.357 C  
HETATM   19  C   UNL     1     -11.461  14.236  67.134  1.00  0.00    -0.377 C  
BRANCH  16  20
HETATM   20  C   UNL     1     -10.164  15.696  65.422  1.00  0.00    -0.401 C  
BRANCH  20  21
HETATM   21  C   UNL     1      -8.871  15.892  66.144  1.00  0.00    -0.363 C  
HETATM   22  C   UNL     1      -8.258  17.080  66.262  1.00  0.00    -0.322 C  
ENDBRANCH  20  21
ENDBRANCH  16  20
ENDBRANCH  12  13
ENDBRANCH  10  12
ENDBRANCH   6  10
ENDBRANCH   3   5
TORSDOF 6
ENDMDL
MODEL       20
REMARK 921   NORMALIZED FREE ENERGY PREDICTED BY IDOCK:   -5.42 KCAL/MOL
REMARK 922        TOTAL FREE ENERGY PREDICTED BY IDOCK:   -8.84 KCAL/MOL
REMARK 923 INTER-LIGAND FREE ENERGY PREDICTED BY IDOCK:   -7.44 KCAL/MOL
REMARK 924 INTRA-LIGAND FREE ENERGY PREDICTED BY IDOCK:   -1.41 KCAL/MOL
REMARK 927      BINDING AFFINITY PREDICTED BY RF-SCORE:    0.00 PKD
ROOT
HETATM    1  C   UNL     1     -10.542   6.738  67.127  1.00  0.00    -0.401 C  
HETATM    2  C   UNL     1      -9.211   7.165  66.573  1.00  0.00    -0.199 C  
HETATM    3  C   UNL     1      -9.004   8.392  66.058  1.00  0.00    -0.228 C  
HETATM    4  C   UNL     1      -8.082   6.177  66.637  1.00  0.00    -0.109 C  
ENDROOT
BRANCH   3   5
HETATM    5  C   UNL     1      -9.969   9.491  65.988  1.00  0.00    -0.348 C  
HETATM    6  C   UNL     1      -9.515  10.900  65.648  1.00  0.00    -0.252 C  
HETATM    7  C   UNL     1     -10.015  10.573  67.051  1.00  0.00    -0.244 C  
HETATM    8  C   UNL     1      -8.987  10.629  68.153  1.00  0.00    -0.141 C  
HETATM    9  C   UNL     1     -11.391  11.010  67.505  1.00  0.00    -0.332 C  
BRANCH   6  10
HETATM   10  C   UNL     1     -10.332  11.666  64.680  1.00  0.00    -0.292 C  
HETATM   11  O   UNL     1     -11.088  11.092  63.916  1.00  0.00    -0.335 OA 
BRANCH  10  12
HETATM   12  O   UNL     1     -10.131  13.013  64.745  1.00  0.00    -0.286 OA 
BRANCH  12  13
HETATM   13  C   UNL     1     -11.068  13.827  65.500  1.00  0.00    -0.298 C  
HETATM   14  C   UNL     1     -11.978  14.670  64.614  1.00  0.00    -0.472 C  
HETATM   15  C   UNL     1     -11.359  16.027  64.770  1.00  0.00    -0.280 C  
HETATM   16  C   UNL     1     -10.424  16.069  65.924  1.00  0.00    -0.373 C  
HETATM   17  O   UNL     1     -11.640  16.997  64.080  1.00  0.00    -1.022 OA 
HETATM   18  C   UNL     1      -9.594  14.296  67.564  1.00  0.00    -0.216 C  
HETATM   19  C   UNL     1     -10.348  14.806  66.389  1.00  0.00    -0.297 C  
BRANCH  16  20
HETATM   20  C   UNL     1      -9.662  17.306  66.239  1.00  0.00    -0.282 C  
BRANCH  20  21
HETATM   21  C   UNL     1     -10.519  18.367  66.848  1.00  0.00    -0.419 C  
HETATM   22  C   UNL     1     -10.419  19.670  66.545  1.00  0.00    -0.612 C  
ENDBRANCH  20  21
ENDBRANCH  16  20
ENDBRANCH  12  13
ENDBRANCH  10  12
ENDBRANCH   6  10
ENDBRANCH   3   5
TORSDOF 6
ENDMDL
MODEL       21
REMARK 921   NORMALIZED FREE ENERGY PREDICTED BY IDOCK:   -5.41 KCAL/MOL
REMARK 922        TOTAL FREE ENERGY PREDICTED BY IDOCK:   -8.82 KCAL/MOL
REMARK 923 INTER-LIGAND FREE ENERGY PREDICTED BY IDOCK:   -7.82 KCAL/MOL
REMARK 924 INTRA-LIGAND FREE ENERGY PREDICTED BY IDOCK:   -1.01 KCAL/MOL
REMARK 927      BINDING AFFINITY PREDICTED BY RF-SCORE:    0.00 PKD
ROOT
HETATM    1  C   UNL     1     -12.361  11.617  70.419  1.00  0.00    -0.373 C  
HETATM    2  C   UNL     1     -11.408  10.456  70.396  1.00  0.00    -0.417 C  
HETATM    3  C   UNL     1     -10.536  10.257  69.389  1.00  0.00    -0.259 C  
HETATM    4  C   UNL     1     -11.428   9.515  71.567  1.00  0.00    -0.466 C  
ENDROOT
BRANCH   3   5
HETATM    5  C   UNL     1     -10.335  11.113  68.218  1.00  0.00    -0.198 C  
HETATM    6  C   UNL     1     -11.373  11.164  67.109  1.00  0.00    -0.257 C  
HETATM    7  C   UNL     1     -10.010  10.528  66.856  1.00  0.00    -0.246 C  
HETATM    8  C   UNL     1     -10.003   9.038  66.628  1.00  0.00    -0.349 C  
HETATM    9  C   UNL     1      -8.955  11.253  66.049  1.00  0.00    -0.209 C  
BRANCH   6  10
HETATM   10  C   UNL     1     -11.732  12.495  66.571  1.00  0.00    -0.391 C  
HETATM   11  O   UNL     1     -12.573  12.603  65.695  1.00  0.00    -0.611 OA 
BRANCH  10  12
HETATM   12  O   UNL     1     -11.034  13.518  67.140  1.00  0.00    -0.284 OA 
BRANCH  12  13
HETATM   13  C   UNL     1     -11.422  14.886  66.837  1.00  0.00    -0.313 C  
HETATM   14  C   UNL     1     -10.691  15.463  65.631  1.00  0.00    -0.381 C  
HETATM   15  C   UNL     1      -9.694  16.364  66.299  1.00  0.00    -0.308 C  
HETATM   16  C   UNL     1     -10.044  16.599  67.724  1.00  0.00    -0.275 C  
HETATM   17  O   UNL     1      -8.752  16.893  65.728  1.00  0.00    -0.512 OA 
HETATM   18  C   UNL     1     -11.886  15.694  69.243  1.00  0.00    -0.378 C  
HETATM   19  C   UNL     1     -11.104  15.809  67.983  1.00  0.00    -0.337 C  
BRANCH  16  20
HETATM   20  C   UNL     1      -9.168  17.429  68.593  1.00  0.00    -0.265 C  
BRANCH  20  21
HETATM   21  C   UNL     1      -9.548  18.873  68.576  1.00  0.00    -0.432 C  
HETATM   22  C   UNL     1     -10.490  19.385  67.771  1.00  0.00    -0.556 C  
ENDBRANCH  20  21
ENDBRANCH  16  20
ENDBRANCH  12  13
ENDBRANCH  10  12
ENDBRANCH   6  10
ENDBRANCH   3   5
TORSDOF 6
ENDMDL
MODEL       22
REMARK 921   NORMALIZED FREE ENERGY PREDICTED BY IDOCK:   -5.40 KCAL/MOL
REMARK 922        TOTAL FREE ENERGY PREDICTED BY IDOCK:   -8.82 KCAL/MOL
REMARK 923 INTER-LIGAND FREE ENERGY PREDICTED BY IDOCK:   -7.30 KCAL/MOL
REMARK 924 INTRA-LIGAND FREE ENERGY PREDICTED BY IDOCK:   -1.52 KCAL/MOL
REMARK 927      BINDING AFFINITY PREDICTED BY RF-SCORE:    0.00 PKD
ROOT
HETATM    1  C   UNL     1     -10.129  11.946  64.425  1.00  0.00    -0.310 C  
HETATM    2  C   UNL     1     -11.566  12.349  64.606  1.00  0.00    -0.400 C  
HETATM    3  C   UNL     1     -12.103  12.581  65.820  1.00  0.00    -0.443 C  
HETATM    4  C   UNL     1     -12.401  12.523  63.371  1.00  0.00    -0.577 C  
ENDROOT
BRANCH   3   5
HETATM    5  C   UNL     1     -11.414  12.529  67.111  1.00  0.00    -0.414 C  
HETATM    6  C   UNL     1     -11.911  13.351  68.288  1.00  0.00    -0.352 C  
HETATM    7  C   UNL     1     -10.588  13.699  67.614  1.00  0.00    -0.245 C  
HETATM    8  C   UNL     1     -10.547  15.006  66.863  1.00  0.00    -0.297 C  
HETATM    9  C   UNL     1      -9.270  13.355  68.273  1.00  0.00    -0.198 C  
BRANCH   6  10
HETATM   10  C   UNL     1     -11.971  12.686  69.608  1.00  0.00    -0.286 C  
HETATM   11  O   UNL     1     -12.041  13.344  70.631  1.00  0.00    -0.346 OA 
BRANCH  10  12
HETATM   12  O   UNL     1     -11.928  11.325  69.534  1.00  0.00    -0.312 OA 
BRANCH  12  13
HETATM   13  C   UNL     1     -11.168  10.592  70.532  1.00  0.00    -0.265 C  
HETATM   14  C   UNL     1      -9.917   9.931  69.966  1.00  0.00    -0.302 C  
HETATM   15  C   UNL     1     -10.354   8.498  69.890  1.00  0.00    -0.210 C  
HETATM   16  C   UNL     1     -11.588   8.263  70.684  1.00  0.00    -0.199 C  
HETATM   17  O   UNL     1      -9.737   7.619  69.306  1.00  0.00    -0.162 OA 
HETATM   18  C   UNL     1     -13.132   9.806  72.010  1.00  0.00    -0.546 C  
HETATM   19  C   UNL     1     -11.983   9.473  71.126  1.00  0.00    -0.429 C  
BRANCH  16  20
HETATM   20  C   UNL     1     -12.226   6.921  70.715  1.00  0.00    -0.364 C  
BRANCH  20  21
HETATM   21  C   UNL     1     -12.016   6.218  72.016  1.00  0.00    -0.353 C  
HETATM   22  C   UNL     1     -10.807   5.969  72.541  1.00  0.00    -0.286 C  
ENDBRANCH  20  21
ENDBRANCH  16  20
ENDBRANCH  12  13
ENDBRANCH  10  12
ENDBRANCH   6  10
ENDBRANCH   3   5
TORSDOF 6
ENDMDL
MODEL       23
REMARK 921   NORMALIZED FREE ENERGY PREDICTED BY IDOCK:   -5.40 KCAL/MOL
REMARK 922        TOTAL FREE ENERGY PREDICTED BY IDOCK:   -8.81 KCAL/MOL
REMARK 923 INTER-LIGAND FREE ENERGY PREDICTED BY IDOCK:   -7.69 KCAL/MOL
REMARK 924 INTRA-LIGAND FREE ENERGY PREDICTED BY IDOCK:   -1.13 KCAL/MOL
REMARK 927      BINDING AFFINITY PREDICTED BY RF-SCORE:    0.00 PKD
ROOT
HETATM    1  C   UNL     1     -11.717  16.081  71.596  1.00  0.00    -0.583 C  
HETATM    2  C   UNL     1     -12.459  14.774  71.618  1.00  0.00    -0.398 C  
HETATM    3  C   UNL     1     -12.360  13.872  70.623  1.00  0.00    -0.451 C  
HETATM    4  C   UNL     1     -13.309  14.477  72.820  1.00  0.00    -0.600 C  
ENDROOT
BRANCH   3   5
HETATM    5  C   UNL     1     -11.524  13.972  69.425  1.00  0.00    -0.343 C  
HETATM    6  C   UNL     1     -12.125  13.778  68.043  1.00  0.00    -0.315 C  
HETATM    7  C   UNL     1     -11.157  12.745  68.610  1.00  0.00    -0.304 C  
HETATM    8  C   UNL     1     -11.742  11.393  68.931  1.00  0.00    -0.409 C  
HETATM    9  C   UNL     1      -9.729  12.669  68.118  1.00  0.00    -0.219 C  
BRANCH   6  10
HETATM   10  C   UNL     1     -11.725  14.733  66.985  1.00  0.00    -0.315 C  
HETATM   11  O   UNL     1     -11.998  14.514  65.817  1.00  0.00    -0.360 OA 
BRANCH  10  12
HETATM   12  O   UNL     1     -11.042  15.814  67.458  1.00  0.00    -0.317 OA 
BRANCH  12  13
HETATM   13  C   UNL     1     -10.176  16.548  66.550  1.00  0.00    -0.300 C  
HETATM   14  C   UNL     1      -8.928  15.770  66.153  1.00  0.00    -0.372 C  
HETATM   15  C   UNL     1      -7.884  16.448  66.989  1.00  0.00    -0.212 C  
HETATM   16  C   UNL     1      -8.377  17.739  67.533  1.00  0.00    -0.227 C  
HETATM   17  O   UNL     1      -6.747  16.027  67.148  1.00  0.00    -0.189 OA 
HETATM   18  C   UNL     1     -10.633  18.931  67.427  1.00  0.00    -0.534 C  
HETATM   19  C   UNL     1      -9.676  17.820  67.183  1.00  0.00    -0.288 C  
BRANCH  16  20
HETATM   20  C   UNL     1      -7.522  18.561  68.430  1.00  0.00    -0.315 C  
BRANCH  20  21
HETATM   21  C   UNL     1      -6.867  19.696  67.713  1.00  0.00    -0.277 C  
HETATM   22  C   UNL     1      -6.268  20.723  68.335  1.00  0.00    -0.357 C  
ENDBRANCH  20  21
ENDBRANCH  16  20
ENDBRANCH  12  13
ENDBRANCH  10  12
ENDBRANCH   6  10
ENDBRANCH   3   5
TORSDOF 6
ENDMDL
MODEL       24
REMARK 921   NORMALIZED FREE ENERGY PREDICTED BY IDOCK:   -5.34 KCAL/MOL
REMARK 922        TOTAL FREE ENERGY PREDICTED BY IDOCK:   -8.74 KCAL/MOL
REMARK 923 INTER-LIGAND FREE ENERGY PREDICTED BY IDOCK:   -7.41 KCAL/MOL
REMARK 924 INTRA-LIGAND FREE ENERGY PREDICTED BY IDOCK:   -1.33 KCAL/MOL
REMARK 927      BINDING AFFINITY PREDICTED BY RF-SCORE:    0.00 PKD
ROOT
HETATM    1  C   UNL     1     -10.242  11.628  64.330  1.00  0.00    -0.346 C  
HETATM    2  C   UNL     1     -11.662  12.109  64.436  1.00  0.00    -0.430 C  
HETATM    3  C   UNL     1     -12.151  12.674  65.557  1.00  0.00    -0.515 C  
HETATM    4  C   UNL     1     -12.535  11.972  63.222  1.00  0.00    -0.544 C  
ENDROOT
BRANCH   3   5
HETATM    5  C   UNL     1     -11.419  12.948  66.795  1.00  0.00    -0.391 C  
HETATM    6  C   UNL     1     -11.997  13.879  67.847  1.00  0.00    -0.393 C  
HETATM    7  C   UNL     1     -10.767  14.296  67.047  1.00  0.00    -0.290 C  
HETATM    8  C   UNL     1     -10.955  15.445  66.089  1.00  0.00    -0.279 C  
HETATM    9  C   UNL     1      -9.390  14.269  67.673  1.00  0.00    -0.201 C  
BRANCH   6  10
HETATM   10  C   UNL     1     -11.908  13.451  69.261  1.00  0.00    -0.334 C  
HETATM   11  O   UNL     1     -12.394  14.132  70.147  1.00  0.00    -0.325 OA 
BRANCH  10  12
HETATM   12  O   UNL     1     -11.243  12.273  69.431  1.00  0.00    -0.239 OA 
BRANCH  12  13
HETATM   13  C   UNL     1     -11.991  11.029  69.367  1.00  0.00    -0.337 C  
HETATM   14  C   UNL     1     -12.661  10.665  70.687  1.00  0.00    -0.445 C  
HETATM   15  C   UNL     1     -11.755   9.577  71.182  1.00  0.00    -0.363 C  
HETATM   16  C   UNL     1     -10.866   9.076  70.102  1.00  0.00    -0.261 C  
HETATM   17  O   UNL     1     -11.789   9.113  72.313  1.00  0.00    -0.312 OA 
HETATM   18  C   UNL     1     -10.506   9.774  67.672  1.00  0.00    -0.305 C  
HETATM   19  C   UNL     1     -11.093   9.868  69.035  1.00  0.00    -0.184 C  
BRANCH  16  20
HETATM   20  C   UNL     1      -9.852   8.025  70.380  1.00  0.00    -0.183 C  
BRANCH  20  21
HETATM   21  C   UNL     1     -10.427   6.647  70.326  1.00  0.00    -0.247 C  
HETATM   22  C   UNL     1     -11.246   6.220  69.354  1.00  0.00    -0.489 C  
ENDBRANCH  20  21
ENDBRANCH  16  20
ENDBRANCH  12  13
ENDBRANCH  10  12
ENDBRANCH   6  10
ENDBRANCH   3   5
TORSDOF 6
ENDMDL
MODEL       25
REMARK 921   NORMALIZED FREE ENERGY PREDICTED BY IDOCK:   -5.30 KCAL/MOL
REMARK 922        TOTAL FREE ENERGY PREDICTED BY IDOCK:   -8.68 KCAL/MOL
REMARK 923 INTER-LIGAND FREE ENERGY PREDICTED BY IDOCK:   -8.34 KCAL/MOL
REMARK 924 INTRA-LIGAND FREE ENERGY PREDICTED BY IDOCK:   -0.34 KCAL/MOL
REMARK 927      BINDING AFFINITY PREDICTED BY RF-SCORE:    0.00 PKD
ROOT
HETATM    1  C   UNL     1      -6.458  18.675  68.438  1.00  0.00    -0.236 C  
HETATM    2  C   UNL     1      -6.888  19.595  67.331  1.00  0.00    -0.234 C  
HETATM    3  C   UNL     1      -7.983  19.362  66.582  1.00  0.00    -0.300 C  
HETATM    4  C   UNL     1      -6.065  20.829  67.093  1.00  0.00    -0.302 C  
ENDROOT
BRANCH   3   5
HETATM    5  C   UNL     1      -8.929  18.254  66.729  1.00  0.00    -0.289 C  
HETATM    6  C   UNL     1     -10.343  18.365  66.184  1.00  0.00    -0.431 C  
HETATM    7  C   UNL     1     -10.101  18.337  67.690  1.00  0.00    -0.368 C  
HETATM    8  C   UNL     1     -10.410  19.610  68.436  1.00  0.00    -0.502 C  
HETATM    9  C   UNL     1     -10.396  17.093  68.498  1.00  0.00    -0.364 C  
BRANCH   6  10
HETATM   10  C   UNL     1     -10.886  17.199  65.453  1.00  0.00    -0.046 C  
HETATM   11  O   UNL     1     -11.385  17.337  64.349  1.00  0.00    -1.052 OA 
BRANCH  10  12
HETATM   12  O   UNL     1     -10.773  16.026  66.139  1.00  0.00    -0.305 OA 
BRANCH  12  13
HETATM   13  C   UNL     1     -10.392  14.825  65.415  1.00  0.00    -0.386 C  
HETATM   14  C   UNL     1     -11.501  14.291  64.516  1.00  0.00    -0.363 C  
HETATM   15  C   UNL     1     -11.986  13.119  65.317  1.00  0.00    -0.398 C  
HETATM   16  C   UNL     1     -11.023  12.757  66.388  1.00  0.00    -0.305 C  
HETATM   17  O   UNL     1     -13.011  12.497  65.077  1.00  0.00    -0.779 OA 
HETATM   18  C   UNL     1      -8.828  13.789  67.186  1.00  0.00    -0.240 C  
HETATM   19  C   UNL     1     -10.061  13.700  66.360  1.00  0.00    -0.295 C  
BRANCH  16  20
HETATM   20  C   UNL     1     -11.322  11.650  67.335  1.00  0.00    -0.367 C  
BRANCH  20  21
HETATM   21  C   UNL     1     -11.840  12.143  68.646  1.00  0.00    -0.358 C  
HETATM   22  C   UNL     1     -11.716  11.466  69.798  1.00  0.00    -0.418 C  
ENDBRANCH  20  21
ENDBRANCH  16  20
ENDBRANCH  12  13
ENDBRANCH  10  12
ENDBRANCH   6  10
ENDBRANCH   3   5
TORSDOF 6
ENDMDL
MODEL       26
REMARK 921   NORMALIZED FREE ENERGY PREDICTED BY IDOCK:   -5.29 KCAL/MOL
REMARK 922        TOTAL FREE ENERGY PREDICTED BY IDOCK:   -8.67 KCAL/MOL
REMARK 923 INTER-LIGAND FREE ENERGY PREDICTED BY IDOCK:   -7.23 KCAL/MOL
REMARK 924 INTRA-LIGAND FREE ENERGY PREDICTED BY IDOCK:   -1.44 KCAL/MOL
REMARK 927      BINDING AFFINITY PREDICTED BY RF-SCORE:    0.00 PKD
ROOT
HETATM    1  C   UNL     1     -11.942  14.599  70.798  1.00  0.00    -0.380 C  
HETATM    2  C   UNL     1     -13.055  13.824  71.445  1.00  0.00    -0.413 C  
HETATM    3  C   UNL     1     -13.077  12.478  71.472  1.00  0.00    -0.373 C  
HETATM    4  C   UNL     1     -14.154  14.606  72.106  1.00  0.00    -0.604 C  
ENDROOT
BRANCH   3   5
HETATM    5  C   UNL     1     -12.055  11.571  70.944  1.00  0.00    -0.352 C  
HETATM    6  C   UNL     1     -12.322  10.745  69.697  1.00  0.00    -0.262 C  
HETATM    7  C   UNL     1     -12.200  10.064  71.056  1.00  0.00    -0.462 C  
HETATM    8  C   UNL     1     -13.459   9.440  71.602  1.00  0.00    -0.467 C  
HETATM    9  C   UNL     1     -10.951   9.296  71.428  1.00  0.00    -0.429 C  
BRANCH   6  10
HETATM   10  C   UNL     1     -11.247  10.675  68.682  1.00  0.00    -0.278 C  
HETATM   11  O   UNL     1     -11.035   9.641  68.074  1.00  0.00    -0.227 OA 
BRANCH  10  12
HETATM   12  O   UNL     1     -10.560  11.843  68.536  1.00  0.00    -0.209 OA 
BRANCH  12  13
HETATM   13  C   UNL     1     -10.052  12.199  67.221  1.00  0.00    -0.202 C  
HETATM   14  C   UNL     1      -8.561  12.517  67.221  1.00  0.00    -0.191 C  
HETATM   15  C   UNL     1      -8.583  14.014  67.128  1.00  0.00    -0.205 C  
HETATM   16  C   UNL     1      -9.923  14.513  66.725  1.00  0.00    -0.267 C  
HETATM   17  O   UNL     1      -7.606  14.729  67.295  1.00  0.00    -0.196 OA 
HETATM   18  C   UNL     1     -12.161  13.360  66.295  1.00  0.00    -0.475 C  
HETATM   19  C   UNL     1     -10.729  13.434  66.690  1.00  0.00    -0.282 C  
BRANCH  16  20
HETATM   20  C   UNL     1     -10.187  15.972  66.613  1.00  0.00    -0.295 C  
BRANCH  20  21
HETATM   21  C   UNL     1     -10.723  16.555  67.879  1.00  0.00    -0.337 C  
HETATM   22  C   UNL     1      -9.978  17.249  68.753  1.00  0.00    -0.325 C  
ENDBRANCH  20  21
ENDBRANCH  16  20
ENDBRANCH  12  13
ENDBRANCH  10  12
ENDBRANCH   6  10
ENDBRANCH   3   5
TORSDOF 6
ENDMDL
MODEL       27
REMARK 921   NORMALIZED FREE ENERGY PREDICTED BY IDOCK:   -5.27 KCAL/MOL
REMARK 922        TOTAL FREE ENERGY PREDICTED BY IDOCK:   -8.64 KCAL/MOL
REMARK 923 INTER-LIGAND FREE ENERGY PREDICTED BY IDOCK:   -7.41 KCAL/MOL
REMARK 924 INTRA-LIGAND FREE ENERGY PREDICTED BY IDOCK:   -1.23 KCAL/MOL
REMARK 927      BINDING AFFINITY PREDICTED BY RF-SCORE:    0.00 PKD
ROOT
HETATM    1  C   UNL     1     -10.123  10.889  63.306  1.00  0.00    -0.368 C  
HETATM    2  C   UNL     1      -9.391  10.013  64.283  1.00  0.00    -0.345 C  
HETATM    3  C   UNL     1      -9.681   9.999  65.598  1.00  0.00    -0.336 C  
HETATM    4  C   UNL     1      -8.323   9.108  63.741  1.00  0.00    -0.183 C  
ENDROOT
BRANCH   3   5
HETATM    5  C   UNL     1     -10.735  10.759  66.274  1.00  0.00    -0.205 C  
HETATM    6  C   UNL     1     -10.561  12.241  66.557  1.00  0.00    -0.263 C  
HETATM    7  C   UNL     1     -10.572  11.237  67.705  1.00  0.00    -0.239 C  
HETATM    8  C   UNL     1      -9.270  11.058  68.444  1.00  0.00    -0.175 C  
HETATM    9  C   UNL     1     -11.783  11.098  68.601  1.00  0.00    -0.389 C  
BRANCH   6  10
HETATM   10  C   UNL     1     -11.711  13.129  66.278  1.00  0.00    -0.375 C  
HETATM   11  O   UNL     1     -12.631  12.750  65.573  1.00  0.00    -0.611 OA 
BRANCH  10  12
HETATM   12  O   UNL     1     -11.607  14.355  66.865  1.00  0.00    -0.357 OA 
BRANCH  12  13
HETATM   13  C   UNL     1     -10.475  14.620  67.738  1.00  0.00    -0.246 C  
HETATM   14  C   UNL     1     -10.849  14.634  69.216  1.00  0.00    -0.272 C  
HETATM   15  C   UNL     1     -10.847  16.106  69.502  1.00  0.00    -0.329 C  
HETATM   16  C   UNL     1     -10.168  16.869  68.423  1.00  0.00    -0.322 C  
HETATM   17  O   UNL     1     -11.285  16.610  70.527  1.00  0.00    -0.250 OA 
HETATM   18  C   UNL     1      -9.149  16.193  66.181  1.00  0.00    -0.382 C  
HETATM   19  C   UNL     1      -9.876  15.973  67.460  1.00  0.00    -0.235 C  
BRANCH  16  20
HETATM   20  C   UNL     1     -10.089  18.353  68.477  1.00  0.00    -0.413 C  
BRANCH  20  21
HETATM   21  C   UNL     1     -10.880  19.009  67.394  1.00  0.00    -0.496 C  
HETATM   22  C   UNL     1     -10.335  19.759  66.425  1.00  0.00    -0.619 C  
ENDBRANCH  20  21
ENDBRANCH  16  20
ENDBRANCH  12  13
ENDBRANCH  10  12
ENDBRANCH   6  10
ENDBRANCH   3   5
TORSDOF 6
ENDMDL
MODEL       28
REMARK 921   NORMALIZED FREE ENERGY PREDICTED BY IDOCK:   -5.25 KCAL/MOL
REMARK 922        TOTAL FREE ENERGY PREDICTED BY IDOCK:   -8.61 KCAL/MOL
REMARK 923 INTER-LIGAND FREE ENERGY PREDICTED BY IDOCK:   -7.22 KCAL/MOL
REMARK 924 INTRA-LIGAND FREE ENERGY PREDICTED BY IDOCK:   -1.40 KCAL/MOL
REMARK 927      BINDING AFFINITY PREDICTED BY RF-SCORE:    0.00 PKD
ROOT
HETATM    1  C   UNL     1     -12.298  13.278  70.497  1.00  0.00    -0.389 C  
HETATM    2  C   UNL     1     -12.264  11.793  70.271  1.00  0.00    -0.381 C  
HETATM    3  C   UNL     1     -11.717  11.242  69.170  1.00  0.00    -0.410 C  
HETATM    4  C   UNL     1     -12.841  10.913  71.342  1.00  0.00    -0.554 C  
ENDROOT
BRANCH   3   5
HETATM    5  C   UNL     1     -11.051  11.947  68.073  1.00  0.00    -0.293 C  
HETATM    6  C   UNL     1     -11.651  11.952  66.677  1.00  0.00    -0.337 C  
HETATM    7  C   UNL     1     -10.357  11.194  66.953  1.00  0.00    -0.272 C  
HETATM    8  C   UNL     1     -10.434   9.691  66.860  1.00  0.00    -0.282 C  
HETATM    9  C   UNL     1      -9.024  11.746  66.498  1.00  0.00    -0.196 C  
BRANCH   6  10
HETATM   10  C   UNL     1     -11.669  13.238  65.946  1.00  0.00    -0.365 C  
HETATM   11  O   UNL     1     -11.851  13.264  64.741  1.00  0.00    -0.342 OA 
BRANCH  10  12
HETATM   12  O   UNL     1     -11.455  14.321  66.746  1.00  0.00    -0.337 OA 
BRANCH  12  13
HETATM   13  C   UNL     1     -10.229  15.085  66.581  1.00  0.00    -0.268 C  
HETATM   14  C   UNL     1      -9.444  15.244  67.877  1.00  0.00    -0.197 C  
HETATM   15  C   UNL     1      -9.757  16.667  68.234  1.00  0.00    -0.244 C  
HETATM   16  C   UNL     1     -10.346  17.399  67.082  1.00  0.00    -0.325 C  
HETATM   17  O   UNL     1      -9.498  17.181  69.313  1.00  0.00    -0.133 OA 
HETATM   18  C   UNL     1     -11.024  16.691  64.725  1.00  0.00    -0.123 C  
HETATM   19  C   UNL     1     -10.518  16.485  66.107  1.00  0.00    -0.301 C  
BRANCH  16  20
HETATM   20  C   UNL     1     -10.776  18.815  67.224  1.00  0.00    -0.490 C  
BRANCH  20  21
HETATM   21  C   UNL     1      -9.958  19.747  66.390  1.00  0.00    -0.578 C  
HETATM   22  C   UNL     1      -8.617  19.775  66.404  1.00  0.00    -0.398 C  
ENDBRANCH  20  21
ENDBRANCH  16  20
ENDBRANCH  12  13
ENDBRANCH  10  12
ENDBRANCH   6  10
ENDBRANCH   3   5
TORSDOF 6
ENDMDL
MODEL       29
REMARK 921   NORMALIZED FREE ENERGY PREDICTED BY IDOCK:   -5.24 KCAL/MOL
REMARK 922        TOTAL FREE ENERGY PREDICTED BY IDOCK:   -8.60 KCAL/MOL
REMARK 923 INTER-LIGAND FREE ENERGY PREDICTED BY IDOCK:   -7.12 KCAL/MOL
REMARK 924 INTRA-LIGAND FREE ENERGY PREDICTED BY IDOCK:   -1.48 KCAL/MOL
REMARK 927      BINDING AFFINITY PREDICTED BY RF-SCORE:    0.00 PKD
ROOT
HETATM    1  C   UNL     1     -12.982  10.971  71.613  1.00  0.00    -0.561 C  
HETATM    2  C   UNL     1     -13.031   9.471  71.695  1.00  0.00    -0.483 C  
HETATM    3  C   UNL     1     -12.148   8.684  71.050  1.00  0.00    -0.247 C  
HETATM    4  C   UNL     1     -14.093   8.855  72.559  1.00  0.00    -0.441 C  
ENDROOT
BRANCH   3   5
HETATM    5  C   UNL     1     -11.014   9.120  70.233  1.00  0.00    -0.279 C  
HETATM    6  C   UNL     1     -10.423   8.204  69.175  1.00  0.00    -0.217 C  
HETATM    7  C   UNL     1      -9.625   8.541  70.430  1.00  0.00    -0.189 C  
HETATM    8  C   UNL     1      -9.384   7.403  71.391  1.00  0.00    -0.149 C  
HETATM    9  C   UNL     1      -8.475   9.522  70.377  1.00  0.00    -0.238 C  
BRANCH   6  10
HETATM   10  C   UNL     1     -10.105   8.797  67.857  1.00  0.00    -0.207 C  
HETATM   11  O   UNL     1      -9.187   8.360  67.186  1.00  0.00    -0.137 OA 
BRANCH  10  12
HETATM   12  O   UNL     1     -10.915   9.840  67.521  1.00  0.00    -0.275 OA 
BRANCH  12  13
HETATM   13  C   UNL     1     -10.312  11.128  67.218  1.00  0.00    -0.208 C  
HETATM   14  C   UNL     1     -10.528  12.163  68.316  1.00  0.00    -0.225 C  
HETATM   15  C   UNL     1     -11.596  13.019  67.703  1.00  0.00    -0.355 C  
HETATM   16  C   UNL     1     -11.731  12.760  66.246  1.00  0.00    -0.460 C  
HETATM   17  O   UNL     1     -12.230  13.871  68.310  1.00  0.00    -0.332 OA 
HETATM   18  C   UNL     1     -10.616  11.101  64.657  1.00  0.00    -0.386 C  
HETATM   19  C   UNL     1     -10.907  11.730  65.973  1.00  0.00    -0.343 C  
BRANCH  16  20
HETATM   20  C   UNL     1     -12.763  13.467  65.442  1.00  0.00    -0.484 C  
BRANCH  20  21
HETATM   21  C   UNL     1     -12.174  14.489  64.527  1.00  0.00    -0.483 C  
HETATM   22  C   UNL     1     -11.199  15.338  64.887  1.00  0.00    -0.422 C  
ENDBRANCH  20  21
ENDBRANCH  16  20
ENDBRANCH  12  13
ENDBRANCH  10  12
ENDBRANCH   6  10
ENDBRANCH   3   5
TORSDOF 6
ENDMDL
MODEL       30
REMARK 921   NORMALIZED FREE ENERGY PREDICTED BY IDOCK:   -5.22 KCAL/MOL
REMARK 922        TOTAL FREE ENERGY PREDICTED BY IDOCK:   -8.57 KCAL/MOL
REMARK 923 INTER-LIGAND FREE ENERGY PREDICTED BY IDOCK:   -7.63 KCAL/MOL
REMARK 924 INTRA-LIGAND FREE ENERGY PREDICTED BY IDOCK:   -0.94 KCAL/MOL
REMARK 927      BINDING AFFINITY PREDICTED BY RF-SCORE:    0.00 PKD
ROOT
HETATM    1  C   UNL     1     -10.957   6.217  67.318  1.00  0.00    -0.455 C  
HETATM    2  C   UNL     1      -9.571   6.775  67.473  1.00  0.00    -0.146 C  
HETATM    3  C   UNL     1      -9.337   7.989  68.009  1.00  0.00    -0.146 C  
HETATM    4  C   UNL     1      -8.421   5.915  67.035  1.00  0.00    -0.107 C  
ENDROOT
BRANCH   3   5
HETATM    5  C   UNL     1     -10.332   8.917  68.551  1.00  0.00    -0.229 C  
HETATM    6  C   UNL     1     -10.001  10.389  68.731  1.00  0.00    -0.196 C  
HETATM    7  C   UNL     1     -10.199   9.492  69.949  1.00  0.00    -0.261 C  
HETATM    8  C   UNL     1      -8.974   9.230  70.788  1.00  0.00    -0.292 C  
HETATM    9  C   UNL     1     -11.470   9.567  70.767  1.00  0.00    -0.378 C  
BRANCH   6  10
HETATM   10  C   UNL     1     -11.020  11.375  68.306  1.00  0.00    -0.216 C  
HETATM   11  O   UNL     1     -11.894  11.062  67.516  1.00  0.00    -0.571 OA 
BRANCH  10  12
HETATM   12  O   UNL     1     -10.853  12.605  68.869  1.00  0.00    -0.237 OA 
BRANCH  12  13
HETATM   13  C   UNL     1     -11.991  13.507  68.933  1.00  0.00    -0.341 C  
HETATM   14  C   UNL     1     -11.784  14.791  68.139  1.00  0.00    -0.353 C  
HETATM   15  C   UNL     1     -11.509  15.772  69.240  1.00  0.00    -0.365 C  
HETATM   16  C   UNL     1     -11.894  15.223  70.566  1.00  0.00    -0.363 C  
HETATM   17  O   UNL     1     -11.087  16.906  69.063  1.00  0.00    -0.242 OA 
HETATM   18  C   UNL     1     -12.786  12.954  71.324  1.00  0.00    -0.371 C  
HETATM   19  C   UNL     1     -12.262  13.945  70.348  1.00  0.00    -0.438 C  
BRANCH  16  20
HETATM   20  C   UNL     1     -11.667  16.010  71.807  1.00  0.00    -0.593 C  
BRANCH  20  21
HETATM   21  C   UNL     1     -12.803  15.897  72.771  1.00  0.00    -0.572 C  
HETATM   22  C   UNL     1     -12.643  15.721  74.091  1.00  0.00    -0.761 C  
ENDBRANCH  20  21
ENDBRANCH  16  20
ENDBRANCH  12  13
ENDBRANCH  10  12
ENDBRANCH   6  10
ENDBRANCH   3   5
TORSDOF 6
ENDMDL
MODEL       31
REMARK 921   NORMALIZED FREE ENERGY PREDICTED BY IDOCK:   -5.21 KCAL/MOL
REMARK 922        TOTAL FREE ENERGY PREDICTED BY IDOCK:   -8.56 KCAL/MOL
REMARK 923 INTER-LIGAND FREE ENERGY PREDICTED BY IDOCK:   -7.61 KCAL/MOL
REMARK 924 INTRA-LIGAND FREE ENERGY PREDICTED BY IDOCK:   -0.95 KCAL/MOL
REMARK 927      BINDING AFFINITY PREDICTED BY RF-SCORE:    0.00 PKD
ROOT
HETATM    1  C   UNL     1     -10.985  11.843  63.559  1.00  0.00    -0.505 C  
HETATM    2  C   UNL     1      -9.851  10.858  63.617  1.00  0.00    -0.403 C  
HETATM    3  C   UNL     1      -9.494  10.235  64.757  1.00  0.00    -0.341 C  
HETATM    4  C   UNL     1      -9.129  10.552  62.337  1.00  0.00    -0.313 C  
ENDROOT
BRANCH   3   5
HETATM    5  C   UNL     1     -10.136  10.362  66.067  1.00  0.00    -0.307 C  
HETATM    6  C   UNL     1      -9.882  11.579  66.940  1.00  0.00    -0.220 C  
HETATM    7  C   UNL     1      -9.346  10.213  67.354  1.00  0.00    -0.167 C  
HETATM    8  C   UNL     1      -7.847  10.052  67.335  1.00  0.00    -0.099 C  
HETATM    9  C   UNL     1     -10.010   9.424  68.462  1.00  0.00    -0.190 C  
BRANCH   6  10
HETATM   10  C   UNL     1     -11.050  12.200  67.603  1.00  0.00    -0.268 C  
HETATM   11  O   UNL     1     -12.123  11.623  67.639  1.00  0.00    -0.615 OA 
BRANCH  10  12
HETATM   12  O   UNL     1     -10.787  13.432  68.125  1.00  0.00    -0.240 OA 
BRANCH  12  13
HETATM   13  C   UNL     1     -11.641  14.548  67.755  1.00  0.00    -0.365 C  
HETATM   14  C   UNL     1     -11.644  14.828  66.256  1.00  0.00    -0.298 C  
HETATM   15  C   UNL     1     -10.774  16.047  66.186  1.00  0.00    -0.244 C  
HETATM   16  C   UNL     1     -10.588  16.660  67.527  1.00  0.00    -0.311 C  
HETATM   17  O   UNL     1     -10.329  16.519  65.150  1.00  0.00    -0.618 OA 
HETATM   18  C   UNL     1     -11.336  15.987  69.874  1.00  0.00    -0.340 C  
HETATM   19  C   UNL     1     -11.182  15.826  68.404  1.00  0.00    -0.362 C  
BRANCH  16  20
HETATM   20  C   UNL     1      -9.722  17.856  67.701  1.00  0.00    -0.280 C  
BRANCH  20  21
HETATM   21  C   UNL     1     -10.480  19.136  67.566  1.00  0.00    -0.549 C  
HETATM   22  C   UNL     1     -10.604  19.808  66.411  1.00  0.00    -0.575 C  
ENDBRANCH  20  21
ENDBRANCH  16  20
ENDBRANCH  12  13
ENDBRANCH  10  12
ENDBRANCH   6  10
ENDBRANCH   3   5
TORSDOF 6
ENDMDL
MODEL       32
REMARK 921   NORMALIZED FREE ENERGY PREDICTED BY IDOCK:   -5.19 KCAL/MOL
REMARK 922        TOTAL FREE ENERGY PREDICTED BY IDOCK:   -8.53 KCAL/MOL
REMARK 923 INTER-LIGAND FREE ENERGY PREDICTED BY IDOCK:   -7.94 KCAL/MOL
REMARK 924 INTRA-LIGAND FREE ENERGY PREDICTED BY IDOCK:   -0.59 KCAL/MOL
REMARK 927      BINDING AFFINITY PREDICTED BY RF-SCORE:    0.00 PKD
ROOT
HETATM    1  C   UNL     1      -9.700   9.968  65.133  1.00  0.00    -0.380 C  
HETATM    2  C   UNL     1      -9.677  10.407  63.696  1.00  0.00    -0.338 C  
HETATM    3  C   UNL     1     -10.080  11.633  63.310  1.00  0.00    -0.454 C  
HETATM    4  C   UNL     1      -9.153   9.435  62.679  1.00  0.00    -0.147 C  
ENDROOT
BRANCH   3   5
HETATM    5  C   UNL     1     -10.545  12.719  64.175  1.00  0.00    -0.441 C  
HETATM    6  C   UNL     1     -11.248  12.417  65.487  1.00  0.00    -0.364 C  
HETATM    7  C   UNL     1     -12.022  13.034  64.326  1.00  0.00    -0.466 C  
HETATM    8  C   UNL     1     -13.074  12.161  63.691  1.00  0.00    -0.174 C  
HETATM    9  C   UNL     1     -12.398  14.499  64.338  1.00  0.00    -0.437 C  
BRANCH   6  10
HETATM   10  C   UNL     1     -10.848  13.206  66.674  1.00  0.00    -0.280 C  
HETATM   11  O   UNL     1      -9.827  13.871  66.661  1.00  0.00    -0.267 OA 
BRANCH  10  12
HETATM   12  O   UNL     1     -11.713  13.089  67.721  1.00  0.00    -0.324 OA 
BRANCH  12  13
HETATM   13  C   UNL     1     -11.198  13.220  69.074  1.00  0.00    -0.270 C  
HETATM   14  C   UNL     1     -11.464  11.992  69.937  1.00  0.00    -0.239 C  
HETATM   15  C   UNL     1     -12.594  12.479  70.795  1.00  0.00    -0.212 C  
HETATM   16  C   UNL     1     -12.732  13.957  70.725  1.00  0.00    -0.383 C  
HETATM   17  O   UNL     1     -13.272  11.760  71.515  1.00  0.00    -0.361 OA 
HETATM   18  C   UNL     1     -11.536  15.760  69.370  1.00  0.00    -0.371 C  
HETATM   19  C   UNL     1     -11.848  14.370  69.796  1.00  0.00    -0.375 C  
BRANCH  16  20
HETATM   20  C   UNL     1     -13.819  14.653  71.463  1.00  0.00    -0.508 C  
BRANCH  20  21
HETATM   21  C   UNL     1     -13.469  14.903  72.894  1.00  0.00    -0.550 C  
HETATM   22  C   UNL     1     -12.330  15.492  73.289  1.00  0.00    -0.599 C  
ENDBRANCH  20  21
ENDBRANCH  16  20
ENDBRANCH  12  13
ENDBRANCH  10  12
ENDBRANCH   6  10
ENDBRANCH   3   5
TORSDOF 6
ENDMDL
MODEL       33
REMARK 921   NORMALIZED FREE ENERGY PREDICTED BY IDOCK:   -5.18 KCAL/MOL
REMARK 922        TOTAL FREE ENERGY PREDICTED BY IDOCK:   -8.52 KCAL/MOL
REMARK 923 INTER-LIGAND FREE ENERGY PREDICTED BY IDOCK:   -7.11 KCAL/MOL
REMARK 924 INTRA-LIGAND FREE ENERGY PREDICTED BY IDOCK:   -1.40 KCAL/MOL
REMARK 927      BINDING AFFINITY PREDICTED BY RF-SCORE:    0.00 PKD
ROOT
HETATM    1  C   UNL     1     -10.574   7.542  66.921  1.00  0.00    -0.367 C  
HETATM    2  C   UNL     1      -9.598   8.360  66.122  1.00  0.00    -0.246 C  
HETATM    3  C   UNL     1      -9.723   9.693  65.976  1.00  0.00    -0.331 C  
HETATM    4  C   UNL     1      -8.435   7.643  65.500  1.00  0.00    -0.132 C  
ENDROOT
BRANCH   3   5
HETATM    5  C   UNL     1     -10.749  10.551  66.573  1.00  0.00    -0.191 C  
HETATM    6  C   UNL     1     -10.505  12.039  66.757  1.00  0.00    -0.243 C  
HETATM    7  C   UNL     1     -10.591  11.120  67.971  1.00  0.00    -0.233 C  
HETATM    8  C   UNL     1      -9.314  10.929  68.751  1.00  0.00    -0.190 C  
HETATM    9  C   UNL     1     -11.825  11.106  68.846  1.00  0.00    -0.406 C  
BRANCH   6  10
HETATM   10  C   UNL     1     -11.602  12.962  66.389  1.00  0.00    -0.371 C  
HETATM   11  O   UNL     1     -12.535  12.575  65.708  1.00  0.00    -0.626 OA 
BRANCH  10  12
HETATM   12  O   UNL     1     -11.434  14.225  66.874  1.00  0.00    -0.331 OA 
BRANCH  12  13
HETATM   13  C   UNL     1     -10.339  14.484  67.793  1.00  0.00    -0.237 C  
HETATM   14  C   UNL     1     -10.792  14.621  69.242  1.00  0.00    -0.272 C  
HETATM   15  C   UNL     1     -10.715  16.107  69.431  1.00  0.00    -0.307 C  
HETATM   16  C   UNL     1      -9.933  16.754  68.346  1.00  0.00    -0.268 C  
HETATM   17  O   UNL     1     -11.178  16.704  70.392  1.00  0.00    -0.260 OA 
HETATM   18  C   UNL     1      -8.835  15.867  66.218  1.00  0.00    -0.386 C  
HETATM   19  C   UNL     1      -9.643  15.778  67.462  1.00  0.00    -0.224 C  
BRANCH  16  20
HETATM   20  C   UNL     1      -9.766  18.231  68.308  1.00  0.00    -0.350 C  
BRANCH  20  21
HETATM   21  C   UNL     1     -10.686  18.886  67.330  1.00  0.00    -0.523 C  
HETATM   22  C   UNL     1     -10.290  19.808  66.439  1.00  0.00    -0.619 C  
ENDBRANCH  20  21
ENDBRANCH  16  20
ENDBRANCH  12  13
ENDBRANCH  10  12
ENDBRANCH   6  10
ENDBRANCH   3   5
TORSDOF 6
ENDMDL
MODEL       34
REMARK 921   NORMALIZED FREE ENERGY PREDICTED BY IDOCK:   -5.17 KCAL/MOL
REMARK 922        TOTAL FREE ENERGY PREDICTED BY IDOCK:   -8.50 KCAL/MOL
REMARK 923 INTER-LIGAND FREE ENERGY PREDICTED BY IDOCK:   -6.93 KCAL/MOL
REMARK 924 INTRA-LIGAND FREE ENERGY PREDICTED BY IDOCK:   -1.57 KCAL/MOL
REMARK 927      BINDING AFFINITY PREDICTED BY RF-SCORE:    0.00 PKD
ROOT
HETATM    1  C   UNL     1     -12.144  12.080  70.034  1.00  0.00    -0.355 C  
HETATM    2  C   UNL     1     -11.836  13.439  69.473  1.00  0.00    -0.391 C  
HETATM    3  C   UNL     1     -11.690  13.659  68.151  1.00  0.00    -0.392 C  
HETATM    4  C   UNL     1     -11.725  14.582  70.440  1.00  0.00    -0.354 C  
ENDROOT
BRANCH   3   5
HETATM    5  C   UNL     1     -11.839  12.677  67.075  1.00  0.00    -0.415 C  
HETATM    6  C   UNL     1     -10.627  12.181  66.305  1.00  0.00    -0.285 C  
HETATM    7  C   UNL     1     -11.663  13.066  65.619  1.00  0.00    -0.418 C  
HETATM    8  C   UNL     1     -11.204  14.449  65.231  1.00  0.00    -0.345 C  
HETATM    9  C   UNL     1     -12.657  12.478  64.642  1.00  0.00    -0.507 C  
BRANCH   6  10
HETATM   10  C   UNL     1     -10.533  10.729  66.040  1.00  0.00    -0.208 C  
HETATM   11  O   UNL     1     -10.187  10.319  64.946  1.00  0.00    -0.327 OA 
BRANCH  10  12
HETATM   12  O   UNL     1     -10.875   9.958  67.111  1.00  0.00    -0.241 OA 
BRANCH  12  13
HETATM   13  C   UNL     1      -9.917   8.985  67.610  1.00  0.00    -0.201 C  
HETATM   14  C   UNL     1     -10.413   7.548  67.507  1.00  0.00    -0.341 C  
HETATM   15  C   UNL     1     -10.776   7.262  68.934  1.00  0.00    -0.150 C  
HETATM   16  C   UNL     1     -10.199   8.275  69.855  1.00  0.00    -0.201 C  
HETATM   17  O   UNL     1     -11.408   6.282  69.301  1.00  0.00    -0.410 OA 
HETATM   18  C   UNL     1      -8.857  10.415  69.478  1.00  0.00    -0.111 C  
HETATM   19  C   UNL     1      -9.624   9.208  69.070  1.00  0.00    -0.156 C  
BRANCH  16  20
HETATM   20  C   UNL     1     -10.469   8.213  71.316  1.00  0.00    -0.254 C  
BRANCH  20  21
HETATM   21  C   UNL     1     -11.608   9.089  71.725  1.00  0.00    -0.444 C  
HETATM   22  C   UNL     1     -12.833   8.627  72.020  1.00  0.00    -0.425 C  
ENDBRANCH  20  21
ENDBRANCH  16  20
ENDBRANCH  12  13
ENDBRANCH  10  12
ENDBRANCH   6  10
ENDBRANCH   3   5
TORSDOF 6
ENDMDL
MODEL       35
REMARK 921   NORMALIZED FREE ENERGY PREDICTED BY IDOCK:   -5.16 KCAL/MOL
REMARK 922        TOTAL FREE ENERGY PREDICTED BY IDOCK:   -8.49 KCAL/MOL
REMARK 923 INTER-LIGAND FREE ENERGY PREDICTED BY IDOCK:   -7.63 KCAL/MOL
REMARK 924 INTRA-LIGAND FREE ENERGY PREDICTED BY IDOCK:   -0.87 KCAL/MOL
REMARK 927      BINDING AFFINITY PREDICTED BY RF-SCORE:    0.00 PKD
ROOT
HETATM    1  C   UNL     1      -6.163  19.645  67.350  1.00  0.00    -0.203 C  
HETATM    2  C   UNL     1      -6.505  18.745  66.196  1.00  0.00    -0.241 C  
HETATM    3  C   UNL     1      -7.620  17.990  66.174  1.00  0.00    -0.285 C  
HETATM    4  C   UNL     1      -5.566  18.730  65.024  1.00  0.00    -0.266 C  
ENDROOT
BRANCH   3   5
HETATM    5  C   UNL     1      -8.670  17.944  67.194  1.00  0.00    -0.248 C  
HETATM    6  C   UNL     1     -10.055  17.417  66.858  1.00  0.00    -0.314 C  
HETATM    7  C   UNL     1      -9.850  18.898  67.160  1.00  0.00    -0.368 C  
HETATM    8  C   UNL     1     -10.053  19.846  66.006  1.00  0.00    -0.589 C  
HETATM    9  C   UNL     1     -10.279  19.483  68.488  1.00  0.00    -0.517 C  
BRANCH   6  10
HETATM   10  C   UNL     1     -10.690  16.496  67.827  1.00  0.00    -0.329 C  
HETATM   11  O   UNL     1     -10.677  16.746  69.019  1.00  0.00    -0.322 OA 
BRANCH  10  12
HETATM   12  O   UNL     1     -11.245  15.394  67.247  1.00  0.00    -0.327 OA 
BRANCH  12  13
HETATM   13  C   UNL     1     -10.696  14.912  65.990  1.00  0.00    -0.323 C  
HETATM   14  C   UNL     1     -11.744  14.778  64.892  1.00  0.00    -0.390 C  
HETATM   15  C   UNL     1     -11.945  13.291  64.862  1.00  0.00    -0.378 C  
HETATM   16  C   UNL     1     -10.859  12.582  65.587  1.00  0.00    -0.311 C  
HETATM   17  O   UNL     1     -12.849  12.730  64.260  1.00  0.00    -0.689 OA 
HETATM   18  C   UNL     1      -8.847  13.384  66.939  1.00  0.00    -0.185 C  
HETATM   19  C   UNL     1     -10.096  13.540  66.147  1.00  0.00    -0.307 C  
BRANCH  16  20
HETATM   20  C   UNL     1     -10.880  11.101  65.723  1.00  0.00    -0.218 C  
BRANCH  20  21
HETATM   21  C   UNL     1     -10.017  10.421  64.710  1.00  0.00    -0.409 C  
HETATM   22  C   UNL     1      -9.799  10.901  63.477  1.00  0.00    -0.407 C  
ENDBRANCH  20  21
ENDBRANCH  16  20
ENDBRANCH  12  13
ENDBRANCH  10  12
ENDBRANCH   6  10
ENDBRANCH   3   5
TORSDOF 6
ENDMDL
MODEL       36
REMARK 921   NORMALIZED FREE ENERGY PREDICTED BY IDOCK:   -5.16 KCAL/MOL
REMARK 922        TOTAL FREE ENERGY PREDICTED BY IDOCK:   -8.49 KCAL/MOL
REMARK 923 INTER-LIGAND FREE ENERGY PREDICTED BY IDOCK:   -7.39 KCAL/MOL
REMARK 924 INTRA-LIGAND FREE ENERGY PREDICTED BY IDOCK:   -1.10 KCAL/MOL
REMARK 927      BINDING AFFINITY PREDICTED BY RF-SCORE:    0.00 PKD
ROOT
HETATM    1  C   UNL     1     -10.379   6.351  68.945  1.00  0.00    -0.237 C  
HETATM    2  C   UNL     1     -10.555   6.565  67.468  1.00  0.00    -0.345 C  
HETATM    3  C   UNL     1     -10.618   7.793  66.919  1.00  0.00    -0.347 C  
HETATM    4  C   UNL     1     -10.630   5.347  66.592  1.00  0.00    -0.359 C  
ENDROOT
BRANCH   3   5
HETATM    5  C   UNL     1     -10.488   9.075  67.615  1.00  0.00    -0.324 C  
HETATM    6  C   UNL     1     -10.434  10.378  66.836  1.00  0.00    -0.300 C  
HETATM    7  C   UNL     1      -9.197   9.873  67.572  1.00  0.00    -0.148 C  
HETATM    8  C   UNL     1      -8.041   9.438  66.708  1.00  0.00    -0.109 C  
HETATM    9  C   UNL     1      -8.756  10.508  68.873  1.00  0.00    -0.154 C  
BRANCH   6  10
HETATM   10  C   UNL     1     -11.242  11.510  67.341  1.00  0.00    -0.304 C  
HETATM   11  O   UNL     1     -12.256  11.309  67.987  1.00  0.00    -0.621 OA 
BRANCH  10  12
HETATM   12  O   UNL     1     -10.740  12.731  67.000  1.00  0.00    -0.249 OA 
BRANCH  12  13
HETATM   13  C   UNL     1     -11.658  13.847  66.843  1.00  0.00    -0.378 C  
HETATM   14  C   UNL     1     -11.667  14.420  65.430  1.00  0.00    -0.362 C  
HETATM   15  C   UNL     1     -10.872  15.677  65.621  1.00  0.00    -0.327 C  
HETATM   16  C   UNL     1     -10.733  16.019  67.060  1.00  0.00    -0.277 C  
HETATM   17  O   UNL     1     -10.450  16.371  64.707  1.00  0.00    -0.620 OA 
HETATM   18  C   UNL     1     -11.455  14.849  69.212  1.00  0.00    -0.324 C  
HETATM   19  C   UNL     1     -11.281  14.995  67.742  1.00  0.00    -0.327 C  
BRANCH  16  20
HETATM   20  C   UNL     1      -9.942  17.205  67.485  1.00  0.00    -0.279 C  
BRANCH  20  21
HETATM   21  C   UNL     1     -10.771  18.445  67.569  1.00  0.00    -0.399 C  
HETATM   22  C   UNL     1     -10.656  19.475  66.719  1.00  0.00    -0.597 C  
ENDBRANCH  20  21
ENDBRANCH  16  20
ENDBRANCH  12  13
ENDBRANCH  10  12
ENDBRANCH   6  10
ENDBRANCH   3   5
TORSDOF 6
ENDMDL
MODEL       37
REMARK 921   NORMALIZED FREE ENERGY PREDICTED BY IDOCK:   -5.15 KCAL/MOL
REMARK 922        TOTAL FREE ENERGY PREDICTED BY IDOCK:   -8.47 KCAL/MOL
REMARK 923 INTER-LIGAND FREE ENERGY PREDICTED BY IDOCK:   -7.20 KCAL/MOL
REMARK 924 INTRA-LIGAND FREE ENERGY PREDICTED BY IDOCK:   -1.28 KCAL/MOL
REMARK 927      BINDING AFFINITY PREDICTED BY RF-SCORE:    0.00 PKD
ROOT
HETATM    1  C   UNL     1     -10.380  18.678  66.103  1.00  0.00    -0.481 C  
HETATM    2  C   UNL     1     -10.413  18.193  67.524  1.00  0.00    -0.425 C  
HETATM    3  C   UNL     1     -10.729  16.923  67.846  1.00  0.00    -0.344 C  
HETATM    4  C   UNL     1     -10.045  19.170  68.603  1.00  0.00    -0.471 C  
ENDROOT
BRANCH   3   5
HETATM    5  C   UNL     1     -11.038  15.832  66.919  1.00  0.00    -0.133 C  
HETATM    6  C   UNL     1     -10.969  14.385  67.376  1.00  0.00    -0.303 C  
HETATM    7  C   UNL     1      -9.951  14.923  66.375  1.00  0.00    -0.290 C  
HETATM    8  C   UNL     1      -8.529  15.029  66.865  1.00  0.00    -0.269 C  
HETATM    9  C   UNL     1     -10.045  14.568  64.908  1.00  0.00    -0.245 C  
BRANCH   6  10
HETATM   10  C   UNL     1     -12.073  13.487  66.969  1.00  0.00    -0.354 C  
HETATM   11  O   UNL     1     -12.905  13.854  66.158  1.00  0.00    -0.384 OA 
BRANCH  10  12
HETATM   12  O   UNL     1     -12.044  12.274  67.592  1.00  0.00    -0.502 OA 
BRANCH  12  13
HETATM   13  C   UNL     1     -10.975  11.996  68.536  1.00  0.00    -0.240 C  
HETATM   14  C   UNL     1      -9.949  11.003  68.004  1.00  0.00    -0.188 C  
HETATM   15  C   UNL     1     -10.332   9.760  68.752  1.00  0.00    -0.208 C  
HETATM   16  C   UNL     1     -11.233  10.069  69.893  1.00  0.00    -0.327 C  
HETATM   17  O   UNL     1      -9.903   8.643  68.500  1.00  0.00    -0.160 OA 
HETATM   18  C   UNL     1     -12.324  12.223  70.723  1.00  0.00    -0.383 C  
HETATM   19  C   UNL     1     -11.511  11.384  69.804  1.00  0.00    -0.376 C  
BRANCH  16  20
HETATM   20  C   UNL     1     -11.775   8.980  70.748  1.00  0.00    -0.286 C  
BRANCH  20  21
HETATM   21  C   UNL     1     -11.031   8.840  72.036  1.00  0.00    -0.438 C  
HETATM   22  C   UNL     1      -9.739   8.488  72.115  1.00  0.00    -0.387 C  
ENDBRANCH  20  21
ENDBRANCH  16  20
ENDBRANCH  12  13
ENDBRANCH  10  12
ENDBRANCH   6  10
ENDBRANCH   3   5
TORSDOF 6
ENDMDL
MODEL       38
REMARK 921   NORMALIZED FREE ENERGY PREDICTED BY IDOCK:   -5.14 KCAL/MOL
REMARK 922        TOTAL FREE ENERGY PREDICTED BY IDOCK:   -8.46 KCAL/MOL
REMARK 923 INTER-LIGAND FREE ENERGY PREDICTED BY IDOCK:   -7.25 KCAL/MOL
REMARK 924 INTRA-LIGAND FREE ENERGY PREDICTED BY IDOCK:   -1.22 KCAL/MOL
REMARK 927      BINDING AFFINITY PREDICTED BY RF-SCORE:    0.00 PKD
ROOT
HETATM    1  C   UNL     1     -13.140  14.055  71.756  1.00  0.00    -0.449 C  
HETATM    2  C   UNL     1     -12.084  15.095  71.507  1.00  0.00    -0.407 C  
HETATM    3  C   UNL     1     -11.341  15.114  70.383  1.00  0.00    -0.323 C  
HETATM    4  C   UNL     1     -11.894  16.158  72.551  1.00  0.00    -0.630 C  
ENDROOT
BRANCH   3   5
HETATM    5  C   UNL     1     -11.450  14.204  69.242  1.00  0.00    -0.337 C  
HETATM    6  C   UNL     1     -10.219  13.820  68.437  1.00  0.00    -0.248 C  
HETATM    7  C   UNL     1     -11.298  14.700  67.816  1.00  0.00    -0.338 C  
HETATM    8  C   UNL     1     -10.906  16.127  67.524  1.00  0.00    -0.284 C  
HETATM    9  C   UNL     1     -12.269  14.136  66.802  1.00  0.00    -0.429 C  
BRANCH   6  10
HETATM   10  C   UNL     1     -10.060  12.395  68.072  1.00  0.00    -0.214 C  
HETATM   11  O   UNL     1      -9.930  12.064  66.906  1.00  0.00    -0.200 OA 
BRANCH  10  12
HETATM   12  O   UNL     1     -10.087  11.553  69.143  1.00  0.00    -0.113 OA 
BRANCH  12  13
HETATM   13  C   UNL     1     -11.052  10.466  69.157  1.00  0.00    -0.246 C  
HETATM   14  C   UNL     1     -12.391  10.862  69.767  1.00  0.00    -0.326 C  
HETATM   15  C   UNL     1     -12.302  10.207  71.114  1.00  0.00    -0.385 C  
HETATM   16  C   UNL     1     -11.204   9.208  71.160  1.00  0.00    -0.395 C  
HETATM   17  O   UNL     1     -13.078  10.418  72.035  1.00  0.00    -0.455 OA 
HETATM   18  C   UNL     1      -9.413   8.500  69.483  1.00  0.00    -0.165 C  
HETATM   19  C   UNL     1     -10.558   9.307  69.982  1.00  0.00    -0.256 C  
BRANCH  16  20
HETATM   20  C   UNL     1     -10.904   8.468  72.415  1.00  0.00    -0.378 C  
BRANCH  20  21
HETATM   21  C   UNL     1     -11.366   7.049  72.367  1.00  0.00    -0.307 C  
HETATM   22  C   UNL     1     -12.527   6.662  71.817  1.00  0.00    -0.360 C  
ENDBRANCH  20  21
ENDBRANCH  16  20
ENDBRANCH  12  13
ENDBRANCH  10  12
ENDBRANCH   6  10
ENDBRANCH   3   5
TORSDOF 6
ENDMDL
MODEL       39
REMARK 921   NORMALIZED FREE ENERGY PREDICTED BY IDOCK:   -5.12 KCAL/MOL
REMARK 922        TOTAL FREE ENERGY PREDICTED BY IDOCK:   -8.43 KCAL/MOL
REMARK 923 INTER-LIGAND FREE ENERGY PREDICTED BY IDOCK:   -7.25 KCAL/MOL
REMARK 924 INTRA-LIGAND FREE ENERGY PREDICTED BY IDOCK:   -1.18 KCAL/MOL
REMARK 927      BINDING AFFINITY PREDICTED BY RF-SCORE:    0.00 PKD
ROOT
HETATM    1  C   UNL     1     -10.739  19.348  65.706  1.00  0.00    -0.458 C  
HETATM    2  C   UNL     1     -10.062  19.359  67.047  1.00  0.00    -0.492 C  
HETATM    3  C   UNL     1     -10.076  18.294  67.872  1.00  0.00    -0.376 C  
HETATM    4  C   UNL     1      -9.324  20.605  67.444  1.00  0.00    -0.475 C  
ENDROOT
BRANCH   3   5
HETATM    5  C   UNL     1     -10.681  16.987  67.609  1.00  0.00    -0.295 C  
HETATM    6  C   UNL     1     -10.089  15.724  68.212  1.00  0.00    -0.222 C  
HETATM    7  C   UNL     1     -10.006  15.968  66.709  1.00  0.00    -0.265 C  
HETATM    8  C   UNL     1      -8.626  16.213  66.151  1.00  0.00    -0.331 C  
HETATM    9  C   UNL     1     -10.905  15.218  65.751  1.00  0.00    -0.363 C  
BRANCH   6  10
HETATM   10  C   UNL     1     -11.029  14.742  68.799  1.00  0.00    -0.259 C  
HETATM   11  O   UNL     1     -12.078  15.109  69.298  1.00  0.00    -0.298 OA 
BRANCH  10  12
HETATM   12  O   UNL     1     -10.587  13.455  68.722  1.00  0.00    -0.245 OA 
BRANCH  12  13
HETATM   13  C   UNL     1     -11.557  12.390  68.529  1.00  0.00    -0.313 C  
HETATM   14  C   UNL     1     -11.896  11.648  69.816  1.00  0.00    -0.428 C  
HETATM   15  C   UNL     1     -11.125  10.375  69.629  1.00  0.00    -0.276 C  
HETATM   16  C   UNL     1     -10.688  10.206  68.219  1.00  0.00    -0.277 C  
HETATM   17  O   UNL     1     -10.939   9.546  70.508  1.00  0.00    -0.243 OA 
HETATM   18  C   UNL     1     -10.880  11.681  66.143  1.00  0.00    -0.343 C  
HETATM   19  C   UNL     1     -11.037  11.342  67.582  1.00  0.00    -0.336 C  
BRANCH  16  20
HETATM   20  C   UNL     1      -9.869   9.034  67.813  1.00  0.00    -0.209 C  
BRANCH  20  21
HETATM   21  C   UNL     1     -10.608   8.105  66.907  1.00  0.00    -0.311 C  
HETATM   22  C   UNL     1     -10.921   6.841  67.231  1.00  0.00    -0.433 C  
ENDBRANCH  20  21
ENDBRANCH  16  20
ENDBRANCH  12  13
ENDBRANCH  10  12
ENDBRANCH   6  10
ENDBRANCH   3   5
TORSDOF 6
ENDMDL
MODEL       40
REMARK 921   NORMALIZED FREE ENERGY PREDICTED BY IDOCK:   -5.11 KCAL/MOL
REMARK 922        TOTAL FREE ENERGY PREDICTED BY IDOCK:   -8.43 KCAL/MOL
REMARK 923 INTER-LIGAND FREE ENERGY PREDICTED BY IDOCK:   -6.84 KCAL/MOL
REMARK 924 INTRA-LIGAND FREE ENERGY PREDICTED BY IDOCK:   -1.59 KCAL/MOL
REMARK 927      BINDING AFFINITY PREDICTED BY RF-SCORE:    0.00 PKD
ROOT
HETATM    1  C   UNL     1     -10.078   8.746  66.410  1.00  0.00    -0.313 C  
HETATM    2  C   UNL     1      -9.207   8.462  67.601  1.00  0.00    -0.147 C  
HETATM    3  C   UNL     1      -9.547   8.838  68.850  1.00  0.00    -0.158 C  
HETATM    4  C   UNL     1      -7.933   7.704  67.367  1.00  0.00    -0.119 C  
ENDROOT
BRANCH   3   5
HETATM    5  C   UNL     1     -10.780   9.514  69.259  1.00  0.00    -0.240 C  
HETATM    6  C   UNL     1     -10.727  10.815  70.043  1.00  0.00    -0.140 C  
HETATM    7  C   UNL     1     -11.225   9.538  70.710  1.00  0.00    -0.383 C  
HETATM    8  C   UNL     1     -10.353   8.974  71.803  1.00  0.00    -0.407 C  
HETATM    9  C   UNL     1     -12.701   9.321  70.963  1.00  0.00    -0.226 C  
BRANCH   6  10
HETATM   10  C   UNL     1     -11.647  11.898  69.631  1.00  0.00    -0.317 C  
HETATM   11  O   UNL     1     -12.257  12.544  70.464  1.00  0.00    -0.365 OA 
BRANCH  10  12
HETATM   12  O   UNL     1     -11.725  12.060  68.279  1.00  0.00    -0.310 OA 
BRANCH  12  13
HETATM   13  C   UNL     1     -11.161  13.260  67.683  1.00  0.00    -0.280 C  
HETATM   14  C   UNL     1     -12.216  14.183  67.084  1.00  0.00    -0.348 C  
HETATM   15  C   UNL     1     -12.044  13.910  65.619  1.00  0.00    -0.421 C  
HETATM   16  C   UNL     1     -10.769  13.197  65.345  1.00  0.00    -0.308 C  
HETATM   17  O   UNL     1     -12.820  14.286  64.752  1.00  0.00    -0.671 OA 
HETATM   18  C   UNL     1      -8.931  12.264  66.852  1.00  0.00    -0.207 C  
HETATM   19  C   UNL     1     -10.231  12.920  66.549  1.00  0.00    -0.264 C  
BRANCH  16  20
HETATM   20  C   UNL     1     -10.413  12.785  63.962  1.00  0.00    -0.433 C  
BRANCH  20  21
HETATM   21  C   UNL     1     -10.439  11.302  63.783  1.00  0.00    -0.459 C  
HETATM   22  C   UNL     1      -9.344  10.561  63.553  1.00  0.00    -0.326 C  
ENDBRANCH  20  21
ENDBRANCH  16  20
ENDBRANCH  12  13
ENDBRANCH  10  12
ENDBRANCH   6  10
ENDBRANCH   3   5
TORSDOF 6
ENDMDL
MODEL       41
REMARK 921   NORMALIZED FREE ENERGY PREDICTED BY IDOCK:   -5.11 KCAL/MOL
REMARK 922        TOTAL FREE ENERGY PREDICTED BY IDOCK:   -8.42 KCAL/MOL
REMARK 923 INTER-LIGAND FREE ENERGY PREDICTED BY IDOCK:   -7.05 KCAL/MOL
REMARK 924 INTRA-LIGAND FREE ENERGY PREDICTED BY IDOCK:   -1.36 KCAL/MOL
REMARK 927      BINDING AFFINITY PREDICTED BY RF-SCORE:    0.00 PKD
ROOT
HETATM    1  C   UNL     1      -9.368   8.600  72.023  1.00  0.00    -0.362 C  
HETATM    2  C   UNL     1     -10.703   8.206  71.455  1.00  0.00    -0.280 C  
HETATM    3  C   UNL     1     -11.009   8.369  70.153  1.00  0.00    -0.216 C  
HETATM    4  C   UNL     1     -11.700   7.583  72.388  1.00  0.00    -0.335 C  
ENDROOT
BRANCH   3   5
HETATM    5  C   UNL     1     -10.133   8.888  69.101  1.00  0.00    -0.202 C  
HETATM    6  C   UNL     1     -10.708   9.365  67.779  1.00  0.00    -0.290 C  
HETATM    7  C   UNL     1      -9.862   8.097  67.834  1.00  0.00    -0.206 C  
HETATM    8  C   UNL     1     -10.583   6.803  67.553  1.00  0.00    -0.348 C  
HETATM    9  C   UNL     1      -8.434   8.097  67.335  1.00  0.00    -0.126 C  
BRANCH   6  10
HETATM   10  C   UNL     1     -10.187  10.635  67.225  1.00  0.00    -0.208 C  
HETATM   11  O   UNL     1      -9.679  10.667  66.118  1.00  0.00    -0.190 OA 
BRANCH  10  12
HETATM   12  O   UNL     1     -10.330  11.695  68.071  1.00  0.00    -0.182 OA 
BRANCH  12  13
HETATM   13  C   UNL     1     -11.626  12.347  68.164  1.00  0.00    -0.341 C  
HETATM   14  C   UNL     1     -11.712  13.629  67.344  1.00  0.00    -0.416 C  
HETATM   15  C   UNL     1     -11.606  14.670  68.419  1.00  0.00    -0.323 C  
HETATM   16  C   UNL     1     -11.825  14.083  69.766  1.00  0.00    -0.385 C  
HETATM   17  O   UNL     1     -11.431  15.862  68.210  1.00  0.00    -0.363 OA 
HETATM   18  C   UNL     1     -12.209  11.698  70.592  1.00  0.00    -0.461 C  
HETATM   19  C   UNL     1     -11.932  12.753  69.582  1.00  0.00    -0.354 C  
BRANCH  16  20
HETATM   20  C   UNL     1     -11.722  14.927  70.986  1.00  0.00    -0.376 C  
BRANCH  20  21
HETATM   21  C   UNL     1     -13.059  15.271  71.558  1.00  0.00    -0.517 C  
HETATM   22  C   UNL     1     -13.634  14.595  72.564  1.00  0.00    -0.572 C  
ENDBRANCH  20  21
ENDBRANCH  16  20
ENDBRANCH  12  13
ENDBRANCH  10  12
ENDBRANCH   6  10
ENDBRANCH   3   5
TORSDOF 6
ENDMDL
MODEL       42
REMARK 921   NORMALIZED FREE ENERGY PREDICTED BY IDOCK:   -5.06 KCAL/MOL
REMARK 922        TOTAL FREE ENERGY PREDICTED BY IDOCK:   -8.35 KCAL/MOL
REMARK 923 INTER-LIGAND FREE ENERGY PREDICTED BY IDOCK:   -7.15 KCAL/MOL
REMARK 924 INTRA-LIGAND FREE ENERGY PREDICTED BY IDOCK:   -1.20 KCAL/MOL
REMARK 927      BINDING AFFINITY PREDICTED BY RF-SCORE:    0.00 PKD
ROOT
HETATM    1  C   UNL     1     -10.428  18.474  66.607  1.00  0.00    -0.436 C  
HETATM    2  C   UNL     1      -9.737  18.876  67.880  1.00  0.00    -0.376 C  
HETATM    3  C   UNL     1      -8.662  18.218  68.356  1.00  0.00    -0.325 C  
HETATM    4  C   UNL     1     -10.264  20.078  68.609  1.00  0.00    -0.443 C  
ENDROOT
BRANCH   3   5
HETATM    5  C   UNL     1      -7.981  17.080  67.734  1.00  0.00    -0.192 C  
HETATM    6  C   UNL     1      -8.048  15.699  68.362  1.00  0.00    -0.137 C  
HETATM    7  C   UNL     1      -6.733  16.472  68.348  1.00  0.00    -0.143 C  
HETATM    8  C   UNL     1      -6.218  16.934  69.687  1.00  0.00    -0.225 C  
HETATM    9  C   UNL     1      -5.626  16.099  67.387  1.00  0.00    -0.136 C  
BRANCH   6  10
HETATM   10  C   UNL     1      -8.295  14.550  67.463  1.00  0.00    -0.188 C  
HETATM   11  O   UNL     1      -7.709  13.495  67.629  1.00  0.00    -0.147 OA 
BRANCH  10  12
HETATM   12  O   UNL     1      -9.199  14.816  66.478  1.00  0.00    -0.259 OA 
BRANCH  12  13
HETATM   13  C   UNL     1     -10.612  14.864  66.817  1.00  0.00    -0.305 C  
HETATM   14  C   UNL     1     -11.020  13.801  67.830  1.00  0.00    -0.270 C  
HETATM   15  C   UNL     1     -11.721  12.811  66.947  1.00  0.00    -0.380 C  
HETATM   16  C   UNL     1     -12.039  13.397  65.620  1.00  0.00    -0.476 C  
HETATM   17  O   UNL     1     -12.050  11.687  67.297  1.00  0.00    -0.595 OA 
HETATM   18  C   UNL     1     -11.528  15.654  64.539  1.00  0.00    -0.304 C  
HETATM   19  C   UNL     1     -11.473  14.620  65.606  1.00  0.00    -0.340 C  
BRANCH  16  20
HETATM   20  C   UNL     1     -12.695  12.578  64.566  1.00  0.00    -0.440 C  
BRANCH  20  21
HETATM   21  C   UNL     1     -11.716  11.995  63.602  1.00  0.00    -0.587 C  
HETATM   22  C   UNL     1     -10.541  11.459  63.966  1.00  0.00    -0.444 C  
ENDBRANCH  20  21
ENDBRANCH  16  20
ENDBRANCH  12  13
ENDBRANCH  10  12
ENDBRANCH   6  10
ENDBRANCH   3   5
TORSDOF 6
ENDMDL
MODEL       43
REMARK 921   NORMALIZED FREE ENERGY PREDICTED BY IDOCK:   -5.05 KCAL/MOL
REMARK 922        TOTAL FREE ENERGY PREDICTED BY IDOCK:   -8.35 KCAL/MOL
REMARK 923 INTER-LIGAND FREE ENERGY PREDICTED BY IDOCK:   -6.82 KCAL/MOL
REMARK 924 INTRA-LIGAND FREE ENERGY PREDICTED BY IDOCK:   -1.52 KCAL/MOL
REMARK 927      BINDING AFFINITY PREDICTED BY RF-SCORE:    0.00 PKD
ROOT
HETATM    1  C   UNL     1     -13.143  13.827  65.161  1.00  0.00    -0.137 C  
HETATM    2  C   UNL     1     -12.203  12.726  64.761  1.00  0.00    -0.517 C  
HETATM    3  C   UNL     1     -11.134  12.383  65.506  1.00  0.00    -0.338 C  
HETATM    4  C   UNL     1     -12.507  11.977  63.496  1.00  0.00    -0.654 C  
ENDROOT
BRANCH   3   5
HETATM    5  C   UNL     1     -10.739  12.958  66.793  1.00  0.00    -0.276 C  
HETATM    6  C   UNL     1      -9.456  12.517  67.478  1.00  0.00    -0.185 C  
HETATM    7  C   UNL     1     -10.810  12.150  68.076  1.00  0.00    -0.258 C  
HETATM    8  C   UNL     1     -11.172  10.687  68.057  1.00  0.00    -0.373 C  
HETATM    9  C   UNL     1     -11.340  12.873  69.296  1.00  0.00    -0.303 C  
BRANCH   6  10
HETATM   10  C   UNL     1      -8.597  13.570  68.063  1.00  0.00    -0.177 C  
HETATM   11  O   UNL     1      -7.642  13.275  68.759  1.00  0.00    -0.115 OA 
BRANCH  10  12
HETATM   12  O   UNL     1      -8.997  14.835  67.748  1.00  0.00    -0.174 OA 
BRANCH  12  13
HETATM   13  C   UNL     1      -8.362  15.514  66.631  1.00  0.00    -0.251 C  
HETATM   14  C   UNL     1      -7.041  16.176  67.006  1.00  0.00    -0.248 C  
HETATM   15  C   UNL     1      -7.449  17.618  67.075  1.00  0.00    -0.199 C  
HETATM   16  C   UNL     1      -8.771  17.841  66.435  1.00  0.00    -0.255 C  
HETATM   17  O   UNL     1      -6.752  18.510  67.538  1.00  0.00    -0.199 OA 
HETATM   18  C   UNL     1     -10.489  16.272  65.383  1.00  0.00    -0.365 C  
HETATM   19  C   UNL     1      -9.233  16.621  66.099  1.00  0.00    -0.312 C  
BRANCH  16  20
HETATM   20  C   UNL     1      -9.392  19.192  66.428  1.00  0.00    -0.379 C  
BRANCH  20  21
HETATM   21  C   UNL     1     -10.431  19.350  67.489  1.00  0.00    -0.577 C  
HETATM   22  C   UNL     1     -10.148  19.615  68.774  1.00  0.00    -0.532 C  
ENDBRANCH  20  21
ENDBRANCH  16  20
ENDBRANCH  12  13
ENDBRANCH  10  12
ENDBRANCH   6  10
ENDBRANCH   3   5
TORSDOF 6
ENDMDL
MODEL       44
REMARK 921   NORMALIZED FREE ENERGY PREDICTED BY IDOCK:   -5.03 KCAL/MOL
REMARK 922        TOTAL FREE ENERGY PREDICTED BY IDOCK:   -8.32 KCAL/MOL
REMARK 923 INTER-LIGAND FREE ENERGY PREDICTED BY IDOCK:   -6.57 KCAL/MOL
REMARK 924 INTRA-LIGAND FREE ENERGY PREDICTED BY IDOCK:   -1.74 KCAL/MOL
REMARK 927      BINDING AFFINITY PREDICTED BY RF-SCORE:    0.00 PKD
ROOT
HETATM    1  C   UNL     1     -10.300   9.444  71.067  1.00  0.00    -0.382 C  
HETATM    2  C   UNL     1     -11.534  10.026  70.438  1.00  0.00    -0.389 C  
HETATM    3  C   UNL     1     -11.518  10.612  69.225  1.00  0.00    -0.351 C  
HETATM    4  C   UNL     1     -12.824   9.909  71.198  1.00  0.00    -0.461 C  
ENDROOT
BRANCH   3   5
HETATM    5  C   UNL     1     -10.369  10.742  68.327  1.00  0.00    -0.195 C  
HETATM    6  C   UNL     1     -10.561  10.751  66.820  1.00  0.00    -0.307 C  
HETATM    7  C   UNL     1      -9.875   9.570  67.498  1.00  0.00    -0.213 C  
HETATM    8  C   UNL     1     -10.624   8.262  67.473  1.00  0.00    -0.291 C  
HETATM    9  C   UNL     1      -8.375   9.393  67.413  1.00  0.00    -0.125 C  
BRANCH   6  10
HETATM   10  C   UNL     1      -9.807  11.758  66.041  1.00  0.00    -0.232 C  
HETATM   11  O   UNL     1      -9.619  11.606  64.847  1.00  0.00    -0.224 OA 
BRANCH  10  12
HETATM   12  O   UNL     1      -9.366  12.807  66.792  1.00  0.00    -0.230 OA 
BRANCH  12  13
HETATM   13  C   UNL     1      -9.739  14.156  66.400  1.00  0.00    -0.298 C  
HETATM   14  C   UNL     1      -8.674  15.193  66.737  1.00  0.00    -0.307 C  
HETATM   15  C   UNL     1      -9.281  15.852  67.940  1.00  0.00    -0.198 C  
HETATM   16  C   UNL     1     -10.721  15.515  68.076  1.00  0.00    -0.283 C  
HETATM   17  O   UNL     1      -8.685  16.625  68.677  1.00  0.00    -0.230 OA 
HETATM   18  C   UNL     1     -12.285  13.975  66.770  1.00  0.00    -0.439 C  
HETATM   19  C   UNL     1     -10.985  14.608  67.114  1.00  0.00    -0.316 C  
BRANCH  16  20
HETATM   20  C   UNL     1     -11.515  16.024  69.226  1.00  0.00    -0.350 C  
BRANCH  20  21
HETATM   21  C   UNL     1     -11.527  15.073  70.378  1.00  0.00    -0.321 C  
HETATM   22  C   UNL     1     -12.293  13.973  70.427  1.00  0.00    -0.429 C  
ENDBRANCH  20  21
ENDBRANCH  16  20
ENDBRANCH  12  13
ENDBRANCH  10  12
ENDBRANCH   6  10
ENDBRANCH   3   5
TORSDOF 6
ENDMDL
MODEL       45
REMARK 921   NORMALIZED FREE ENERGY PREDICTED BY IDOCK:   -5.01 KCAL/MOL
REMARK 922        TOTAL FREE ENERGY PREDICTED BY IDOCK:   -8.29 KCAL/MOL
REMARK 923 INTER-LIGAND FREE ENERGY PREDICTED BY IDOCK:   -7.57 KCAL/MOL
REMARK 924 INTRA-LIGAND FREE ENERGY PREDICTED BY IDOCK:   -0.72 KCAL/MOL
REMARK 927      BINDING AFFINITY PREDICTED BY RF-SCORE:    0.00 PKD
ROOT
HETATM    1  C   UNL     1     -11.233  11.478  64.084  1.00  0.00    -0.393 C  
HETATM    2  C   UNL     1      -9.935  10.745  63.889  1.00  0.00    -0.404 C  
HETATM    3  C   UNL     1      -9.484   9.830  64.768  1.00  0.00    -0.318 C  
HETATM    4  C   UNL     1      -9.149  11.041  62.644  1.00  0.00    -0.375 C  
ENDROOT
BRANCH   3   5
HETATM    5  C   UNL     1     -10.158   9.373  65.985  1.00  0.00    -0.302 C  
HETATM    6  C   UNL     1      -9.414   9.314  67.308  1.00  0.00    -0.181 C  
HETATM    7  C   UNL     1      -9.838   8.027  66.609  1.00  0.00    -0.322 C  
HETATM    8  C   UNL     1      -8.724   7.163  66.073  1.00  0.00    -0.162 C  
HETATM    9  C   UNL     1     -11.016   7.224  67.114  1.00  0.00    -0.285 C  
BRANCH   6  10
HETATM   10  C   UNL     1     -10.113   9.826  68.508  1.00  0.00    -0.166 C  
HETATM   11  O   UNL     1     -10.501   9.060  69.373  1.00  0.00    -0.215 OA 
BRANCH  10  12
HETATM   12  O   UNL     1     -10.266  11.180  68.511  1.00  0.00    -0.183 OA 
BRANCH  12  13
HETATM   13  C   UNL     1     -11.608  11.734  68.442  1.00  0.00    -0.318 C  
HETATM   14  C   UNL     1     -11.733  12.879  67.444  1.00  0.00    -0.428 C  
HETATM   15  C   UNL     1     -11.770  14.064  68.363  1.00  0.00    -0.354 C  
HETATM   16  C   UNL     1     -12.032  13.654  69.767  1.00  0.00    -0.404 C  
HETATM   17  O   UNL     1     -11.668  15.225  67.995  1.00  0.00    -0.342 OA 
HETATM   18  C   UNL     1     -12.296  11.383  70.904  1.00  0.00    -0.483 C  
HETATM   19  C   UNL     1     -12.031  12.307  69.769  1.00  0.00    -0.365 C  
BRANCH  16  20
HETATM   20  C   UNL     1     -12.067  14.664  70.857  1.00  0.00    -0.393 C  
BRANCH  20  21
HETATM   21  C   UNL     1     -13.450  15.149  71.145  1.00  0.00    -0.533 C  
HETATM   22  C   UNL     1     -13.929  15.341  72.383  1.00  0.00    -0.642 C  
ENDBRANCH  20  21
ENDBRANCH  16  20
ENDBRANCH  12  13
ENDBRANCH  10  12
ENDBRANCH   6  10
ENDBRANCH   3   5
TORSDOF 6
ENDMDL
MODEL       46
REMARK 921   NORMALIZED FREE ENERGY PREDICTED BY IDOCK:   -5.01 KCAL/MOL
REMARK 922        TOTAL FREE ENERGY PREDICTED BY IDOCK:   -8.28 KCAL/MOL
REMARK 923 INTER-LIGAND FREE ENERGY PREDICTED BY IDOCK:   -7.39 KCAL/MOL
REMARK 924 INTRA-LIGAND FREE ENERGY PREDICTED BY IDOCK:   -0.89 KCAL/MOL
REMARK 927      BINDING AFFINITY PREDICTED BY RF-SCORE:    0.00 PKD
ROOT
HETATM    1  C   UNL     1      -5.805  21.112  67.189  1.00  0.00    -0.370 C  
HETATM    2  C   UNL     1      -6.388  20.456  65.969  1.00  0.00    -0.249 C  
HETATM    3  C   UNL     1      -7.400  19.570  66.041  1.00  0.00    -0.308 C  
HETATM    4  C   UNL     1      -5.825  20.846  64.633  1.00  0.00    -0.291 C  
ENDROOT
BRANCH   3   5
HETATM    5  C   UNL     1      -8.108  19.139  67.248  1.00  0.00    -0.286 C  
HETATM    6  C   UNL     1      -8.946  17.872  67.245  1.00  0.00    -0.250 C  
HETATM    7  C   UNL     1      -9.619  19.236  67.357  1.00  0.00    -0.389 C  
HETATM    8  C   UNL     1     -10.460  19.661  66.180  1.00  0.00    -0.624 C  
HETATM    9  C   UNL     1     -10.167  19.722  68.681  1.00  0.00    -0.515 C  
BRANCH   6  10
HETATM   10  C   UNL     1      -8.813  16.962  68.404  1.00  0.00    -0.244 C  
HETATM   11  O   UNL     1      -7.819  16.994  69.107  1.00  0.00    -0.205 OA 
BRANCH  10  12
HETATM   12  O   UNL     1      -9.879  16.127  68.564  1.00  0.00    -0.215 OA 
BRANCH  12  13
HETATM   13  C   UNL     1      -9.786  14.766  68.064  1.00  0.00    -0.213 C  
HETATM   14  C   UNL     1      -8.995  14.659  66.765  1.00  0.00    -0.283 C  
HETATM   15  C   UNL     1     -10.099  14.478  65.766  1.00  0.00    -0.342 C  
HETATM   16  C   UNL     1     -11.380  14.125  66.431  1.00  0.00    -0.342 C  
HETATM   17  O   UNL     1      -9.950  14.544  64.554  1.00  0.00    -0.116 OA 
HETATM   18  C   UNL     1     -12.075  13.898  68.877  1.00  0.00    -0.355 C  
HETATM   19  C   UNL     1     -11.147  14.202  67.756  1.00  0.00    -0.292 C  
BRANCH  16  20
HETATM   20  C   UNL     1     -12.623  13.942  65.634  1.00  0.00    -0.553 C  
BRANCH  20  21
HETATM   21  C   UNL     1     -12.688  12.603  64.975  1.00  0.00    -0.403 C  
HETATM   22  C   UNL     1     -12.659  12.426  63.646  1.00  0.00    -0.550 C  
ENDBRANCH  20  21
ENDBRANCH  16  20
ENDBRANCH  12  13
ENDBRANCH  10  12
ENDBRANCH   6  10
ENDBRANCH   3   5
TORSDOF 6
ENDMDL
MODEL       47
REMARK 921   NORMALIZED FREE ENERGY PREDICTED BY IDOCK:   -4.98 KCAL/MOL
REMARK 922        TOTAL FREE ENERGY PREDICTED BY IDOCK:   -8.24 KCAL/MOL
REMARK 923 INTER-LIGAND FREE ENERGY PREDICTED BY IDOCK:   -6.50 KCAL/MOL
REMARK 924 INTRA-LIGAND FREE ENERGY PREDICTED BY IDOCK:   -1.74 KCAL/MOL
REMARK 927      BINDING AFFINITY PREDICTED BY RF-SCORE:    0.00 PKD
ROOT
HETATM    1  C   UNL     1      -9.172   9.851  69.810  1.00  0.00    -0.252 C  
HETATM    2  C   UNL     1     -10.591  10.242  69.502  1.00  0.00    -0.270 C  
HETATM    3  C   UNL     1     -10.941  10.835  68.345  1.00  0.00    -0.299 C  
HETATM    4  C   UNL     1     -11.639   9.918  70.527  1.00  0.00    -0.386 C  
ENDROOT
BRANCH   3   5
HETATM    5  C   UNL     1     -10.062  11.152  67.218  1.00  0.00    -0.218 C  
HETATM    6  C   UNL     1     -10.585  11.112  65.792  1.00  0.00    -0.289 C  
HETATM    7  C   UNL     1      -9.574  10.074  66.267  1.00  0.00    -0.256 C  
HETATM    8  C   UNL     1     -10.076   8.656  66.371  1.00  0.00    -0.294 C  
HETATM    9  C   UNL     1      -8.123  10.156  65.846  1.00  0.00    -0.136 C  
BRANCH   6  10
HETATM   10  C   UNL     1     -10.206  12.226  64.894  1.00  0.00    -0.281 C  
HETATM   11  O   UNL     1     -10.357  12.130  63.689  1.00  0.00    -0.398 OA 
BRANCH  10  12
HETATM   12  O   UNL     1      -9.687  13.302  65.552  1.00  0.00    -0.175 OA 
BRANCH  12  13
HETATM   13  C   UNL     1     -10.408  14.563  65.511  1.00  0.00    -0.359 C  
HETATM   14  C   UNL     1      -9.546  15.758  65.901  1.00  0.00    -0.382 C  
HETATM   15  C   UNL     1     -10.038  16.031  67.291  1.00  0.00    -0.266 C  
HETATM   16  C   UNL     1     -11.319  15.329  67.562  1.00  0.00    -0.300 C  
HETATM   17  O   UNL     1      -9.492  16.789  68.080  1.00  0.00    -0.227 OA 
HETATM   18  C   UNL     1     -12.737  13.696  66.204  1.00  0.00    -0.295 C  
HETATM   19  C   UNL     1     -11.562  14.564  66.480  1.00  0.00    -0.379 C  
BRANCH  16  20
HETATM   20  C   UNL     1     -11.968  15.421  68.897  1.00  0.00    -0.298 C  
BRANCH  20  21
HETATM   21  C   UNL     1     -11.577  14.299  69.802  1.00  0.00    -0.350 C  
HETATM   22  C   UNL     1     -12.444  13.634  70.579  1.00  0.00    -0.394 C  
ENDBRANCH  20  21
ENDBRANCH  16  20
ENDBRANCH  12  13
ENDBRANCH  10  12
ENDBRANCH   6  10
ENDBRANCH   3   5
TORSDOF 6
ENDMDL
MODEL       48
REMARK 921   NORMALIZED FREE ENERGY PREDICTED BY IDOCK:   -4.98 KCAL/MOL
REMARK 922        TOTAL FREE ENERGY PREDICTED BY IDOCK:   -8.24 KCAL/MOL
REMARK 923 INTER-LIGAND FREE ENERGY PREDICTED BY IDOCK:   -7.22 KCAL/MOL
REMARK 924 INTRA-LIGAND FREE ENERGY PREDICTED BY IDOCK:   -1.02 KCAL/MOL
REMARK 927      BINDING AFFINITY PREDICTED BY RF-SCORE:    0.00 PKD
ROOT
HETATM    1  C   UNL     1      -5.894  18.178  65.519  1.00  0.00    -0.226 C  
HETATM    2  C   UNL     1      -6.549  19.473  65.129  1.00  0.00    -0.286 C  
HETATM    3  C   UNL     1      -7.599  19.983  65.802  1.00  0.00    -0.284 C  
HETATM    4  C   UNL     1      -5.972  20.221  63.961  1.00  0.00    -0.323 C  
ENDROOT
BRANCH   3   5
HETATM    5  C   UNL     1      -8.232  19.423  66.998  1.00  0.00    -0.297 C  
HETATM    6  C   UNL     1      -9.028  18.132  66.921  1.00  0.00    -0.275 C  
HETATM    7  C   UNL     1      -9.737  19.456  67.186  1.00  0.00    -0.425 C  
HETATM    8  C   UNL     1     -10.650  19.952  66.093  1.00  0.00    -0.526 C  
HETATM    9  C   UNL     1     -10.234  19.805  68.572  1.00  0.00    -0.547 C  
BRANCH   6  10
HETATM   10  C   UNL     1      -8.809  17.130  67.988  1.00  0.00    -0.229 C  
HETATM   11  O   UNL     1      -7.965  17.313  68.847  1.00  0.00    -0.255 OA 
BRANCH  10  12
HETATM   12  O   UNL     1      -9.617  16.037  67.881  1.00  0.00    -0.217 OA 
BRANCH  12  13
HETATM   13  C   UNL     1     -10.989  16.131  68.351  1.00  0.00    -0.341 C  
HETATM   14  C   UNL     1     -11.093  16.538  69.816  1.00  0.00    -0.248 C  
HETATM   15  C   UNL     1     -11.431  15.226  70.460  1.00  0.00    -0.310 C  
HETATM   16  C   UNL     1     -11.865  14.223  69.453  1.00  0.00    -0.372 C  
HETATM   17  O   UNL     1     -11.418  15.026  71.666  1.00  0.00    -0.367 OA 
HETATM   18  C   UNL     1     -12.021  14.260  66.905  1.00  0.00    -0.467 C  
HETATM   19  C   UNL     1     -11.693  14.804  68.250  1.00  0.00    -0.340 C  
BRANCH  16  20
HETATM   20  C   UNL     1     -12.206  12.835  69.864  1.00  0.00    -0.245 C  
BRANCH  20  21
HETATM   21  C   UNL     1     -11.200  11.836  69.394  1.00  0.00    -0.300 C  
HETATM   22  C   UNL     1     -11.518  10.601  68.975  1.00  0.00    -0.342 C  
ENDBRANCH  20  21
ENDBRANCH  16  20
ENDBRANCH  12  13
ENDBRANCH  10  12
ENDBRANCH   6  10
ENDBRANCH   3   5
TORSDOF 6
ENDMDL
MODEL       49
REMARK 921   NORMALIZED FREE ENERGY PREDICTED BY IDOCK:   -4.97 KCAL/MOL
REMARK 922        TOTAL FREE ENERGY PREDICTED BY IDOCK:   -8.23 KCAL/MOL
REMARK 923 INTER-LIGAND FREE ENERGY PREDICTED BY IDOCK:   -6.81 KCAL/MOL
REMARK 924 INTRA-LIGAND FREE ENERGY PREDICTED BY IDOCK:   -1.43 KCAL/MOL
REMARK 927      BINDING AFFINITY PREDICTED BY RF-SCORE:    0.00 PKD
ROOT
HETATM    1  C   UNL     1     -12.447  10.459  70.881  1.00  0.00    -0.478 C  
HETATM    2  C   UNL     1     -12.597  11.954  70.927  1.00  0.00    -0.361 C  
HETATM    3  C   UNL     1     -12.271  12.744  69.885  1.00  0.00    -0.245 C  
HETATM    4  C   UNL     1     -13.162  12.559  72.180  1.00  0.00    -0.508 C  
ENDROOT
BRANCH   3   5
HETATM    5  C   UNL     1     -11.781  12.313  68.575  1.00  0.00    -0.381 C  
HETATM    6  C   UNL     1     -10.342  12.573  68.161  1.00  0.00    -0.236 C  
HETATM    7  C   UNL     1     -11.484  13.313  67.472  1.00  0.00    -0.361 C  
HETATM    8  C   UNL     1     -11.561  14.798  67.725  1.00  0.00    -0.378 C  
HETATM    9  C   UNL     1     -11.927  12.928  66.078  1.00  0.00    -0.505 C  
BRANCH   6  10
HETATM   10  C   UNL     1      -9.611  11.468  67.503  1.00  0.00    -0.172 C  
HETATM   11  O   UNL     1      -8.547  11.674  66.945  1.00  0.00    -0.162 OA 
BRANCH  10  12
HETATM   12  O   UNL     1     -10.250  10.266  67.588  1.00  0.00    -0.184 OA 
BRANCH  12  13
HETATM   13  C   UNL     1      -9.456   9.060  67.757  1.00  0.00    -0.141 C  
HETATM   14  C   UNL     1      -9.682   8.035  66.652  1.00  0.00    -0.313 C  
HETATM   15  C   UNL     1     -10.546   7.032  67.357  1.00  0.00    -0.302 C  
HETATM   16  C   UNL     1     -10.520   7.233  68.829  1.00  0.00    -0.214 C  
HETATM   17  O   UNL     1     -11.142   6.122  66.800  1.00  0.00    -0.322 OA 
HETATM   18  C   UNL     1      -9.423   8.979  70.335  1.00  0.00    -0.247 C  
HETATM   19  C   UNL     1      -9.803   8.354  69.041  1.00  0.00    -0.184 C  
BRANCH  16  20
HETATM   20  C   UNL     1     -11.341   6.378  69.726  1.00  0.00    -0.494 C  
BRANCH  20  21
HETATM   21  C   UNL     1     -10.516   5.403  70.501  1.00  0.00    -0.335 C  
HETATM   22  C   UNL     1     -10.442   5.391  71.841  1.00  0.00    -0.283 C  
ENDBRANCH  20  21
ENDBRANCH  16  20
ENDBRANCH  12  13
ENDBRANCH  10  12
ENDBRANCH   6  10
ENDBRANCH   3   5
TORSDOF 6
ENDMDL
MODEL       50
REMARK 921   NORMALIZED FREE ENERGY PREDICTED BY IDOCK:   -4.96 KCAL/MOL
REMARK 922        TOTAL FREE ENERGY PREDICTED BY IDOCK:   -8.22 KCAL/MOL
REMARK 923 INTER-LIGAND FREE ENERGY PREDICTED BY IDOCK:   -6.94 KCAL/MOL
REMARK 924 INTRA-LIGAND FREE ENERGY PREDICTED BY IDOCK:   -1.28 KCAL/MOL
REMARK 927      BINDING AFFINITY PREDICTED BY RF-SCORE:    0.00 PKD
ROOT
HETATM    1  C   UNL     1     -10.412   9.480  70.531  1.00  0.00    -0.358 C  
HETATM    2  C   UNL     1     -11.617  10.346  70.290  1.00  0.00    -0.410 C  
HETATM    3  C   UNL     1     -11.612  11.356  69.398  1.00  0.00    -0.391 C  
HETATM    4  C   UNL     1     -12.866  10.031  71.061  1.00  0.00    -0.455 C  
ENDROOT
BRANCH   3   5
HETATM    5  C   UNL     1     -10.510  11.746  68.517  1.00  0.00    -0.233 C  
HETATM    6  C   UNL     1     -10.072  13.197  68.419  1.00  0.00    -0.231 C  
HETATM    7  C   UNL     1     -10.756  12.521  67.236  1.00  0.00    -0.259 C  
HETATM    8  C   UNL     1     -12.132  13.029  66.884  1.00  0.00    -0.349 C  
HETATM    9  C   UNL     1      -9.959  12.088  66.025  1.00  0.00    -0.258 C  
BRANCH   6  10
HETATM   10  C   UNL     1      -8.619  13.475  68.435  1.00  0.00    -0.142 C  
HETATM   11  O   UNL     1      -7.817  12.576  68.615  1.00  0.00    -0.120 OA 
BRANCH  10  12
HETATM   12  O   UNL     1      -8.315  14.791  68.244  1.00  0.00    -0.136 OA 
BRANCH  12  13
HETATM   13  C   UNL     1      -9.188  15.598  67.408  1.00  0.00    -0.198 C  
HETATM   14  C   UNL     1      -8.551  15.992  66.081  1.00  0.00    -0.315 C  
HETATM   15  C   UNL     1      -8.206  17.428  66.339  1.00  0.00    -0.271 C  
HETATM   16  C   UNL     1      -8.907  17.948  67.541  1.00  0.00    -0.248 C  
HETATM   17  O   UNL     1      -7.493  18.107  65.614  1.00  0.00    -0.535 OA 
HETATM   18  C   UNL     1     -10.440  16.867  69.273  1.00  0.00    -0.319 C  
HETATM   19  C   UNL     1      -9.546  16.894  68.085  1.00  0.00    -0.255 C  
BRANCH  16  20
HETATM   20  C   UNL     1      -8.678  19.340  68.011  1.00  0.00    -0.357 C  
BRANCH  20  21
HETATM   21  C   UNL     1      -9.698  20.297  67.486  1.00  0.00    -0.575 C  
HETATM   22  C   UNL     1     -10.513  20.024  66.455  1.00  0.00    -0.525 C  
ENDBRANCH  20  21
ENDBRANCH  16  20
ENDBRANCH  12  13
ENDBRANCH  10  12
ENDBRANCH   6  10
ENDBRANCH   3   5
TORSDOF 6
ENDMDL
MODEL       51
REMARK 921   NORMALIZED FREE ENERGY PREDICTED BY IDOCK:   -4.96 KCAL/MOL
REMARK 922        TOTAL FREE ENERGY PREDICTED BY IDOCK:   -8.22 KCAL/MOL
REMARK 923 INTER-LIGAND FREE ENERGY PREDICTED BY IDOCK:   -6.85 KCAL/MOL
REMARK 924 INTRA-LIGAND FREE ENERGY PREDICTED BY IDOCK:   -1.37 KCAL/MOL
REMARK 927      BINDING AFFINITY PREDICTED BY RF-SCORE:    0.00 PKD
ROOT
HETATM    1  C   UNL     1     -11.853  15.686  69.363  1.00  0.00    -0.391 C  
HETATM    2  C   UNL     1     -10.820  16.299  68.460  1.00  0.00    -0.330 C  
HETATM    3  C   UNL     1     -10.400  15.696  67.331  1.00  0.00    -0.275 C  
HETATM    4  C   UNL     1     -10.277  17.647  68.837  1.00  0.00    -0.354 C  
ENDROOT
BRANCH   3   5
HETATM    5  C   UNL     1     -10.877  14.426  66.782  1.00  0.00    -0.301 C  
HETATM    6  C   UNL     1     -10.110  13.722  65.675  1.00  0.00    -0.315 C  
HETATM    7  C   UNL     1     -11.476  14.339  65.390  1.00  0.00    -0.332 C  
HETATM    8  C   UNL     1     -11.487  15.533  64.470  1.00  0.00    -0.311 C  
HETATM    9  C   UNL     1     -12.703  13.467  65.240  1.00  0.00    -0.481 C  
BRANCH   6  10
HETATM   10  C   UNL     1      -9.918  12.260  65.800  1.00  0.00    -0.254 C  
HETATM   11  O   UNL     1      -9.704  11.577  64.814  1.00  0.00    -0.239 OA 
BRANCH  10  12
HETATM   12  O   UNL     1     -10.017  11.807  67.082  1.00  0.00    -0.200 OA 
BRANCH  12  13
HETATM   13  C   UNL     1     -11.140  10.955  67.439  1.00  0.00    -0.307 C  
HETATM   14  C   UNL     1     -11.900  11.451  68.664  1.00  0.00    -0.377 C  
HETATM   15  C   UNL     1     -11.415  10.496  69.714  1.00  0.00    -0.294 C  
HETATM   16  C   UNL     1     -10.740   9.319  69.107  1.00  0.00    -0.202 C  
HETATM   17  O   UNL     1     -11.609  10.632  70.913  1.00  0.00    -0.320 OA 
HETATM   18  C   UNL     1     -10.153   8.688  66.704  1.00  0.00    -0.364 C  
HETATM   19  C   UNL     1     -10.681   9.563  67.784  1.00  0.00    -0.302 C  
BRANCH  16  20
HETATM   20  C   UNL     1     -10.139   8.264  69.966  1.00  0.00    -0.196 C  
BRANCH  20  21
HETATM   21  C   UNL     1     -11.011   7.057  70.083  1.00  0.00    -0.306 C  
HETATM   22  C   UNL     1     -11.699   6.741  71.191  1.00  0.00    -0.394 C  
ENDBRANCH  20  21
ENDBRANCH  16  20
ENDBRANCH  12  13
ENDBRANCH  10  12
ENDBRANCH   6  10
ENDBRANCH   3   5
TORSDOF 6
ENDMDL
MODEL       52
REMARK 921   NORMALIZED FREE ENERGY PREDICTED BY IDOCK:   -4.95 KCAL/MOL
REMARK 922        TOTAL FREE ENERGY PREDICTED BY IDOCK:   -8.20 KCAL/MOL
REMARK 923 INTER-LIGAND FREE ENERGY PREDICTED BY IDOCK:   -7.10 KCAL/MOL
REMARK 924 INTRA-LIGAND FREE ENERGY PREDICTED BY IDOCK:   -1.10 KCAL/MOL
REMARK 927      BINDING AFFINITY PREDICTED BY RF-SCORE:    0.00 PKD
ROOT
HETATM    1  C   UNL     1      -9.936   3.722  71.982  1.00  0.00    -0.238 C  
HETATM    2  C   UNL     1      -9.785   4.182  70.560  1.00  0.00    -0.270 C  
HETATM    3  C   UNL     1     -10.044   5.448  70.180  1.00  0.00    -0.322 C  
HETATM    4  C   UNL     1      -9.295   3.182  69.553  1.00  0.00    -0.228 C  
ENDROOT
BRANCH   3   5
HETATM    5  C   UNL     1     -10.455   6.559  71.042  1.00  0.00    -0.260 C  
HETATM    6  C   UNL     1     -10.270   7.998  70.592  1.00  0.00    -0.205 C  
HETATM    7  C   UNL     1      -9.434   7.439  71.739  1.00  0.00    -0.166 C  
HETATM    8  C   UNL     1      -7.958   7.285  71.472  1.00  0.00    -0.100 C  
HETATM    9  C   UNL     1      -9.738   7.814  73.173  1.00  0.00    -0.347 C  
BRANCH   6  10
HETATM   10  C   UNL     1     -11.393   8.934  70.820  1.00  0.00    -0.278 C  
HETATM   11  O   UNL     1     -12.451   8.535  71.273  1.00  0.00    -0.305 OA 
BRANCH  10  12
HETATM   12  O   UNL     1     -11.109  10.220  70.467  1.00  0.00    -0.302 OA 
BRANCH  12  13
HETATM   13  C   UNL     1     -12.159  11.035  69.879  1.00  0.00    -0.361 C  
HETATM   14  C   UNL     1     -11.717  11.758  68.613  1.00  0.00    -0.389 C  
HETATM   15  C   UNL     1     -11.533  13.156  69.125  1.00  0.00    -0.305 C  
HETATM   16  C   UNL     1     -12.167  13.334  70.457  1.00  0.00    -0.416 C  
HETATM   17  O   UNL     1     -10.991  14.054  68.498  1.00  0.00    -0.239 OA 
HETATM   18  C   UNL     1     -13.363  11.736  72.051  1.00  0.00    -0.417 C  
HETATM   19  C   UNL     1     -12.607  12.115  70.827  1.00  0.00    -0.305 C  
BRANCH  16  20
HETATM   20  C   UNL     1     -12.069  14.632  71.176  1.00  0.00    -0.403 C  
BRANCH  20  21
HETATM   21  C   UNL     1     -13.353  15.394  71.158  1.00  0.00    -0.580 C  
HETATM   22  C   UNL     1     -14.239  15.385  72.166  1.00  0.00    -0.660 C  
ENDBRANCH  20  21
ENDBRANCH  16  20
ENDBRANCH  12  13
ENDBRANCH  10  12
ENDBRANCH   6  10
ENDBRANCH   3   5
TORSDOF 6
ENDMDL
MODEL       53
REMARK 921   NORMALIZED FREE ENERGY PREDICTED BY IDOCK:   -4.95 KCAL/MOL
REMARK 922        TOTAL FREE ENERGY PREDICTED BY IDOCK:   -8.20 KCAL/MOL
REMARK 923 INTER-LIGAND FREE ENERGY PREDICTED BY IDOCK:   -6.56 KCAL/MOL
REMARK 924 INTRA-LIGAND FREE ENERGY PREDICTED BY IDOCK:   -1.64 KCAL/MOL
REMARK 927      BINDING AFFINITY PREDICTED BY RF-SCORE:    0.00 PKD
ROOT
HETATM    1  C   UNL     1      -9.357   9.353  70.276  1.00  0.00    -0.294 C  
HETATM    2  C   UNL     1     -10.002   8.378  69.332  1.00  0.00    -0.191 C  
HETATM    3  C   UNL     1     -10.076   8.600  68.005  1.00  0.00    -0.241 C  
HETATM    4  C   UNL     1     -10.546   7.104  69.911  1.00  0.00    -0.246 C  
ENDROOT
BRANCH   3   5
HETATM    5  C   UNL     1      -9.533   9.747  67.274  1.00  0.00    -0.183 C  
HETATM    6  C   UNL     1     -10.116  10.156  65.932  1.00  0.00    -0.325 C  
HETATM    7  C   UNL     1      -8.712   9.564  66.011  1.00  0.00    -0.166 C  
HETATM    8  C   UNL     1      -8.529   8.203  65.390  1.00  0.00    -0.164 C  
HETATM    9  C   UNL     1      -7.491  10.446  65.871  1.00  0.00    -0.139 C  
BRANCH   6  10
HETATM   10  C   UNL     1     -10.349  11.599  65.699  1.00  0.00    -0.262 C  
HETATM   11  O   UNL     1     -10.404  12.044  64.566  1.00  0.00    -0.271 OA 
BRANCH  10  12
HETATM   12  O   UNL     1     -10.476  12.321  66.849  1.00  0.00    -0.215 OA 
BRANCH  12  13
HETATM   13  C   UNL     1     -11.785  12.834  67.215  1.00  0.00    -0.378 C  
HETATM   14  C   UNL     1     -11.961  14.312  66.890  1.00  0.00    -0.467 C  
HETATM   15  C   UNL     1     -11.831  14.927  68.252  1.00  0.00    -0.278 C  
HETATM   16  C   UNL     1     -11.953  13.905  69.323  1.00  0.00    -0.402 C  
HETATM   17  O   UNL     1     -11.710  16.126  68.459  1.00  0.00    -0.348 OA 
HETATM   18  C   UNL     1     -12.207  11.364  69.293  1.00  0.00    -0.271 C  
HETATM   19  C   UNL     1     -12.024  12.714  68.697  1.00  0.00    -0.264 C  
BRANCH  16  20
HETATM   20  C   UNL     1     -11.810  14.284  70.754  1.00  0.00    -0.336 C  
BRANCH  20  21
HETATM   21  C   UNL     1     -13.121  14.327  71.468  1.00  0.00    -0.413 C  
HETATM   22  C   UNL     1     -13.567  13.343  72.265  1.00  0.00    -0.703 C  
ENDBRANCH  20  21
ENDBRANCH  16  20
ENDBRANCH  12  13
ENDBRANCH  10  12
ENDBRANCH   6  10
ENDBRANCH   3   5
TORSDOF 6
ENDMDL
MODEL       54
REMARK 921   NORMALIZED FREE ENERGY PREDICTED BY IDOCK:   -4.92 KCAL/MOL
REMARK 922        TOTAL FREE ENERGY PREDICTED BY IDOCK:   -8.17 KCAL/MOL
REMARK 923 INTER-LIGAND FREE ENERGY PREDICTED BY IDOCK:   -6.76 KCAL/MOL
REMARK 924 INTRA-LIGAND FREE ENERGY PREDICTED BY IDOCK:   -1.41 KCAL/MOL
REMARK 927      BINDING AFFINITY PREDICTED BY RF-SCORE:    0.00 PKD
ROOT
HETATM    1  C   UNL     1     -12.778  13.774  65.358  1.00  0.00    -0.513 C  
HETATM    2  C   UNL     1     -12.041  12.628  64.721  1.00  0.00    -0.495 C  
HETATM    3  C   UNL     1     -10.955  12.066  65.286  1.00  0.00    -0.356 C  
HETATM    4  C   UNL     1     -12.576  12.091  63.425  1.00  0.00    -0.592 C  
ENDROOT
BRANCH   3   5
HETATM    5  C   UNL     1     -10.352  12.417  66.573  1.00  0.00    -0.248 C  
HETATM    6  C   UNL     1      -8.924  12.010  66.896  1.00  0.00    -0.199 C  
HETATM    7  C   UNL     1     -10.092  11.367  67.638  1.00  0.00    -0.200 C  
HETATM    8  C   UNL     1     -10.328   9.903  67.365  1.00  0.00    -0.301 C  
HETATM    9  C   UNL     1     -10.415  11.761  69.062  1.00  0.00    -0.131 C  
BRANCH   6  10
HETATM   10  C   UNL     1      -8.052  13.024  67.530  1.00  0.00    -0.179 C  
HETATM   11  O   UNL     1      -7.337  12.726  68.471  1.00  0.00    -0.107 OA 
BRANCH  10  12
HETATM   12  O   UNL     1      -8.157  14.260  66.965  1.00  0.00    -0.162 OA 
BRANCH  12  13
HETATM   13  C   UNL     1      -8.347  15.413  67.830  1.00  0.00    -0.147 C  
HETATM   14  C   UNL     1      -9.595  15.310  68.698  1.00  0.00    -0.206 C  
HETATM   15  C   UNL     1     -10.523  16.249  67.986  1.00  0.00    -0.293 C  
HETATM   16  C   UNL     1      -9.790  17.114  67.027  1.00  0.00    -0.276 C  
HETATM   17  O   UNL     1     -11.721  16.341  68.215  1.00  0.00    -0.238 OA 
HETATM   18  C   UNL     1      -7.349  17.222  66.285  1.00  0.00    -0.342 C  
HETATM   19  C   UNL     1      -8.516  16.676  67.027  1.00  0.00    -0.225 C  
BRANCH  16  20
HETATM   20  C   UNL     1     -10.519  18.092  66.177  1.00  0.00    -0.377 C  
BRANCH  20  21
HETATM   21  C   UNL     1     -10.441  19.485  66.712  1.00  0.00    -0.590 C  
HETATM   22  C   UNL     1     -10.256  19.774  68.009  1.00  0.00    -0.581 C  
ENDBRANCH  20  21
ENDBRANCH  16  20
ENDBRANCH  12  13
ENDBRANCH  10  12
ENDBRANCH   6  10
ENDBRANCH   3   5
TORSDOF 6
ENDMDL
MODEL       55
REMARK 921   NORMALIZED FREE ENERGY PREDICTED BY IDOCK:   -4.92 KCAL/MOL
REMARK 922        TOTAL FREE ENERGY PREDICTED BY IDOCK:   -8.17 KCAL/MOL
REMARK 923 INTER-LIGAND FREE ENERGY PREDICTED BY IDOCK:   -7.26 KCAL/MOL
REMARK 924 INTRA-LIGAND FREE ENERGY PREDICTED BY IDOCK:   -0.91 KCAL/MOL
REMARK 927      BINDING AFFINITY PREDICTED BY RF-SCORE:    0.00 PKD
ROOT
HETATM    1  C   UNL     1      -9.460  10.345  62.715  1.00  0.00    -0.351 C  
HETATM    2  C   UNL     1      -8.312  10.105  63.655  1.00  0.00    -0.170 C  
HETATM    3  C   UNL     1      -8.489   9.922  64.978  1.00  0.00    -0.161 C  
HETATM    4  C   UNL     1      -6.932  10.039  63.066  1.00  0.00    -0.130 C  
ENDROOT
BRANCH   3   5
HETATM    5  C   UNL     1      -9.763   9.883  65.697  1.00  0.00    -0.346 C  
HETATM    6  C   UNL     1     -10.056  10.874  66.811  1.00  0.00    -0.259 C  
HETATM    7  C   UNL     1      -9.848   9.398  67.133  1.00  0.00    -0.242 C  
HETATM    8  C   UNL     1      -8.604   9.057  67.915  1.00  0.00    -0.125 C  
HETATM    9  C   UNL     1     -11.022   8.506  67.473  1.00  0.00     0.095 C  
BRANCH   6  10
HETATM   10  C   UNL     1     -11.395  11.502  66.832  1.00  0.00    -0.253 C  
HETATM   11  O   UNL     1     -11.817  12.095  65.855  1.00  0.00    -0.504 OA 
BRANCH  10  12
HETATM   12  O   UNL     1     -12.049  11.350  68.019  1.00  0.00    -0.629 OA 
BRANCH  12  13
HETATM   13  C   UNL     1     -11.359  11.700  69.249  1.00  0.00    -0.290 C  
HETATM   14  C   UNL     1     -11.587  10.694  70.371  1.00  0.00    -0.441 C  
HETATM   15  C   UNL     1     -12.566  11.435  71.232  1.00  0.00    -0.374 C  
HETATM   16  C   UNL     1     -12.622  12.876  70.875  1.00  0.00    -0.355 C  
HETATM   17  O   UNL     1     -13.190  10.933  72.156  1.00  0.00    -0.474 OA 
HETATM   18  C   UNL     1     -11.500  14.268  69.051  1.00  0.00    -0.318 C  
HETATM   19  C   UNL     1     -11.840  13.022  69.787  1.00  0.00    -0.381 C  
BRANCH  16  20
HETATM   20  C   UNL     1     -13.561  13.795  71.571  1.00  0.00    -0.323 C  
BRANCH  20  21
HETATM   21  C   UNL     1     -12.913  14.525  72.702  1.00  0.00    -0.538 C  
HETATM   22  C   UNL     1     -13.328  15.720  73.150  1.00  0.00    -0.685 C  
ENDBRANCH  20  21
ENDBRANCH  16  20
ENDBRANCH  12  13
ENDBRANCH  10  12
ENDBRANCH   6  10
ENDBRANCH   3   5
TORSDOF 6
ENDMDL
MODEL       56
REMARK 921   NORMALIZED FREE ENERGY PREDICTED BY IDOCK:   -4.92 KCAL/MOL
REMARK 922        TOTAL FREE ENERGY PREDICTED BY IDOCK:   -8.16 KCAL/MOL
REMARK 923 INTER-LIGAND FREE ENERGY PREDICTED BY IDOCK:   -6.92 KCAL/MOL
REMARK 924 INTRA-LIGAND FREE ENERGY PREDICTED BY IDOCK:   -1.25 KCAL/MOL
REMARK 927      BINDING AFFINITY PREDICTED BY RF-SCORE:    0.00 PKD
ROOT
HETATM    1  C   UNL     1     -10.381  17.023  66.422  1.00  0.00    -0.304 C  
HETATM    2  C   UNL     1      -9.219  16.083  66.575  1.00  0.00    -0.307 C  
HETATM    3  C   UNL     1      -9.381  14.770  66.830  1.00  0.00    -0.268 C  
HETATM    4  C   UNL     1      -7.839  16.648  66.399  1.00  0.00    -0.347 C  
ENDROOT
BRANCH   3   5
HETATM    5  C   UNL     1     -10.649  14.049  66.955  1.00  0.00    -0.280 C  
HETATM    6  C   UNL     1     -10.682  12.530  66.928  1.00  0.00    -0.268 C  
HETATM    7  C   UNL     1     -11.272  13.331  65.772  1.00  0.00    -0.313 C  
HETATM    8  C   UNL     1     -10.547  13.227  64.453  1.00  0.00    -0.438 C  
HETATM    9  C   UNL     1     -12.769  13.473  65.612  1.00  0.00    -0.478 C  
BRANCH   6  10
HETATM   10  C   UNL     1     -11.534  11.848  67.927  1.00  0.00    -0.316 C  
HETATM   11  O   UNL     1     -12.043  12.475  68.840  1.00  0.00    -0.264 OA 
BRANCH  10  12
HETATM   12  O   UNL     1     -11.657  10.507  67.712  1.00  0.00    -0.462 OA 
BRANCH  12  13
HETATM   13  C   UNL     1     -10.495   9.656  67.906  1.00  0.00    -0.246 C  
HETATM   14  C   UNL     1     -10.263   8.687  66.752  1.00  0.00    -0.361 C  
HETATM   15  C   UNL     1     -10.751   7.401  67.351  1.00  0.00    -0.278 C  
HETATM   16  C   UNL     1     -10.895   7.508  68.826  1.00  0.00    -0.047 C  
HETATM   17  O   UNL     1     -10.940   6.374  66.716  1.00  0.00    -0.353 OA 
HETATM   18  C   UNL     1     -10.603   9.437  70.474  1.00  0.00    -0.331 C  
HETATM   19  C   UNL     1     -10.646   8.797  69.132  1.00  0.00    -0.200 C  
BRANCH  16  20
HETATM   20  C   UNL     1     -11.409   6.363  69.623  1.00  0.00    -0.479 C  
BRANCH  20  21
HETATM   21  C   UNL     1     -10.318   5.459  70.094  1.00  0.00    -0.361 C  
HETATM   22  C   UNL     1      -9.700   5.592  71.278  1.00  0.00    -0.215 C  
ENDBRANCH  20  21
ENDBRANCH  16  20
ENDBRANCH  12  13
ENDBRANCH  10  12
ENDBRANCH   6  10
ENDBRANCH   3   5
TORSDOF 6
ENDMDL
MODEL       57
REMARK 921   NORMALIZED FREE ENERGY PREDICTED BY IDOCK:   -4.91 KCAL/MOL
REMARK 922        TOTAL FREE ENERGY PREDICTED BY IDOCK:   -8.15 KCAL/MOL
REMARK 923 INTER-LIGAND FREE ENERGY PREDICTED BY IDOCK:   -6.59 KCAL/MOL
REMARK 924 INTRA-LIGAND FREE ENERGY PREDICTED BY IDOCK:   -1.56 KCAL/MOL
REMARK 927      BINDING AFFINITY PREDICTED BY RF-SCORE:    0.00 PKD
ROOT
HETATM    1  C   UNL     1      -7.314  14.001  68.340  1.00  0.00    -0.113 C  
HETATM    2  C   UNL     1      -6.807  12.783  67.620  1.00  0.00    -0.147 C  
HETATM    3  C   UNL     1      -7.628  11.935  66.971  1.00  0.00    -0.134 C  
HETATM    4  C   UNL     1      -5.325  12.545  67.614  1.00  0.00    -0.111 C  
ENDROOT
BRANCH   3   5
HETATM    5  C   UNL     1      -9.078  12.059  66.817  1.00  0.00    -0.197 C  
HETATM    6  C   UNL     1     -10.022  11.189  67.630  1.00  0.00    -0.195 C  
HETATM    7  C   UNL     1      -9.897  10.985  66.124  1.00  0.00    -0.268 C  
HETATM    8  C   UNL     1      -9.266   9.690  65.678  1.00  0.00    -0.270 C  
HETATM    9  C   UNL     1     -10.980  11.468  65.184  1.00  0.00    -0.298 C  
BRANCH   6  10
HETATM   10  C   UNL     1     -11.200  11.844  68.240  1.00  0.00    -0.261 C  
HETATM   11  O   UNL     1     -12.278  11.276  68.273  1.00  0.00    -0.611 OA 
BRANCH  10  12
HETATM   12  O   UNL     1     -10.940  13.094  68.719  1.00  0.00    -0.251 OA 
BRANCH  12  13
HETATM   13  C   UNL     1     -11.752  14.206  68.253  1.00  0.00    -0.348 C  
HETATM   14  C   UNL     1     -12.149  14.084  66.786  1.00  0.00    -0.480 C  
HETATM   15  C   UNL     1     -11.219  15.074  66.150  1.00  0.00    -0.307 C  
HETATM   16  C   UNL     1     -10.604  15.971  67.162  1.00  0.00    -0.305 C  
HETATM   17  O   UNL     1     -11.041  15.176  64.944  1.00  0.00    -0.389 OA 
HETATM   18  C   UNL     1     -10.723  16.069  69.711  1.00  0.00    -0.331 C  
HETATM   19  C   UNL     1     -11.006  15.510  68.363  1.00  0.00    -0.297 C  
BRANCH  16  20
HETATM   20  C   UNL     1      -9.613  17.003  66.759  1.00  0.00    -0.274 C  
BRANCH  20  21
HETATM   21  C   UNL     1     -10.253  18.305  66.404  1.00  0.00    -0.417 C  
HETATM   22  C   UNL     1     -10.779  19.146  67.307  1.00  0.00    -0.585 C  
ENDBRANCH  20  21
ENDBRANCH  16  20
ENDBRANCH  12  13
ENDBRANCH  10  12
ENDBRANCH   6  10
ENDBRANCH   3   5
TORSDOF 6
ENDMDL
MODEL       58
REMARK 921   NORMALIZED FREE ENERGY PREDICTED BY IDOCK:   -4.86 KCAL/MOL
REMARK 922        TOTAL FREE ENERGY PREDICTED BY IDOCK:   -8.09 KCAL/MOL
REMARK 923 INTER-LIGAND FREE ENERGY PREDICTED BY IDOCK:   -7.42 KCAL/MOL
REMARK 924 INTRA-LIGAND FREE ENERGY PREDICTED BY IDOCK:   -0.67 KCAL/MOL
REMARK 927      BINDING AFFINITY PREDICTED BY RF-SCORE:    0.00 PKD
ROOT
HETATM    1  C   UNL     1     -10.308  16.913  67.334  1.00  0.00    -0.309 C  
HETATM    2  C   UNL     1      -9.305  16.133  66.531  1.00  0.00    -0.296 C  
HETATM    3  C   UNL     1      -9.501  14.845  66.186  1.00  0.00    -0.328 C  
HETATM    4  C   UNL     1      -8.063  16.848  66.084  1.00  0.00    -0.295 C  
ENDROOT
BRANCH   3   5
HETATM    5  C   UNL     1     -10.681  14.028  66.474  1.00  0.00    -0.281 C  
HETATM    6  C   UNL     1     -10.537  12.559  66.833  1.00  0.00    -0.255 C  
HETATM    7  C   UNL     1     -11.165  12.965  65.504  1.00  0.00    -0.319 C  
HETATM    8  C   UNL     1     -10.377  12.624  64.265  1.00  0.00    -0.399 C  
HETATM    9  C   UNL     1     -12.661  12.878  65.295  1.00  0.00    -0.502 C  
BRANCH   6  10
HETATM   10  C   UNL     1     -11.347  12.049  67.962  1.00  0.00    -0.296 C  
HETATM   11  O   UNL     1     -12.063  11.073  67.822  1.00  0.00    -0.534 OA 
BRANCH  10  12
HETATM   12  O   UNL     1     -11.204  12.778  69.106  1.00  0.00    -0.256 OA 
BRANCH  12  13
HETATM   13  C   UNL     1     -12.313  13.605  69.553  1.00  0.00    -0.182 C  
HETATM   14  C   UNL     1     -12.106  15.088  69.271  1.00  0.00    -0.282 C  
HETATM   15  C   UNL     1     -11.754  15.598  70.637  1.00  0.00    -0.369 C  
HETATM   16  C   UNL     1     -12.093  14.607  71.691  1.00  0.00    -0.404 C  
HETATM   17  O   UNL     1     -11.309  16.714  70.863  1.00  0.00    -0.226 OA 
HETATM   18  C   UNL     1     -13.012  12.225  71.618  1.00  0.00    -0.416 C  
HETATM   19  C   UNL     1     -12.506  13.500  71.043  1.00  0.00    -0.451 C  
BRANCH  16  20
HETATM   20  C   UNL     1     -11.788  14.884  73.119  1.00  0.00    -0.273 C  
BRANCH  20  21
HETATM   21  C   UNL     1     -12.784  15.802  73.749  1.00  0.00    -0.736 C  
HETATM   22  C   UNL     1     -14.006  16.031  73.246  1.00  0.00    -0.012 C  
ENDBRANCH  20  21
ENDBRANCH  16  20
ENDBRANCH  12  13
ENDBRANCH  10  12
ENDBRANCH   6  10
ENDBRANCH   3   5
TORSDOF 6
ENDMDL
MODEL       59
REMARK 921   NORMALIZED FREE ENERGY PREDICTED BY IDOCK:   -4.85 KCAL/MOL
REMARK 922        TOTAL FREE ENERGY PREDICTED BY IDOCK:   -8.07 KCAL/MOL
REMARK 923 INTER-LIGAND FREE ENERGY PREDICTED BY IDOCK:   -6.93 KCAL/MOL
REMARK 924 INTRA-LIGAND FREE ENERGY PREDICTED BY IDOCK:   -1.14 KCAL/MOL
REMARK 927      BINDING AFFINITY PREDICTED BY RF-SCORE:    0.00 PKD
ROOT
HETATM    1  C   UNL     1     -13.051  11.318  71.697  1.00  0.00    -0.513 C  
HETATM    2  C   UNL     1     -12.878   9.825  71.725  1.00  0.00    -0.530 C  
HETATM    3  C   UNL     1     -11.824   9.211  71.155  1.00  0.00    -0.374 C  
HETATM    4  C   UNL     1     -13.918   9.018  72.447  1.00  0.00    -0.517 C  
ENDROOT
BRANCH   3   5
HETATM    5  C   UNL     1     -10.692   9.850  70.482  1.00  0.00    -0.382 C  
HETATM    6  C   UNL     1     -10.498   9.701  68.982  1.00  0.00    -0.229 C  
HETATM    7  C   UNL     1      -9.524   9.038  69.951  1.00  0.00    -0.186 C  
HETATM    8  C   UNL     1      -9.543   7.531  69.985  1.00  0.00    -0.164 C  
HETATM    9  C   UNL     1      -8.145   9.616  70.180  1.00  0.00    -0.205 C  
BRANCH   6  10
HETATM   10  C   UNL     1     -10.140  10.915  68.216  1.00  0.00    -0.174 C  
HETATM   11  O   UNL     1      -9.593  10.825  67.131  1.00  0.00    -0.159 OA 
BRANCH  10  12
HETATM   12  O   UNL     1     -10.472  12.076  68.850  1.00  0.00    -0.202 OA 
BRANCH  12  13
HETATM   13  C   UNL     1     -11.697  12.758  68.467  1.00  0.00    -0.333 C  
HETATM   14  C   UNL     1     -11.879  12.860  66.957  1.00  0.00    -0.437 C  
HETATM   15  C   UNL     1     -11.528  14.298  66.718  1.00  0.00    -0.367 C  
HETATM   16  C   UNL     1     -11.516  15.072  67.986  1.00  0.00    -0.357 C  
HETATM   17  O   UNL     1     -11.344  14.789  65.614  1.00  0.00    -0.342 OA 
HETATM   18  C   UNL     1     -11.842  14.421  70.434  1.00  0.00    -0.381 C  
HETATM   19  C   UNL     1     -11.713  14.176  68.973  1.00  0.00    -0.361 C  
BRANCH  16  20
HETATM   20  C   UNL     1     -11.149  16.513  67.992  1.00  0.00    -0.275 C  
BRANCH  20  21
HETATM   21  C   UNL     1      -9.670  16.727  67.964  1.00  0.00    -0.243 C  
HETATM   22  C   UNL     1      -8.881  16.607  69.042  1.00  0.00    -0.201 C  
ENDBRANCH  20  21
ENDBRANCH  16  20
ENDBRANCH  12  13
ENDBRANCH  10  12
ENDBRANCH   6  10
ENDBRANCH   3   5
TORSDOF 6
ENDMDL
MODEL       60
REMARK 921   NORMALIZED FREE ENERGY PREDICTED BY IDOCK:   -4.84 KCAL/MOL
REMARK 922        TOTAL FREE ENERGY PREDICTED BY IDOCK:   -8.06 KCAL/MOL
REMARK 923 INTER-LIGAND FREE ENERGY PREDICTED BY IDOCK:   -7.27 KCAL/MOL
REMARK 924 INTRA-LIGAND FREE ENERGY PREDICTED BY IDOCK:   -0.79 KCAL/MOL
REMARK 927      BINDING AFFINITY PREDICTED BY RF-SCORE:    0.00 PKD
ROOT
HETATM    1  C   UNL     1      -7.900  10.171  65.443  1.00  0.00    -0.142 C  
HETATM    2  C   UNL     1      -8.739  10.182  64.196  1.00  0.00    -0.216 C  
HETATM    3  C   UNL     1      -9.639  11.151  63.941  1.00  0.00    -0.286 C  
HETATM    4  C   UNL     1      -8.522   9.079  63.202  1.00  0.00    -0.185 C  
ENDROOT
BRANCH   3   5
HETATM    5  C   UNL     1      -9.919  12.330  64.764  1.00  0.00    -0.215 C  
HETATM    6  C   UNL     1     -10.715  12.205  66.052  1.00  0.00    -0.308 C  
HETATM    7  C   UNL     1     -11.313  12.924  64.847  1.00  0.00    -0.340 C  
HETATM    8  C   UNL     1     -12.489  12.250  64.187  1.00  0.00    -0.530 C  
HETATM    9  C   UNL     1     -11.403  14.434  64.813  1.00  0.00    -0.388 C  
BRANCH   6  10
HETATM   10  C   UNL     1     -10.215  12.937  67.237  1.00  0.00    -0.234 C  
HETATM   11  O   UNL     1      -9.250  13.675  67.149  1.00  0.00    -0.224 OA 
BRANCH  10  12
HETATM   12  O   UNL     1     -10.926  12.683  68.372  1.00  0.00    -0.233 OA 
BRANCH  12  13
HETATM   13  C   UNL     1     -11.997  13.591  68.747  1.00  0.00    -0.339 C  
HETATM   14  C   UNL     1     -11.812  14.998  68.191  1.00  0.00    -0.286 C  
HETATM   15  C   UNL     1     -11.357  15.737  69.414  1.00  0.00    -0.348 C  
HETATM   16  C   UNL     1     -11.615  14.953  70.650  1.00  0.00    -0.341 C  
HETATM   17  O   UNL     1     -10.896  16.869  69.404  1.00  0.00    -0.308 OA 
HETATM   18  C   UNL     1     -12.538  12.610  71.071  1.00  0.00    -0.354 C  
HETATM   19  C   UNL     1     -12.076  13.754  70.242  1.00  0.00    -0.425 C  
BRANCH  16  20
HETATM   20  C   UNL     1     -11.202  15.475  71.979  1.00  0.00    -0.337 C  
BRANCH  20  21
HETATM   21  C   UNL     1     -12.362  15.946  72.794  1.00  0.00    -0.580 C  
HETATM   22  C   UNL     1     -12.727  15.392  73.960  1.00  0.00    -0.652 C  
ENDBRANCH  20  21
ENDBRANCH  16  20
ENDBRANCH  12  13
ENDBRANCH  10  12
ENDBRANCH   6  10
ENDBRANCH   3   5
TORSDOF 6
ENDMDL
MODEL       61
REMARK 921   NORMALIZED FREE ENERGY PREDICTED BY IDOCK:   -4.84 KCAL/MOL
REMARK 922        TOTAL FREE ENERGY PREDICTED BY IDOCK:   -8.06 KCAL/MOL
REMARK 923 INTER-LIGAND FREE ENERGY PREDICTED BY IDOCK:   -6.87 KCAL/MOL
REMARK 924 INTRA-LIGAND FREE ENERGY PREDICTED BY IDOCK:   -1.19 KCAL/MOL
REMARK 927      BINDING AFFINITY PREDICTED BY RF-SCORE:    0.00 PKD
ROOT
HETATM    1  C   UNL     1     -12.920  10.598  71.387  1.00  0.00    -0.545 C  
HETATM    2  C   UNL     1     -13.041   9.166  71.827  1.00  0.00    -0.456 C  
HETATM    3  C   UNL     1     -11.989   8.325  71.844  1.00  0.00    -0.383 C  
HETATM    4  C   UNL     1     -14.389   8.692  72.288  1.00  0.00    -0.486 C  
ENDROOT
BRANCH   3   5
HETATM    5  C   UNL     1     -10.602   8.644  71.500  1.00  0.00    -0.352 C  
HETATM    6  C   UNL     1      -9.850   7.818  70.470  1.00  0.00    -0.182 C  
HETATM    7  C   UNL     1      -9.453   7.757  71.941  1.00  0.00    -0.197 C  
HETATM    8  C   UNL     1      -9.703   6.447  72.644  1.00  0.00    -0.167 C  
HETATM    9  C   UNL     1      -8.211   8.465  72.439  1.00  0.00    -0.202 C  
BRANCH   6  10
HETATM   10  C   UNL     1      -9.043   8.548  69.467  1.00  0.00    -0.150 C  
HETATM   11  O   UNL     1      -7.965   8.113  69.102  1.00  0.00    -0.109 OA 
BRANCH  10  12
HETATM   12  O   UNL     1      -9.623   9.706  69.041  1.00  0.00    -0.158 OA 
BRANCH  12  13
HETATM   13  C   UNL     1     -10.655   9.638  68.019  1.00  0.00    -0.243 C  
HETATM   14  C   UNL     1     -10.240   8.819  66.803  1.00  0.00    -0.354 C  
HETATM   15  C   UNL     1      -9.949   9.902  65.807  1.00  0.00    -0.277 C  
HETATM   16  C   UNL     1     -10.500  11.209  66.250  1.00  0.00    -0.312 C  
HETATM   17  O   UNL     1      -9.391   9.722  64.735  1.00  0.00    -0.252 OA 
HETATM   18  C   UNL     1     -11.699  11.971  68.373  1.00  0.00    -0.390 C  
HETATM   19  C   UNL     1     -10.989  11.007  67.490  1.00  0.00    -0.338 C  
BRANCH  16  20
HETATM   20  C   UNL     1     -10.290  12.436  65.437  1.00  0.00    -0.303 C  
BRANCH  20  21
HETATM   21  C   UNL     1     -11.526  12.863  64.716  1.00  0.00    -0.360 C  
HETATM   22  C   UNL     1     -12.074  12.173  63.705  1.00  0.00    -0.648 C  
ENDBRANCH  20  21
ENDBRANCH  16  20
ENDBRANCH  12  13
ENDBRANCH  10  12
ENDBRANCH   6  10
ENDBRANCH   3   5
TORSDOF 6
ENDMDL
MODEL       62
REMARK 921   NORMALIZED FREE ENERGY PREDICTED BY IDOCK:   -4.82 KCAL/MOL
REMARK 922        TOTAL FREE ENERGY PREDICTED BY IDOCK:   -8.03 KCAL/MOL
REMARK 923 INTER-LIGAND FREE ENERGY PREDICTED BY IDOCK:   -6.49 KCAL/MOL
REMARK 924 INTRA-LIGAND FREE ENERGY PREDICTED BY IDOCK:   -1.54 KCAL/MOL
REMARK 927      BINDING AFFINITY PREDICTED BY RF-SCORE:    0.00 PKD
ROOT
HETATM    1  C   UNL     1     -10.701  14.455  64.693  1.00  0.00    -0.357 C  
HETATM    2  C   UNL     1     -11.356  13.153  64.326  1.00  0.00    -0.427 C  
HETATM    3  C   UNL     1     -11.095  12.005  64.981  1.00  0.00    -0.368 C  
HETATM    4  C   UNL     1     -12.357  13.168  63.208  1.00  0.00    -0.366 C  
ENDROOT
BRANCH   3   5
HETATM    5  C   UNL     1     -10.209  11.831  66.133  1.00  0.00    -0.255 C  
HETATM    6  C   UNL     1     -10.539  10.823  67.220  1.00  0.00    -0.304 C  
HETATM    7  C   UNL     1     -10.603  12.318  67.516  1.00  0.00    -0.242 C  
HETATM    8  C   UNL     1     -11.974  12.885  67.781  1.00  0.00    -0.336 C  
HETATM    9  C   UNL     1      -9.518  12.994  68.324  1.00  0.00    -0.208 C  
BRANCH   6  10
HETATM   10  C   UNL     1      -9.438   9.969  67.718  1.00  0.00    -0.140 C  
HETATM   11  O   UNL     1      -8.341   9.999  67.187  1.00  0.00    -0.121 OA 
BRANCH  10  12
HETATM   12  O   UNL     1      -9.794   9.183  68.774  1.00  0.00    -0.159 OA 
BRANCH  12  13
HETATM   13  C   UNL     1      -9.521   9.654  70.121  1.00  0.00    -0.253 C  
HETATM   14  C   UNL     1      -8.519   8.781  70.869  1.00  0.00    -0.209 C  
HETATM   15  C   UNL     1      -9.426   8.025  71.794  1.00  0.00    -0.169 C  
HETATM   16  C   UNL     1     -10.771   8.651  71.868  1.00  0.00    -0.414 C  
HETATM   17  O   UNL     1      -9.083   7.057  72.457  1.00  0.00    -0.129 OA 
HETATM   18  C   UNL     1     -11.845  10.631  70.666  1.00  0.00    -0.463 C  
HETATM   19  C   UNL     1     -10.769   9.650  70.964  1.00  0.00    -0.393 C  
BRANCH  16  20
HETATM   20  C   UNL     1     -11.847   8.041  72.694  1.00  0.00    -0.380 C  
BRANCH  20  21
HETATM   21  C   UNL     1     -12.795   7.220  71.882  1.00  0.00    -0.299 C  
HETATM   22  C   UNL     1     -14.011   7.643  71.505  1.00  0.00    -0.500 C  
ENDBRANCH  20  21
ENDBRANCH  16  20
ENDBRANCH  12  13
ENDBRANCH  10  12
ENDBRANCH   6  10
ENDBRANCH   3   5
TORSDOF 6
ENDMDL
MODEL       63
REMARK 921   NORMALIZED FREE ENERGY PREDICTED BY IDOCK:   -4.78 KCAL/MOL
REMARK 922        TOTAL FREE ENERGY PREDICTED BY IDOCK:   -7.98 KCAL/MOL
REMARK 923 INTER-LIGAND FREE ENERGY PREDICTED BY IDOCK:   -6.33 KCAL/MOL
REMARK 924 INTRA-LIGAND FREE ENERGY PREDICTED BY IDOCK:   -1.64 KCAL/MOL
REMARK 927      BINDING AFFINITY PREDICTED BY RF-SCORE:    0.00 PKD
ROOT
HETATM    1  C   UNL     1      -6.458  12.187  67.513  1.00  0.00    -0.134 C  
HETATM    2  C   UNL     1      -7.425  11.152  68.016  1.00  0.00    -0.094 C  
HETATM    3  C   UNL     1      -8.363  10.596  67.225  1.00  0.00    -0.120 C  
HETATM    4  C   UNL     1      -7.297  10.719  69.448  1.00  0.00    -0.128 C  
ENDROOT
BRANCH   3   5
HETATM    5  C   UNL     1      -8.573  10.849  65.798  1.00  0.00    -0.176 C  
HETATM    6  C   UNL     1      -9.886  10.478  65.130  1.00  0.00    -0.359 C  
HETATM    7  C   UNL     1      -8.610   9.716  64.790  1.00  0.00    -0.197 C  
HETATM    8  C   UNL     1      -8.558   8.276  65.233  1.00  0.00    -0.159 C  
HETATM    9  C   UNL     1      -7.889   9.957  63.482  1.00  0.00    -0.150 C  
BRANCH   6  10
HETATM   10  C   UNL     1     -10.484  11.465  64.204  1.00  0.00    -0.363 C  
HETATM   11  O   UNL     1     -11.118  11.098  63.231  1.00  0.00    -0.194 OA 
BRANCH  10  12
HETATM   12  O   UNL     1     -10.235  12.759  64.554  1.00  0.00    -0.334 OA 
BRANCH  12  13
HETATM   13  C   UNL     1     -11.289  13.526  65.198  1.00  0.00    -0.301 C  
HETATM   14  C   UNL     1     -11.904  14.582  64.286  1.00  0.00    -0.368 C  
HETATM   15  C   UNL     1     -11.275  15.833  64.824  1.00  0.00    -0.366 C  
HETATM   16  C   UNL     1     -10.657  15.601  66.155  1.00  0.00    -0.325 C  
HETATM   17  O   UNL     1     -11.324  16.922  64.271  1.00  0.00    -1.202 OA 
HETATM   18  C   UNL     1     -10.356  13.519  67.603  1.00  0.00    -0.239 C  
HETATM   19  C   UNL     1     -10.765  14.279  66.392  1.00  0.00    -0.297 C  
BRANCH  16  20
HETATM   20  C   UNL     1      -9.935  16.695  66.857  1.00  0.00    -0.272 C  
BRANCH  20  21
HETATM   21  C   UNL     1      -8.523  16.841  66.392  1.00  0.00    -0.338 C  
HETATM   22  C   UNL     1      -7.456  16.617  67.173  1.00  0.00    -0.218 C  
ENDBRANCH  20  21
ENDBRANCH  16  20
ENDBRANCH  12  13
ENDBRANCH  10  12
ENDBRANCH   6  10
ENDBRANCH   3   5
TORSDOF 6
ENDMDL
MODEL       64
REMARK 921   NORMALIZED FREE ENERGY PREDICTED BY IDOCK:   -4.77 KCAL/MOL
REMARK 922        TOTAL FREE ENERGY PREDICTED BY IDOCK:   -7.96 KCAL/MOL
REMARK 923 INTER-LIGAND FREE ENERGY PREDICTED BY IDOCK:   -6.51 KCAL/MOL
REMARK 924 INTRA-LIGAND FREE ENERGY PREDICTED BY IDOCK:   -1.45 KCAL/MOL
REMARK 927      BINDING AFFINITY PREDICTED BY RF-SCORE:    0.00 PKD
ROOT
HETATM    1  C   UNL     1     -12.697  11.816  71.261  1.00  0.00    -0.420 C  
HETATM    2  C   UNL     1     -12.515  10.332  71.417  1.00  0.00    -0.528 C  
HETATM    3  C   UNL     1     -11.611   9.637  70.700  1.00  0.00    -0.371 C  
HETATM    4  C   UNL     1     -13.363   9.630  72.438  1.00  0.00    -0.426 C  
ENDROOT
BRANCH   3   5
HETATM    5  C   UNL     1     -10.661  10.175  69.724  1.00  0.00    -0.317 C  
HETATM    6  C   UNL     1     -10.497   9.523  68.362  1.00  0.00    -0.261 C  
HETATM    7  C   UNL     1      -9.372   9.447  69.389  1.00  0.00    -0.172 C  
HETATM    8  C   UNL     1      -9.079   8.081  69.954  1.00  0.00    -0.145 C  
HETATM    9  C   UNL     1      -8.134  10.305  69.247  1.00  0.00    -0.156 C  
BRANCH   6  10
HETATM   10  C   UNL     1     -10.427  10.413  67.182  1.00  0.00    -0.256 C  
HETATM   11  O   UNL     1      -9.810  10.076  66.186  1.00  0.00    -0.214 OA 
BRANCH  10  12
HETATM   12  O   UNL     1     -11.091  11.592  67.350  1.00  0.00    -0.247 OA 
BRANCH  12  13
HETATM   13  C   UNL     1     -10.489  12.814  66.844  1.00  0.00    -0.240 C  
HETATM   14  C   UNL     1      -9.212  13.202  67.579  1.00  0.00    -0.206 C  
HETATM   15  C   UNL     1      -9.702  14.327  68.441  1.00  0.00    -0.225 C  
HETATM   16  C   UNL     1     -11.031  14.817  67.991  1.00  0.00    -0.276 C  
HETATM   17  O   UNL     1      -9.061  14.825  69.356  1.00  0.00    -0.088 OA 
HETATM   18  C   UNL     1     -12.648  14.054  66.169  1.00  0.00    -0.407 C  
HETATM   19  C   UNL     1     -11.420  13.987  67.003  1.00  0.00    -0.370 C  
BRANCH  16  20
HETATM   20  C   UNL     1     -11.730  15.901  68.731  1.00  0.00    -0.355 C  
BRANCH  20  21
HETATM   21  C   UNL     1     -12.406  15.407  69.968  1.00  0.00    -0.368 C  
HETATM   22  C   UNL     1     -12.133  15.867  71.198  1.00  0.00    -0.464 C  
ENDBRANCH  20  21
ENDBRANCH  16  20
ENDBRANCH  12  13
ENDBRANCH  10  12
ENDBRANCH   6  10
ENDBRANCH   3   5
TORSDOF 6
ENDMDL
MODEL       65
REMARK 921   NORMALIZED FREE ENERGY PREDICTED BY IDOCK:   -4.74 KCAL/MOL
REMARK 922        TOTAL FREE ENERGY PREDICTED BY IDOCK:   -7.92 KCAL/MOL
REMARK 923 INTER-LIGAND FREE ENERGY PREDICTED BY IDOCK:   -6.85 KCAL/MOL
REMARK 924 INTRA-LIGAND FREE ENERGY PREDICTED BY IDOCK:   -1.08 KCAL/MOL
REMARK 927      BINDING AFFINITY PREDICTED BY RF-SCORE:    0.00 PKD
ROOT
HETATM    1  C   UNL     1      -9.330  16.311  68.080  1.00  0.00    -0.210 C  
HETATM    2  C   UNL     1      -8.842  16.002  66.693  1.00  0.00    -0.307 C  
HETATM    3  C   UNL     1      -9.480  15.137  65.880  1.00  0.00    -0.334 C  
HETATM    4  C   UNL     1      -7.615  16.720  66.210  1.00  0.00    -0.275 C  
ENDROOT
BRANCH   3   5
HETATM    5  C   UNL     1     -10.720  14.414  66.166  1.00  0.00    -0.304 C  
HETATM    6  C   UNL     1     -10.690  13.072  66.878  1.00  0.00    -0.273 C  
HETATM    7  C   UNL     1     -11.093  13.151  65.410  1.00  0.00    -0.299 C  
HETATM    8  C   UNL     1     -10.141  12.523  64.424  1.00  0.00    -0.284 C  
HETATM    9  C   UNL     1     -12.543  13.019  64.997  1.00  0.00    -0.515 C  
BRANCH   6  10
HETATM   10  C   UNL     1     -11.679  12.848  67.955  1.00  0.00    -0.356 C  
HETATM   11  O   UNL     1     -12.402  13.754  68.332  1.00  0.00    -0.254 OA 
BRANCH  10  12
HETATM   12  O   UNL     1     -11.668  11.577  68.448  1.00  0.00    -0.327 OA 
BRANCH  12  13
HETATM   13  C   UNL     1     -10.877  11.292  69.635  1.00  0.00    -0.095 C  
HETATM   14  C   UNL     1      -9.658  10.424  69.347  1.00  0.00    -0.213 C  
HETATM   15  C   UNL     1     -10.115   9.097  69.876  1.00  0.00    -0.202 C  
HETATM   16  C   UNL     1     -11.319   9.239  70.735  1.00  0.00    -0.349 C  
HETATM   17  O   UNL     1      -9.533   8.039  69.682  1.00  0.00    -0.162 OA 
HETATM   18  C   UNL     1     -12.790  11.229  71.365  1.00  0.00    -0.515 C  
HETATM   19  C   UNL     1     -11.682  10.535  70.657  1.00  0.00    -0.453 C  
BRANCH  16  20
HETATM   20  C   UNL     1     -11.972   8.043  71.330  1.00  0.00    -0.328 C  
BRANCH  20  21
HETATM   21  C   UNL     1     -11.636   7.868  72.775  1.00  0.00    -0.387 C  
HETATM   22  C   UNL     1     -10.603   7.133  73.215  1.00  0.00    -0.405 C  
ENDBRANCH  20  21
ENDBRANCH  16  20
ENDBRANCH  12  13
ENDBRANCH  10  12
ENDBRANCH   6  10
ENDBRANCH   3   5
TORSDOF 6
ENDMDL
MODEL       66
REMARK 921   NORMALIZED FREE ENERGY PREDICTED BY IDOCK:   -4.72 KCAL/MOL
REMARK 922        TOTAL FREE ENERGY PREDICTED BY IDOCK:   -7.89 KCAL/MOL
REMARK 923 INTER-LIGAND FREE ENERGY PREDICTED BY IDOCK:   -6.92 KCAL/MOL
REMARK 924 INTRA-LIGAND FREE ENERGY PREDICTED BY IDOCK:   -0.98 KCAL/MOL
REMARK 927      BINDING AFFINITY PREDICTED BY RF-SCORE:    0.00 PKD
ROOT
HETATM    1  C   UNL     1      -5.944  21.108  67.009  1.00  0.00    -0.375 C  
HETATM    2  C   UNL     1      -6.682  20.458  65.873  1.00  0.00    -0.271 C  
HETATM    3  C   UNL     1      -7.739  19.646  66.070  1.00  0.00    -0.335 C  
HETATM    4  C   UNL     1      -6.223  20.767  64.477  1.00  0.00    -0.335 C  
ENDROOT
BRANCH   3   5
HETATM    5  C   UNL     1      -8.357  19.302  67.352  1.00  0.00    -0.317 C  
HETATM    6  C   UNL     1      -9.269  18.093  67.473  1.00  0.00    -0.257 C  
HETATM    7  C   UNL     1      -9.842  19.502  67.594  1.00  0.00    -0.475 C  
HETATM    8  C   UNL     1     -10.761  19.943  66.483  1.00  0.00    -0.447 C  
HETATM    9  C   UNL     1     -10.233  20.066  68.942  1.00  0.00    -0.348 C  
BRANCH   6  10
HETATM   10  C   UNL     1      -9.086  17.215  68.649  1.00  0.00    -0.268 C  
HETATM   11  O   UNL     1      -7.969  16.902  69.022  1.00  0.00    -0.236 OA 
BRANCH  10  12
HETATM   12  O   UNL     1     -10.259  16.816  69.218  1.00  0.00    -0.288 OA 
BRANCH  12  13
HETATM   13  C   UNL     1     -10.274  15.605  70.021  1.00  0.00    -0.267 C  
HETATM   14  C   UNL     1     -10.357  14.333  69.184  1.00  0.00    -0.136 C  
HETATM   15  C   UNL     1     -11.793  13.949  69.380  1.00  0.00    -0.334 C  
HETATM   16  C   UNL     1     -12.403  14.687  70.516  1.00  0.00    -0.400 C  
HETATM   17  O   UNL     1     -12.371  13.089  68.732  1.00  0.00    -0.111 OA 
HETATM   18  C   UNL     1     -11.542  16.519  72.073  1.00  0.00    -0.221 C  
HETATM   19  C   UNL     1     -11.472  15.568  70.932  1.00  0.00    -0.410 C  
BRANCH  16  20
HETATM   20  C   UNL     1     -13.836  14.496  70.863  1.00  0.00    -0.046 C  
BRANCH  20  21
HETATM   21  C   UNL     1     -14.022  13.677  72.098  1.00  0.00    -0.609 C  
HETATM   22  C   UNL     1     -13.471  12.467  72.278  1.00  0.00    -0.428 C  
ENDBRANCH  20  21
ENDBRANCH  16  20
ENDBRANCH  12  13
ENDBRANCH  10  12
ENDBRANCH   6  10
ENDBRANCH   3   5
TORSDOF 6
ENDMDL
MODEL       67
REMARK 921   NORMALIZED FREE ENERGY PREDICTED BY IDOCK:   -4.71 KCAL/MOL
REMARK 922        TOTAL FREE ENERGY PREDICTED BY IDOCK:   -7.88 KCAL/MOL
REMARK 923 INTER-LIGAND FREE ENERGY PREDICTED BY IDOCK:   -6.51 KCAL/MOL
REMARK 924 INTRA-LIGAND FREE ENERGY PREDICTED BY IDOCK:   -1.37 KCAL/MOL
REMARK 927      BINDING AFFINITY PREDICTED BY RF-SCORE:    0.00 PKD
ROOT
HETATM    1  C   UNL     1     -10.334   9.606  69.208  1.00  0.00    -0.223 C  
HETATM    2  C   UNL     1     -11.353  10.433  69.940  1.00  0.00    -0.370 C  
HETATM    3  C   UNL     1     -11.816  11.602  69.456  1.00  0.00    -0.414 C  
HETATM    4  C   UNL     1     -11.880   9.898  71.240  1.00  0.00    -0.479 C  
ENDROOT
BRANCH   3   5
HETATM    5  C   UNL     1     -11.466  12.225  68.178  1.00  0.00    -0.371 C  
HETATM    6  C   UNL     1     -10.293  13.186  68.081  1.00  0.00    -0.247 C  
HETATM    7  C   UNL     1     -11.720  13.699  67.920  1.00  0.00    -0.395 C  
HETATM    8  C   UNL     1     -12.227  14.606  69.013  1.00  0.00    -0.199 C  
HETATM    9  C   UNL     1     -12.265  14.058  66.555  1.00  0.00    -0.485 C  
BRANCH   6  10
HETATM   10  C   UNL     1      -9.378  13.031  66.928  1.00  0.00    -0.241 C  
HETATM   11  O   UNL     1      -9.435  12.043  66.218  1.00  0.00    -0.222 OA 
BRANCH  10  12
HETATM   12  O   UNL     1      -8.508  14.071  66.782  1.00  0.00    -0.141 OA 
BRANCH  12  13
HETATM   13  C   UNL     1      -8.916  15.394  67.224  1.00  0.00    -0.198 C  
HETATM   14  C   UNL     1      -9.017  16.402  66.085  1.00  0.00    -0.367 C  
HETATM   15  C   UNL     1      -7.767  17.203  66.293  1.00  0.00    -0.315 C  
HETATM   16  C   UNL     1      -7.181  16.956  67.636  1.00  0.00    -0.161 C  
HETATM   17  O   UNL     1      -7.323  18.011  65.489  1.00  0.00    -0.539 OA 
HETATM   18  C   UNL     1      -7.800  15.383  69.550  1.00  0.00    -0.204 C  
HETATM   19  C   UNL     1      -7.921  15.977  68.192  1.00  0.00    -0.142 C  
BRANCH  16  20
HETATM   20  C   UNL     1      -5.910  17.614  68.042  1.00  0.00    -0.154 C  
BRANCH  20  21
HETATM   21  C   UNL     1      -6.115  18.652  69.096  1.00  0.00    -0.253 C  
HETATM   22  C   UNL     1      -6.959  19.686  68.968  1.00  0.00    -0.390 C  
ENDBRANCH  20  21
ENDBRANCH  16  20
ENDBRANCH  12  13
ENDBRANCH  10  12
ENDBRANCH   6  10
ENDBRANCH   3   5
TORSDOF 6
ENDMDL
MODEL       68
REMARK 921   NORMALIZED FREE ENERGY PREDICTED BY IDOCK:   -4.70 KCAL/MOL
REMARK 922        TOTAL FREE ENERGY PREDICTED BY IDOCK:   -7.87 KCAL/MOL
REMARK 923 INTER-LIGAND FREE ENERGY PREDICTED BY IDOCK:   -6.80 KCAL/MOL
REMARK 924 INTRA-LIGAND FREE ENERGY PREDICTED BY IDOCK:   -1.07 KCAL/MOL
REMARK 927      BINDING AFFINITY PREDICTED BY RF-SCORE:    0.00 PKD
ROOT
HETATM    1  C   UNL     1     -11.258   7.952  72.812  1.00  0.00    -0.466 C  
HETATM    2  C   UNL     1     -12.127   8.867  71.996  1.00  0.00    -0.442 C  
HETATM    3  C   UNL     1     -11.661   9.541  70.927  1.00  0.00    -0.398 C  
HETATM    4  C   UNL     1     -13.571   8.991  72.390  1.00  0.00    -0.533 C  
ENDROOT
BRANCH   3   5
HETATM    5  C   UNL     1     -10.309   9.476  70.368  1.00  0.00    -0.334 C  
HETATM    6  C   UNL     1     -10.078   9.663  68.878  1.00  0.00    -0.198 C  
HETATM    7  C   UNL     1      -9.858   8.298  69.523  1.00  0.00    -0.181 C  
HETATM    8  C   UNL     1     -10.822   7.210  69.123  1.00  0.00    -0.185 C  
HETATM    9  C   UNL     1      -8.460   7.781  69.784  1.00  0.00    -0.133 C  
BRANCH   6  10
HETATM   10  C   UNL     1      -8.951  10.528  68.465  1.00  0.00    -0.147 C  
HETATM   11  O   UNL     1      -8.057  10.799  69.248  1.00  0.00    -0.150 OA 
BRANCH  10  12
HETATM   12  O   UNL     1      -9.045  10.966  67.177  1.00  0.00    -0.144 OA 
BRANCH  12  13
HETATM   13  C   UNL     1     -10.302  10.793  66.468  1.00  0.00    -0.244 C  
HETATM   14  C   UNL     1     -10.119  10.317  65.032  1.00  0.00    -0.353 C  
HETATM   15  C   UNL     1     -10.375  11.583  64.271  1.00  0.00    -0.323 C  
HETATM   16  C   UNL     1     -11.022  12.611  65.127  1.00  0.00    -0.324 C  
HETATM   17  O   UNL     1     -10.146  11.730  63.079  1.00  0.00    -0.384 OA 
HETATM   18  C   UNL     1     -11.646  12.680  67.602  1.00  0.00    -0.414 C  
HETATM   19  C   UNL     1     -11.057  12.092  66.370  1.00  0.00    -0.358 C  
BRANCH  16  20
HETATM   20  C   UNL     1     -11.328  13.963  64.590  1.00  0.00    -0.380 C  
BRANCH  20  21
HETATM   21  C   UNL     1     -10.377  15.004  65.086  1.00  0.00    -0.422 C  
HETATM   22  C   UNL     1     -10.713  15.960  65.965  1.00  0.00    -0.289 C  
ENDBRANCH  20  21
ENDBRANCH  16  20
ENDBRANCH  12  13
ENDBRANCH  10  12
ENDBRANCH   6  10
ENDBRANCH   3   5
TORSDOF 6
ENDMDL
MODEL       69
REMARK 921   NORMALIZED FREE ENERGY PREDICTED BY IDOCK:   -4.67 KCAL/MOL
REMARK 922        TOTAL FREE ENERGY PREDICTED BY IDOCK:   -7.83 KCAL/MOL
REMARK 923 INTER-LIGAND FREE ENERGY PREDICTED BY IDOCK:   -6.84 KCAL/MOL
REMARK 924 INTRA-LIGAND FREE ENERGY PREDICTED BY IDOCK:   -0.99 KCAL/MOL
REMARK 927      BINDING AFFINITY PREDICTED BY RF-SCORE:    0.00 PKD
ROOT
HETATM    1  C   UNL     1     -10.195  10.457  68.807  1.00  0.00    -0.201 C  
HETATM    2  C   UNL     1     -11.386  11.349  69.021  1.00  0.00    -0.345 C  
HETATM    3  C   UNL     1     -11.546  12.510  68.358  1.00  0.00    -0.368 C  
HETATM    4  C   UNL     1     -12.435  10.889  69.992  1.00  0.00    -0.332 C  
ENDROOT
BRANCH   3   5
HETATM    5  C   UNL     1     -10.662  13.065  67.331  1.00  0.00    -0.256 C  
HETATM    6  C   UNL     1     -10.561  14.567  67.124  1.00  0.00    -0.274 C  
HETATM    7  C   UNL     1     -11.215  13.688  66.062  1.00  0.00    -0.302 C  
HETATM    8  C   UNL     1     -12.698  13.873  65.867  1.00  0.00    -0.466 C  
HETATM    9  C   UNL     1     -10.487  13.355  64.778  1.00  0.00    -0.419 C  
BRANCH   6  10
HETATM   10  C   UNL     1      -9.210  15.144  66.946  1.00  0.00    -0.238 C  
HETATM   11  O   UNL     1      -8.219  14.440  67.034  1.00  0.00    -0.189 OA 
BRANCH  10  12
HETATM   12  O   UNL     1      -9.220  16.484  66.698  1.00  0.00    -0.221 OA 
BRANCH  12  13
HETATM   13  C   UNL     1      -9.517  17.397  67.789  1.00  0.00    -0.261 C  
HETATM   14  C   UNL     1     -10.551  18.455  67.420  1.00  0.00    -0.445 C  
HETATM   15  C   UNL     1      -9.679  19.662  67.237  1.00  0.00    -0.356 C  
HETATM   16  C   UNL     1      -8.326  19.447  67.810  1.00  0.00    -0.340 C  
HETATM   17  O   UNL     1     -10.055  20.714  66.741  1.00  0.00    -0.356 OA 
HETATM   18  C   UNL     1      -7.190  17.437  68.902  1.00  0.00    -0.250 C  
HETATM   19  C   UNL     1      -8.290  18.161  68.211  1.00  0.00    -0.301 C  
BRANCH  16  20
HETATM   20  C   UNL     1      -7.280  20.498  67.702  1.00  0.00    -0.356 C  
BRANCH  20  21
HETATM   21  C   UNL     1      -6.428  20.335  66.487  1.00  0.00    -0.247 C  
HETATM   22  C   UNL     1      -6.868  19.807  65.335  1.00  0.00    -0.321 C  
ENDBRANCH  20  21
ENDBRANCH  16  20
ENDBRANCH  12  13
ENDBRANCH  10  12
ENDBRANCH   6  10
ENDBRANCH   3   5
TORSDOF 6
ENDMDL
MODEL       70
REMARK 921   NORMALIZED FREE ENERGY PREDICTED BY IDOCK:   -4.67 KCAL/MOL
REMARK 922        TOTAL FREE ENERGY PREDICTED BY IDOCK:   -7.83 KCAL/MOL
REMARK 923 INTER-LIGAND FREE ENERGY PREDICTED BY IDOCK:   -7.13 KCAL/MOL
REMARK 924 INTRA-LIGAND FREE ENERGY PREDICTED BY IDOCK:   -0.69 KCAL/MOL
REMARK 927      BINDING AFFINITY PREDICTED BY RF-SCORE:    0.00 PKD
ROOT
HETATM    1  C   UNL     1      -9.642  11.168  68.600  1.00  0.00    -0.200 C  
HETATM    2  C   UNL     1     -11.106  11.484  68.472  1.00  0.00    -0.287 C  
HETATM    3  C   UNL     1     -11.592  12.265  67.488  1.00  0.00    -0.422 C  
HETATM    4  C   UNL     1     -12.041  10.868  69.472  1.00  0.00    -0.380 C  
ENDROOT
BRANCH   3   5
HETATM    5  C   UNL     1     -10.833  12.879  66.396  1.00  0.00    -0.293 C  
HETATM    6  C   UNL     1     -11.221  14.245  65.856  1.00  0.00    -0.319 C  
HETATM    7  C   UNL     1     -11.412  12.998  64.998  1.00  0.00    -0.345 C  
HETATM    8  C   UNL     1     -12.837  12.603  64.708  1.00  0.00    -0.349 C  
HETATM    9  C   UNL     1     -10.470  12.693  63.854  1.00  0.00    -0.441 C  
BRANCH   6  10
HETATM   10  C   UNL     1     -10.131  15.214  65.603  1.00  0.00    -0.363 C  
HETATM   11  O   UNL     1     -10.360  16.274  65.047  1.00  0.00    -0.593 OA 
BRANCH  10  12
HETATM   12  O   UNL     1      -8.912  14.786  66.037  1.00  0.00    -0.146 OA 
BRANCH  12  13
HETATM   13  C   UNL     1      -8.426  15.243  67.329  1.00  0.00    -0.193 C  
HETATM   14  C   UNL     1      -9.492  15.201  68.418  1.00  0.00    -0.208 C  
HETATM   15  C   UNL     1      -9.846  16.654  68.534  1.00  0.00    -0.252 C  
HETATM   16  C   UNL     1      -8.834  17.515  67.870  1.00  0.00    -0.247 C  
HETATM   17  O   UNL     1     -10.808  17.082  69.155  1.00  0.00    -0.288 OA 
HETATM   18  C   UNL     1      -6.738  17.009  66.501  1.00  0.00    -0.267 C  
HETATM   19  C   UNL     1      -7.970  16.677  67.264  1.00  0.00    -0.193 C  
BRANCH  16  20
HETATM   20  C   UNL     1      -9.006  18.991  67.823  1.00  0.00    -0.329 C  
BRANCH  20  21
HETATM   21  C   UNL     1      -9.218  19.499  66.434  1.00  0.00    -0.426 C  
HETATM   22  C   UNL     1     -10.427  19.652  65.873  1.00  0.00    -0.591 C  
ENDBRANCH  20  21
ENDBRANCH  16  20
ENDBRANCH  12  13
ENDBRANCH  10  12
ENDBRANCH   6  10
ENDBRANCH   3   5
TORSDOF 6
ENDMDL
MODEL       71
REMARK 921   NORMALIZED FREE ENERGY PREDICTED BY IDOCK:   -4.65 KCAL/MOL
REMARK 922        TOTAL FREE ENERGY PREDICTED BY IDOCK:   -7.81 KCAL/MOL
REMARK 923 INTER-LIGAND FREE ENERGY PREDICTED BY IDOCK:   -6.82 KCAL/MOL
REMARK 924 INTRA-LIGAND FREE ENERGY PREDICTED BY IDOCK:   -0.98 KCAL/MOL
REMARK 927      BINDING AFFINITY PREDICTED BY RF-SCORE:    0.00 PKD
ROOT
HETATM    1  C   UNL     1     -10.809   6.106  67.239  1.00  0.00    -0.438 C  
HETATM    2  C   UNL     1     -10.234   5.389  68.428  1.00  0.00    -0.229 C  
HETATM    3  C   UNL     1     -10.547   5.727  69.695  1.00  0.00    -0.396 C  
HETATM    4  C   UNL     1      -9.306   4.239  68.166  1.00  0.00    -0.204 C  
ENDROOT
BRANCH   3   5
HETATM    5  C   UNL     1     -11.485   6.767  70.121  1.00  0.00    -0.404 C  
HETATM    6  C   UNL     1     -11.090   7.780  71.182  1.00  0.00    -0.269 C  
HETATM    7  C   UNL     1     -12.148   6.725  71.486  1.00  0.00    -0.410 C  
HETATM    8  C   UNL     1     -11.770   5.679  72.504  1.00  0.00    -0.255 C  
HETATM    9  C   UNL     1     -13.616   7.089  71.532  1.00  0.00    -0.355 C  
BRANCH   6  10
HETATM   10  C   UNL     1     -11.440   9.197  70.937  1.00  0.00    -0.296 C  
HETATM   11  O   UNL     1     -11.917   9.881  71.826  1.00  0.00    -0.381 OA 
BRANCH  10  12
HETATM   12  O   UNL     1     -11.186   9.608  69.662  1.00  0.00    -0.220 OA 
BRANCH  12  13
HETATM   13  C   UNL     1     -10.783  10.986  69.436  1.00  0.00    -0.205 C  
HETATM   14  C   UNL     1     -11.907  11.854  68.883  1.00  0.00    -0.366 C  
HETATM   15  C   UNL     1     -11.505  11.967  67.442  1.00  0.00    -0.336 C  
HETATM   16  C   UNL     1     -10.096  11.542  67.237  1.00  0.00    -0.223 C  
HETATM   17  O   UNL     1     -12.221  12.417  66.559  1.00  0.00    -0.586 OA 
HETATM   18  C   UNL     1      -8.321  10.567  68.792  1.00  0.00    -0.136 C  
HETATM   19  C   UNL     1      -9.671  11.071  68.425  1.00  0.00    -0.181 C  
BRANCH  16  20
HETATM   20  C   UNL     1      -9.498  11.530  65.875  1.00  0.00    -0.251 C  
BRANCH  20  21
HETATM   21  C   UNL     1      -9.859  10.303  65.103  1.00  0.00    -0.389 C  
HETATM   22  C   UNL     1      -9.280   9.957  63.943  1.00  0.00    -0.295 C  
ENDBRANCH  20  21
ENDBRANCH  16  20
ENDBRANCH  12  13
ENDBRANCH  10  12
ENDBRANCH   6  10
ENDBRANCH   3   5
TORSDOF 6
ENDMDL
MODEL       72
REMARK 921   NORMALIZED FREE ENERGY PREDICTED BY IDOCK:   -4.65 KCAL/MOL
REMARK 922        TOTAL FREE ENERGY PREDICTED BY IDOCK:   -7.81 KCAL/MOL
REMARK 923 INTER-LIGAND FREE ENERGY PREDICTED BY IDOCK:   -6.80 KCAL/MOL
REMARK 924 INTRA-LIGAND FREE ENERGY PREDICTED BY IDOCK:   -1.00 KCAL/MOL
REMARK 927      BINDING AFFINITY PREDICTED BY RF-SCORE:    0.00 PKD
ROOT
HETATM    1  C   UNL     1     -13.019  14.346  71.299  1.00  0.00    -0.414 C  
HETATM    2  C   UNL     1     -12.139  15.539  71.547  1.00  0.00    -0.458 C  
HETATM    3  C   UNL     1     -11.384  16.092  70.578  1.00  0.00    -0.420 C  
HETATM    4  C   UNL     1     -12.144  16.133  72.926  1.00  0.00    -0.643 C  
ENDROOT
BRANCH   3   5
HETATM    5  C   UNL     1     -11.320  15.685  69.173  1.00  0.00    -0.341 C  
HETATM    6  C   UNL     1     -10.566  14.431  68.763  1.00  0.00    -0.256 C  
HETATM    7  C   UNL     1     -10.037  15.806  68.371  1.00  0.00    -0.222 C  
HETATM    8  C   UNL     1      -8.747  16.234  69.024  1.00  0.00    -0.246 C  
HETATM    9  C   UNL     1     -10.178  16.315  66.953  1.00  0.00    -0.288 C  
BRANCH   6  10
HETATM   10  C   UNL     1     -11.218  13.530  67.786  1.00  0.00    -0.282 C  
HETATM   11  O   UNL     1     -12.192  13.901  67.155  1.00  0.00    -0.406 OA 
BRANCH  10  12
HETATM   12  O   UNL     1     -10.629  12.304  67.701  1.00  0.00    -0.209 OA 
BRANCH  12  13
HETATM   13  C   UNL     1     -11.437  11.120  67.941  1.00  0.00    -0.284 C  
HETATM   14  C   UNL     1     -12.015  11.066  69.350  1.00  0.00    -0.408 C  
HETATM   15  C   UNL     1     -11.124  10.044  69.992  1.00  0.00    -0.295 C  
HETATM   16  C   UNL     1     -10.348   9.286  68.977  1.00  0.00    -0.228 C  
HETATM   17  O   UNL     1     -11.089   9.816  71.193  1.00  0.00    -0.343 OA 
HETATM   18  C   UNL     1     -10.151   9.465  66.437  1.00  0.00    -0.332 C  
HETATM   19  C   UNL     1     -10.622   9.863  67.790  1.00  0.00    -0.313 C  
BRANCH  16  20
HETATM   20  C   UNL     1      -9.365   8.250  69.391  1.00  0.00    -0.155 C  
BRANCH  20  21
HETATM   21  C   UNL     1      -7.982   8.798  69.533  1.00  0.00    -0.096 C  
HETATM   22  C   UNL     1      -7.637   9.720  70.444  1.00  0.00    -0.165 C  
ENDBRANCH  20  21
ENDBRANCH  16  20
ENDBRANCH  12  13
ENDBRANCH  10  12
ENDBRANCH   6  10
ENDBRANCH   3   5
TORSDOF 6
ENDMDL
MODEL       73
REMARK 921   NORMALIZED FREE ENERGY PREDICTED BY IDOCK:   -4.64 KCAL/MOL
REMARK 922        TOTAL FREE ENERGY PREDICTED BY IDOCK:   -7.79 KCAL/MOL
REMARK 923 INTER-LIGAND FREE ENERGY PREDICTED BY IDOCK:   -7.34 KCAL/MOL
REMARK 924 INTRA-LIGAND FREE ENERGY PREDICTED BY IDOCK:   -0.45 KCAL/MOL
REMARK 927      BINDING AFFINITY PREDICTED BY RF-SCORE:    0.00 PKD
ROOT
HETATM    1  C   UNL     1     -11.874  14.892  64.487  1.00  0.00    -0.404 C  
HETATM    2  C   UNL     1     -12.036  13.413  64.703  1.00  0.00    -0.456 C  
HETATM    3  C   UNL     1     -12.084  12.865  65.933  1.00  0.00    -0.503 C  
HETATM    4  C   UNL     1     -12.180  12.543  63.488  1.00  0.00    -0.652 C  
ENDROOT
BRANCH   3   5
HETATM    5  C   UNL     1     -12.034  13.573  67.214  1.00  0.00    -0.408 C  
HETATM    6  C   UNL     1     -10.740  14.201  67.702  1.00  0.00    -0.260 C  
HETATM    7  C   UNL     1     -11.319  12.985  68.417  1.00  0.00    -0.326 C  
HETATM    8  C   UNL     1     -10.526  11.708  68.305  1.00  0.00    -0.223 C  
HETATM    9  C   UNL     1     -12.018  13.131  69.750  1.00  0.00    -0.382 C  
BRANCH   6  10
HETATM   10  C   UNL     1     -10.815  15.562  68.278  1.00  0.00    -0.292 C  
HETATM   11  O   UNL     1     -11.702  15.856  69.061  1.00  0.00    -0.385 OA 
BRANCH  10  12
HETATM   12  O   UNL     1      -9.831  16.395  67.835  1.00  0.00    -0.233 OA 
BRANCH  12  13
HETATM   13  C   UNL     1      -9.291  17.390  68.747  1.00  0.00    -0.244 C  
HETATM   14  C   UNL     1      -9.794  18.800  68.463  1.00  0.00    -0.444 C  
HETATM   15  C   UNL     1      -8.596  19.407  67.795  1.00  0.00    -0.311 C  
HETATM   16  C   UNL     1      -7.380  18.581  68.006  1.00  0.00    -0.261 C  
HETATM   17  O   UNL     1      -8.603  20.481  67.211  1.00  0.00    -0.344 OA 
HETATM   18  C   UNL     1      -6.972  16.330  69.141  1.00  0.00    -0.206 C  
HETATM   19  C   UNL     1      -7.790  17.467  68.644  1.00  0.00    -0.272 C  
BRANCH  16  20
HETATM   20  C   UNL     1      -6.082  18.971  67.393  1.00  0.00    -0.178 C  
BRANCH  20  21
HETATM   21  C   UNL     1      -5.195  19.700  68.349  1.00  0.00    -0.203 C  
HETATM   22  C   UNL     1      -5.646  20.369  69.421  1.00  0.00    -0.355 C  
ENDBRANCH  20  21
ENDBRANCH  16  20
ENDBRANCH  12  13
ENDBRANCH  10  12
ENDBRANCH   6  10
ENDBRANCH   3   5
TORSDOF 6
ENDMDL
MODEL       74
REMARK 921   NORMALIZED FREE ENERGY PREDICTED BY IDOCK:   -4.63 KCAL/MOL
REMARK 922        TOTAL FREE ENERGY PREDICTED BY IDOCK:   -7.78 KCAL/MOL
REMARK 923 INTER-LIGAND FREE ENERGY PREDICTED BY IDOCK:   -6.74 KCAL/MOL
REMARK 924 INTRA-LIGAND FREE ENERGY PREDICTED BY IDOCK:   -1.03 KCAL/MOL
REMARK 927      BINDING AFFINITY PREDICTED BY RF-SCORE:    0.00 PKD
ROOT
HETATM    1  C   UNL     1     -10.997  15.649  64.717  1.00  0.00    -0.418 C  
HETATM    2  C   UNL     1     -10.651  14.225  65.051  1.00  0.00    -0.444 C  
HETATM    3  C   UNL     1      -9.992  13.888  66.177  1.00  0.00    -0.322 C  
HETATM    4  C   UNL     1     -11.094  13.158  64.093  1.00  0.00    -0.426 C  
ENDROOT
BRANCH   3   5
HETATM    5  C   UNL     1      -9.556  14.791  67.244  1.00  0.00    -0.223 C  
HETATM    6  C   UNL     1      -9.006  14.239  68.549  1.00  0.00    -0.185 C  
HETATM    7  C   UNL     1     -10.356  14.948  68.525  1.00  0.00    -0.237 C  
HETATM    8  C   UNL     1     -11.564  14.087  68.800  1.00  0.00    -0.366 C  
HETATM    9  C   UNL     1     -10.502  16.356  69.057  1.00  0.00    -0.288 C  
BRANCH   6  10
HETATM   10  C   UNL     1      -7.792  14.879  69.102  1.00  0.00    -0.171 C  
HETATM   11  O   UNL     1      -6.847  14.203  69.469  1.00  0.00    -0.125 OA 
BRANCH  10  12
HETATM   12  O   UNL     1      -7.871  16.239  69.157  1.00  0.00    -0.235 OA 
BRANCH  12  13
HETATM   13  C   UNL     1      -6.745  17.026  68.683  1.00  0.00    -0.182 C  
HETATM   14  C   UNL     1      -6.153  17.932  69.756  1.00  0.00    -0.209 C  
HETATM   15  C   UNL     1      -6.692  19.268  69.338  1.00  0.00    -0.304 C  
HETATM   16  C   UNL     1      -7.225  19.230  67.952  1.00  0.00    -0.285 C  
HETATM   17  O   UNL     1      -6.638  20.279  70.024  1.00  0.00    -0.299 OA 
HETATM   18  C   UNL     1      -7.507  17.356  66.240  1.00  0.00    -0.354 C  
HETATM   19  C   UNL     1      -7.153  17.943  67.560  1.00  0.00    -0.205 C  
BRANCH  16  20
HETATM   20  C   UNL     1      -7.851  20.435  67.346  1.00  0.00    -0.360 C  
BRANCH  20  21
HETATM   21  C   UNL     1      -9.333  20.303  67.211  1.00  0.00    -0.538 C  
HETATM   22  C   UNL     1     -10.143  19.948  68.219  1.00  0.00    -0.571 C  
ENDBRANCH  20  21
ENDBRANCH  16  20
ENDBRANCH  12  13
ENDBRANCH  10  12
ENDBRANCH   6  10
ENDBRANCH   3   5
TORSDOF 6
ENDMDL
MODEL       75
REMARK 921   NORMALIZED FREE ENERGY PREDICTED BY IDOCK:   -4.63 KCAL/MOL
REMARK 922        TOTAL FREE ENERGY PREDICTED BY IDOCK:   -7.77 KCAL/MOL
REMARK 923 INTER-LIGAND FREE ENERGY PREDICTED BY IDOCK:   -6.80 KCAL/MOL
REMARK 924 INTRA-LIGAND FREE ENERGY PREDICTED BY IDOCK:   -0.97 KCAL/MOL
REMARK 927      BINDING AFFINITY PREDICTED BY RF-SCORE:    0.00 PKD
ROOT
HETATM    1  C   UNL     1     -10.657  19.031  65.972  1.00  0.00    -0.499 C  
HETATM    2  C   UNL     1     -10.409  18.770  67.431  1.00  0.00    -0.472 C  
HETATM    3  C   UNL     1     -10.502  17.539  67.970  1.00  0.00    -0.387 C  
HETATM    4  C   UNL     1     -10.015  19.938  68.289  1.00  0.00    -0.552 C  
ENDROOT
BRANCH   3   5
HETATM    5  C   UNL     1     -10.800  16.291  67.266  1.00  0.00    -0.216 C  
HETATM    6  C   UNL     1     -10.325  14.957  67.818  1.00  0.00    -0.244 C  
HETATM    7  C   UNL     1      -9.718  15.516  66.535  1.00  0.00    -0.290 C  
HETATM    8  C   UNL     1      -8.272  15.935  66.611  1.00  0.00    -0.317 C  
HETATM    9  C   UNL     1     -10.097  14.945  65.186  1.00  0.00    -0.354 C  
BRANCH   6  10
HETATM   10  C   UNL     1     -11.287  13.833  67.808  1.00  0.00    -0.303 C  
HETATM   11  O   UNL     1     -12.309  13.896  67.147  1.00  0.00    -0.372 OA 
BRANCH  10  12
HETATM   12  O   UNL     1     -10.909  12.787  68.596  1.00  0.00    -0.242 OA 
BRANCH  12  13
HETATM   13  C   UNL     1     -11.752  11.604  68.645  1.00  0.00    -0.325 C  
HETATM   14  C   UNL     1     -12.160  11.218  70.062  1.00  0.00    -0.425 C  
HETATM   15  C   UNL     1     -11.261  10.043  70.313  1.00  0.00    -0.313 C  
HETATM   16  C   UNL     1     -10.660   9.539  69.051  1.00  0.00    -0.238 C  
HETATM   17  O   UNL     1     -11.097   9.522  71.407  1.00  0.00    -0.351 OA 
HETATM   18  C   UNL     1     -10.758  10.339  66.628  1.00  0.00    -0.183 C  
HETATM   19  C   UNL     1     -11.039  10.401  68.087  1.00  0.00    -0.344 C  
BRANCH  16  20
HETATM   20  C   UNL     1      -9.699   8.405  69.069  1.00  0.00    -0.171 C  
BRANCH  20  21
HETATM   21  C   UNL     1      -8.293   8.851  69.309  1.00  0.00    -0.119 C  
HETATM   22  C   UNL     1      -7.252   8.463  68.557  1.00  0.00    -0.081 C  
ENDBRANCH  20  21
ENDBRANCH  16  20
ENDBRANCH  12  13
ENDBRANCH  10  12
ENDBRANCH   6  10
ENDBRANCH   3   5
TORSDOF 6
ENDMDL
MODEL       76
REMARK 921   NORMALIZED FREE ENERGY PREDICTED BY IDOCK:   -4.62 KCAL/MOL
REMARK 922        TOTAL FREE ENERGY PREDICTED BY IDOCK:   -7.77 KCAL/MOL
REMARK 923 INTER-LIGAND FREE ENERGY PREDICTED BY IDOCK:   -6.81 KCAL/MOL
REMARK 924 INTRA-LIGAND FREE ENERGY PREDICTED BY IDOCK:   -0.96 KCAL/MOL
REMARK 927      BINDING AFFINITY PREDICTED BY RF-SCORE:    0.00 PKD
ROOT
HETATM    1  C   UNL     1     -12.169  13.671  65.975  1.00  0.00    -0.492 C  
HETATM    2  C   UNL     1     -10.768  13.475  65.467  1.00  0.00    -0.293 C  
HETATM    3  C   UNL     1      -9.688  13.925  66.135  1.00  0.00    -0.289 C  
HETATM    4  C   UNL     1     -10.593  12.720  64.181  1.00  0.00    -0.441 C  
ENDROOT
BRANCH   3   5
HETATM    5  C   UNL     1      -9.677  14.609  67.430  1.00  0.00    -0.218 C  
HETATM    6  C   UNL     1      -9.749  16.125  67.505  1.00  0.00    -0.233 C  
HETATM    7  C   UNL     1      -8.468  15.397  67.899  1.00  0.00    -0.150 C  
HETATM    8  C   UNL     1      -7.278  15.611  66.997  1.00  0.00    -0.175 C  
HETATM    9  C   UNL     1      -8.085  15.236  69.354  1.00  0.00    -0.230 C  
BRANCH   6  10
HETATM   10  C   UNL     1     -10.659  16.716  68.512  1.00  0.00    -0.338 C  
HETATM   11  O   UNL     1     -11.814  16.339  68.601  1.00  0.00    -0.255 OA 
BRANCH  10  12
HETATM   12  O   UNL     1     -10.074  17.686  69.270  1.00  0.00    -0.274 OA 
BRANCH  12  13
HETATM   13  C   UNL     1      -9.963  19.030  68.727  1.00  0.00    -0.411 C  
HETATM   14  C   UNL     1     -10.969  19.311  67.617  1.00  0.00    -0.382 C  
HETATM   15  C   UNL     1     -10.093  19.227  66.402  1.00  0.00    -0.429 C  
HETATM   16  C   UNL     1      -8.653  19.276  66.766  1.00  0.00    -0.326 C  
HETATM   17  O   UNL     1     -10.509  19.192  65.253  1.00  0.00    -0.351 OA 
HETATM   18  C   UNL     1      -7.417  19.346  68.999  1.00  0.00    -0.385 C  
HETATM   19  C   UNL     1      -8.608  19.260  68.113  1.00  0.00    -0.363 C  
BRANCH  16  20
HETATM   20  C   UNL     1      -7.602  19.161  65.720  1.00  0.00    -0.156 C  
BRANCH  20  21
HETATM   21  C   UNL     1      -6.897  20.455  65.474  1.00  0.00    -0.281 C  
HETATM   22  C   UNL     1      -6.062  20.663  64.445  1.00  0.00    -0.338 C  
ENDBRANCH  20  21
ENDBRANCH  16  20
ENDBRANCH  12  13
ENDBRANCH  10  12
ENDBRANCH   6  10
ENDBRANCH   3   5
TORSDOF 6
ENDMDL
MODEL       77
REMARK 921   NORMALIZED FREE ENERGY PREDICTED BY IDOCK:   -4.62 KCAL/MOL
REMARK 922        TOTAL FREE ENERGY PREDICTED BY IDOCK:   -7.76 KCAL/MOL
REMARK 923 INTER-LIGAND FREE ENERGY PREDICTED BY IDOCK:   -6.60 KCAL/MOL
REMARK 924 INTRA-LIGAND FREE ENERGY PREDICTED BY IDOCK:   -1.16 KCAL/MOL
REMARK 927      BINDING AFFINITY PREDICTED BY RF-SCORE:    0.00 PKD
ROOT
HETATM    1  C   UNL     1     -13.419  13.619  71.935  1.00  0.00    -0.519 C  
HETATM    2  C   UNL     1     -12.605  14.810  71.514  1.00  0.00    -0.400 C  
HETATM    3  C   UNL     1     -12.062  14.915  70.286  1.00  0.00    -0.379 C  
HETATM    4  C   UNL     1     -12.434  15.923  72.508  1.00  0.00    -0.566 C  
ENDROOT
BRANCH   3   5
HETATM    5  C   UNL     1     -12.194  13.963  69.181  1.00  0.00    -0.305 C  
HETATM    6  C   UNL     1     -11.037  13.056  68.798  1.00  0.00    -0.311 C  
HETATM    7  C   UNL     1     -11.477  14.176  67.861  1.00  0.00    -0.340 C  
HETATM    8  C   UNL     1     -10.501  15.311  67.678  1.00  0.00    -0.263 C  
HETATM    9  C   UNL     1     -12.270  13.873  66.609  1.00  0.00    -0.465 C  
BRANCH   6  10
HETATM   10  C   UNL     1     -11.345  11.634  68.523  1.00  0.00    -0.274 C  
HETATM   11  O   UNL     1     -12.404  11.149  68.880  1.00  0.00    -0.512 OA 
BRANCH  10  12
HETATM   12  O   UNL     1     -10.344  10.978  67.870  1.00  0.00    -0.176 OA 
BRANCH  12  13
HETATM   13  C   UNL     1     -10.689   9.883  66.979  1.00  0.00    -0.167 C  
HETATM   14  C   UNL     1     -10.357   8.513  67.558  1.00  0.00    -0.334 C  
HETATM   15  C   UNL     1      -9.119   8.164  66.786  1.00  0.00    -0.157 C  
HETATM   16  C   UNL     1      -8.948   9.047  65.603  1.00  0.00    -0.249 C  
HETATM   17  O   UNL     1      -8.380   7.227  67.054  1.00  0.00    -0.115 OA 
HETATM   18  C   UNL     1     -10.247  11.065  64.729  1.00  0.00    -0.381 C  
HETATM   19  C   UNL     1      -9.926   9.971  65.684  1.00  0.00    -0.355 C  
BRANCH  16  20
HETATM   20  C   UNL     1      -7.762   8.909  64.718  1.00  0.00    -0.111 C  
BRANCH  20  21
HETATM   21  C   UNL     1      -8.065   8.149  63.469  1.00  0.00    -0.113 C  
HETATM   22  C   UNL     1      -7.906   6.822  63.348  1.00  0.00    -0.107 C  
ENDBRANCH  20  21
ENDBRANCH  16  20
ENDBRANCH  12  13
ENDBRANCH  10  12
ENDBRANCH   6  10
ENDBRANCH   3   5
TORSDOF 6
ENDMDL
MODEL       78
REMARK 921   NORMALIZED FREE ENERGY PREDICTED BY IDOCK:   -4.59 KCAL/MOL
REMARK 922        TOTAL FREE ENERGY PREDICTED BY IDOCK:   -7.72 KCAL/MOL
REMARK 923 INTER-LIGAND FREE ENERGY PREDICTED BY IDOCK:   -6.82 KCAL/MOL
REMARK 924 INTRA-LIGAND FREE ENERGY PREDICTED BY IDOCK:   -0.89 KCAL/MOL
REMARK 927      BINDING AFFINITY PREDICTED BY RF-SCORE:    0.00 PKD
ROOT
HETATM    1  C   UNL     1     -12.989  14.293  70.962  1.00  0.00    -0.411 C  
HETATM    2  C   UNL     1     -12.072  15.429  71.316  1.00  0.00    -0.424 C  
HETATM    3  C   UNL     1     -11.329  16.072  70.394  1.00  0.00    -0.405 C  
HETATM    4  C   UNL     1     -12.025  15.864  72.752  1.00  0.00    -0.616 C  
ENDROOT
BRANCH   3   5
HETATM    5  C   UNL     1     -11.314  15.825  68.950  1.00  0.00    -0.356 C  
HETATM    6  C   UNL     1     -10.535  14.655  68.373  1.00  0.00    -0.243 C  
HETATM    7  C   UNL     1     -10.073  16.085  68.116  1.00  0.00    -0.234 C  
HETATM    8  C   UNL     1      -8.770  16.489  68.760  1.00  0.00    -0.259 C  
HETATM    9  C   UNL     1     -10.294  16.741  66.770  1.00  0.00    -0.293 C  
BRANCH   6  10
HETATM   10  C   UNL     1     -11.198  13.843  67.328  1.00  0.00    -0.312 C  
HETATM   11  O   UNL     1     -12.317  14.126  66.940  1.00  0.00    -0.419 OA 
BRANCH  10  12
HETATM   12  O   UNL     1     -10.442  12.794  66.894  1.00  0.00    -0.239 OA 
BRANCH  12  13
HETATM   13  C   UNL     1     -11.110  11.571  66.481  1.00  0.00    -0.282 C  
HETATM   14  C   UNL     1     -10.765  10.374  67.359  1.00  0.00    -0.338 C  
HETATM   15  C   UNL     1      -9.813   9.628  66.472  1.00  0.00    -0.235 C  
HETATM   16  C   UNL     1      -9.881  10.116  65.070  1.00  0.00    -0.392 C  
HETATM   17  O   UNL     1      -9.119   8.690  66.839  1.00  0.00    -0.135 OA 
HETATM   18  C   UNL     1     -11.172  12.007  63.939  1.00  0.00    -0.490 C  
HETATM   19  C   UNL     1     -10.712  11.177  65.084  1.00  0.00    -0.279 C  
BRANCH  16  20
HETATM   20  C   UNL     1      -8.989   9.548  64.025  1.00  0.00    -0.228 C  
BRANCH  20  21
HETATM   21  C   UNL     1      -7.616  10.135  64.063  1.00  0.00    -0.128 C  
HETATM   22  C   UNL     1      -6.544   9.558  63.499  1.00  0.00    -0.103 C  
ENDBRANCH  20  21
ENDBRANCH  16  20
ENDBRANCH  12  13
ENDBRANCH  10  12
ENDBRANCH   6  10
ENDBRANCH   3   5
TORSDOF 6
ENDMDL
MODEL       79
REMARK 921   NORMALIZED FREE ENERGY PREDICTED BY IDOCK:   -4.57 KCAL/MOL
REMARK 922        TOTAL FREE ENERGY PREDICTED BY IDOCK:   -7.69 KCAL/MOL
REMARK 923 INTER-LIGAND FREE ENERGY PREDICTED BY IDOCK:   -6.62 KCAL/MOL
REMARK 924 INTRA-LIGAND FREE ENERGY PREDICTED BY IDOCK:   -1.07 KCAL/MOL
REMARK 927      BINDING AFFINITY PREDICTED BY RF-SCORE:    0.00 PKD
ROOT
HETATM    1  C   UNL     1     -13.605  13.989  72.289  1.00  0.00    -0.622 C  
HETATM    2  C   UNL     1     -12.485  14.795  71.696  1.00  0.00    -0.398 C  
HETATM    3  C   UNL     1     -11.820  14.403  70.592  1.00  0.00    -0.361 C  
HETATM    4  C   UNL     1     -12.136  16.096  72.359  1.00  0.00    -0.630 C  
ENDROOT
BRANCH   3   5
HETATM    5  C   UNL     1     -12.081  13.208  69.786  1.00  0.00    -0.336 C  
HETATM    6  C   UNL     1     -11.222  11.965  69.943  1.00  0.00    -0.051 C  
HETATM    7  C   UNL     1     -11.148  12.791  68.663  1.00  0.00    -0.304 C  
HETATM    8  C   UNL     1      -9.851  13.519  68.415  1.00  0.00    -0.225 C  
HETATM    9  C   UNL     1     -11.806  12.307  67.390  1.00  0.00    -0.327 C  
BRANCH   6  10
HETATM   10  C   UNL     1     -11.915  10.658  69.997  1.00  0.00    -0.329 C  
HETATM   11  O   UNL     1     -13.132  10.603  70.025  1.00  0.00    -0.098 OA 
BRANCH  10  12
HETATM   12  O   UNL     1     -11.064   9.593  70.024  1.00  0.00    -0.240 OA 
BRANCH  12  13
HETATM   13  C   UNL     1     -10.731   8.993  71.305  1.00  0.00    -0.309 C  
HETATM   14  C   UNL     1      -9.230   8.838  71.521  1.00  0.00    -0.332 C  
HETATM   15  C   UNL     1      -9.054   7.367  71.288  1.00  0.00    -0.142 C  
HETATM   16  C   UNL     1     -10.356   6.652  71.314  1.00  0.00    -0.230 C  
HETATM   17  O   UNL     1      -7.971   6.813  71.162  1.00  0.00    -0.101 OA 
HETATM   18  C   UNL     1     -12.775   7.438  71.545  1.00  0.00    -0.409 C  
HETATM   19  C   UNL     1     -11.303   7.606  71.424  1.00  0.00    -0.285 C  
BRANCH  16  20
HETATM   20  C   UNL     1     -10.424   5.189  71.061  1.00  0.00    -0.241 C  
BRANCH  20  21
HETATM   21  C   UNL     1     -10.274   4.385  72.311  1.00  0.00    -0.255 C  
HETATM   22  C   UNL     1     -10.933   4.649  73.450  1.00  0.00    -0.395 C  
ENDBRANCH  20  21
ENDBRANCH  16  20
ENDBRANCH  12  13
ENDBRANCH  10  12
ENDBRANCH   6  10
ENDBRANCH   3   5
TORSDOF 6
ENDMDL
MODEL       80
REMARK 921   NORMALIZED FREE ENERGY PREDICTED BY IDOCK:   -4.57 KCAL/MOL
REMARK 922        TOTAL FREE ENERGY PREDICTED BY IDOCK:   -7.69 KCAL/MOL
REMARK 923 INTER-LIGAND FREE ENERGY PREDICTED BY IDOCK:   -6.15 KCAL/MOL
REMARK 924 INTRA-LIGAND FREE ENERGY PREDICTED BY IDOCK:   -1.53 KCAL/MOL
REMARK 927      BINDING AFFINITY PREDICTED BY RF-SCORE:    0.00 PKD
ROOT
HETATM    1  C   UNL     1     -10.814   6.502  68.080  1.00  0.00    -0.372 C  
HETATM    2  C   UNL     1     -10.102   6.330  66.767  1.00  0.00    -0.237 C  
HETATM    3  C   UNL     1      -9.443   7.340  66.166  1.00  0.00    -0.064 C  
HETATM    4  C   UNL     1     -10.115   4.965  66.142  1.00  0.00    -0.280 C  
ENDROOT
BRANCH   3   5
HETATM    5  C   UNL     1      -9.270   8.703  66.674  1.00  0.00    -0.227 C  
HETATM    6  C   UNL     1     -10.103   9.847  66.120  1.00  0.00    -0.315 C  
HETATM    7  C   UNL     1      -8.605   9.781  65.838  1.00  0.00    -0.149 C  
HETATM    8  C   UNL     1      -8.210   9.524  64.406  1.00  0.00    -0.148 C  
HETATM    9  C   UNL     1      -7.639  10.692  66.563  1.00  0.00    -0.134 C  
BRANCH   6  10
HETATM   10  C   UNL     1     -10.679  10.804  67.091  1.00  0.00    -0.272 C  
HETATM   11  O   UNL     1     -10.648  12.002  66.872  1.00  0.00    -0.219 OA 
BRANCH  10  12
HETATM   12  O   UNL     1     -11.204  10.206  68.197  1.00  0.00    -0.258 OA 
BRANCH  12  13
HETATM   13  C   UNL     1     -10.666  10.551  69.503  1.00  0.00    -0.255 C  
HETATM   14  C   UNL     1      -9.392   9.787  69.846  1.00  0.00    -0.262 C  
HETATM   15  C   UNL     1      -9.913   8.774  70.821  1.00  0.00    -0.213 C  
HETATM   16  C   UNL     1     -11.271   9.135  71.306  1.00  0.00    -0.407 C  
HETATM   17  O   UNL     1      -9.277   7.810  71.220  1.00  0.00    -0.140 OA 
HETATM   18  C   UNL     1     -12.889  11.023  70.723  1.00  0.00    -0.354 C  
HETATM   19  C   UNL     1     -11.642  10.221  70.600  1.00  0.00    -0.435 C  
BRANCH  16  20
HETATM   20  C   UNL     1     -12.001   8.247  72.249  1.00  0.00    -0.448 C  
BRANCH  20  21
HETATM   21  C   UNL     1     -12.860   7.248  71.544  1.00  0.00    -0.430 C  
HETATM   22  C   UNL     1     -14.201   7.281  71.556  1.00  0.00    -0.540 C  
ENDBRANCH  20  21
ENDBRANCH  16  20
ENDBRANCH  12  13
ENDBRANCH  10  12
ENDBRANCH   6  10
ENDBRANCH   3   5
TORSDOF 6
ENDMDL
MODEL       81
REMARK 921   NORMALIZED FREE ENERGY PREDICTED BY IDOCK:   -4.56 KCAL/MOL
REMARK 922        TOTAL FREE ENERGY PREDICTED BY IDOCK:   -7.68 KCAL/MOL
REMARK 923 INTER-LIGAND FREE ENERGY PREDICTED BY IDOCK:   -6.17 KCAL/MOL
REMARK 924 INTRA-LIGAND FREE ENERGY PREDICTED BY IDOCK:   -1.51 KCAL/MOL
REMARK 927      BINDING AFFINITY PREDICTED BY RF-SCORE:    0.00 PKD
ROOT
HETATM    1  C   UNL     1     -12.291  10.513  70.707  1.00  0.00    -0.474 C  
HETATM    2  C   UNL     1     -12.580   9.344  71.606  1.00  0.00    -0.460 C  
HETATM    3  C   UNL     1     -11.602   8.582  72.135  1.00  0.00    -0.447 C  
HETATM    4  C   UNL     1     -14.016   9.055  71.933  1.00  0.00    -0.445 C  
ENDROOT
BRANCH   3   5
HETATM    5  C   UNL     1     -10.159   8.771  71.979  1.00  0.00    -0.397 C  
HETATM    6  C   UNL     1      -9.375   7.950  70.969  1.00  0.00    -0.167 C  
HETATM    7  C   UNL     1      -9.167   7.729  72.464  1.00  0.00    -0.227 C  
HETATM    8  C   UNL     1      -9.633   6.403  73.011  1.00  0.00    -0.160 C  
HETATM    9  C   UNL     1      -7.930   8.252  73.159  1.00  0.00    -0.199 C  
BRANCH   6  10
HETATM   10  C   UNL     1      -8.382   8.661  70.133  1.00  0.00    -0.126 C  
HETATM   11  O   UNL     1      -7.385   8.088  69.732  1.00  0.00    -0.070 OA 
BRANCH  10  12
HETATM   12  O   UNL     1      -8.706   9.964  69.897  1.00  0.00    -0.205 OA 
BRANCH  12  13
HETATM   13  C   UNL     1      -8.541  10.495  68.554  1.00  0.00    -0.135 C  
HETATM   14  C   UNL     1      -7.891  11.874  68.531  1.00  0.00    -0.136 C  
HETATM   15  C   UNL     1      -9.077  12.749  68.252  1.00  0.00    -0.180 C  
HETATM   16  C   UNL     1     -10.239  11.955  67.775  1.00  0.00    -0.211 C  
HETATM   17  O   UNL     1      -9.070  13.969  68.339  1.00  0.00    -0.191 OA 
HETATM   18  C   UNL     1     -10.634   9.451  67.468  1.00  0.00    -0.333 C  
HETATM   19  C   UNL     1      -9.869  10.662  67.866  1.00  0.00    -0.181 C  
BRANCH  16  20
HETATM   20  C   UNL     1     -11.539  12.613  67.480  1.00  0.00    -0.418 C  
BRANCH  20  21
HETATM   21  C   UNL     1     -11.696  12.947  66.033  1.00  0.00    -0.456 C  
HETATM   22  C   UNL     1     -12.580  13.842  65.567  1.00  0.00    -0.551 C  
ENDBRANCH  20  21
ENDBRANCH  16  20
ENDBRANCH  12  13
ENDBRANCH  10  12
ENDBRANCH   6  10
ENDBRANCH   3   5
TORSDOF 6
ENDMDL
MODEL       82
REMARK 921   NORMALIZED FREE ENERGY PREDICTED BY IDOCK:   -4.54 KCAL/MOL
REMARK 922        TOTAL FREE ENERGY PREDICTED BY IDOCK:   -7.66 KCAL/MOL
REMARK 923 INTER-LIGAND FREE ENERGY PREDICTED BY IDOCK:   -6.25 KCAL/MOL
REMARK 924 INTRA-LIGAND FREE ENERGY PREDICTED BY IDOCK:   -1.41 KCAL/MOL
REMARK 927      BINDING AFFINITY PREDICTED BY RF-SCORE:    0.00 PKD
ROOT
HETATM    1  C   UNL     1     -11.524   6.308  70.869  1.00  0.00    -0.377 C  
HETATM    2  C   UNL     1     -10.209   5.853  70.302  1.00  0.00    -0.279 C  
HETATM    3  C   UNL     1      -9.265   6.719  69.885  1.00  0.00    -0.147 C  
HETATM    4  C   UNL     1      -9.951   4.375  70.239  1.00  0.00    -0.248 C  
ENDROOT
BRANCH   3   5
HETATM    5  C   UNL     1      -9.325   8.181  69.945  1.00  0.00    -0.159 C  
HETATM    6  C   UNL     1      -9.965   8.977  68.821  1.00  0.00    -0.194 C  
HETATM    7  C   UNL     1      -8.459   9.047  69.048  1.00  0.00    -0.132 C  
HETATM    8  C   UNL     1      -7.595   8.437  67.974  1.00  0.00    -0.098 C  
HETATM    9  C   UNL     1      -7.828  10.261  69.694  1.00  0.00    -0.168 C  
BRANCH   6  10
HETATM   10  C   UNL     1     -10.870  10.086  69.198  1.00  0.00    -0.222 C  
HETATM   11  O   UNL     1     -11.181  10.264  70.363  1.00  0.00    -0.293 OA 
BRANCH  10  12
HETATM   12  O   UNL     1     -11.294  10.827  68.135  1.00  0.00    -0.290 OA 
BRANCH  12  13
HETATM   13  C   UNL     1     -10.782  12.178  67.974  1.00  0.00    -0.213 C  
HETATM   14  C   UNL     1     -11.881  13.233  67.924  1.00  0.00    -0.388 C  
HETATM   15  C   UNL     1     -11.916  13.547  66.458  1.00  0.00    -0.413 C  
HETATM   16  C   UNL     1     -10.710  13.028  65.762  1.00  0.00    -0.291 C  
HETATM   17  O   UNL     1     -12.790  14.207  65.915  1.00  0.00    -0.471 OA 
HETATM   18  C   UNL     1      -8.713  11.636  66.532  1.00  0.00    -0.182 C  
HETATM   19  C   UNL     1     -10.023  12.324  66.682  1.00  0.00    -0.229 C  
BRANCH  16  20
HETATM   20  C   UNL     1     -10.556  13.187  64.292  1.00  0.00    -0.432 C  
BRANCH  20  21
HETATM   21  C   UNL     1     -11.145  12.047  63.528  1.00  0.00    -0.519 C  
HETATM   22  C   UNL     1     -12.449  11.946  63.229  1.00  0.00    -0.506 C  
ENDBRANCH  20  21
ENDBRANCH  16  20
ENDBRANCH  12  13
ENDBRANCH  10  12
ENDBRANCH   6  10
ENDBRANCH   3   5
TORSDOF 6
ENDMDL
MODEL       83
REMARK 921   NORMALIZED FREE ENERGY PREDICTED BY IDOCK:   -4.54 KCAL/MOL
REMARK 922        TOTAL FREE ENERGY PREDICTED BY IDOCK:   -7.66 KCAL/MOL
REMARK 923 INTER-LIGAND FREE ENERGY PREDICTED BY IDOCK:   -6.37 KCAL/MOL
REMARK 924 INTRA-LIGAND FREE ENERGY PREDICTED BY IDOCK:   -1.29 KCAL/MOL
REMARK 927      BINDING AFFINITY PREDICTED BY RF-SCORE:    0.00 PKD
ROOT
HETATM    1  C   UNL     1      -8.138  15.927  66.701  1.00  0.00    -0.298 C  
HETATM    2  C   UNL     1      -8.549  16.456  68.046  1.00  0.00    -0.185 C  
HETATM    3  C   UNL     1      -9.544  15.902  68.766  1.00  0.00    -0.219 C  
HETATM    4  C   UNL     1      -7.785  17.625  68.598  1.00  0.00    -0.281 C  
ENDROOT
BRANCH   3   5
HETATM    5  C   UNL     1     -10.335  14.722  68.411  1.00  0.00    -0.233 C  
HETATM    6  C   UNL     1     -11.656  14.867  67.674  1.00  0.00    -0.357 C  
HETATM    7  C   UNL     1     -11.634  14.395  69.124  1.00  0.00    -0.344 C  
HETATM    8  C   UNL     1     -12.225  15.339  70.140  1.00  0.00    -0.402 C  
HETATM    9  C   UNL     1     -11.863  12.939  69.469  1.00  0.00    -0.383 C  
BRANCH   6  10
HETATM   10  C   UNL     1     -11.916  13.941  66.549  1.00  0.00    -0.439 C  
HETATM   11  O   UNL     1     -12.996  13.937  65.986  1.00  0.00    -0.378 OA 
BRANCH  10  12
HETATM   12  O   UNL     1     -10.857  13.135  66.253  1.00  0.00    -0.277 OA 
BRANCH  12  13
HETATM   13  C   UNL     1     -11.109  11.748  65.899  1.00  0.00    -0.302 C  
HETATM   14  C   UNL     1     -10.459  10.758  66.858  1.00  0.00    -0.304 C  
HETATM   15  C   UNL     1      -9.289  10.289  66.045  1.00  0.00    -0.180 C  
HETATM   16  C   UNL     1      -9.438  10.662  64.614  1.00  0.00    -0.308 C  
HETATM   17  O   UNL     1      -8.363   9.625  66.488  1.00  0.00    -0.118 OA 
HETATM   18  C   UNL     1     -11.186  12.014  63.334  1.00  0.00    -0.481 C  
HETATM   19  C   UNL     1     -10.549  11.421  64.540  1.00  0.00    -0.390 C  
BRANCH  16  20
HETATM   20  C   UNL     1      -8.372  10.336  63.631  1.00  0.00    -0.169 C  
BRANCH  20  21
HETATM   21  C   UNL     1      -8.604   9.029  62.946  1.00  0.00    -0.180 C  
HETATM   22  C   UNL     1      -7.853   7.937  63.152  1.00  0.00    -0.142 C  
ENDBRANCH  20  21
ENDBRANCH  16  20
ENDBRANCH  12  13
ENDBRANCH  10  12
ENDBRANCH   6  10
ENDBRANCH   3   5
TORSDOF 6
ENDMDL
MODEL       84
REMARK 921   NORMALIZED FREE ENERGY PREDICTED BY IDOCK:   -4.53 KCAL/MOL
REMARK 922        TOTAL FREE ENERGY PREDICTED BY IDOCK:   -7.64 KCAL/MOL
REMARK 923 INTER-LIGAND FREE ENERGY PREDICTED BY IDOCK:   -6.12 KCAL/MOL
REMARK 924 INTRA-LIGAND FREE ENERGY PREDICTED BY IDOCK:   -1.52 KCAL/MOL
REMARK 927      BINDING AFFINITY PREDICTED BY RF-SCORE:    0.00 PKD
ROOT
HETATM    1  C   UNL     1     -12.532  13.549  65.158  1.00  0.00    -0.495 C  
HETATM    2  C   UNL     1     -11.338  14.080  65.901  1.00  0.00    -0.317 C  
HETATM    3  C   UNL     1     -10.752  13.399  66.905  1.00  0.00    -0.274 C  
HETATM    4  C   UNL     1     -10.781  15.405  65.467  1.00  0.00    -0.397 C  
ENDROOT
BRANCH   3   5
HETATM    5  C   UNL     1     -11.121  12.071  67.400  1.00  0.00    -0.337 C  
HETATM    6  C   UNL     1     -10.683  11.609  68.779  1.00  0.00    -0.254 C  
HETATM    7  C   UNL     1     -10.094  10.961  67.531  1.00  0.00    -0.214 C  
HETATM    8  C   UNL     1      -8.631  11.219  67.276  1.00  0.00    -0.143 C  
HETATM    9  C   UNL     1     -10.536   9.583  67.092  1.00  0.00    -0.322 C  
BRANCH   6  10
HETATM   10  C   UNL     1     -11.689  10.924  69.621  1.00  0.00    -0.331 C  
HETATM   11  O   UNL     1     -12.861  10.897  69.289  1.00  0.00    -0.173 OA 
BRANCH  10  12
HETATM   12  O   UNL     1     -11.166  10.373  70.753  1.00  0.00    -0.326 OA 
BRANCH  12  13
HETATM   13  C   UNL     1     -10.725   8.988  70.719  1.00  0.00    -0.241 C  
HETATM   14  C   UNL     1     -11.581   8.067  71.580  1.00  0.00    -0.317 C  
HETATM   15  C   UNL     1     -10.684   7.859  72.764  1.00  0.00    -0.371 C  
HETATM   16  C   UNL     1      -9.291   8.289  72.473  1.00  0.00    -0.350 C  
HETATM   17  O   UNL     1     -11.035   7.338  73.813  1.00  0.00    -0.255 OA 
HETATM   18  C   UNL     1      -8.192   9.396  70.452  1.00  0.00    -0.214 C  
HETATM   19  C   UNL     1      -9.322   8.848  71.247  1.00  0.00    -0.336 C  
BRANCH  16  20
HETATM   20  C   UNL     1      -8.239   8.214  73.521  1.00  0.00    -0.276 C  
BRANCH  20  21
HETATM   21  C   UNL     1      -7.342   7.032  73.348  1.00  0.00    -0.076 C  
HETATM   22  C   UNL     1      -7.751   5.854  72.853  1.00  0.00    -0.100 C  
ENDBRANCH  20  21
ENDBRANCH  16  20
ENDBRANCH  12  13
ENDBRANCH  10  12
ENDBRANCH   6  10
ENDBRANCH   3   5
TORSDOF 6
ENDMDL
MODEL       85
REMARK 921   NORMALIZED FREE ENERGY PREDICTED BY IDOCK:   -4.52 KCAL/MOL
REMARK 922        TOTAL FREE ENERGY PREDICTED BY IDOCK:   -7.62 KCAL/MOL
REMARK 923 INTER-LIGAND FREE ENERGY PREDICTED BY IDOCK:   -6.44 KCAL/MOL
REMARK 924 INTRA-LIGAND FREE ENERGY PREDICTED BY IDOCK:   -1.18 KCAL/MOL
REMARK 927      BINDING AFFINITY PREDICTED BY RF-SCORE:    0.00 PKD
ROOT
HETATM    1  C   UNL     1     -10.147  18.676  66.545  1.00  0.00    -0.426 C  
HETATM    2  C   UNL     1      -9.233  19.510  67.399  1.00  0.00    -0.393 C  
HETATM    3  C   UNL     1      -8.125  19.005  67.975  1.00  0.00    -0.328 C  
HETATM    4  C   UNL     1      -9.576  20.961  67.574  1.00  0.00    -0.358 C  
ENDROOT
BRANCH   3   5
HETATM    5  C   UNL     1      -7.610  17.641  67.845  1.00  0.00    -0.210 C  
HETATM    6  C   UNL     1      -7.289  16.813  69.078  1.00  0.00    -0.231 C  
HETATM    7  C   UNL     1      -6.166  17.305  68.171  1.00  0.00    -0.147 C  
HETATM    8  C   UNL     1      -5.239  18.337  68.759  1.00  0.00    -0.179 C  
HETATM    9  C   UNL     1      -5.467  16.357  67.221  1.00  0.00    -0.137 C  
BRANCH   6  10
HETATM   10  C   UNL     1      -7.732  15.401  69.088  1.00  0.00    -0.207 C  
HETATM   11  O   UNL     1      -7.049  14.541  69.615  1.00  0.00    -0.145 OA 
BRANCH  10  12
HETATM   12  O   UNL     1      -8.925  15.202  68.459  1.00  0.00    -0.172 OA 
BRANCH  12  13
HETATM   13  C   UNL     1      -8.948  14.429  67.228  1.00  0.00    -0.212 C  
HETATM   14  C   UNL     1      -8.923  15.296  65.975  1.00  0.00    -0.151 C  
HETATM   15  C   UNL     1     -10.354  15.210  65.534  1.00  0.00    -0.375 C  
HETATM   16  C   UNL     1     -11.069  14.103  66.220  1.00  0.00    -0.318 C  
HETATM   17  O   UNL     1     -10.852  15.915  64.668  1.00  0.00    -0.557 OA 
HETATM   18  C   UNL     1     -10.388  12.450  68.044  1.00  0.00    -0.220 C  
HETATM   19  C   UNL     1     -10.203  13.604  67.125  1.00  0.00    -0.244 C  
BRANCH  16  20
HETATM   20  C   UNL     1     -12.514  13.861  65.967  1.00  0.00    -0.501 C  
BRANCH  20  21
HETATM   21  C   UNL     1     -12.746  12.905  64.843  1.00  0.00    -0.474 C  
HETATM   22  C   UNL     1     -11.772  12.187  64.264  1.00  0.00    -0.451 C  
ENDBRANCH  20  21
ENDBRANCH  16  20
ENDBRANCH  12  13
ENDBRANCH  10  12
ENDBRANCH   6  10
ENDBRANCH   3   5
TORSDOF 6
ENDMDL
MODEL       86
REMARK 921   NORMALIZED FREE ENERGY PREDICTED BY IDOCK:   -4.50 KCAL/MOL
REMARK 922        TOTAL FREE ENERGY PREDICTED BY IDOCK:   -7.60 KCAL/MOL
REMARK 923 INTER-LIGAND FREE ENERGY PREDICTED BY IDOCK:   -7.15 KCAL/MOL
REMARK 924 INTRA-LIGAND FREE ENERGY PREDICTED BY IDOCK:   -0.44 KCAL/MOL
REMARK 927      BINDING AFFINITY PREDICTED BY RF-SCORE:    0.00 PKD
ROOT
HETATM    1  C   UNL     1     -12.199  14.472  73.750  1.00  0.00    -0.053 C  
HETATM    2  C   UNL     1     -12.114  15.940  73.439  1.00  0.00    -0.588 C  
HETATM    3  C   UNL     1     -11.732  16.401  72.232  1.00  0.00    -0.463 C  
HETATM    4  C   UNL     1     -12.505  16.905  74.521  1.00  0.00    -0.038 C  
ENDROOT
BRANCH   3   5
HETATM    5  C   UNL     1     -11.392  15.602  71.053  1.00  0.00    -0.426 C  
HETATM    6  C   UNL     1     -11.870  16.016  69.672  1.00  0.00    -0.234 C  
HETATM    7  C   UNL     1     -12.435  14.765  70.336  1.00  0.00    -0.405 C  
HETATM    8  C   UNL     1     -13.888  14.821  70.733  1.00  0.00    -0.008 C  
HETATM    9  C   UNL     1     -11.998  13.387  69.889  1.00  0.00    -0.408 C  
BRANCH   6  10
HETATM   10  C   UNL     1     -10.894  15.945  68.561  1.00  0.00    -0.298 C  
HETATM   11  O   UNL     1      -9.999  16.767  68.470  1.00  0.00    -0.246 OA 
BRANCH  10  12
HETATM   12  O   UNL     1     -11.123  14.912  67.702  1.00  0.00    -0.290 OA 
BRANCH  12  13
HETATM   13  C   UNL     1     -10.434  14.899  66.422  1.00  0.00    -0.299 C  
HETATM   14  C   UNL     1     -11.182  15.657  65.332  1.00  0.00    -0.185 C  
HETATM   15  C   UNL     1     -11.756  14.525  64.532  1.00  0.00    -0.410 C  
HETATM   16  C   UNL     1     -11.105  13.234  64.874  1.00  0.00    -0.345 C  
HETATM   17  O   UNL     1     -12.602  14.657  63.660  1.00  0.00    -0.773 OA 
HETATM   18  C   UNL     1      -9.342  12.568  66.597  1.00  0.00    -0.236 C  
HETATM   19  C   UNL     1     -10.274  13.495  65.902  1.00  0.00    -0.306 C  
BRANCH  16  20
HETATM   20  C   UNL     1     -11.549  11.968  64.233  1.00  0.00    -0.435 C  
BRANCH  20  21
HETATM   21  C   UNL     1     -10.661  11.555  63.105  1.00  0.00    -0.323 C  
HETATM   22  C   UNL     1      -9.555  10.812  63.262  1.00  0.00    -0.384 C  
ENDBRANCH  20  21
ENDBRANCH  16  20
ENDBRANCH  12  13
ENDBRANCH  10  12
ENDBRANCH   6  10
ENDBRANCH   3   5
TORSDOF 6
ENDMDL
MODEL       87
REMARK 921   NORMALIZED FREE ENERGY PREDICTED BY IDOCK:   -4.50 KCAL/MOL
REMARK 922        TOTAL FREE ENERGY PREDICTED BY IDOCK:   -7.59 KCAL/MOL
REMARK 923 INTER-LIGAND FREE ENERGY PREDICTED BY IDOCK:   -6.67 KCAL/MOL
REMARK 924 INTRA-LIGAND FREE ENERGY PREDICTED BY IDOCK:   -0.92 KCAL/MOL
REMARK 927      BINDING AFFINITY PREDICTED BY RF-SCORE:    0.00 PKD
ROOT
HETATM    1  C   UNL     1     -10.643  11.185  64.644  1.00  0.00    -0.386 C  
HETATM    2  C   UNL     1      -9.616  10.110  64.859  1.00  0.00    -0.369 C  
HETATM    3  C   UNL     1      -9.433   9.514  66.053  1.00  0.00    -0.294 C  
HETATM    4  C   UNL     1      -8.799   9.681  63.674  1.00  0.00    -0.256 C  
ENDROOT
BRANCH   3   5
HETATM    5  C   UNL     1     -10.190   9.760  67.283  1.00  0.00    -0.289 C  
HETATM    6  C   UNL     1     -10.080  11.090  68.008  1.00  0.00    -0.198 C  
HETATM    7  C   UNL     1      -9.504   9.825  68.635  1.00  0.00    -0.151 C  
HETATM    8  C   UNL     1      -8.002   9.765  68.751  1.00  0.00    -0.087 C  
HETATM    9  C   UNL     1     -10.212   9.137  69.781  1.00  0.00    -0.219 C  
BRANCH   6  10
HETATM   10  C   UNL     1     -11.333  11.709  68.494  1.00  0.00    -0.274 C  
HETATM   11  O   UNL     1     -12.392  11.113  68.410  1.00  0.00    -0.556 OA 
BRANCH  10  12
HETATM   12  O   UNL     1     -11.158  12.961  69.005  1.00  0.00    -0.251 OA 
BRANCH  12  13
HETATM   13  C   UNL     1     -11.960  14.052  68.476  1.00  0.00    -0.348 C  
HETATM   14  C   UNL     1     -11.731  14.297  66.989  1.00  0.00    -0.427 C  
HETATM   15  C   UNL     1     -10.878  15.530  67.024  1.00  0.00    -0.314 C  
HETATM   16  C   UNL     1     -10.914  16.177  68.361  1.00  0.00    -0.341 C  
HETATM   17  O   UNL     1     -10.283  15.985  66.058  1.00  0.00    -0.301 OA 
HETATM   18  C   UNL     1     -12.012  15.545  70.578  1.00  0.00    -0.406 C  
HETATM   19  C   UNL     1     -11.627  15.354  69.155  1.00  0.00    -0.354 C  
BRANCH  16  20
HETATM   20  C   UNL     1     -10.104  17.393  68.638  1.00  0.00    -0.355 C  
BRANCH  20  21
HETATM   21  C   UNL     1      -8.636  17.117  68.626  1.00  0.00    -0.260 C  
HETATM   22  C   UNL     1      -8.081  16.016  69.154  1.00  0.00    -0.238 C  
ENDBRANCH  20  21
ENDBRANCH  16  20
ENDBRANCH  12  13
ENDBRANCH  10  12
ENDBRANCH   6  10
ENDBRANCH   3   5
TORSDOF 6
ENDMDL
MODEL       88
REMARK 921   NORMALIZED FREE ENERGY PREDICTED BY IDOCK:   -4.49 KCAL/MOL
REMARK 922        TOTAL FREE ENERGY PREDICTED BY IDOCK:   -7.58 KCAL/MOL
REMARK 923 INTER-LIGAND FREE ENERGY PREDICTED BY IDOCK:   -6.30 KCAL/MOL
REMARK 924 INTRA-LIGAND FREE ENERGY PREDICTED BY IDOCK:   -1.28 KCAL/MOL
REMARK 927      BINDING AFFINITY PREDICTED BY RF-SCORE:    0.00 PKD
ROOT
HETATM    1  C   UNL     1     -12.072  14.164  66.834  1.00  0.00    -0.466 C  
HETATM    2  C   UNL     1     -11.780  14.512  68.266  1.00  0.00    -0.368 C  
HETATM    3  C   UNL     1     -11.713  13.580  69.237  1.00  0.00    -0.382 C  
HETATM    4  C   UNL     1     -11.529  15.956  68.594  1.00  0.00    -0.391 C  
ENDROOT
BRANCH   3   5
HETATM    5  C   UNL     1     -11.858  12.132  69.076  1.00  0.00    -0.361 C  
HETATM    6  C   UNL     1     -11.229  11.175  70.074  1.00  0.00    -0.261 C  
HETATM    7  C   UNL     1     -10.690  11.261  68.651  1.00  0.00    -0.241 C  
HETATM    8  C   UNL     1      -9.304  11.835  68.498  1.00  0.00    -0.158 C  
HETATM    9  C   UNL     1     -10.994  10.177  67.640  1.00  0.00    -0.331 C  
BRANCH   6  10
HETATM   10  C   UNL     1     -12.050  10.034  70.537  1.00  0.00    -0.251 C  
HETATM   11  O   UNL     1     -13.241  10.175  70.756  1.00  0.00    -0.379 OA 
BRANCH  10  12
HETATM   12  O   UNL     1     -11.340   8.880  70.688  1.00  0.00    -0.261 OA 
BRANCH  12  13
HETATM   13  C   UNL     1     -12.038   7.609  70.583  1.00  0.00    -0.043 C  
HETATM   14  C   UNL     1     -12.401   7.011  71.938  1.00  0.00    -0.358 C  
HETATM   15  C   UNL     1     -11.369   5.929  72.064  1.00  0.00    -0.267 C  
HETATM   16  C   UNL     1     -10.709   5.653  70.762  1.00  0.00    -0.320 C  
HETATM   17  O   UNL     1     -11.148   5.305  73.092  1.00  0.00    -0.282 OA 
HETATM   18  C   UNL     1     -10.895   6.718  68.449  1.00  0.00    -0.284 C  
HETATM   19  C   UNL     1     -11.185   6.573  69.900  1.00  0.00    -0.456 C  
BRANCH  16  20
HETATM   20  C   UNL     1      -9.620   4.646  70.662  1.00  0.00    -0.261 C  
BRANCH  20  21
HETATM   21  C   UNL     1      -8.269   5.240  70.893  1.00  0.00    -0.112 C  
HETATM   22  C   UNL     1      -7.418   5.559  69.906  1.00  0.00    -0.070 C  
ENDBRANCH  20  21
ENDBRANCH  16  20
ENDBRANCH  12  13
ENDBRANCH  10  12
ENDBRANCH   6  10
ENDBRANCH   3   5
TORSDOF 6
ENDMDL
MODEL       89
REMARK 921   NORMALIZED FREE ENERGY PREDICTED BY IDOCK:   -4.49 KCAL/MOL
REMARK 922        TOTAL FREE ENERGY PREDICTED BY IDOCK:   -7.58 KCAL/MOL
REMARK 923 INTER-LIGAND FREE ENERGY PREDICTED BY IDOCK:   -6.10 KCAL/MOL
REMARK 924 INTRA-LIGAND FREE ENERGY PREDICTED BY IDOCK:   -1.48 KCAL/MOL
REMARK 927      BINDING AFFINITY PREDICTED BY RF-SCORE:    0.00 PKD
ROOT
HETATM    1  C   UNL     1      -9.034   3.600  71.897  1.00  0.00    -0.149 C  
HETATM    2  C   UNL     1     -10.189   4.352  72.497  1.00  0.00    -0.242 C  
HETATM    3  C   UNL     1     -10.385   5.667  72.280  1.00  0.00    -0.250 C  
HETATM    4  C   UNL     1     -11.161   3.577  73.339  1.00  0.00    -0.291 C  
ENDROOT
BRANCH   3   5
HETATM    5  C   UNL     1      -9.581   6.548  71.431  1.00  0.00    -0.174 C  
HETATM    6  C   UNL     1     -10.170   7.827  70.864  1.00  0.00    -0.207 C  
HETATM    7  C   UNL     1      -9.837   6.661  69.940  1.00  0.00    -0.180 C  
HETATM    8  C   UNL     1     -11.010   5.967  69.295  1.00  0.00    -0.436 C  
HETATM    9  C   UNL     1      -8.615   6.703  69.049  1.00  0.00    -0.130 C  
BRANCH   6  10
HETATM   10  C   UNL     1      -9.336   9.049  70.922  1.00  0.00    -0.264 C  
HETATM   11  O   UNL     1      -8.532   9.208  71.823  1.00  0.00    -0.340 OA 
BRANCH  10  12
HETATM   12  O   UNL     1      -9.581   9.922  69.905  1.00  0.00    -0.222 OA 
BRANCH  12  13
HETATM   13  C   UNL     1     -10.864   9.866  69.225  1.00  0.00    -0.227 C  
HETATM   14  C   UNL     1     -10.735   9.777  67.709  1.00  0.00    -0.329 C  
HETATM   15  C   UNL     1     -11.083  11.178  67.304  1.00  0.00    -0.302 C  
HETATM   16  C   UNL     1     -11.728  11.921  68.418  1.00  0.00    -0.387 C  
HETATM   17  O   UNL     1     -10.922  11.632  66.180  1.00  0.00    -0.284 OA 
HETATM   18  C   UNL     1     -12.226  11.333  70.852  1.00  0.00    -0.460 C  
HETATM   19  C   UNL     1     -11.677  11.106  69.489  1.00  0.00    -0.405 C  
BRANCH  16  20
HETATM   20  C   UNL     1     -12.117  13.347  68.254  1.00  0.00    -0.271 C  
BRANCH  20  21
HETATM   21  C   UNL     1     -10.991  14.285  68.544  1.00  0.00    -0.267 C  
HETATM   22  C   UNL     1     -11.012  15.189  69.534  1.00  0.00    -0.279 C  
ENDBRANCH  20  21
ENDBRANCH  16  20
ENDBRANCH  12  13
ENDBRANCH  10  12
ENDBRANCH   6  10
ENDBRANCH   3   5
TORSDOF 6
ENDMDL
MODEL       90
REMARK 921   NORMALIZED FREE ENERGY PREDICTED BY IDOCK:   -4.48 KCAL/MOL
REMARK 922        TOTAL FREE ENERGY PREDICTED BY IDOCK:   -7.57 KCAL/MOL
REMARK 923 INTER-LIGAND FREE ENERGY PREDICTED BY IDOCK:   -6.57 KCAL/MOL
REMARK 924 INTRA-LIGAND FREE ENERGY PREDICTED BY IDOCK:   -1.00 KCAL/MOL
REMARK 927      BINDING AFFINITY PREDICTED BY RF-SCORE:    0.00 PKD
ROOT
HETATM    1  C   UNL     1     -12.684  13.203  65.327  1.00  0.00    -0.457 C  
HETATM    2  C   UNL     1     -11.995  12.126  64.535  1.00  0.00    -0.415 C  
HETATM    3  C   UNL     1     -10.900  11.486  64.988  1.00  0.00    -0.336 C  
HETATM    4  C   UNL     1     -12.590  11.750  63.209  1.00  0.00    -0.382 C  
ENDROOT
BRANCH   3   5
HETATM    5  C   UNL     1     -10.242  11.677  66.281  1.00  0.00    -0.262 C  
HETATM    6  C   UNL     1      -8.954  12.478  66.385  1.00  0.00    -0.077 C  
HETATM    7  C   UNL     1      -8.942  10.971  66.621  1.00  0.00    -0.176 C  
HETATM    8  C   UNL     1      -8.213  10.143  65.593  1.00  0.00    -0.150 C  
HETATM    9  C   UNL     1      -8.830  10.407  68.020  1.00  0.00    -0.130 C  
BRANCH   6  10
HETATM   10  C   UNL     1      -8.841  13.449  67.495  1.00  0.00    -0.210 C  
HETATM   11  O   UNL     1      -7.748  13.814  67.891  1.00  0.00    -0.129 OA 
BRANCH  10  12
HETATM   12  O   UNL     1     -10.046  13.848  67.994  1.00  0.00    -0.231 OA 
BRANCH  12  13
HETATM   13  C   UNL     1     -10.662  15.051  67.460  1.00  0.00    -0.284 C  
HETATM   14  C   UNL     1     -10.034  15.515  66.151  1.00  0.00    -0.332 C  
HETATM   15  C   UNL     1      -9.211  16.679  66.620  1.00  0.00    -0.253 C  
HETATM   16  C   UNL     1      -9.605  17.106  67.987  1.00  0.00    -0.267 C  
HETATM   17  O   UNL     1      -8.371  17.248  65.938  1.00  0.00    -0.533 OA 
HETATM   18  C   UNL     1     -11.272  16.192  69.692  1.00  0.00    -0.331 C  
HETATM   19  C   UNL     1     -10.515  16.208  68.412  1.00  0.00    -0.274 C  
BRANCH  16  20
HETATM   20  C   UNL     1      -8.889  18.217  68.670  1.00  0.00    -0.277 C  
BRANCH  20  21
HETATM   21  C   UNL     1      -9.683  19.482  68.692  1.00  0.00    -0.514 C  
HETATM   22  C   UNL     1      -9.936  20.220  67.600  1.00  0.00    -0.551 C  
ENDBRANCH  20  21
ENDBRANCH  16  20
ENDBRANCH  12  13
ENDBRANCH  10  12
ENDBRANCH   6  10
ENDBRANCH   3   5
TORSDOF 6
ENDMDL
MODEL       91
REMARK 921   NORMALIZED FREE ENERGY PREDICTED BY IDOCK:   -4.47 KCAL/MOL
REMARK 922        TOTAL FREE ENERGY PREDICTED BY IDOCK:   -7.55 KCAL/MOL
REMARK 923 INTER-LIGAND FREE ENERGY PREDICTED BY IDOCK:   -6.85 KCAL/MOL
REMARK 924 INTRA-LIGAND FREE ENERGY PREDICTED BY IDOCK:   -0.70 KCAL/MOL
REMARK 927      BINDING AFFINITY PREDICTED BY RF-SCORE:    0.00 PKD
ROOT
HETATM    1  C   UNL     1      -9.014  16.190  66.222  1.00  0.00    -0.379 C  
HETATM    2  C   UNL     1      -9.292  16.390  67.685  1.00  0.00    -0.212 C  
HETATM    3  C   UNL     1     -10.074  15.551  68.392  1.00  0.00    -0.214 C  
HETATM    4  C   UNL     1      -8.637  17.557  68.365  1.00  0.00    -0.275 C  
ENDROOT
BRANCH   3   5
HETATM    5  C   UNL     1     -10.724  14.333  67.904  1.00  0.00    -0.244 C  
HETATM    6  C   UNL     1     -12.123  14.385  67.313  1.00  0.00    -0.358 C  
HETATM    7  C   UNL     1     -11.881  13.698  68.653  1.00  0.00    -0.409 C  
HETATM    8  C   UNL     1     -12.488  14.365  69.862  1.00  0.00    -0.311 C  
HETATM    9  C   UNL     1     -11.866  12.189  68.758  1.00  0.00    -0.356 C  
BRANCH   6  10
HETATM   10  C   UNL     1     -12.369  13.621  66.070  1.00  0.00    -0.445 C  
HETATM   11  O   UNL     1     -13.237  13.970  65.289  1.00  0.00    -0.782 OA 
BRANCH  10  12
HETATM   12  O   UNL     1     -11.556  12.536  65.930  1.00  0.00    -0.362 OA 
BRANCH  12  13
HETATM   13  C   UNL     1     -10.304  12.686  65.206  1.00  0.00    -0.289 C  
HETATM   14  C   UNL     1     -10.429  12.365  63.721  1.00  0.00    -0.475 C  
HETATM   15  C   UNL     1      -9.787  11.011  63.662  1.00  0.00    -0.351 C  
HETATM   16  C   UNL     1      -9.015  10.721  64.898  1.00  0.00    -0.201 C  
HETATM   17  O   UNL     1      -9.833  10.268  62.692  1.00  0.00    -0.223 OA 
HETATM   18  C   UNL     1      -8.685  11.990  67.089  1.00  0.00    -0.183 C  
HETATM   19  C   UNL     1      -9.251  11.750  65.736  1.00  0.00    -0.148 C  
BRANCH  16  20
HETATM   20  C   UNL     1      -8.330   9.413  65.075  1.00  0.00    -0.155 C  
BRANCH  20  21
HETATM   21  C   UNL     1      -9.231   8.369  65.651  1.00  0.00    -0.118 C  
HETATM   22  C   UNL     1     -10.149   8.618  66.597  1.00  0.00    -0.364 C  
ENDBRANCH  20  21
ENDBRANCH  16  20
ENDBRANCH  12  13
ENDBRANCH  10  12
ENDBRANCH   6  10
ENDBRANCH   3   5
TORSDOF 6
ENDMDL
MODEL       92
REMARK 921   NORMALIZED FREE ENERGY PREDICTED BY IDOCK:   -4.47 KCAL/MOL
REMARK 922        TOTAL FREE ENERGY PREDICTED BY IDOCK:   -7.55 KCAL/MOL
REMARK 923 INTER-LIGAND FREE ENERGY PREDICTED BY IDOCK:   -6.60 KCAL/MOL
REMARK 924 INTRA-LIGAND FREE ENERGY PREDICTED BY IDOCK:   -0.95 KCAL/MOL
REMARK 927      BINDING AFFINITY PREDICTED BY RF-SCORE:    0.00 PKD
ROOT
HETATM    1  C   UNL     1     -12.108  14.142  66.745  1.00  0.00    -0.474 C  
HETATM    2  C   UNL     1     -10.949  14.043  65.794  1.00  0.00    -0.294 C  
HETATM    3  C   UNL     1     -10.288  12.889  65.579  1.00  0.00    -0.304 C  
HETATM    4  C   UNL     1     -10.554  15.284  65.046  1.00  0.00    -0.444 C  
ENDROOT
BRANCH   3   5
HETATM    5  C   UNL     1     -10.589  11.581  66.165  1.00  0.00    -0.314 C  
HETATM    6  C   UNL     1     -10.120  11.235  67.568  1.00  0.00    -0.207 C  
HETATM    7  C   UNL     1      -9.510  10.533  66.360  1.00  0.00    -0.208 C  
HETATM    8  C   UNL     1      -8.062  10.842  66.073  1.00  0.00    -0.158 C  
HETATM    9  C   UNL     1      -9.887   9.108  66.019  1.00  0.00    -0.342 C  
BRANCH   6  10
HETATM   10  C   UNL     1     -11.086  10.561  68.464  1.00  0.00    -0.275 C  
HETATM   11  O   UNL     1     -12.246  10.932  68.518  1.00  0.00    -0.535 OA 
BRANCH  10  12
HETATM   12  O   UNL     1     -10.538   9.542  69.186  1.00  0.00    -0.214 OA 
BRANCH  12  13
HETATM   13  C   UNL     1     -10.039   9.819  70.523  1.00  0.00    -0.224 C  
HETATM   14  C   UNL     1      -8.608   9.341  70.738  1.00  0.00    -0.254 C  
HETATM   15  C   UNL     1      -8.834   8.106  71.560  1.00  0.00    -0.154 C  
HETATM   16  C   UNL     1     -10.216   8.062  72.105  1.00  0.00    -0.308 C  
HETATM   17  O   UNL     1      -7.972   7.275  71.807  1.00  0.00    -0.094 OA 
HETATM   18  C   UNL     1     -12.255   9.572  71.820  1.00  0.00    -0.465 C  
HETATM   19  C   UNL     1     -10.862   9.116  71.570  1.00  0.00    -0.436 C  
BRANCH  16  20
HETATM   20  C   UNL     1     -10.675   6.902  72.914  1.00  0.00    -0.308 C  
BRANCH  20  21
HETATM   21  C   UNL     1     -11.056   5.731  72.070  1.00  0.00    -0.318 C  
HETATM   22  C   UNL     1     -11.113   5.767  70.730  1.00  0.00    -0.272 C  
ENDBRANCH  20  21
ENDBRANCH  16  20
ENDBRANCH  12  13
ENDBRANCH  10  12
ENDBRANCH   6  10
ENDBRANCH   3   5
TORSDOF 6
ENDMDL
MODEL       93
REMARK 921   NORMALIZED FREE ENERGY PREDICTED BY IDOCK:   -4.45 KCAL/MOL
REMARK 922        TOTAL FREE ENERGY PREDICTED BY IDOCK:   -7.54 KCAL/MOL
REMARK 923 INTER-LIGAND FREE ENERGY PREDICTED BY IDOCK:   -5.93 KCAL/MOL
REMARK 924 INTRA-LIGAND FREE ENERGY PREDICTED BY IDOCK:   -1.60 KCAL/MOL
REMARK 927      BINDING AFFINITY PREDICTED BY RF-SCORE:    0.00 PKD
ROOT
HETATM    1  C   UNL     1     -11.937  11.246  69.588  1.00  0.00    -0.423 C  
HETATM    2  C   UNL     1     -12.138  10.308  70.745  1.00  0.00    -0.451 C  
HETATM    3  C   UNL     1     -11.460   9.150  70.861  1.00  0.00    -0.357 C  
HETATM    4  C   UNL     1     -13.112  10.717  71.812  1.00  0.00    -0.573 C  
ENDROOT
BRANCH   3   5
HETATM    5  C   UNL     1     -10.428   8.641  69.956  1.00  0.00    -0.229 C  
HETATM    6  C   UNL     1     -10.767   7.603  68.899  1.00  0.00    -0.117 C  
HETATM    7  C   UNL     1      -9.886   7.229  70.086  1.00  0.00    -0.179 C  
HETATM    8  C   UNL     1     -10.479   6.254  71.072  1.00  0.00    -0.274 C  
HETATM    9  C   UNL     1      -8.391   7.065  69.920  1.00  0.00    -0.139 C  
BRANCH   6  10
HETATM   10  C   UNL     1     -10.214   7.805  67.541  1.00  0.00    -0.235 C  
HETATM   11  O   UNL     1      -9.654   6.894  66.958  1.00  0.00    -0.144 OA 
BRANCH  10  12
HETATM   12  O   UNL     1     -10.392   9.070  67.064  1.00  0.00    -0.253 OA 
BRANCH  12  13
HETATM   13  C   UNL     1      -9.262   9.758  66.463  1.00  0.00    -0.156 C  
HETATM   14  C   UNL     1      -8.228  10.216  67.485  1.00  0.00    -0.114 C  
HETATM   15  C   UNL     1      -8.518  11.686  67.554  1.00  0.00    -0.150 C  
HETATM   16  C   UNL     1      -9.366  12.126  66.417  1.00  0.00    -0.225 C  
HETATM   17  O   UNL     1      -8.058  12.441  68.399  1.00  0.00    -0.154 OA 
HETATM   18  C   UNL     1     -10.497  10.880  64.496  1.00  0.00    -0.393 C  
HETATM   19  C   UNL     1      -9.702  11.007  65.746  1.00  0.00    -0.268 C  
BRANCH  16  20
HETATM   20  C   UNL     1      -9.815  13.540  66.308  1.00  0.00    -0.306 C  
BRANCH  20  21
HETATM   21  C   UNL     1     -11.193  13.745  66.847  1.00  0.00    -0.326 C  
HETATM   22  C   UNL     1     -12.222  14.191  66.110  1.00  0.00    -0.465 C  
ENDBRANCH  20  21
ENDBRANCH  16  20
ENDBRANCH  12  13
ENDBRANCH  10  12
ENDBRANCH   6  10
ENDBRANCH   3   5
TORSDOF 6
ENDMDL
MODEL       94
REMARK 921   NORMALIZED FREE ENERGY PREDICTED BY IDOCK:   -4.45 KCAL/MOL
REMARK 922        TOTAL FREE ENERGY PREDICTED BY IDOCK:   -7.53 KCAL/MOL
REMARK 923 INTER-LIGAND FREE ENERGY PREDICTED BY IDOCK:   -6.73 KCAL/MOL
REMARK 924 INTRA-LIGAND FREE ENERGY PREDICTED BY IDOCK:   -0.80 KCAL/MOL
REMARK 927      BINDING AFFINITY PREDICTED BY RF-SCORE:    0.00 PKD
ROOT
HETATM    1  C   UNL     1      -8.144  18.683  68.241  1.00  0.00    -0.339 C  
HETATM    2  C   UNL     1      -9.432  18.874  67.490  1.00  0.00    -0.340 C  
HETATM    3  C   UNL     1     -10.049  17.864  66.847  1.00  0.00    -0.348 C  
HETATM    4  C   UNL     1     -10.046  20.244  67.500  1.00  0.00    -0.519 C  
ENDROOT
BRANCH   3   5
HETATM    5  C   UNL     1      -9.627  16.463  66.801  1.00  0.00    -0.263 C  
HETATM    6  C   UNL     1     -10.633  15.359  66.521  1.00  0.00    -0.306 C  
HETATM    7  C   UNL     1      -9.999  15.487  67.902  1.00  0.00    -0.218 C  
HETATM    8  C   UNL     1     -10.923  15.892  69.023  1.00  0.00    -0.277 C  
HETATM    9  C   UNL     1      -8.914  14.532  68.348  1.00  0.00    -0.186 C  
BRANCH   6  10
HETATM   10  C   UNL     1     -10.237  14.298  65.569  1.00  0.00    -0.357 C  
HETATM   11  O   UNL     1     -10.166  14.532  64.375  1.00  0.00    -0.125 OA 
BRANCH  10  12
HETATM   12  O   UNL     1      -9.989  13.098  66.165  1.00  0.00    -0.281 OA 
BRANCH  12  13
HETATM   13  C   UNL     1     -11.046  12.101  66.199  1.00  0.00    -0.312 C  
HETATM   14  C   UNL     1     -11.785  12.056  67.532  1.00  0.00    -0.351 C  
HETATM   15  C   UNL     1     -11.204  10.817  68.145  1.00  0.00    -0.302 C  
HETATM   16  C   UNL     1     -10.488   9.995  67.135  1.00  0.00    -0.305 C  
HETATM   17  O   UNL     1     -11.358  10.488  69.312  1.00  0.00    -0.240 OA 
HETATM   18  C   UNL     1      -9.961  10.337  64.660  1.00  0.00    -0.377 C  
HETATM   19  C   UNL     1     -10.496  10.714  65.995  1.00  0.00    -0.250 C  
BRANCH  16  20
HETATM   20  C   UNL     1      -9.794   8.741  67.531  1.00  0.00    -0.232 C  
BRANCH  20  21
HETATM   21  C   UNL     1     -10.410   7.528  66.916  1.00  0.00    -0.379 C  
HETATM   22  C   UNL     1     -11.011   6.558  67.623  1.00  0.00    -0.426 C  
ENDBRANCH  20  21
ENDBRANCH  16  20
ENDBRANCH  12  13
ENDBRANCH  10  12
ENDBRANCH   6  10
ENDBRANCH   3   5
TORSDOF 6
ENDMDL
MODEL       95
REMARK 921   NORMALIZED FREE ENERGY PREDICTED BY IDOCK:   -4.45 KCAL/MOL
REMARK 922        TOTAL FREE ENERGY PREDICTED BY IDOCK:   -7.53 KCAL/MOL
REMARK 923 INTER-LIGAND FREE ENERGY PREDICTED BY IDOCK:   -7.01 KCAL/MOL
REMARK 924 INTRA-LIGAND FREE ENERGY PREDICTED BY IDOCK:   -0.52 KCAL/MOL
REMARK 927      BINDING AFFINITY PREDICTED BY RF-SCORE:    0.00 PKD
ROOT
HETATM    1  C   UNL     1     -10.618  19.005  65.940  1.00  0.00    -0.466 C  
HETATM    2  C   UNL     1     -10.052  18.991  67.332  1.00  0.00    -0.443 C  
HETATM    3  C   UNL     1      -9.517  17.884  67.883  1.00  0.00    -0.272 C  
HETATM    4  C   UNL     1     -10.067  20.280  68.102  1.00  0.00    -0.418 C  
ENDROOT
BRANCH   3   5
HETATM    5  C   UNL     1      -9.358  16.575  67.247  1.00  0.00    -0.227 C  
HETATM    6  C   UNL     1     -10.529  15.611  67.151  1.00  0.00    -0.303 C  
HETATM    7  C   UNL     1      -9.347  15.294  68.061  1.00  0.00    -0.197 C  
HETATM    8  C   UNL     1      -9.626  15.310  69.543  1.00  0.00    -0.219 C  
HETATM    9  C   UNL     1      -8.321  14.255  67.665  1.00  0.00    -0.187 C  
BRANCH   6  10
HETATM   10  C   UNL     1     -10.738  14.916  65.862  1.00  0.00    -0.323 C  
HETATM   11  O   UNL     1      -9.804  14.718  65.105  1.00  0.00    -0.306 OA 
BRANCH  10  12
HETATM   12  O   UNL     1     -12.035  14.559  65.642  1.00  0.00    -0.359 OA 
BRANCH  12  13
HETATM   13  C   UNL     1     -12.458  13.210  65.979  1.00  0.00    -0.260 C  
HETATM   14  C   UNL     1     -11.866  12.707  67.290  1.00  0.00    -0.395 C  
HETATM   15  C   UNL     1     -10.804  11.772  66.790  1.00  0.00    -0.270 C  
HETATM   16  C   UNL     1     -10.996  11.452  65.351  1.00  0.00    -0.249 C  
HETATM   17  O   UNL     1      -9.932  11.280  67.491  1.00  0.00    -0.179 OA 
HETATM   18  C   UNL     1     -12.657  12.260  63.588  1.00  0.00    -0.599 C  
HETATM   19  C   UNL     1     -12.019  12.222  64.931  1.00  0.00    -0.420 C  
BRANCH  16  20
HETATM   20  C   UNL     1     -10.031  10.577  64.634  1.00  0.00    -0.415 C  
BRANCH  20  21
HETATM   21  C   UNL     1      -9.274  11.308  63.574  1.00  0.00    -0.154 C  
HETATM   22  C   UNL     1      -9.011  10.798  62.362  1.00  0.00    -0.347 C  
ENDBRANCH  20  21
ENDBRANCH  16  20
ENDBRANCH  12  13
ENDBRANCH  10  12
ENDBRANCH   6  10
ENDBRANCH   3   5
TORSDOF 6
ENDMDL
MODEL       96
REMARK 921   NORMALIZED FREE ENERGY PREDICTED BY IDOCK:   -4.43 KCAL/MOL
REMARK 922        TOTAL FREE ENERGY PREDICTED BY IDOCK:   -7.51 KCAL/MOL
REMARK 923 INTER-LIGAND FREE ENERGY PREDICTED BY IDOCK:   -6.31 KCAL/MOL
REMARK 924 INTRA-LIGAND FREE ENERGY PREDICTED BY IDOCK:   -1.20 KCAL/MOL
REMARK 927      BINDING AFFINITY PREDICTED BY RF-SCORE:    0.00 PKD
ROOT
HETATM    1  C   UNL     1      -9.698  11.901  68.307  1.00  0.00    -0.200 C  
HETATM    2  C   UNL     1     -11.194  11.986  68.191  1.00  0.00    -0.316 C  
HETATM    3  C   UNL     1     -11.804  12.591  67.153  1.00  0.00    -0.386 C  
HETATM    4  C   UNL     1     -12.014  11.337  69.268  1.00  0.00    -0.411 C  
ENDROOT
BRANCH   3   5
HETATM    5  C   UNL     1     -11.159  13.203  65.990  1.00  0.00    -0.299 C  
HETATM    6  C   UNL     1     -11.814  14.366  65.263  1.00  0.00    -0.373 C  
HETATM    7  C   UNL     1     -11.702  13.004  64.586  1.00  0.00    -0.408 C  
HETATM    8  C   UNL     1     -12.999  12.271  64.349  1.00  0.00    -0.166 C  
HETATM    9  C   UNL     1     -10.679  12.761  63.499  1.00  0.00    -0.232 C  
BRANCH   6  10
HETATM   10  C   UNL     1     -10.951  15.507  64.883  1.00  0.00    -0.436 C  
HETATM   11  O   UNL     1     -11.389  16.413  64.196  1.00  0.00    -0.941 OA 
BRANCH  10  12
HETATM   12  O   UNL     1      -9.679  15.409  65.361  1.00  0.00    -0.307 OA 
BRANCH  12  13
HETATM   13  C   UNL     1      -9.210  16.400  66.316  1.00  0.00    -0.315 C  
HETATM   14  C   UNL     1      -7.726  16.269  66.636  1.00  0.00    -0.286 C  
HETATM   15  C   UNL     1      -7.776  15.634  67.994  1.00  0.00    -0.126 C  
HETATM   16  C   UNL     1      -9.134  15.730  68.589  1.00  0.00    -0.204 C  
HETATM   17  O   UNL     1      -6.807  15.159  68.569  1.00  0.00    -0.102 OA 
HETATM   18  C   UNL     1     -11.362  16.627  67.721  1.00  0.00     0.058 C  
HETATM   19  C   UNL     1      -9.922  16.266  67.636  1.00  0.00    -0.247 C  
BRANCH  16  20
HETATM   20  C   UNL     1      -9.425  15.126  69.916  1.00  0.00     0.047 C  
BRANCH  20  21
HETATM   21  C   UNL     1     -10.736  15.576  70.474  1.00  0.00    -0.309 C  
HETATM   22  C   UNL     1     -11.731  14.739  70.802  1.00  0.00    -0.355 C  
ENDBRANCH  20  21
ENDBRANCH  16  20
ENDBRANCH  12  13
ENDBRANCH  10  12
ENDBRANCH   6  10
ENDBRANCH   3   5
TORSDOF 6
ENDMDL
MODEL       97
REMARK 921   NORMALIZED FREE ENERGY PREDICTED BY IDOCK:   -4.43 KCAL/MOL
REMARK 922        TOTAL FREE ENERGY PREDICTED BY IDOCK:   -7.50 KCAL/MOL
REMARK 923 INTER-LIGAND FREE ENERGY PREDICTED BY IDOCK:   -6.01 KCAL/MOL
REMARK 924 INTRA-LIGAND FREE ENERGY PREDICTED BY IDOCK:   -1.49 KCAL/MOL
REMARK 927      BINDING AFFINITY PREDICTED BY RF-SCORE:    0.00 PKD
ROOT
HETATM    1  C   UNL     1      -9.296   7.281  66.886  1.00  0.00    -0.192 C  
HETATM    2  C   UNL     1      -8.382   8.093  67.760  1.00  0.00    -0.128 C  
HETATM    3  C   UNL     1      -8.813   8.716  68.873  1.00  0.00    -0.138 C  
HETATM    4  C   UNL     1      -6.934   8.169  67.370  1.00  0.00    -0.075 C  
ENDROOT
BRANCH   3   5
HETATM    5  C   UNL     1     -10.167   8.682  69.431  1.00  0.00    -0.211 C  
HETATM    6  C   UNL     1     -10.528   9.529  70.640  1.00  0.00    -0.374 C  
HETATM    7  C   UNL     1     -10.459   8.011  70.761  1.00  0.00    -0.221 C  
HETATM    8  C   UNL     1      -9.346   7.462  71.618  1.00  0.00    -0.162 C  
HETATM    9  C   UNL     1     -11.722   7.181  70.831  1.00  0.00    -0.367 C  
BRANCH   6  10
HETATM   10  C   UNL     1     -11.816  10.258  70.603  1.00  0.00    -0.347 C  
HETATM   11  O   UNL     1     -12.535  10.296  71.586  1.00  0.00    -0.389 OA 
BRANCH  10  12
HETATM   12  O   UNL     1     -12.079  10.834  69.396  1.00  0.00    -0.308 OA 
BRANCH  12  13
HETATM   13  C   UNL     1     -11.105  11.752  68.829  1.00  0.00    -0.241 C  
HETATM   14  C   UNL     1     -11.228  13.169  69.376  1.00  0.00    -0.210 C  
HETATM   15  C   UNL     1     -11.894  13.867  68.228  1.00  0.00    -0.376 C  
HETATM   16  C   UNL     1     -11.825  13.056  66.985  1.00  0.00    -0.437 C  
HETATM   17  O   UNL     1     -12.372  14.991  68.288  1.00  0.00    -0.043 OA 
HETATM   18  C   UNL     1     -10.932  10.720  66.471  1.00  0.00    -0.143 C  
HETATM   19  C   UNL     1     -11.276  11.877  67.338  1.00  0.00    -0.366 C  
BRANCH  16  20
HETATM   20  C   UNL     1     -12.462  13.536  65.730  1.00  0.00    -0.514 C  
BRANCH  20  21
HETATM   21  C   UNL     1     -11.461  13.972  64.710  1.00  0.00    -0.371 C  
HETATM   22  C   UNL     1     -10.271  14.507  65.018  1.00  0.00    -0.398 C  
ENDBRANCH  20  21
ENDBRANCH  16  20
ENDBRANCH  12  13
ENDBRANCH  10  12
ENDBRANCH   6  10
ENDBRANCH   3   5
TORSDOF 6
ENDMDL
MODEL       98
REMARK 921   NORMALIZED FREE ENERGY PREDICTED BY IDOCK:   -4.43 KCAL/MOL
REMARK 922        TOTAL FREE ENERGY PREDICTED BY IDOCK:   -7.50 KCAL/MOL
REMARK 923 INTER-LIGAND FREE ENERGY PREDICTED BY IDOCK:   -6.75 KCAL/MOL
REMARK 924 INTRA-LIGAND FREE ENERGY PREDICTED BY IDOCK:   -0.75 KCAL/MOL
REMARK 927      BINDING AFFINITY PREDICTED BY RF-SCORE:    0.00 PKD
ROOT
HETATM    1  C   UNL     1      -9.835   9.618  65.846  1.00  0.00    -0.358 C  
HETATM    2  C   UNL     1      -9.239   8.568  66.740  1.00  0.00    -0.215 C  
HETATM    3  C   UNL     1      -9.614   8.417  68.026  1.00  0.00    -0.168 C  
HETATM    4  C   UNL     1      -8.214   7.646  66.145  1.00  0.00    -0.124 C  
ENDROOT
BRANCH   3   5
HETATM    5  C   UNL     1     -10.644   9.177  68.736  1.00  0.00    -0.208 C  
HETATM    6  C   UNL     1     -10.416  10.633  69.107  1.00  0.00    -0.245 C  
HETATM    7  C   UNL     1     -10.480   9.565  70.194  1.00  0.00    -0.299 C  
HETATM    8  C   UNL     1      -9.194   9.291  70.933  1.00  0.00    -0.300 C  
HETATM    9  C   UNL     1     -11.705   9.422  71.069  1.00  0.00    -0.395 C  
BRANCH   6  10
HETATM   10  C   UNL     1     -11.528  11.580  68.870  1.00  0.00    -0.289 C  
HETATM   11  O   UNL     1     -12.639  11.173  68.582  1.00  0.00    -0.318 OA 
BRANCH  10  12
HETATM   12  O   UNL     1     -11.163  12.888  68.997  1.00  0.00    -0.257 OA 
BRANCH  12  13
HETATM   13  C   UNL     1     -11.833  13.885  68.178  1.00  0.00    -0.372 C  
HETATM   14  C   UNL     1     -11.261  13.984  66.768  1.00  0.00    -0.323 C  
HETATM   15  C   UNL     1     -10.460  15.248  66.867  1.00  0.00    -0.289 C  
HETATM   16  C   UNL     1     -10.822  16.028  68.079  1.00  0.00    -0.335 C  
HETATM   17  O   UNL     1      -9.659  15.625  66.024  1.00  0.00    -0.298 OA 
HETATM   18  C   UNL     1     -12.406  15.584  70.033  1.00  0.00    -0.345 C  
HETATM   19  C   UNL     1     -11.690  15.263  68.770  1.00  0.00    -0.374 C  
BRANCH  16  20
HETATM   20  C   UNL     1     -10.119  17.297  68.403  1.00  0.00    -0.333 C  
BRANCH  20  21
HETATM   21  C   UNL     1     -10.761  18.485  67.764  1.00  0.00    -0.378 C  
HETATM   22  C   UNL     1     -10.447  19.754  68.067  1.00  0.00    -0.523 C  
ENDBRANCH  20  21
ENDBRANCH  16  20
ENDBRANCH  12  13
ENDBRANCH  10  12
ENDBRANCH   6  10
ENDBRANCH   3   5
TORSDOF 6
ENDMDL
MODEL       99
REMARK 921   NORMALIZED FREE ENERGY PREDICTED BY IDOCK:   -4.41 KCAL/MOL
REMARK 922        TOTAL FREE ENERGY PREDICTED BY IDOCK:   -7.48 KCAL/MOL
REMARK 923 INTER-LIGAND FREE ENERGY PREDICTED BY IDOCK:   -6.33 KCAL/MOL
REMARK 924 INTRA-LIGAND FREE ENERGY PREDICTED BY IDOCK:   -1.15 KCAL/MOL
REMARK 927      BINDING AFFINITY PREDICTED BY RF-SCORE:    0.00 PKD
ROOT
HETATM    1  C   UNL     1     -12.451   8.895  72.007  1.00  0.00    -0.461 C  
HETATM    2  C   UNL     1     -12.819   7.581  71.375  1.00  0.00    -0.381 C  
HETATM    3  C   UNL     1     -12.000   6.938  70.521  1.00  0.00    -0.358 C  
HETATM    4  C   UNL     1     -14.138   6.973  71.753  1.00  0.00    -0.376 C  
ENDROOT
BRANCH   3   5
HETATM    5  C   UNL     1     -10.658   7.352  70.108  1.00  0.00    -0.240 C  
HETATM    6  C   UNL     1     -10.470   8.415  69.038  1.00  0.00    -0.216 C  
HETATM    7  C   UNL     1     -10.091   6.965  68.754  1.00  0.00    -0.168 C  
HETATM    8  C   UNL     1     -10.934   6.246  67.732  1.00  0.00    -0.427 C  
HETATM    9  C   UNL     1      -8.641   6.534  68.732  1.00  0.00    -0.121 C  
BRANCH   6  10
HETATM   10  C   UNL     1      -9.453   9.461  69.285  1.00  0.00    -0.164 C  
HETATM   11  O   UNL     1      -8.690   9.372  70.231  1.00  0.00    -0.193 OA 
BRANCH  10  12
HETATM   12  O   UNL     1      -9.488  10.478  68.378  1.00  0.00    -0.147 OA 
BRANCH  12  13
HETATM   13  C   UNL     1     -10.690  10.668  67.584  1.00  0.00    -0.267 C  
HETATM   14  C   UNL     1     -10.398  11.070  66.143  1.00  0.00    -0.306 C  
HETATM   15  C   UNL     1     -10.725  12.534  66.178  1.00  0.00    -0.261 C  
HETATM   16  C   UNL     1     -11.496  12.890  67.397  1.00  0.00    -0.388 C  
HETATM   17  O   UNL     1     -10.452  13.323  65.284  1.00  0.00    -0.294 OA 
HETATM   18  C   UNL     1     -12.242  11.557  69.443  1.00  0.00    -0.273 C  
HETATM   19  C   UNL     1     -11.547  11.771  68.146  1.00  0.00    -0.391 C  
BRANCH  16  20
HETATM   20  C   UNL     1     -11.890  14.299  67.661  1.00  0.00    -0.420 C  
BRANCH  20  21
HETATM   21  C   UNL     1     -10.966  14.982  68.616  1.00  0.00    -0.261 C  
HETATM   22  C   UNL     1      -9.644  14.758  68.660  1.00  0.00    -0.218 C  
ENDBRANCH  20  21
ENDBRANCH  16  20
ENDBRANCH  12  13
ENDBRANCH  10  12
ENDBRANCH   6  10
ENDBRANCH   3   5
TORSDOF 6
ENDMDL
MODEL      100
REMARK 921   NORMALIZED FREE ENERGY PREDICTED BY IDOCK:   -4.41 KCAL/MOL
REMARK 922        TOTAL FREE ENERGY PREDICTED BY IDOCK:   -7.48 KCAL/MOL
REMARK 923 INTER-LIGAND FREE ENERGY PREDICTED BY IDOCK:   -6.59 KCAL/MOL
REMARK 924 INTRA-LIGAND FREE ENERGY PREDICTED BY IDOCK:   -0.89 KCAL/MOL
REMARK 927      BINDING AFFINITY PREDICTED BY RF-SCORE:    0.00 PKD
ROOT
HETATM    1  C   UNL     1      -5.888  21.368  67.005  1.00  0.00    -0.406 C  
HETATM    2  C   UNL     1      -6.453  20.775  65.745  1.00  0.00    -0.242 C  
HETATM    3  C   UNL     1      -7.506  19.935  65.752  1.00  0.00    -0.330 C  
HETATM    4  C   UNL     1      -5.822  21.177  64.443  1.00  0.00    -0.252 C  
ENDROOT
BRANCH   3   5
HETATM    5  C   UNL     1      -8.279  19.503  66.919  1.00  0.00    -0.310 C  
HETATM    6  C   UNL     1      -9.009  18.171  66.914  1.00  0.00    -0.275 C  
HETATM    7  C   UNL     1      -9.796  19.477  66.898  1.00  0.00    -0.476 C  
HETATM    8  C   UNL     1     -10.564  19.775  65.635  1.00  0.00    -0.456 C  
HETATM    9  C   UNL     1     -10.493  19.977  68.145  1.00  0.00    -0.428 C  
BRANCH   6  10
HETATM   10  C   UNL     1      -8.904  17.331  68.128  1.00  0.00    -0.239 C  
HETATM   11  O   UNL     1      -8.021  17.527  68.944  1.00  0.00    -0.257 OA 
BRANCH  10  12
HETATM   12  O   UNL     1      -9.860  16.361  68.202  1.00  0.00    -0.231 OA 
BRANCH  12  13
HETATM   13  C   UNL     1      -9.605  15.187  69.019  1.00  0.00    -0.229 C  
HETATM   14  C   UNL     1      -8.458  14.330  68.496  1.00  0.00    -0.164 C  
HETATM   15  C   UNL     1      -9.207  13.188  67.875  1.00  0.00    -0.207 C  
HETATM   16  C   UNL     1     -10.626  13.165  68.317  1.00  0.00    -0.260 C  
HETATM   17  O   UNL     1      -8.700  12.343  67.152  1.00  0.00    -0.182 OA 
HETATM   18  C   UNL     1     -12.024  14.719  69.783  1.00  0.00    -0.368 C  
HETATM   19  C   UNL     1     -10.805  14.277  69.056  1.00  0.00    -0.274 C  
BRANCH  16  20
HETATM   20  C   UNL     1     -11.568  12.142  67.790  1.00  0.00    -0.410 C  
BRANCH  20  21
HETATM   21  C   UNL     1     -11.614  10.915  68.641  1.00  0.00    -0.373 C  
HETATM   22  C   UNL     1     -11.014   9.761  68.315  1.00  0.00    -0.215 C  
ENDBRANCH  20  21
ENDBRANCH  16  20
ENDBRANCH  12  13
ENDBRANCH  10  12
ENDBRANCH   6  10
ENDBRANCH   3   5
TORSDOF 6
ENDMDL
MODEL      101
REMARK 921   NORMALIZED FREE ENERGY PREDICTED BY IDOCK:   -4.40 KCAL/MOL
REMARK 922        TOTAL FREE ENERGY PREDICTED BY IDOCK:   -7.47 KCAL/MOL
REMARK 923 INTER-LIGAND FREE ENERGY PREDICTED BY IDOCK:   -6.60 KCAL/MOL
REMARK 924 INTRA-LIGAND FREE ENERGY PREDICTED BY IDOCK:   -0.87 KCAL/MOL
REMARK 927      BINDING AFFINITY PREDICTED BY RF-SCORE:    0.00 PKD
ROOT
HETATM    1  C   UNL     1      -7.928   7.771  64.423  1.00  0.00    -0.126 C  
HETATM    2  C   UNL     1      -7.731   8.959  63.524  1.00  0.00    -0.128 C  
HETATM    3  C   UNL     1      -8.563  10.019  63.536  1.00  0.00    -0.209 C  
HETATM    4  C   UNL     1      -6.538   8.951  62.612  1.00  0.00    -0.094 C  
ENDROOT
BRANCH   3   5
HETATM    5  C   UNL     1      -9.721  10.217  64.409  1.00  0.00    -0.381 C  
HETATM    6  C   UNL     1     -10.174  11.617  64.789  1.00  0.00    -0.321 C  
HETATM    7  C   UNL     1      -9.561  10.698  65.840  1.00  0.00    -0.253 C  
HETATM    8  C   UNL     1      -8.214  11.110  66.379  1.00  0.00    -0.164 C  
HETATM    9  C   UNL     1     -10.429  10.020  66.877  1.00  0.00    -0.284 C  
BRANCH   6  10
HETATM   10  C   UNL     1     -11.626  11.901  64.742  1.00  0.00    -0.236 C  
HETATM   11  O   UNL     1     -12.222  11.914  63.680  1.00  0.00    -0.494 OA 
BRANCH  10  12
HETATM   12  O   UNL     1     -12.172  12.143  65.968  1.00  0.00    -0.609 OA 
BRANCH  12  13
HETATM   13  C   UNL     1     -12.394  13.520  66.377  1.00  0.00    -0.357 C  
HETATM   14  C   UNL     1     -12.611  14.466  65.202  1.00  0.00    -0.323 C  
HETATM   15  C   UNL     1     -11.285  15.165  65.142  1.00  0.00    -0.389 C  
HETATM   16  C   UNL     1     -10.497  14.943  66.382  1.00  0.00    -0.301 C  
HETATM   17  O   UNL     1     -10.925  15.883  64.220  1.00  0.00    -0.414 OA 
HETATM   18  C   UNL     1     -10.898  13.542  68.479  1.00  0.00    -0.283 C  
HETATM   19  C   UNL     1     -11.205  14.067  67.122  1.00  0.00    -0.327 C  
BRANCH  16  20
HETATM   20  C   UNL     1      -9.129  15.508  66.523  1.00  0.00    -0.336 C  
BRANCH  20  21
HETATM   21  C   UNL     1      -9.138  16.903  67.055  1.00  0.00    -0.240 C  
HETATM   22  C   UNL     1     -10.222  17.693  67.055  1.00  0.00    -0.332 C  
ENDBRANCH  20  21
ENDBRANCH  16  20
ENDBRANCH  12  13
ENDBRANCH  10  12
ENDBRANCH   6  10
ENDBRANCH   3   5
TORSDOF 6
ENDMDL
MODEL      102
REMARK 921   NORMALIZED FREE ENERGY PREDICTED BY IDOCK:   -4.40 KCAL/MOL
REMARK 922        TOTAL FREE ENERGY PREDICTED BY IDOCK:   -7.46 KCAL/MOL
REMARK 923 INTER-LIGAND FREE ENERGY PREDICTED BY IDOCK:   -6.53 KCAL/MOL
REMARK 924 INTRA-LIGAND FREE ENERGY PREDICTED BY IDOCK:   -0.93 KCAL/MOL
REMARK 927      BINDING AFFINITY PREDICTED BY RF-SCORE:    0.00 PKD
ROOT
HETATM    1  C   UNL     1      -9.075  10.571  63.421  1.00  0.00    -0.264 C  
HETATM    2  C   UNL     1      -8.477   9.280  63.905  1.00  0.00    -0.198 C  
HETATM    3  C   UNL     1      -8.776   8.752  65.108  1.00  0.00    -0.202 C  
HETATM    4  C   UNL     1      -7.539   8.558  62.981  1.00  0.00    -0.114 C  
ENDROOT
BRANCH   3   5
HETATM    5  C   UNL     1      -9.720   9.285  66.092  1.00  0.00    -0.349 C  
HETATM    6  C   UNL     1      -9.535  10.679  66.668  1.00  0.00    -0.195 C  
HETATM    7  C   UNL     1      -9.335   9.451  67.550  1.00  0.00    -0.147 C  
HETATM    8  C   UNL     1      -7.925   9.192  68.019  1.00  0.00    -0.101 C  
HETATM    9  C   UNL     1     -10.379   9.052  68.570  1.00  0.00    -0.233 C  
BRANCH   6  10
HETATM   10  C   UNL     1     -10.735  11.538  66.776  1.00  0.00    -0.270 C  
HETATM   11  O   UNL     1     -11.646  11.435  65.973  1.00  0.00    -0.243 OA 
BRANCH  10  12
HETATM   12  O   UNL     1     -10.683  12.414  67.819  1.00  0.00    -0.213 OA 
BRANCH  12  13
HETATM   13  C   UNL     1     -11.908  13.072  68.244  1.00  0.00    -0.343 C  
HETATM   14  C   UNL     1     -12.032  14.500  67.724  1.00  0.00    -0.345 C  
HETATM   15  C   UNL     1     -11.706  15.288  68.958  1.00  0.00    -0.347 C  
HETATM   16  C   UNL     1     -11.763  14.438  70.176  1.00  0.00    -0.361 C  
HETATM   17  O   UNL     1     -11.489  16.491  68.971  1.00  0.00    -0.249 OA 
HETATM   18  C   UNL     1     -12.171  11.945  70.549  1.00  0.00    -0.426 C  
HETATM   19  C   UNL     1     -11.978  13.180  69.744  1.00  0.00    -0.382 C  
BRANCH  16  20
HETATM   20  C   UNL     1     -11.430  15.003  71.511  1.00  0.00    -0.377 C  
BRANCH  20  21
HETATM   21  C   UNL     1     -12.636  15.176  72.375  1.00  0.00    -0.433 C  
HETATM   22  C   UNL     1     -12.591  15.223  73.715  1.00  0.00    -0.736 C  
ENDBRANCH  20  21
ENDBRANCH  16  20
ENDBRANCH  12  13
ENDBRANCH  10  12
ENDBRANCH   6  10
ENDBRANCH   3   5
TORSDOF 6
ENDMDL
MODEL      103
REMARK 921   NORMALIZED FREE ENERGY PREDICTED BY IDOCK:   -4.39 KCAL/MOL
REMARK 922        TOTAL FREE ENERGY PREDICTED BY IDOCK:   -7.45 KCAL/MOL
REMARK 923 INTER-LIGAND FREE ENERGY PREDICTED BY IDOCK:   -6.51 KCAL/MOL
REMARK 924 INTRA-LIGAND FREE ENERGY PREDICTED BY IDOCK:   -0.95 KCAL/MOL
REMARK 927      BINDING AFFINITY PREDICTED BY RF-SCORE:    0.00 PKD
ROOT
HETATM    1  C   UNL     1     -11.027   6.546  67.600  1.00  0.00    -0.426 C  
HETATM    2  C   UNL     1      -9.804   7.081  68.291  1.00  0.00    -0.150 C  
HETATM    3  C   UNL     1      -9.833   8.195  69.048  1.00  0.00    -0.176 C  
HETATM    4  C   UNL     1      -8.526   6.309  68.141  1.00  0.00    -0.114 C  
ENDROOT
BRANCH   3   5
HETATM    5  C   UNL     1     -11.003   9.019  69.357  1.00  0.00    -0.082 C  
HETATM    6  C   UNL     1     -10.838  10.434  69.883  1.00  0.00    -0.353 C  
HETATM    7  C   UNL     1     -11.391   9.339  70.789  1.00  0.00    -0.349 C  
HETATM    8  C   UNL     1     -10.515   8.927  71.945  1.00  0.00    -0.415 C  
HETATM    9  C   UNL     1     -12.867   9.276  71.115  1.00  0.00    -0.285 C  
BRANCH   6  10
HETATM   10  C   UNL     1     -11.702  11.485  69.301  1.00  0.00    -0.330 C  
HETATM   11  O   UNL     1     -12.128  12.392  69.994  1.00  0.00    -0.309 OA 
BRANCH  10  12
HETATM   12  O   UNL     1     -11.954  11.307  67.973  1.00  0.00    -0.621 OA 
BRANCH  12  13
HETATM   13  C   UNL     1     -11.061  11.919  67.003  1.00  0.00    -0.302 C  
HETATM   14  C   UNL     1      -9.614  11.985  67.478  1.00  0.00    -0.177 C  
HETATM   15  C   UNL     1      -9.493  13.435  67.841  1.00  0.00    -0.216 C  
HETATM   16  C   UNL     1     -10.616  14.231  67.282  1.00  0.00    -0.278 C  
HETATM   17  O   UNL     1      -8.554  13.914  68.460  1.00  0.00    -0.172 OA 
HETATM   18  C   UNL     1     -12.716  13.608  65.970  1.00  0.00    -0.366 C  
HETATM   19  C   UNL     1     -11.458  13.344  66.718  1.00  0.00    -0.376 C  
BRANCH  16  20
HETATM   20  C   UNL     1     -10.722  15.689  67.556  1.00  0.00    -0.303 C  
BRANCH  20  21
HETATM   21  C   UNL     1     -11.611  15.989  68.719  1.00  0.00    -0.352 C  
HETATM   22  C   UNL     1     -11.215  15.905  69.999  1.00  0.00    -0.354 C  
ENDBRANCH  20  21
ENDBRANCH  16  20
ENDBRANCH  12  13
ENDBRANCH  10  12
ENDBRANCH   6  10
ENDBRANCH   3   5
TORSDOF 6
ENDMDL
MODEL      104
REMARK 921   NORMALIZED FREE ENERGY PREDICTED BY IDOCK:   -4.38 KCAL/MOL
REMARK 922        TOTAL FREE ENERGY PREDICTED BY IDOCK:   -7.44 KCAL/MOL
REMARK 923 INTER-LIGAND FREE ENERGY PREDICTED BY IDOCK:   -5.73 KCAL/MOL
REMARK 924 INTRA-LIGAND FREE ENERGY PREDICTED BY IDOCK:   -1.71 KCAL/MOL
REMARK 927      BINDING AFFINITY PREDICTED BY RF-SCORE:    0.00 PKD
ROOT
HETATM    1  C   UNL     1      -9.989   9.926  67.303  1.00  0.00    -0.245 C  
HETATM    2  C   UNL     1      -8.597   9.378  67.158  1.00  0.00    -0.130 C  
HETATM    3  C   UNL     1      -8.319   8.068  67.300  1.00  0.00    -0.122 C  
HETATM    4  C   UNL     1      -7.502  10.344  66.810  1.00  0.00    -0.110 C  
ENDROOT
BRANCH   3   5
HETATM    5  C   UNL     1      -9.275   6.990  67.564  1.00  0.00    -0.128 C  
HETATM    6  C   UNL     1      -8.976   5.928  68.609  1.00  0.00    -0.116 C  
HETATM    7  C   UNL     1      -8.998   5.562  67.128  1.00  0.00    -0.112 C  
HETATM    8  C   UNL     1      -7.674   5.175  66.519  1.00  0.00    -0.092 C  
HETATM    9  C   UNL     1     -10.165   4.803  66.535  1.00  0.00    -0.294 C  
BRANCH   6  10
HETATM   10  C   UNL     1     -10.071   5.548  69.529  1.00  0.00    -0.234 C  
HETATM   11  O   UNL     1     -10.140   4.417  69.978  1.00  0.00    -0.218 OA 
BRANCH  10  12
HETATM   12  O   UNL     1     -10.944   6.564  69.783  1.00  0.00    -0.273 OA 
BRANCH  12  13
HETATM   13  C   UNL     1     -11.147   6.987  71.159  1.00  0.00    -0.258 C  
HETATM   14  C   UNL     1     -12.554   6.703  71.671  1.00  0.00    -0.315 C  
HETATM   15  C   UNL     1     -13.161   8.075  71.628  1.00  0.00    -0.329 C  
HETATM   16  C   UNL     1     -12.120   9.125  71.479  1.00  0.00    -0.422 C  
HETATM   17  O   UNL     1     -14.353   8.306  71.767  1.00  0.00    -0.431 OA 
HETATM   18  C   UNL     1      -9.588   9.042  71.164  1.00  0.00    -0.356 C  
HETATM   19  C   UNL     1     -10.954   8.473  71.308  1.00  0.00    -0.316 C  
BRANCH  16  20
HETATM   20  C   UNL     1     -12.500  10.558  71.368  1.00  0.00    -0.516 C  
BRANCH  20  21
HETATM   21  C   UNL     1     -12.423  11.064  69.965  1.00  0.00    -0.319 C  
HETATM   22  C   UNL     1     -11.847  12.226  69.623  1.00  0.00    -0.393 C  
ENDBRANCH  20  21
ENDBRANCH  16  20
ENDBRANCH  12  13
ENDBRANCH  10  12
ENDBRANCH   6  10
ENDBRANCH   3   5
TORSDOF 6
ENDMDL
MODEL      105
REMARK 921   NORMALIZED FREE ENERGY PREDICTED BY IDOCK:   -4.37 KCAL/MOL
REMARK 922        TOTAL FREE ENERGY PREDICTED BY IDOCK:   -7.43 KCAL/MOL
REMARK 923 INTER-LIGAND FREE ENERGY PREDICTED BY IDOCK:   -6.32 KCAL/MOL
REMARK 924 INTRA-LIGAND FREE ENERGY PREDICTED BY IDOCK:   -1.11 KCAL/MOL
REMARK 927      BINDING AFFINITY PREDICTED BY RF-SCORE:    0.00 PKD
ROOT
HETATM    1  C   UNL     1     -10.270   8.747  68.663  1.00  0.00    -0.214 C  
HETATM    2  C   UNL     1     -10.269   7.665  67.619  1.00  0.00    -0.277 C  
HETATM    3  C   UNL     1      -9.748   7.848  66.391  1.00  0.00    -0.235 C  
HETATM    4  C   UNL     1     -10.849   6.333  67.998  1.00  0.00    -0.409 C  
ENDROOT
BRANCH   3   5
HETATM    5  C   UNL     1      -9.084   9.052  65.888  1.00  0.00    -0.264 C  
HETATM    6  C   UNL     1      -9.403   9.593  64.505  1.00  0.00    -0.247 C  
HETATM    7  C   UNL     1      -8.037   8.979  64.791  1.00  0.00    -0.144 C  
HETATM    8  C   UNL     1      -7.732   7.680  64.090  1.00  0.00    -0.128 C  
HETATM    9  C   UNL     1      -6.816   9.855  64.969  1.00  0.00    -0.126 C  
BRANCH   6  10
HETATM   10  C   UNL     1      -9.596  11.054  64.370  1.00  0.00    -0.259 C  
HETATM   11  O   UNL     1      -9.536  11.590  63.278  1.00  0.00    -0.312 OA 
BRANCH  10  12
HETATM   12  O   UNL     1      -9.825  11.683  65.558  1.00  0.00    -0.223 OA 
BRANCH  12  13
HETATM   13  C   UNL     1     -11.182  11.731  66.077  1.00  0.00    -0.296 C  
HETATM   14  C   UNL     1     -12.193  12.251  65.062  1.00  0.00    -0.374 C  
HETATM   15  C   UNL     1     -12.425  13.643  65.569  1.00  0.00    -0.503 C  
HETATM   16  C   UNL     1     -11.910  13.810  66.952  1.00  0.00    -0.447 C  
HETATM   17  O   UNL     1     -13.022  14.512  64.950  1.00  0.00    -0.569 OA 
HETATM   18  C   UNL     1     -10.634  12.269  68.539  1.00  0.00    -0.254 C  
HETATM   19  C   UNL     1     -11.283  12.658  67.259  1.00  0.00    -0.346 C  
BRANCH  16  20
HETATM   20  C   UNL     1     -11.993  15.126  67.639  1.00  0.00    -0.018 C  
BRANCH  20  21
HETATM   21  C   UNL     1     -10.766  15.954  67.439  1.00  0.00    -0.313 C  
HETATM   22  C   UNL     1     -10.488  17.056  68.152  1.00  0.00    -0.357 C  
ENDBRANCH  20  21
ENDBRANCH  16  20
ENDBRANCH  12  13
ENDBRANCH  10  12
ENDBRANCH   6  10
ENDBRANCH   3   5
TORSDOF 6
ENDMDL
MODEL      106
REMARK 921   NORMALIZED FREE ENERGY PREDICTED BY IDOCK:   -4.35 KCAL/MOL
REMARK 922        TOTAL FREE ENERGY PREDICTED BY IDOCK:   -7.40 KCAL/MOL
REMARK 923 INTER-LIGAND FREE ENERGY PREDICTED BY IDOCK:   -6.49 KCAL/MOL
REMARK 924 INTRA-LIGAND FREE ENERGY PREDICTED BY IDOCK:   -0.91 KCAL/MOL
REMARK 927      BINDING AFFINITY PREDICTED BY RF-SCORE:    0.00 PKD
ROOT
HETATM    1  C   UNL     1     -10.136  11.269  63.548  1.00  0.00    -0.443 C  
HETATM    2  C   UNL     1      -9.554  10.101  64.295  1.00  0.00    -0.354 C  
HETATM    3  C   UNL     1      -9.814   9.876  65.597  1.00  0.00    -0.368 C  
HETATM    4  C   UNL     1      -8.681   9.151  63.529  1.00  0.00    -0.148 C  
ENDROOT
BRANCH   3   5
HETATM    5  C   UNL     1     -10.697  10.658  66.466  1.00  0.00    -0.218 C  
HETATM    6  C   UNL     1     -10.287  12.039  66.946  1.00  0.00    -0.238 C  
HETATM    7  C   UNL     1     -10.373  10.879  67.932  1.00  0.00    -0.216 C  
HETATM    8  C   UNL     1      -9.067  10.409  68.521  1.00  0.00    -0.145 C  
HETATM    9  C   UNL     1     -11.531  10.769  68.899  1.00  0.00    -0.362 C  
BRANCH   6  10
HETATM   10  C   UNL     1     -11.308  13.110  66.900  1.00  0.00    -0.318 C  
HETATM   11  O   UNL     1     -12.476  12.843  66.679  1.00  0.00    -0.367 OA 
BRANCH  10  12
HETATM   12  O   UNL     1     -10.798  14.356  67.112  1.00  0.00    -0.284 OA 
BRANCH  12  13
HETATM   13  C   UNL     1      -9.733  14.835  66.246  1.00  0.00    -0.303 C  
HETATM   14  C   UNL     1      -8.417  15.056  66.983  1.00  0.00    -0.258 C  
HETATM   15  C   UNL     1      -8.395  16.552  67.095  1.00  0.00    -0.180 C  
HETATM   16  C   UNL     1      -9.389  17.180  66.187  1.00  0.00    -0.222 C  
HETATM   17  O   UNL     1      -7.611  17.180  67.792  1.00  0.00    -0.170 OA 
HETATM   18  C   UNL     1     -11.163  16.230  64.614  1.00  0.00    -0.264 C  
HETATM   19  C   UNL     1     -10.084  16.166  65.635  1.00  0.00    -0.366 C  
BRANCH  16  20
HETATM   20  C   UNL     1      -9.572  18.655  66.165  1.00  0.00    -0.214 C  
BRANCH  20  21
HETATM   21  C   UNL     1     -10.599  19.119  67.145  1.00  0.00    -0.564 C  
HETATM   22  C   UNL     1     -10.308  19.544  68.384  1.00  0.00    -0.486 C  
ENDBRANCH  20  21
ENDBRANCH  16  20
ENDBRANCH  12  13
ENDBRANCH  10  12
ENDBRANCH   6  10
ENDBRANCH   3   5
TORSDOF 6
ENDMDL
MODEL      107
REMARK 921   NORMALIZED FREE ENERGY PREDICTED BY IDOCK:   -4.35 KCAL/MOL
REMARK 922        TOTAL FREE ENERGY PREDICTED BY IDOCK:   -7.39 KCAL/MOL
REMARK 923 INTER-LIGAND FREE ENERGY PREDICTED BY IDOCK:   -5.94 KCAL/MOL
REMARK 924 INTRA-LIGAND FREE ENERGY PREDICTED BY IDOCK:   -1.45 KCAL/MOL
REMARK 927      BINDING AFFINITY PREDICTED BY RF-SCORE:    0.00 PKD
ROOT
HETATM    1  C   UNL     1     -10.999   6.903  67.790  1.00  0.00    -0.280 C  
HETATM    2  C   UNL     1      -9.964   7.430  66.835  1.00  0.00    -0.307 C  
HETATM    3  C   UNL     1      -9.872   8.736  66.520  1.00  0.00    -0.349 C  
HETATM    4  C   UNL     1      -8.991   6.447  66.252  1.00  0.00    -0.166 C  
ENDROOT
BRANCH   3   5
HETATM    5  C   UNL     1     -10.688   9.829  67.052  1.00  0.00    -0.236 C  
HETATM    6  C   UNL     1     -10.162  11.254  67.065  1.00  0.00    -0.250 C  
HETATM    7  C   UNL     1     -10.353  10.496  68.374  1.00  0.00    -0.199 C  
HETATM    8  C   UNL     1      -9.096  10.144  69.129  1.00  0.00    -0.189 C  
HETATM    9  C   UNL     1     -11.521  10.806  69.285  1.00  0.00    -0.369 C  
BRANCH   6  10
HETATM   10  C   UNL     1     -11.085  12.328  66.635  1.00  0.00    -0.297 C  
HETATM   11  O   UNL     1     -12.161  12.055  66.131  1.00  0.00    -0.582 OA 
BRANCH  10  12
HETATM   12  O   UNL     1     -10.598  13.583  66.852  1.00  0.00    -0.268 OA 
BRANCH  12  13
HETATM   13  C   UNL     1     -10.467  14.057  68.219  1.00  0.00    -0.244 C  
HETATM   14  C   UNL     1     -11.406  15.213  68.545  1.00  0.00    -0.321 C  
HETATM   15  C   UNL     1     -10.456  16.374  68.521  1.00  0.00    -0.291 C  
HETATM   16  C   UNL     1      -9.042  15.920  68.562  1.00  0.00    -0.200 C  
HETATM   17  O   UNL     1     -10.801  17.547  68.535  1.00  0.00    -0.284 OA 
HETATM   18  C   UNL     1      -7.946  13.614  68.540  1.00  0.00    -0.127 C  
HETATM   19  C   UNL     1      -9.079  14.576  68.486  1.00  0.00    -0.190 C  
BRANCH  16  20
HETATM   20  C   UNL     1      -7.928  16.903  68.503  1.00  0.00    -0.242 C  
BRANCH  20  21
HETATM   21  C   UNL     1      -7.149  16.809  67.231  1.00  0.00    -0.205 C  
HETATM   22  C   UNL     1      -7.331  17.629  66.185  1.00  0.00    -0.344 C  
ENDBRANCH  20  21
ENDBRANCH  16  20
ENDBRANCH  12  13
ENDBRANCH  10  12
ENDBRANCH   6  10
ENDBRANCH   3   5
TORSDOF 6
ENDMDL
MODEL      108
REMARK 921   NORMALIZED FREE ENERGY PREDICTED BY IDOCK:   -4.33 KCAL/MOL
REMARK 922        TOTAL FREE ENERGY PREDICTED BY IDOCK:   -7.36 KCAL/MOL
REMARK 923 INTER-LIGAND FREE ENERGY PREDICTED BY IDOCK:   -5.84 KCAL/MOL
REMARK 924 INTRA-LIGAND FREE ENERGY PREDICTED BY IDOCK:   -1.52 KCAL/MOL
REMARK 927      BINDING AFFINITY PREDICTED BY RF-SCORE:    0.00 PKD
ROOT
HETATM    1  C   UNL     1     -10.642  10.989  63.902  1.00  0.00    -0.382 C  
HETATM    2  C   UNL     1      -9.331  10.254  63.887  1.00  0.00    -0.337 C  
HETATM    3  C   UNL     1      -8.960   9.422  64.880  1.00  0.00    -0.256 C  
HETATM    4  C   UNL     1      -8.438  10.448  62.697  1.00  0.00    -0.201 C  
ENDROOT
BRANCH   3   5
HETATM    5  C   UNL     1      -9.739   9.065  66.067  1.00  0.00    -0.339 C  
HETATM    6  C   UNL     1      -9.092   9.041  67.441  1.00  0.00    -0.146 C  
HETATM    7  C   UNL     1      -9.536   7.741  66.779  1.00  0.00    -0.274 C  
HETATM    8  C   UNL     1      -8.437   6.794  66.368  1.00  0.00    -0.126 C  
HETATM    9  C   UNL     1     -10.788   7.026  67.239  1.00  0.00    -0.403 C  
BRANCH   6  10
HETATM   10  C   UNL     1      -9.843   9.651  68.561  1.00  0.00    -0.157 C  
HETATM   11  O   UNL     1      -9.623   9.314  69.711  1.00  0.00    -0.170 OA 
BRANCH  10  12
HETATM   12  O   UNL     1     -10.764  10.572  68.159  1.00  0.00    -0.198 OA 
BRANCH  12  13
HETATM   13  C   UNL     1     -10.591  11.958  68.563  1.00  0.00    -0.222 C  
HETATM   14  C   UNL     1     -11.894  12.748  68.562  1.00  0.00    -0.345 C  
HETATM   15  C   UNL     1     -11.742  13.558  67.309  1.00  0.00    -0.383 C  
HETATM   16  C   UNL     1     -10.339  13.546  66.820  1.00  0.00    -0.264 C  
HETATM   17  O   UNL     1     -12.643  14.204  66.792  1.00  0.00    -0.306 OA 
HETATM   18  C   UNL     1      -8.227  12.345  67.605  1.00  0.00    -0.169 C  
HETATM   19  C   UNL     1      -9.673  12.690  67.620  1.00  0.00    -0.197 C  
BRANCH  16  20
HETATM   20  C   UNL     1      -9.967  14.248  65.563  1.00  0.00    -0.341 C  
BRANCH  20  21
HETATM   21  C   UNL     1      -9.546  15.661  65.801  1.00  0.00    -0.361 C  
HETATM   22  C   UNL     1      -9.833  16.345  66.919  1.00  0.00    -0.266 C  
ENDBRANCH  20  21
ENDBRANCH  16  20
ENDBRANCH  12  13
ENDBRANCH  10  12
ENDBRANCH   6  10
ENDBRANCH   3   5
TORSDOF 6
ENDMDL
MODEL      109
REMARK 921   NORMALIZED FREE ENERGY PREDICTED BY IDOCK:   -4.31 KCAL/MOL
REMARK 922        TOTAL FREE ENERGY PREDICTED BY IDOCK:   -7.35 KCAL/MOL
REMARK 923 INTER-LIGAND FREE ENERGY PREDICTED BY IDOCK:   -6.38 KCAL/MOL
REMARK 924 INTRA-LIGAND FREE ENERGY PREDICTED BY IDOCK:   -0.97 KCAL/MOL
REMARK 927      BINDING AFFINITY PREDICTED BY RF-SCORE:    0.00 PKD
ROOT
HETATM    1  C   UNL     1     -12.642  13.861  65.415  1.00  0.00    -0.538 C  
HETATM    2  C   UNL     1     -12.003  12.622  64.854  1.00  0.00    -0.459 C  
HETATM    3  C   UNL     1     -11.135  11.874  65.563  1.00  0.00    -0.356 C  
HETATM    4  C   UNL     1     -12.387  12.209  63.463  1.00  0.00    -0.682 C  
ENDROOT
BRANCH   3   5
HETATM    5  C   UNL     1     -10.713  12.092  66.948  1.00  0.00    -0.282 C  
HETATM    6  C   UNL     1      -9.755  13.218  67.298  1.00  0.00    -0.231 C  
HETATM    7  C   UNL     1      -9.303  11.766  67.407  1.00  0.00    -0.174 C  
HETATM    8  C   UNL     1      -8.247  11.322  66.427  1.00  0.00    -0.150 C  
HETATM    9  C   UNL     1      -9.175  11.094  68.757  1.00  0.00    -0.151 C  
BRANCH   6  10
HETATM   10  C   UNL     1     -10.069  14.037  68.490  1.00  0.00    -0.236 C  
HETATM   11  O   UNL     1     -11.013  13.753  69.206  1.00  0.00    -0.236 OA 
BRANCH  10  12
HETATM   12  O   UNL     1      -9.223  15.091  68.664  1.00  0.00    -0.184 OA 
BRANCH  12  13
HETATM   13  C   UNL     1      -8.833  15.876  67.504  1.00  0.00    -0.189 C  
HETATM   14  C   UNL     1      -7.340  15.803  67.206  1.00  0.00    -0.257 C  
HETATM   15  C   UNL     1      -6.877  17.138  67.711  1.00  0.00    -0.152 C  
HETATM   16  C   UNL     1      -8.020  18.062  67.928  1.00  0.00    -0.241 C  
HETATM   17  O   UNL     1      -5.705  17.451  67.858  1.00  0.00    -0.128 OA 
HETATM   18  C   UNL     1     -10.551  17.785  67.736  1.00  0.00    -0.392 C  
HETATM   19  C   UNL     1      -9.134  17.337  67.707  1.00  0.00    -0.235 C  
BRANCH  16  20
HETATM   20  C   UNL     1      -7.798  19.429  68.469  1.00  0.00    -0.389 C  
BRANCH  20  21
HETATM   21  C   UNL     1      -7.487  20.425  67.400  1.00  0.00    -0.361 C  
HETATM   22  C   UNL     1      -6.249  20.866  67.132  1.00  0.00    -0.355 C  
ENDBRANCH  20  21
ENDBRANCH  16  20
ENDBRANCH  12  13
ENDBRANCH  10  12
ENDBRANCH   6  10
ENDBRANCH   3   5
TORSDOF 6
ENDMDL
MODEL      110
REMARK 921   NORMALIZED FREE ENERGY PREDICTED BY IDOCK:   -4.31 KCAL/MOL
REMARK 922        TOTAL FREE ENERGY PREDICTED BY IDOCK:   -7.34 KCAL/MOL
REMARK 923 INTER-LIGAND FREE ENERGY PREDICTED BY IDOCK:   -6.47 KCAL/MOL
REMARK 924 INTRA-LIGAND FREE ENERGY PREDICTED BY IDOCK:   -0.87 KCAL/MOL
REMARK 927      BINDING AFFINITY PREDICTED BY RF-SCORE:    0.00 PKD
ROOT
HETATM    1  C   UNL     1     -10.648  18.506  66.585  1.00  0.00    -0.383 C  
HETATM    2  C   UNL     1      -9.718  19.085  67.614  1.00  0.00    -0.373 C  
HETATM    3  C   UNL     1      -8.678  18.392  68.118  1.00  0.00    -0.318 C  
HETATM    4  C   UNL     1      -9.961  20.499  68.055  1.00  0.00    -0.286 C  
ENDROOT
BRANCH   3   5
HETATM    5  C   UNL     1      -8.258  17.040  67.744  1.00  0.00    -0.196 C  
HETATM    6  C   UNL     1      -8.471  15.873  68.693  1.00  0.00    -0.200 C  
HETATM    7  C   UNL     1      -7.061  16.373  68.397  1.00  0.00    -0.156 C  
HETATM    8  C   UNL     1      -6.333  17.028  69.543  1.00  0.00    -0.235 C  
HETATM    9  C   UNL     1      -6.141  15.598  67.479  1.00  0.00    -0.143 C  
BRANCH   6  10
HETATM   10  C   UNL     1      -8.995  14.613  68.120  1.00  0.00    -0.179 C  
HETATM   11  O   UNL     1      -8.600  13.535  68.527  1.00  0.00    -0.160 OA 
BRANCH  10  12
HETATM   12  O   UNL     1      -9.913  14.807  67.131  1.00  0.00    -0.233 OA 
BRANCH  12  13
HETATM   13  C   UNL     1     -11.320  14.603  67.430  1.00  0.00    -0.356 C  
HETATM   14  C   UNL     1     -11.723  15.130  68.802  1.00  0.00    -0.366 C  
HETATM   15  C   UNL     1     -11.829  13.854  69.584  1.00  0.00    -0.327 C  
HETATM   16  C   UNL     1     -11.868  12.669  68.687  1.00  0.00    -0.342 C  
HETATM   17  O   UNL     1     -11.940  13.797  70.800  1.00  0.00    -0.317 OA 
HETATM   18  C   UNL     1     -11.668  12.386  66.157  1.00  0.00    -0.460 C  
HETATM   19  C   UNL     1     -11.671  13.139  67.440  1.00  0.00    -0.419 C  
BRANCH  16  20
HETATM   20  C   UNL     1     -11.927  11.294  69.249  1.00  0.00    -0.411 C  
BRANCH  20  21
HETATM   21  C   UNL     1     -10.593  10.622  69.259  1.00  0.00    -0.263 C  
HETATM   22  C   UNL     1     -10.165   9.834  70.257  1.00  0.00    -0.346 C  
ENDBRANCH  20  21
ENDBRANCH  16  20
ENDBRANCH  12  13
ENDBRANCH  10  12
ENDBRANCH   6  10
ENDBRANCH   3   5
TORSDOF 6
ENDMDL
MODEL      111
REMARK 921   NORMALIZED FREE ENERGY PREDICTED BY IDOCK:   -4.29 KCAL/MOL
REMARK 922        TOTAL FREE ENERGY PREDICTED BY IDOCK:   -7.32 KCAL/MOL
REMARK 923 INTER-LIGAND FREE ENERGY PREDICTED BY IDOCK:   -6.14 KCAL/MOL
REMARK 924 INTRA-LIGAND FREE ENERGY PREDICTED BY IDOCK:   -1.18 KCAL/MOL
REMARK 927      BINDING AFFINITY PREDICTED BY RF-SCORE:    0.00 PKD
ROOT
HETATM    1  C   UNL     1     -10.795  19.397  66.718  1.00  0.00    -0.490 C  
HETATM    2  C   UNL     1     -10.370  18.884  68.065  1.00  0.00    -0.457 C  
HETATM    3  C   UNL     1     -10.454  17.581  68.400  1.00  0.00    -0.372 C  
HETATM    4  C   UNL     1      -9.807  19.875  69.042  1.00  0.00    -0.352 C  
ENDROOT
BRANCH   3   5
HETATM    5  C   UNL     1     -10.906  16.481  67.546  1.00  0.00    -0.237 C  
HETATM    6  C   UNL     1     -10.342  15.081  67.721  1.00  0.00    -0.245 C  
HETATM    7  C   UNL     1     -10.010  15.891  66.473  1.00  0.00    -0.286 C  
HETATM    8  C   UNL     1      -8.575  16.330  66.327  1.00  0.00    -0.374 C  
HETATM    9  C   UNL     1     -10.668  15.576  65.147  1.00  0.00    -0.460 C  
BRANCH   6  10
HETATM   10  C   UNL     1     -11.298  13.952  67.695  1.00  0.00    -0.309 C  
HETATM   11  O   UNL     1     -12.366  14.029  68.277  1.00  0.00    -0.252 OA 
BRANCH  10  12
HETATM   12  O   UNL     1     -10.848  12.876  66.989  1.00  0.00    -0.255 OA 
BRANCH  12  13
HETATM   13  C   UNL     1      -9.817  12.034  67.573  1.00  0.00    -0.186 C  
HETATM   14  C   UNL     1      -8.600  11.865  66.672  1.00  0.00    -0.163 C  
HETATM   15  C   UNL     1      -8.815  10.475  66.150  1.00  0.00    -0.159 C  
HETATM   16  C   UNL     1      -9.836   9.747  66.949  1.00  0.00    -0.256 C  
HETATM   17  O   UNL     1      -8.183   9.979  65.229  1.00  0.00    -0.135 OA 
HETATM   18  C   UNL     1     -11.339  10.426  68.898  1.00  0.00    -0.278 C  
HETATM   19  C   UNL     1     -10.329  10.641  67.828  1.00  0.00    -0.239 C  
BRANCH  16  20
HETATM   20  C   UNL     1     -10.241   8.365  66.582  1.00  0.00    -0.335 C  
BRANCH  20  21
HETATM   21  C   UNL     1      -9.425   7.325  67.278  1.00  0.00    -0.169 C  
HETATM   22  C   UNL     1      -8.728   6.375  66.637  1.00  0.00    -0.127 C  
ENDBRANCH  20  21
ENDBRANCH  16  20
ENDBRANCH  12  13
ENDBRANCH  10  12
ENDBRANCH   6  10
ENDBRANCH   3   5
TORSDOF 6
ENDMDL
MODEL      112
REMARK 921   NORMALIZED FREE ENERGY PREDICTED BY IDOCK:   -4.29 KCAL/MOL
REMARK 922        TOTAL FREE ENERGY PREDICTED BY IDOCK:   -7.32 KCAL/MOL
REMARK 923 INTER-LIGAND FREE ENERGY PREDICTED BY IDOCK:   -6.14 KCAL/MOL
REMARK 924 INTRA-LIGAND FREE ENERGY PREDICTED BY IDOCK:   -1.18 KCAL/MOL
REMARK 927      BINDING AFFINITY PREDICTED BY RF-SCORE:    0.00 PKD
ROOT
HETATM    1  C   UNL     1      -8.972   9.942  68.614  1.00  0.00    -0.128 C  
HETATM    2  C   UNL     1     -10.290  10.003  69.334  1.00  0.00    -0.245 C  
HETATM    3  C   UNL     1     -11.169  11.006  69.145  1.00  0.00    -0.318 C  
HETATM    4  C   UNL     1     -10.626   8.876  70.267  1.00  0.00    -0.246 C  
ENDROOT
BRANCH   3   5
HETATM    5  C   UNL     1     -11.030  12.135  68.222  1.00  0.00    -0.273 C  
HETATM    6  C   UNL     1     -10.088  13.283  68.539  1.00  0.00    -0.208 C  
HETATM    7  C   UNL     1     -11.597  13.503  68.554  1.00  0.00    -0.368 C  
HETATM    8  C   UNL     1     -12.214  13.786  69.901  1.00  0.00    -0.383 C  
HETATM    9  C   UNL     1     -12.284  14.237  67.424  1.00  0.00    -0.267 C  
BRANCH   6  10
HETATM   10  C   UNL     1      -9.231  13.786  67.443  1.00  0.00    -0.221 C  
HETATM   11  O   UNL     1      -8.936  13.065  66.506  1.00  0.00    -0.178 OA 
BRANCH  10  12
HETATM   12  O   UNL     1      -8.829  15.078  67.615  1.00  0.00    -0.170 OA 
BRANCH  12  13
HETATM   13  C   UNL     1      -8.309  15.809  66.472  1.00  0.00    -0.278 C  
HETATM   14  C   UNL     1      -6.973  16.486  66.752  1.00  0.00    -0.241 C  
HETATM   15  C   UNL     1      -7.399  17.916  66.910  1.00  0.00    -0.201 C  
HETATM   16  C   UNL     1      -8.776  18.132  66.398  1.00  0.00    -0.252 C  
HETATM   17  O   UNL     1      -6.680  18.806  67.341  1.00  0.00    -0.201 OA 
HETATM   18  C   UNL     1     -10.552  16.564  65.445  1.00  0.00    -0.293 C  
HETATM   19  C   UNL     1      -9.244  16.914  66.059  1.00  0.00    -0.205 C  
BRANCH  16  20
HETATM   20  C   UNL     1      -9.421  19.468  66.495  1.00  0.00    -0.450 C  
BRANCH  20  21
HETATM   21  C   UNL     1     -10.492  19.513  67.535  1.00  0.00    -0.596 C  
HETATM   22  C   UNL     1     -10.261  19.776  68.830  1.00  0.00    -0.418 C  
ENDBRANCH  20  21
ENDBRANCH  16  20
ENDBRANCH  12  13
ENDBRANCH  10  12
ENDBRANCH   6  10
ENDBRANCH   3   5
TORSDOF 6
ENDMDL
MODEL      113
REMARK 921   NORMALIZED FREE ENERGY PREDICTED BY IDOCK:   -4.28 KCAL/MOL
REMARK 922        TOTAL FREE ENERGY PREDICTED BY IDOCK:   -7.30 KCAL/MOL
REMARK 923 INTER-LIGAND FREE ENERGY PREDICTED BY IDOCK:   -6.10 KCAL/MOL
REMARK 924 INTRA-LIGAND FREE ENERGY PREDICTED BY IDOCK:   -1.21 KCAL/MOL
REMARK 927      BINDING AFFINITY PREDICTED BY RF-SCORE:    0.00 PKD
ROOT
HETATM    1  C   UNL     1      -9.955  11.056  63.693  1.00  0.00    -0.415 C  
HETATM    2  C   UNL     1      -9.502   9.992  64.653  1.00  0.00    -0.367 C  
HETATM    3  C   UNL     1      -9.831  10.011  65.959  1.00  0.00    -0.321 C  
HETATM    4  C   UNL     1      -8.681   8.862  64.103  1.00  0.00    -0.079 C  
ENDROOT
BRANCH   3   5
HETATM    5  C   UNL     1     -10.680  10.992  66.638  1.00  0.00    -0.305 C  
HETATM    6  C   UNL     1     -10.284  12.458  66.686  1.00  0.00    -0.241 C  
HETATM    7  C   UNL     1     -10.268  11.617  67.958  1.00  0.00    -0.202 C  
HETATM    8  C   UNL     1      -8.912  11.347  68.560  1.00  0.00    -0.158 C  
HETATM    9  C   UNL     1     -11.356  11.767  68.999  1.00  0.00    -0.338 C  
BRANCH   6  10
HETATM   10  C   UNL     1     -11.339  13.460  66.418  1.00  0.00    -0.313 C  
HETATM   11  O   UNL     1     -12.481  13.110  66.178  1.00  0.00    -0.400 OA 
BRANCH  10  12
HETATM   12  O   UNL     1     -10.890  14.747  66.460  1.00  0.00    -0.307 OA 
BRANCH  12  13
HETATM   13  C   UNL     1     -10.391  15.275  67.719  1.00  0.00    -0.244 C  
HETATM   14  C   UNL     1     -11.231  16.426  68.260  1.00  0.00    -0.300 C  
HETATM   15  C   UNL     1     -10.358  17.601  67.933  1.00  0.00    -0.371 C  
HETATM   16  C   UNL     1      -8.978  17.173  67.587  1.00  0.00    -0.226 C  
HETATM   17  O   UNL     1     -10.716  18.768  68.008  1.00  0.00    -0.336 OA 
HETATM   18  C   UNL     1      -7.871  14.887  67.328  1.00  0.00    -0.235 C  
HETATM   19  C   UNL     1      -8.999  15.826  67.567  1.00  0.00    -0.201 C  
BRANCH  16  20
HETATM   20  C   UNL     1      -7.952  18.172  67.184  1.00  0.00    -0.230 C  
BRANCH  20  21
HETATM   21  C   UNL     1      -7.103  18.615  68.331  1.00  0.00    -0.291 C  
HETATM   22  C   UNL     1      -6.270  17.801  68.997  1.00  0.00    -0.218 C  
ENDBRANCH  20  21
ENDBRANCH  16  20
ENDBRANCH  12  13
ENDBRANCH  10  12
ENDBRANCH   6  10
ENDBRANCH   3   5
TORSDOF 6
ENDMDL
MODEL      114
REMARK 921   NORMALIZED FREE ENERGY PREDICTED BY IDOCK:   -4.28 KCAL/MOL
REMARK 922        TOTAL FREE ENERGY PREDICTED BY IDOCK:   -7.30 KCAL/MOL
REMARK 923 INTER-LIGAND FREE ENERGY PREDICTED BY IDOCK:   -6.93 KCAL/MOL
REMARK 924 INTRA-LIGAND FREE ENERGY PREDICTED BY IDOCK:   -0.37 KCAL/MOL
REMARK 927      BINDING AFFINITY PREDICTED BY RF-SCORE:    0.00 PKD
ROOT
HETATM    1  C   UNL     1     -12.962  13.833  65.094  1.00  0.00    -0.279 C  
HETATM    2  C   UNL     1     -11.774  12.995  64.711  1.00  0.00    -0.389 C  
HETATM    3  C   UNL     1     -10.710  12.839  65.522  1.00  0.00    -0.303 C  
HETATM    4  C   UNL     1     -11.815  12.295  63.384  1.00  0.00    -0.563 C  
ENDROOT
BRANCH   3   5
HETATM    5  C   UNL     1     -10.543  13.388  66.870  1.00  0.00    -0.273 C  
HETATM    6  C   UNL     1     -11.372  14.574  67.331  1.00  0.00    -0.370 C  
HETATM    7  C   UNL     1      -9.872  14.730  67.101  1.00  0.00    -0.232 C  
HETATM    8  C   UNL     1      -9.465  15.607  65.944  1.00  0.00    -0.376 C  
HETATM    9  C   UNL     1      -8.913  14.809  68.268  1.00  0.00    -0.181 C  
BRANCH   6  10
HETATM   10  C   UNL     1     -11.957  14.512  68.689  1.00  0.00    -0.285 C  
HETATM   11  O   UNL     1     -12.037  15.515  69.376  1.00  0.00    -0.336 OA 
BRANCH  10  12
HETATM   12  O   UNL     1     -12.357  13.260  69.051  1.00  0.00    -0.184 OA 
BRANCH  12  13
HETATM   13  C   UNL     1     -11.579  12.534  70.041  1.00  0.00    -0.130 C  
HETATM   14  C   UNL     1     -10.709  11.440  69.432  1.00  0.00    -0.152 C  
HETATM   15  C   UNL     1     -11.491  10.212  69.795  1.00  0.00    -0.228 C  
HETATM   16  C   UNL     1     -12.508  10.504  70.838  1.00  0.00    -0.488 C  
HETATM   17  O   UNL     1     -11.273   9.097  69.343  1.00  0.00    -0.085 OA 
HETATM   18  C   UNL     1     -13.247  12.652  72.005  1.00  0.00    -0.531 C  
HETATM   19  C   UNL     1     -12.471  11.836  71.033  1.00  0.00    -0.411 C  
BRANCH  16  20
HETATM   20  C   UNL     1     -13.429   9.440  71.318  1.00  0.00    -0.331 C  
BRANCH  20  21
HETATM   21  C   UNL     1     -12.936   8.774  72.562  1.00  0.00    -0.382 C  
HETATM   22  C   UNL     1     -11.722   8.214  72.674  1.00  0.00    -0.419 C  
ENDBRANCH  20  21
ENDBRANCH  16  20
ENDBRANCH  12  13
ENDBRANCH  10  12
ENDBRANCH   6  10
ENDBRANCH   3   5
TORSDOF 6
ENDMDL
MODEL      115
REMARK 921   NORMALIZED FREE ENERGY PREDICTED BY IDOCK:   -4.26 KCAL/MOL
REMARK 922        TOTAL FREE ENERGY PREDICTED BY IDOCK:   -7.27 KCAL/MOL
REMARK 923 INTER-LIGAND FREE ENERGY PREDICTED BY IDOCK:   -5.76 KCAL/MOL
REMARK 924 INTRA-LIGAND FREE ENERGY PREDICTED BY IDOCK:   -1.51 KCAL/MOL
REMARK 927      BINDING AFFINITY PREDICTED BY RF-SCORE:    0.00 PKD
ROOT
HETATM    1  C   UNL     1     -11.934  12.456  69.654  1.00  0.00    -0.341 C  
HETATM    2  C   UNL     1     -11.989  11.278  70.586  1.00  0.00    -0.435 C  
HETATM    3  C   UNL     1     -11.273  10.157  70.375  1.00  0.00    -0.402 C  
HETATM    4  C   UNL     1     -12.856  11.396  71.806  1.00  0.00    -0.449 C  
ENDROOT
BRANCH   3   5
HETATM    5  C   UNL     1     -10.329   9.909  69.283  1.00  0.00    -0.235 C  
HETATM    6  C   UNL     1     -10.785   9.224  68.006  1.00  0.00    -0.231 C  
HETATM    7  C   UNL     1      -9.838   8.509  68.964  1.00  0.00    -0.184 C  
HETATM    8  C   UNL     1     -10.398   7.304  69.677  1.00  0.00    -0.227 C  
HETATM    9  C   UNL     1      -8.366   8.371  68.640  1.00  0.00    -0.120 C  
BRANCH   6  10
HETATM   10  C   UNL     1     -10.321   9.795  66.722  1.00  0.00    -0.218 C  
HETATM   11  O   UNL     1      -9.838   9.079  65.862  1.00  0.00    -0.276 OA 
BRANCH  10  12
HETATM   12  O   UNL     1     -10.485  11.146  66.637  1.00  0.00    -0.232 OA 
BRANCH  12  13
HETATM   13  C   UNL     1      -9.418  11.947  66.060  1.00  0.00    -0.229 C  
HETATM   14  C   UNL     1      -8.130  11.906  66.875  1.00  0.00    -0.146 C  
HETATM   15  C   UNL     1      -8.169  13.245  67.548  1.00  0.00    -0.184 C  
HETATM   16  C   UNL     1      -9.164  14.145  66.910  1.00  0.00    -0.270 C  
HETATM   17  O   UNL     1      -7.428  13.580  68.461  1.00  0.00    -0.113 OA 
HETATM   18  C   UNL     1     -10.859  13.821  65.028  1.00  0.00    -0.377 C  
HETATM   19  C   UNL     1      -9.804  13.400  65.988  1.00  0.00    -0.273 C  
BRANCH  16  20
HETATM   20  C   UNL     1      -9.404  15.512  67.444  1.00  0.00    -0.211 C  
BRANCH  20  21
HETATM   21  C   UNL     1     -10.237  15.504  68.684  1.00  0.00    -0.216 C  
HETATM   22  C   UNL     1     -11.510  15.925  68.728  1.00  0.00    -0.393 C  
ENDBRANCH  20  21
ENDBRANCH  16  20
ENDBRANCH  12  13
ENDBRANCH  10  12
ENDBRANCH   6  10
ENDBRANCH   3   5
TORSDOF 6
ENDMDL
MODEL      116
REMARK 921   NORMALIZED FREE ENERGY PREDICTED BY IDOCK:   -4.25 KCAL/MOL
REMARK 922        TOTAL FREE ENERGY PREDICTED BY IDOCK:   -7.27 KCAL/MOL
REMARK 923 INTER-LIGAND FREE ENERGY PREDICTED BY IDOCK:   -6.43 KCAL/MOL
REMARK 924 INTRA-LIGAND FREE ENERGY PREDICTED BY IDOCK:   -0.84 KCAL/MOL
REMARK 927      BINDING AFFINITY PREDICTED BY RF-SCORE:    0.00 PKD
ROOT
HETATM    1  C   UNL     1     -10.668   5.778  67.557  1.00  0.00    -0.320 C  
HETATM    2  C   UNL     1     -10.162   5.710  68.970  1.00  0.00    -0.291 C  
HETATM    3  C   UNL     1     -10.334   6.718  69.847  1.00  0.00    -0.229 C  
HETATM    4  C   UNL     1      -9.472   4.449  69.403  1.00  0.00    -0.251 C  
ENDROOT
BRANCH   3   5
HETATM    5  C   UNL     1     -11.045   7.977  69.612  1.00  0.00    -0.021 C  
HETATM    6  C   UNL     1     -10.279   9.275  69.422  1.00  0.00    -0.214 C  
HETATM    7  C   UNL     1     -11.118   9.056  70.677  1.00  0.00    -0.314 C  
HETATM    8  C   UNL     1     -10.357   8.926  71.972  1.00  0.00    -0.378 C  
HETATM    9  C   UNL     1     -12.455   9.744  70.844  1.00  0.00    -0.366 C  
BRANCH   6  10
HETATM   10  C   UNL     1     -10.716  10.173  68.330  1.00  0.00    -0.230 C  
HETATM   11  O   UNL     1     -11.019   9.721  67.240  1.00  0.00    -0.235 OA 
BRANCH  10  12
HETATM   12  O   UNL     1     -10.723  11.490  68.680  1.00  0.00    -0.190 OA 
BRANCH  12  13
HETATM   13  C   UNL     1     -11.851  12.316  68.281  1.00  0.00    -0.310 C  
HETATM   14  C   UNL     1     -11.786  12.756  66.824  1.00  0.00    -0.459 C  
HETATM   15  C   UNL     1     -11.361  14.187  66.971  1.00  0.00    -0.332 C  
HETATM   16  C   UNL     1     -11.531  14.663  68.368  1.00  0.00    -0.335 C  
HETATM   17  O   UNL     1     -10.988  14.894  66.046  1.00  0.00    -0.323 OA 
HETATM   18  C   UNL     1     -12.263  13.515  70.528  1.00  0.00    -0.433 C  
HETATM   19  C   UNL     1     -11.909  13.587  69.086  1.00  0.00    -0.386 C  
BRANCH  16  20
HETATM   20  C   UNL     1     -11.129  16.042  68.754  1.00  0.00    -0.338 C  
BRANCH  20  21
HETATM   21  C   UNL     1      -9.657  16.169  68.974  1.00  0.00    -0.251 C  
HETATM   22  C   UNL     1      -8.832  15.119  69.107  1.00  0.00    -0.221 C  
ENDBRANCH  20  21
ENDBRANCH  16  20
ENDBRANCH  12  13
ENDBRANCH  10  12
ENDBRANCH   6  10
ENDBRANCH   3   5
TORSDOF 6
ENDMDL
MODEL      117
REMARK 921   NORMALIZED FREE ENERGY PREDICTED BY IDOCK:   -4.24 KCAL/MOL
REMARK 922        TOTAL FREE ENERGY PREDICTED BY IDOCK:   -7.25 KCAL/MOL
REMARK 923 INTER-LIGAND FREE ENERGY PREDICTED BY IDOCK:   -6.28 KCAL/MOL
REMARK 924 INTRA-LIGAND FREE ENERGY PREDICTED BY IDOCK:   -0.97 KCAL/MOL
REMARK 927      BINDING AFFINITY PREDICTED BY RF-SCORE:    0.00 PKD
ROOT
HETATM    1  C   UNL     1     -11.347   7.980  72.597  1.00  0.00    -0.469 C  
HETATM    2  C   UNL     1     -11.986   9.098  71.823  1.00  0.00    -0.449 C  
HETATM    3  C   UNL     1     -11.339   9.761  70.845  1.00  0.00    -0.439 C  
HETATM    4  C   UNL     1     -13.409   9.447  72.151  1.00  0.00    -0.545 C  
ENDROOT
BRANCH   3   5
HETATM    5  C   UNL     1      -9.985   9.499  70.353  1.00  0.00    -0.325 C  
HETATM    6  C   UNL     1      -9.641   9.702  68.887  1.00  0.00    -0.161 C  
HETATM    7  C   UNL     1      -9.679   8.297  69.479  1.00  0.00    -0.174 C  
HETATM    8  C   UNL     1     -10.779   7.394  68.980  1.00  0.00    -0.164 C  
HETATM    9  C   UNL     1      -8.399   7.551  69.787  1.00  0.00    -0.134 C  
BRANCH   6  10
HETATM   10  C   UNL     1      -8.368  10.389  68.572  1.00  0.00    -0.124 C  
HETATM   11  O   UNL     1      -7.720  10.927  69.453  1.00  0.00    -0.134 OA 
BRANCH  10  12
HETATM   12  O   UNL     1      -8.045  10.353  67.248  1.00  0.00    -0.113 OA 
BRANCH  12  13
HETATM   13  C   UNL     1      -8.306  11.527  66.431  1.00  0.00    -0.118 C  
HETATM   14  C   UNL     1      -8.218  12.832  67.212  1.00  0.00    -0.181 C  
HETATM   15  C   UNL     1      -9.670  13.171  67.376  1.00  0.00    -0.220 C  
HETATM   16  C   UNL     1     -10.522  12.367  66.462  1.00  0.00    -0.254 C  
HETATM   17  O   UNL     1     -10.095  14.046  68.117  1.00  0.00    -0.231 OA 
HETATM   18  C   UNL     1     -10.020  10.489  64.806  1.00  0.00    -0.412 C  
HETATM   19  C   UNL     1      -9.697  11.492  65.855  1.00  0.00    -0.260 C  
BRANCH  16  20
HETATM   20  C   UNL     1     -12.002  12.507  66.485  1.00  0.00    -0.367 C  
BRANCH  20  21
HETATM   21  C   UNL     1     -12.540  13.115  65.231  1.00  0.00    -0.531 C  
HETATM   22  C   UNL     1     -12.038  14.225  64.668  1.00  0.00    -0.478 C  
ENDBRANCH  20  21
ENDBRANCH  16  20
ENDBRANCH  12  13
ENDBRANCH  10  12
ENDBRANCH   6  10
ENDBRANCH   3   5
TORSDOF 6
ENDMDL
MODEL      118
REMARK 921   NORMALIZED FREE ENERGY PREDICTED BY IDOCK:   -4.24 KCAL/MOL
REMARK 922        TOTAL FREE ENERGY PREDICTED BY IDOCK:   -7.25 KCAL/MOL
REMARK 923 INTER-LIGAND FREE ENERGY PREDICTED BY IDOCK:   -5.94 KCAL/MOL
REMARK 924 INTRA-LIGAND FREE ENERGY PREDICTED BY IDOCK:   -1.30 KCAL/MOL
REMARK 927      BINDING AFFINITY PREDICTED BY RF-SCORE:    0.00 PKD
ROOT
HETATM    1  C   UNL     1     -13.612  15.077  71.015  1.00  0.00    -0.442 C  
HETATM    2  C   UNL     1     -12.205  15.477  71.359  1.00  0.00    -0.453 C  
HETATM    3  C   UNL     1     -11.145  15.095  70.622  1.00  0.00    -0.298 C  
HETATM    4  C   UNL     1     -12.007  16.362  72.557  1.00  0.00    -0.579 C  
ENDROOT
BRANCH   3   5
HETATM    5  C   UNL     1     -11.170  14.301  69.392  1.00  0.00    -0.313 C  
HETATM    6  C   UNL     1      -9.919  14.147  68.543  1.00  0.00    -0.235 C  
HETATM    7  C   UNL     1     -11.102  14.957  68.024  1.00  0.00    -0.301 C  
HETATM    8  C   UNL     1     -10.881  16.441  67.881  1.00  0.00    -0.328 C  
HETATM    9  C   UNL     1     -12.021  14.392  66.963  1.00  0.00    -0.424 C  
BRANCH   6  10
HETATM   10  C   UNL     1      -9.604  12.795  68.029  1.00  0.00    -0.217 C  
HETATM   11  O   UNL     1      -8.945  12.656  67.014  1.00  0.00    -0.204 OA 
BRANCH  10  12
HETATM   12  O   UNL     1     -10.127  11.790  68.788  1.00  0.00    -0.206 OA 
BRANCH  12  13
HETATM   13  C   UNL     1      -9.655  10.432  68.574  1.00  0.00    -0.158 C  
HETATM   14  C   UNL     1     -10.782   9.406  68.541  1.00  0.00    -0.203 C  
HETATM   15  C   UNL     1     -10.635   8.770  69.892  1.00  0.00    -0.224 C  
HETATM   16  C   UNL     1      -9.327   9.106  70.512  1.00  0.00    -0.287 C  
HETATM   17  O   UNL     1     -11.457   8.015  70.392  1.00  0.00    -0.241 OA 
HETATM   18  C   UNL     1      -7.392  10.613  69.799  1.00  0.00    -0.115 C  
HETATM   19  C   UNL     1      -8.738   9.991  69.684  1.00  0.00    -0.210 C  
BRANCH  16  20
HETATM   20  C   UNL     1      -8.985   8.619  71.874  1.00  0.00    -0.301 C  
BRANCH  20  21
HETATM   21  C   UNL     1      -7.973   7.521  71.852  1.00  0.00    -0.100 C  
HETATM   22  C   UNL     1      -7.813   6.677  70.822  1.00  0.00    -0.105 C  
ENDBRANCH  20  21
ENDBRANCH  16  20
ENDBRANCH  12  13
ENDBRANCH  10  12
ENDBRANCH   6  10
ENDBRANCH   3   5
TORSDOF 6
ENDMDL
MODEL      119
REMARK 921   NORMALIZED FREE ENERGY PREDICTED BY IDOCK:   -4.23 KCAL/MOL
REMARK 922        TOTAL FREE ENERGY PREDICTED BY IDOCK:   -7.23 KCAL/MOL
REMARK 923 INTER-LIGAND FREE ENERGY PREDICTED BY IDOCK:   -6.69 KCAL/MOL
REMARK 924 INTRA-LIGAND FREE ENERGY PREDICTED BY IDOCK:   -0.54 KCAL/MOL
REMARK 927      BINDING AFFINITY PREDICTED BY RF-SCORE:    0.00 PKD
ROOT
HETATM    1  C   UNL     1     -13.908  15.386  71.755  1.00  0.00    -0.620 C  
HETATM    2  C   UNL     1     -12.537  15.907  72.083  1.00  0.00    -0.522 C  
HETATM    3  C   UNL     1     -11.573  16.037  71.151  1.00  0.00    -0.492 C  
HETATM    4  C   UNL     1     -12.270  16.320  73.502  1.00  0.00    -0.612 C  
ENDROOT
BRANCH   3   5
HETATM    5  C   UNL     1     -11.689  15.753  69.720  1.00  0.00    -0.355 C  
HETATM    6  C   UNL     1     -11.077  14.495  69.127  1.00  0.00    -0.284 C  
HETATM    7  C   UNL     1     -10.494  15.864  68.790  1.00  0.00    -0.237 C  
HETATM    8  C   UNL     1      -9.114  16.149  69.326  1.00  0.00    -0.213 C  
HETATM    9  C   UNL     1     -10.749  16.504  67.443  1.00  0.00    -0.260 C  
BRANCH   6  10
HETATM   10  C   UNL     1     -11.893  13.728  68.160  1.00  0.00    -0.376 C  
HETATM   11  O   UNL     1     -12.523  14.301  67.288  1.00  0.00    -0.235 OA 
BRANCH  10  12
HETATM   12  O   UNL     1     -11.860  12.381  68.369  1.00  0.00    -0.322 OA 
BRANCH  12  13
HETATM   13  C   UNL     1     -10.875  11.839  69.290  1.00  0.00    -0.133 C  
HETATM   14  C   UNL     1      -9.576  11.429  68.605  1.00  0.00    -0.179 C  
HETATM   15  C   UNL     1      -9.720   9.936  68.577  1.00  0.00    -0.154 C  
HETATM   16  C   UNL     1     -10.799   9.477  69.490  1.00  0.00    -0.243 C  
HETATM   17  O   UNL     1      -8.997   9.185  67.938  1.00  0.00    -0.128 OA 
HETATM   18  C   UNL     1     -12.488  10.710  70.957  1.00  0.00    -0.515 C  
HETATM   19  C   UNL     1     -11.386  10.594  69.965  1.00  0.00    -0.400 C  
BRANCH  16  20
HETATM   20  C   UNL     1     -11.147   8.035  69.589  1.00  0.00    -0.021 C  
BRANCH  20  21
HETATM   21  C   UNL     1     -10.441   7.352  70.714  1.00  0.00    -0.221 C  
HETATM   22  C   UNL     1      -9.337   6.605  70.556  1.00  0.00    -0.167 C  
ENDBRANCH  20  21
ENDBRANCH  16  20
ENDBRANCH  12  13
ENDBRANCH  10  12
ENDBRANCH   6  10
ENDBRANCH   3   5
TORSDOF 6
ENDMDL
MODEL      120
REMARK 921   NORMALIZED FREE ENERGY PREDICTED BY IDOCK:   -4.22 KCAL/MOL
REMARK 922        TOTAL FREE ENERGY PREDICTED BY IDOCK:   -7.22 KCAL/MOL
REMARK 923 INTER-LIGAND FREE ENERGY PREDICTED BY IDOCK:   -6.39 KCAL/MOL
REMARK 924 INTRA-LIGAND FREE ENERGY PREDICTED BY IDOCK:   -0.83 KCAL/MOL
REMARK 927      BINDING AFFINITY PREDICTED BY RF-SCORE:    0.00 PKD
ROOT
HETATM    1  C   UNL     1     -11.462  14.236  66.962  1.00  0.00    -0.377 C  
HETATM    2  C   UNL     1     -11.691  13.577  65.630  1.00  0.00    -0.363 C  
HETATM    3  C   UNL     1     -11.397  12.282  65.406  1.00  0.00    -0.389 C  
HETATM    4  C   UNL     1     -12.299  14.408  64.538  1.00  0.00    -0.440 C  
ENDROOT
BRANCH   3   5
HETATM    5  C   UNL     1     -10.872  11.318  66.376  1.00  0.00    -0.306 C  
HETATM    6  C   UNL     1      -9.403  11.330  66.762  1.00  0.00    -0.191 C  
HETATM    7  C   UNL     1      -9.973  10.173  65.948  1.00  0.00    -0.334 C  
HETATM    8  C   UNL     1      -9.483  10.056  64.527  1.00  0.00    -0.359 C  
HETATM    9  C   UNL     1     -10.242   8.831  66.592  1.00  0.00    -0.340 C  
BRANCH   6  10
HETATM   10  C   UNL     1      -9.073  11.194  68.199  1.00  0.00    -0.159 C  
HETATM   11  O   UNL     1      -7.993  11.565  68.625  1.00  0.00    -0.140 OA 
BRANCH  10  12
HETATM   12  O   UNL     1     -10.069  10.622  68.933  1.00  0.00    -0.184 OA 
BRANCH  12  13
HETATM   13  C   UNL     1      -9.719   9.892  70.140  1.00  0.00    -0.202 C  
HETATM   14  C   UNL     1      -8.665   8.817  69.906  1.00  0.00    -0.135 C  
HETATM   15  C   UNL     1      -9.505   7.575  69.931  1.00  0.00    -0.160 C  
HETATM   16  C   UNL     1     -10.850   7.840  70.503  1.00  0.00    -0.245 C  
HETATM   17  O   UNL     1      -9.111   6.469  69.588  1.00  0.00    -0.140 OA 
HETATM   18  C   UNL     1     -12.017   9.963  71.311  1.00  0.00    -0.489 C  
HETATM   19  C   UNL     1     -10.913   9.170  70.707  1.00  0.00    -0.332 C  
BRANCH  16  20
HETATM   20  C   UNL     1     -11.867   6.758  70.583  1.00  0.00    -0.442 C  
BRANCH  20  21
HETATM   21  C   UNL     1     -12.128   6.321  71.988  1.00  0.00    -0.321 C  
HETATM   22  C   UNL     1     -11.221   5.695  72.753  1.00  0.00    -0.347 C  
ENDBRANCH  20  21
ENDBRANCH  16  20
ENDBRANCH  12  13
ENDBRANCH  10  12
ENDBRANCH   6  10
ENDBRANCH   3   5
TORSDOF 6
ENDMDL
MODEL      121
REMARK 921   NORMALIZED FREE ENERGY PREDICTED BY IDOCK:   -4.21 KCAL/MOL
REMARK 922        TOTAL FREE ENERGY PREDICTED BY IDOCK:   -7.21 KCAL/MOL
REMARK 923 INTER-LIGAND FREE ENERGY PREDICTED BY IDOCK:   -6.52 KCAL/MOL
REMARK 924 INTRA-LIGAND FREE ENERGY PREDICTED BY IDOCK:   -0.69 KCAL/MOL
REMARK 927      BINDING AFFINITY PREDICTED BY RF-SCORE:    0.00 PKD
ROOT
HETATM    1  C   UNL     1     -14.389  15.101  71.215  1.00  0.00    -0.512 C  
HETATM    2  C   UNL     1     -13.159  14.548  71.879  1.00  0.00    -0.427 C  
HETATM    3  C   UNL     1     -12.197  13.902  71.193  1.00  0.00    -0.390 C  
HETATM    4  C   UNL     1     -13.010  14.764  73.358  1.00  0.00    -0.550 C  
ENDROOT
BRANCH   3   5
HETATM    5  C   UNL     1     -12.151  13.673  69.748  1.00  0.00    -0.396 C  
HETATM    6  C   UNL     1     -11.072  12.795  69.136  1.00  0.00    -0.245 C  
HETATM    7  C   UNL     1     -11.073  14.298  68.880  1.00  0.00    -0.283 C  
HETATM    8  C   UNL     1      -9.936  15.077  69.490  1.00  0.00    -0.152 C  
HETATM    9  C   UNL     1     -11.524  14.857  67.548  1.00  0.00    -0.361 C  
BRANCH   6  10
HETATM   10  C   UNL     1     -11.489  11.820  68.103  1.00  0.00    -0.316 C  
HETATM   11  O   UNL     1     -12.147  12.178  67.143  1.00  0.00    -0.575 OA 
BRANCH  10  12
HETATM   12  O   UNL     1     -11.074  10.547  68.359  1.00  0.00    -0.247 OA 
BRANCH  12  13
HETATM   13  C   UNL     1     -10.105  10.324  69.419  1.00  0.00    -0.235 C  
HETATM   14  C   UNL     1      -8.757   9.833  68.905  1.00  0.00    -0.136 C  
HETATM   15  C   UNL     1      -8.821   8.378  69.265  1.00  0.00    -0.142 C  
HETATM   16  C   UNL     1      -9.915   8.105  70.233  1.00  0.00    -0.189 C  
HETATM   17  O   UNL     1      -8.032   7.534  68.867  1.00  0.00    -0.121 OA 
HETATM   18  C   UNL     1     -11.731   9.568  71.274  1.00  0.00    -0.444 C  
HETATM   19  C   UNL     1     -10.581   9.267  70.381  1.00  0.00    -0.298 C  
BRANCH  16  20
HETATM   20  C   UNL     1     -10.191   6.719  70.695  1.00  0.00    -0.216 C  
BRANCH  20  21
HETATM   21  C   UNL     1      -9.396   6.351  71.905  1.00  0.00    -0.154 C  
HETATM   22  C   UNL     1      -8.745   5.185  72.040  1.00  0.00    -0.134 C  
ENDBRANCH  20  21
ENDBRANCH  16  20
ENDBRANCH  12  13
ENDBRANCH  10  12
ENDBRANCH   6  10
ENDBRANCH   3   5
TORSDOF 6
ENDMDL
MODEL      122
REMARK 921   NORMALIZED FREE ENERGY PREDICTED BY IDOCK:   -4.18 KCAL/MOL
REMARK 922        TOTAL FREE ENERGY PREDICTED BY IDOCK:   -7.16 KCAL/MOL
REMARK 923 INTER-LIGAND FREE ENERGY PREDICTED BY IDOCK:   -5.54 KCAL/MOL
REMARK 924 INTRA-LIGAND FREE ENERGY PREDICTED BY IDOCK:   -1.62 KCAL/MOL
REMARK 927      BINDING AFFINITY PREDICTED BY RF-SCORE:    0.00 PKD
ROOT
HETATM    1  C   UNL     1     -10.052  19.425  65.882  1.00  0.00    -0.397 C  
HETATM    2  C   UNL     1      -9.684  19.471  67.338  1.00  0.00    -0.449 C  
HETATM    3  C   UNL     1      -8.631  18.796  67.838  1.00  0.00    -0.321 C  
HETATM    4  C   UNL     1     -10.518  20.335  68.240  1.00  0.00    -0.267 C  
ENDROOT
BRANCH   3   5
HETATM    5  C   UNL     1      -7.678  17.974  67.090  1.00  0.00    -0.233 C  
HETATM    6  C   UNL     1      -6.584  17.205  67.811  1.00  0.00    -0.158 C  
HETATM    7  C   UNL     1      -6.230  18.394  66.923  1.00  0.00    -0.194 C  
HETATM    8  C   UNL     1      -5.685  19.611  67.628  1.00  0.00    -0.198 C  
HETATM    9  C   UNL     1      -5.623  18.184  65.553  1.00  0.00    -0.211 C  
BRANCH   6  10
HETATM   10  C   UNL     1      -6.339  15.808  67.389  1.00  0.00    -0.139 C  
HETATM   11  O   UNL     1      -5.249  15.291  67.559  1.00  0.00    -0.313 OA 
BRANCH  10  12
HETATM   12  O   UNL     1      -7.423  15.217  66.811  1.00  0.00    -0.050 OA 
BRANCH  12  13
HETATM   13  C   UNL     1      -8.301  14.403  67.635  1.00  0.00    -0.179 C  
HETATM   14  C   UNL     1      -7.895  12.934  67.672  1.00  0.00    -0.168 C  
HETATM   15  C   UNL     1      -8.919  12.326  66.761  1.00  0.00    -0.209 C  
HETATM   16  C   UNL     1     -10.049  13.260  66.513  1.00  0.00    -0.275 C  
HETATM   17  O   UNL     1      -8.868  11.183  66.331  1.00  0.00    -0.167 OA 
HETATM   18  C   UNL     1     -10.507  15.671  67.216  1.00  0.00    -0.292 C  
HETATM   19  C   UNL     1      -9.712  14.419  67.111  1.00  0.00    -0.248 C  
BRANCH  16  20
HETATM   20  C   UNL     1     -11.159  12.881  65.600  1.00  0.00    -0.307 C  
BRANCH  20  21
HETATM   21  C   UNL     1     -10.826  13.118  64.164  1.00  0.00    -0.407 C  
HETATM   22  C   UNL     1     -10.528  12.138  63.298  1.00  0.00    -0.360 C  
ENDBRANCH  20  21
ENDBRANCH  16  20
ENDBRANCH  12  13
ENDBRANCH  10  12
ENDBRANCH   6  10
ENDBRANCH   3   5
TORSDOF 6
ENDMDL
MODEL      123
REMARK 921   NORMALIZED FREE ENERGY PREDICTED BY IDOCK:   -4.15 KCAL/MOL
REMARK 922        TOTAL FREE ENERGY PREDICTED BY IDOCK:   -7.12 KCAL/MOL
REMARK 923 INTER-LIGAND FREE ENERGY PREDICTED BY IDOCK:   -6.10 KCAL/MOL
REMARK 924 INTRA-LIGAND FREE ENERGY PREDICTED BY IDOCK:   -1.03 KCAL/MOL
REMARK 927      BINDING AFFINITY PREDICTED BY RF-SCORE:    0.00 PKD
ROOT
HETATM    1  C   UNL     1      -6.861  17.586  66.259  1.00  0.00    -0.323 C  
HETATM    2  C   UNL     1      -6.545  17.675  67.725  1.00  0.00    -0.189 C  
HETATM    3  C   UNL     1      -6.617  16.608  68.545  1.00  0.00    -0.142 C  
HETATM    4  C   UNL     1      -6.104  19.006  68.263  1.00  0.00    -0.232 C  
ENDROOT
BRANCH   3   5
HETATM    5  C   UNL     1      -6.955  15.233  68.171  1.00  0.00    -0.133 C  
HETATM    6  C   UNL     1      -8.149  14.531  68.796  1.00  0.00    -0.146 C  
HETATM    7  C   UNL     1      -6.731  14.075  69.126  1.00  0.00    -0.112 C  
HETATM    8  C   UNL     1      -6.270  14.310  70.543  1.00  0.00    -0.157 C  
HETATM    9  C   UNL     1      -6.165  12.808  68.524  1.00  0.00    -0.068 C  
BRANCH   6  10
HETATM   10  C   UNL     1      -9.034  13.759  67.897  1.00  0.00    -0.193 C  
HETATM   11  O   UNL     1      -8.615  13.318  66.841  1.00  0.00    -0.191 OA 
BRANCH  10  12
HETATM   12  O   UNL     1     -10.306  13.624  68.371  1.00  0.00    -0.238 OA 
BRANCH  12  13
HETATM   13  C   UNL     1     -11.317  14.578  67.947  1.00  0.00    -0.310 C  
HETATM   14  C   UNL     1     -11.239  14.913  66.463  1.00  0.00    -0.335 C  
HETATM   15  C   UNL     1     -10.609  16.274  66.505  1.00  0.00    -0.256 C  
HETATM   16  C   UNL     1     -10.661  16.855  67.872  1.00  0.00    -0.361 C  
HETATM   17  O   UNL     1     -10.170  16.861  65.526  1.00  0.00    -0.580 OA 
HETATM   18  C   UNL     1     -11.476  15.960  70.120  1.00  0.00    -0.366 C  
HETATM   19  C   UNL     1     -11.164  15.891  68.668  1.00  0.00    -0.360 C  
BRANCH  16  20
HETATM   20  C   UNL     1     -10.053  18.182  68.156  1.00  0.00    -0.388 C  
BRANCH  20  21
HETATM   21  C   UNL     1     -10.821  19.306  67.541  1.00  0.00    -0.524 C  
HETATM   22  C   UNL     1     -10.260  20.269  66.794  1.00  0.00    -0.497 C  
ENDBRANCH  20  21
ENDBRANCH  16  20
ENDBRANCH  12  13
ENDBRANCH  10  12
ENDBRANCH   6  10
ENDBRANCH   3   5
TORSDOF 6
ENDMDL
MODEL      124
REMARK 921   NORMALIZED FREE ENERGY PREDICTED BY IDOCK:   -4.14 KCAL/MOL
REMARK 922        TOTAL FREE ENERGY PREDICTED BY IDOCK:   -7.12 KCAL/MOL
REMARK 923 INTER-LIGAND FREE ENERGY PREDICTED BY IDOCK:   -6.43 KCAL/MOL
REMARK 924 INTRA-LIGAND FREE ENERGY PREDICTED BY IDOCK:   -0.69 KCAL/MOL
REMARK 927      BINDING AFFINITY PREDICTED BY RF-SCORE:    0.00 PKD
ROOT
HETATM    1  C   UNL     1     -10.454   7.840  67.499  1.00  0.00    -0.338 C  
HETATM    2  C   UNL     1      -9.977   7.096  68.715  1.00  0.00    -0.163 C  
HETATM    3  C   UNL     1     -10.433   7.369  69.952  1.00  0.00    -0.238 C  
HETATM    4  C   UNL     1      -8.979   5.993  68.509  1.00  0.00    -0.114 C  
ENDROOT
BRANCH   3   5
HETATM    5  C   UNL     1     -11.454   8.354  70.316  1.00  0.00    -0.063 C  
HETATM    6  C   UNL     1     -11.078   9.613  71.080  1.00  0.00    -0.438 C  
HETATM    7  C   UNL     1     -11.911   8.527  71.753  1.00  0.00    -0.395 C  
HETATM    8  C   UNL     1     -11.243   7.779  72.879  1.00  0.00    -0.434 C  
HETATM    9  C   UNL     1     -13.397   8.711  71.967  1.00  0.00    -0.428 C  
BRANCH   6  10
HETATM   10  C   UNL     1     -11.671  10.890  70.624  1.00  0.00    -0.316 C  
HETATM   11  O   UNL     1     -12.618  11.380  71.215  1.00  0.00    -0.394 OA 
BRANCH  10  12
HETATM   12  O   UNL     1     -11.064  11.407  69.518  1.00  0.00    -0.245 OA 
BRANCH  12  13
HETATM   13  C   UNL     1     -11.864  12.161  68.568  1.00  0.00    -0.310 C  
HETATM   14  C   UNL     1     -11.734  11.651  67.138  1.00  0.00    -0.215 C  
HETATM   15  C   UNL     1     -10.840  12.694  66.536  1.00  0.00    -0.258 C  
HETATM   16  C   UNL     1     -10.758  13.902  67.398  1.00  0.00    -0.275 C  
HETATM   17  O   UNL     1     -10.300  12.594  65.444  1.00  0.00    -0.282 OA 
HETATM   18  C   UNL     1     -11.716  14.478  69.694  1.00  0.00    -0.356 C  
HETATM   19  C   UNL     1     -11.440  13.605  68.522  1.00  0.00    -0.347 C  
BRANCH  16  20
HETATM   20  C   UNL     1      -9.890  15.048  67.018  1.00  0.00    -0.241 C  
BRANCH  20  21
HETATM   21  C   UNL     1     -10.624  16.088  66.237  1.00  0.00    -0.288 C  
HETATM   22  C   UNL     1     -10.684  16.107  64.897  1.00  0.00    -0.297 C  
ENDBRANCH  20  21
ENDBRANCH  16  20
ENDBRANCH  12  13
ENDBRANCH  10  12
ENDBRANCH   6  10
ENDBRANCH   3   5
TORSDOF 6
ENDMDL
MODEL      125
REMARK 921   NORMALIZED FREE ENERGY PREDICTED BY IDOCK:   -4.14 KCAL/MOL
REMARK 922        TOTAL FREE ENERGY PREDICTED BY IDOCK:   -7.11 KCAL/MOL
REMARK 923 INTER-LIGAND FREE ENERGY PREDICTED BY IDOCK:   -6.30 KCAL/MOL
REMARK 924 INTRA-LIGAND FREE ENERGY PREDICTED BY IDOCK:   -0.81 KCAL/MOL
REMARK 927      BINDING AFFINITY PREDICTED BY RF-SCORE:    0.00 PKD
ROOT
HETATM    1  C   UNL     1      -6.962  13.425  67.489  1.00  0.00    -0.153 C  
HETATM    2  C   UNL     1      -7.050  12.356  68.542  1.00  0.00    -0.100 C  
HETATM    3  C   UNL     1      -7.875  11.297  68.428  1.00  0.00    -0.136 C  
HETATM    4  C   UNL     1      -6.151  12.482  69.738  1.00  0.00    -0.134 C  
ENDROOT
BRANCH   3   5
HETATM    5  C   UNL     1      -8.756  10.986  67.301  1.00  0.00    -0.129 C  
HETATM    6  C   UNL     1     -10.215  11.410  67.317  1.00  0.00    -0.229 C  
HETATM    7  C   UNL     1      -9.844   9.934  67.413  1.00  0.00    -0.223 C  
HETATM    8  C   UNL     1     -10.142   9.257  68.727  1.00  0.00    -0.210 C  
HETATM    9  C   UNL     1     -10.014   9.014  66.224  1.00  0.00    -0.352 C  
BRANCH   6  10
HETATM   10  C   UNL     1     -10.767  12.004  66.079  1.00  0.00    -0.279 C  
HETATM   11  O   UNL     1     -10.055  12.191  65.109  1.00  0.00    -0.262 OA 
BRANCH  10  12
HETATM   12  O   UNL     1     -12.094  12.307  66.167  1.00  0.00    -0.625 OA 
BRANCH  12  13
HETATM   13  C   UNL     1     -12.493  13.704  66.209  1.00  0.00    -0.366 C  
HETATM   14  C   UNL     1     -12.222  14.443  64.904  1.00  0.00    -0.440 C  
HETATM   15  C   UNL     1     -11.005  15.240  65.268  1.00  0.00    -0.393 C  
HETATM   16  C   UNL     1     -10.798  15.275  66.739  1.00  0.00    -0.312 C  
HETATM   17  O   UNL     1     -10.310  15.843  64.463  1.00  0.00    -0.259 OA 
HETATM   18  C   UNL     1     -12.004  14.169  68.699  1.00  0.00    -0.373 C  
HETATM   19  C   UNL     1     -11.731  14.458  67.267  1.00  0.00    -0.429 C  
BRANCH  16  20
HETATM   20  C   UNL     1      -9.622  15.973  67.324  1.00  0.00    -0.227 C  
BRANCH  20  21
HETATM   21  C   UNL     1     -10.010  17.166  68.135  1.00  0.00    -0.297 C  
HETATM   22  C   UNL     1     -10.671  18.221  67.637  1.00  0.00    -0.373 C  
ENDBRANCH  20  21
ENDBRANCH  16  20
ENDBRANCH  12  13
ENDBRANCH  10  12
ENDBRANCH   6  10
ENDBRANCH   3   5
TORSDOF 6
ENDMDL
MODEL      126
REMARK 921   NORMALIZED FREE ENERGY PREDICTED BY IDOCK:   -4.14 KCAL/MOL
REMARK 922        TOTAL FREE ENERGY PREDICTED BY IDOCK:   -7.11 KCAL/MOL
REMARK 923 INTER-LIGAND FREE ENERGY PREDICTED BY IDOCK:   -5.67 KCAL/MOL
REMARK 924 INTRA-LIGAND FREE ENERGY PREDICTED BY IDOCK:   -1.44 KCAL/MOL
REMARK 927      BINDING AFFINITY PREDICTED BY RF-SCORE:    0.00 PKD
ROOT
HETATM    1  C   UNL     1      -9.078   4.427  72.172  1.00  0.00    -0.152 C  
HETATM    2  C   UNL     1     -10.336   5.188  72.483  1.00  0.00    -0.254 C  
HETATM    3  C   UNL     1     -10.579   6.416  71.984  1.00  0.00    -0.244 C  
HETATM    4  C   UNL     1     -11.356   4.520  73.358  1.00  0.00    -0.376 C  
ENDROOT
BRANCH   3   5
HETATM    5  C   UNL     1      -9.730   7.174  71.062  1.00  0.00    -0.165 C  
HETATM    6  C   UNL     1     -10.287   8.360  70.293  1.00  0.00    -0.212 C  
HETATM    7  C   UNL     1      -9.911   7.078  69.558  1.00  0.00    -0.161 C  
HETATM    8  C   UNL     1     -11.052   6.296  68.958  1.00  0.00    -0.446 C  
HETATM    9  C   UNL     1      -8.645   7.001  68.733  1.00  0.00    -0.125 C  
BRANCH   6  10
HETATM   10  C   UNL     1      -9.454   9.581  70.223  1.00  0.00    -0.259 C  
HETATM   11  O   UNL     1      -8.469   9.701  70.930  1.00  0.00    -0.253 OA 
BRANCH  10  12
HETATM   12  O   UNL     1      -9.913  10.501  69.328  1.00  0.00    -0.212 OA 
BRANCH  12  13
HETATM   13  C   UNL     1      -9.148  10.742  68.115  1.00  0.00    -0.151 C  
HETATM   14  C   UNL     1      -8.644  12.176  68.000  1.00  0.00    -0.175 C  
HETATM   15  C   UNL     1      -9.593  12.737  66.983  1.00  0.00    -0.229 C  
HETATM   16  C   UNL     1     -10.334  11.659  66.278  1.00  0.00    -0.273 C  
HETATM   17  O   UNL     1      -9.694  13.926  66.717  1.00  0.00    -0.261 OA 
HETATM   18  C   UNL     1     -10.396   9.120  66.545  1.00  0.00    -0.269 C  
HETATM   19  C   UNL     1      -9.985  10.508  66.886  1.00  0.00    -0.246 C  
BRANCH  16  20
HETATM   20  C   UNL     1     -11.363  11.988  65.257  1.00  0.00    -0.366 C  
BRANCH  20  21
HETATM   21  C   UNL     1     -10.908  11.681  63.867  1.00  0.00    -0.471 C  
HETATM   22  C   UNL     1      -9.721  11.128  63.578  1.00  0.00    -0.367 C  
ENDBRANCH  20  21
ENDBRANCH  16  20
ENDBRANCH  12  13
ENDBRANCH  10  12
ENDBRANCH   6  10
ENDBRANCH   3   5
TORSDOF 6
ENDMDL
MODEL      127
REMARK 921   NORMALIZED FREE ENERGY PREDICTED BY IDOCK:   -4.13 KCAL/MOL
REMARK 922        TOTAL FREE ENERGY PREDICTED BY IDOCK:   -7.11 KCAL/MOL
REMARK 923 INTER-LIGAND FREE ENERGY PREDICTED BY IDOCK:   -5.93 KCAL/MOL
REMARK 924 INTRA-LIGAND FREE ENERGY PREDICTED BY IDOCK:   -1.18 KCAL/MOL
REMARK 927      BINDING AFFINITY PREDICTED BY RF-SCORE:    0.00 PKD
ROOT
HETATM    1  C   UNL     1      -9.600   4.258  71.434  1.00  0.00    -0.239 C  
HETATM    2  C   UNL     1     -10.164   5.524  72.015  1.00  0.00    -0.249 C  
HETATM    3  C   UNL     1      -9.950   6.732  71.457  1.00  0.00    -0.189 C  
HETATM    4  C   UNL     1     -11.019   5.407  73.243  1.00  0.00    -0.358 C  
ENDROOT
BRANCH   3   5
HETATM    5  C   UNL     1      -9.208   7.012  70.226  1.00  0.00    -0.156 C  
HETATM    6  C   UNL     1      -9.590   8.187  69.341  1.00  0.00    -0.167 C  
HETATM    7  C   UNL     1      -9.816   6.758  68.859  1.00  0.00    -0.146 C  
HETATM    8  C   UNL     1     -11.253   6.325  68.713  1.00  0.00    -0.357 C  
HETATM    9  C   UNL     1      -8.904   6.137  67.823  1.00  0.00    -0.110 C  
BRANCH   6  10
HETATM   10  C   UNL     1      -8.494   9.031  68.815  1.00  0.00    -0.131 C  
HETATM   11  O   UNL     1      -7.334   8.787  69.096  1.00  0.00    -0.069 OA 
BRANCH  10  12
HETATM   12  O   UNL     1      -8.929  10.061  68.035  1.00  0.00    -0.128 OA 
BRANCH  12  13
HETATM   13  C   UNL     1     -10.065   9.843  67.155  1.00  0.00    -0.215 C  
HETATM   14  C   UNL     1      -9.720   9.011  65.926  1.00  0.00    -0.306 C  
HETATM   15  C   UNL     1      -9.667  10.069  64.864  1.00  0.00    -0.307 C  
HETATM   16  C   UNL     1     -10.292  11.335  65.327  1.00  0.00    -0.337 C  
HETATM   17  O   UNL     1      -9.229   9.893  63.736  1.00  0.00    -0.256 OA 
HETATM   18  C   UNL     1     -11.294  12.076  67.556  1.00  0.00    -0.387 C  
HETATM   19  C   UNL     1     -10.602  11.146  66.625  1.00  0.00    -0.314 C  
BRANCH  16  20
HETATM   20  C   UNL     1     -10.311  12.537  64.451  1.00  0.00    -0.378 C  
BRANCH  20  21
HETATM   21  C   UNL     1     -11.294  12.414  63.333  1.00  0.00    -0.507 C  
HETATM   22  C   UNL     1     -12.575  12.052  63.504  1.00  0.00    -0.625 C  
ENDBRANCH  20  21
ENDBRANCH  16  20
ENDBRANCH  12  13
ENDBRANCH  10  12
ENDBRANCH   6  10
ENDBRANCH   3   5
TORSDOF 6
ENDMDL
MODEL      128
REMARK 921   NORMALIZED FREE ENERGY PREDICTED BY IDOCK:   -4.13 KCAL/MOL
REMARK 922        TOTAL FREE ENERGY PREDICTED BY IDOCK:   -7.10 KCAL/MOL
REMARK 923 INTER-LIGAND FREE ENERGY PREDICTED BY IDOCK:   -5.75 KCAL/MOL
REMARK 924 INTRA-LIGAND FREE ENERGY PREDICTED BY IDOCK:   -1.35 KCAL/MOL
REMARK 927      BINDING AFFINITY PREDICTED BY RF-SCORE:    0.00 PKD
ROOT
HETATM    1  C   UNL     1      -8.812   6.150  72.282  1.00  0.00    -0.137 C  
HETATM    2  C   UNL     1      -8.678   7.543  72.829  1.00  0.00    -0.174 C  
HETATM    3  C   UNL     1      -8.685   8.633  72.037  1.00  0.00    -0.235 C  
HETATM    4  C   UNL     1      -8.565   7.699  74.318  1.00  0.00    -0.276 C  
ENDROOT
BRANCH   3   5
HETATM    5  C   UNL     1      -8.860   8.662  70.583  1.00  0.00    -0.192 C  
HETATM    6  C   UNL     1      -9.246   9.950  69.875  1.00  0.00    -0.245 C  
HETATM    7  C   UNL     1     -10.235   8.792  69.954  1.00  0.00    -0.206 C  
HETATM    8  C   UNL     1     -11.462   9.021  70.800  1.00  0.00    -0.331 C  
HETATM    9  C   UNL     1     -10.505   7.921  68.747  1.00  0.00    -0.198 C  
BRANCH   6  10
HETATM   10  C   UNL     1      -8.525  10.285  68.627  1.00  0.00    -0.127 C  
HETATM   11  O   UNL     1      -7.316  10.147  68.553  1.00  0.00    -0.078 OA 
BRANCH  10  12
HETATM   12  O   UNL     1      -9.338  10.752  67.638  1.00  0.00    -0.146 OA 
BRANCH  12  13
HETATM   13  C   UNL     1     -10.155  11.927  67.898  1.00  0.00    -0.192 C  
HETATM   14  C   UNL     1     -11.618  11.734  67.519  1.00  0.00    -0.361 C  
HETATM   15  C   UNL     1     -11.692  12.513  66.239  1.00  0.00    -0.404 C  
HETATM   16  C   UNL     1     -10.509  13.396  66.072  1.00  0.00    -0.294 C  
HETATM   17  O   UNL     1     -12.638  12.480  65.465  1.00  0.00    -0.642 OA 
HETATM   18  C   UNL     1      -8.378  13.739  67.436  1.00  0.00    -0.201 C  
HETATM   19  C   UNL     1      -9.681  13.109  67.095  1.00  0.00    -0.235 C  
BRANCH  16  20
HETATM   20  C   UNL     1     -10.351  14.229  64.850  1.00  0.00    -0.429 C  
BRANCH  20  21
HETATM   21  C   UNL     1     -10.679  15.666  65.090  1.00  0.00    -0.463 C  
HETATM   22  C   UNL     1      -9.847  16.528  65.694  1.00  0.00    -0.187 C  
ENDBRANCH  20  21
ENDBRANCH  16  20
ENDBRANCH  12  13
ENDBRANCH  10  12
ENDBRANCH   6  10
ENDBRANCH   3   5
TORSDOF 6
ENDMDL
MODEL      129
REMARK 921   NORMALIZED FREE ENERGY PREDICTED BY IDOCK:   -4.12 KCAL/MOL
REMARK 922        TOTAL FREE ENERGY PREDICTED BY IDOCK:   -7.09 KCAL/MOL
REMARK 923 INTER-LIGAND FREE ENERGY PREDICTED BY IDOCK:   -6.27 KCAL/MOL
REMARK 924 INTRA-LIGAND FREE ENERGY PREDICTED BY IDOCK:   -0.81 KCAL/MOL
REMARK 927      BINDING AFFINITY PREDICTED BY RF-SCORE:    0.00 PKD
ROOT
HETATM    1  C   UNL     1     -10.638  19.075  67.581  1.00  0.00    -0.526 C  
HETATM    2  C   UNL     1      -9.148  19.009  67.398  1.00  0.00    -0.325 C  
HETATM    3  C   UNL     1      -8.467  17.848  67.432  1.00  0.00    -0.236 C  
HETATM    4  C   UNL     1      -8.422  20.298  67.138  1.00  0.00    -0.407 C  
ENDROOT
BRANCH   3   5
HETATM    5  C   UNL     1      -9.026  16.505  67.600  1.00  0.00    -0.198 C  
HETATM    6  C   UNL     1      -9.437  16.002  68.974  1.00  0.00    -0.243 C  
HETATM    7  C   UNL     1      -8.233  15.394  68.263  1.00  0.00    -0.145 C  
HETATM    8  C   UNL     1      -6.887  15.661  68.887  1.00  0.00    -0.126 C  
HETATM    9  C   UNL     1      -8.324  14.028  67.618  1.00  0.00    -0.191 C  
BRANCH   6  10
HETATM   10  C   UNL     1     -10.730  15.291  69.082  1.00  0.00    -0.251 C  
HETATM   11  O   UNL     1     -11.241  15.095  70.171  1.00  0.00    -0.244 OA 
BRANCH  10  12
HETATM   12  O   UNL     1     -11.236  14.896  67.879  1.00  0.00    -0.290 OA 
BRANCH  12  13
HETATM   13  C   UNL     1     -12.117  13.741  67.833  1.00  0.00    -0.287 C  
HETATM   14  C   UNL     1     -11.706  12.635  68.798  1.00  0.00    -0.364 C  
HETATM   15  C   UNL     1     -11.088  11.644  67.857  1.00  0.00    -0.247 C  
HETATM   16  C   UNL     1     -11.439  11.943  66.445  1.00  0.00    -0.371 C  
HETATM   17  O   UNL     1     -10.436  10.672  68.210  1.00  0.00    -0.169 OA 
HETATM   18  C   UNL     1     -12.745  13.835  65.333  1.00  0.00    -0.513 C  
HETATM   19  C   UNL     1     -12.117  13.108  66.468  1.00  0.00    -0.423 C  
BRANCH  16  20
HETATM   20  C   UNL     1     -10.898  11.114  65.336  1.00  0.00    -0.212 C  
BRANCH  20  21
HETATM   21  C   UNL     1      -9.760  11.775  64.629  1.00  0.00    -0.172 C  
HETATM   22  C   UNL     1      -9.552  11.685  63.307  1.00  0.00    -0.334 C  
ENDBRANCH  20  21
ENDBRANCH  16  20
ENDBRANCH  12  13
ENDBRANCH  10  12
ENDBRANCH   6  10
ENDBRANCH   3   5
TORSDOF 6
ENDMDL
MODEL      130
REMARK 921   NORMALIZED FREE ENERGY PREDICTED BY IDOCK:   -4.12 KCAL/MOL
REMARK 922        TOTAL FREE ENERGY PREDICTED BY IDOCK:   -7.08 KCAL/MOL
REMARK 923 INTER-LIGAND FREE ENERGY PREDICTED BY IDOCK:   -6.13 KCAL/MOL
REMARK 924 INTRA-LIGAND FREE ENERGY PREDICTED BY IDOCK:   -0.95 KCAL/MOL
REMARK 927      BINDING AFFINITY PREDICTED BY RF-SCORE:    0.00 PKD
ROOT
HETATM    1  C   UNL     1     -10.385   7.564  66.847  1.00  0.00    -0.379 C  
HETATM    2  C   UNL     1     -10.003   8.008  68.231  1.00  0.00    -0.210 C  
HETATM    3  C   UNL     1      -9.849   9.306  68.556  1.00  0.00    -0.173 C  
HETATM    4  C   UNL     1      -9.825   6.947  69.278  1.00  0.00    -0.159 C  
ENDROOT
BRANCH   3   5
HETATM    5  C   UNL     1     -10.056  10.462  67.681  1.00  0.00    -0.223 C  
HETATM    6  C   UNL     1      -9.539  11.835  68.076  1.00  0.00    -0.187 C  
HETATM    7  C   UNL     1     -11.039  11.561  68.041  1.00  0.00    -0.313 C  
HETATM    8  C   UNL     1     -11.748  11.569  69.372  1.00  0.00    -0.413 C  
HETATM    9  C   UNL     1     -11.897  12.091  66.912  1.00  0.00    -0.250 C  
BRANCH   6  10
HETATM   10  C   UNL     1      -8.861  12.636  67.032  1.00  0.00    -0.212 C  
HETATM   11  O   UNL     1      -8.307  12.090  66.094  1.00  0.00     0.046 OA 
BRANCH  10  12
HETATM   12  O   UNL     1      -8.924  13.980  67.252  1.00  0.00    -0.197 OA 
BRANCH  12  13
HETATM   13  C   UNL     1     -10.209  14.649  67.143  1.00  0.00    -0.256 C  
HETATM   14  C   UNL     1     -10.383  15.402  65.829  1.00  0.00    -0.381 C  
HETATM   15  C   UNL     1     -10.183  16.819  66.277  1.00  0.00    -0.332 C  
HETATM   16  C   UNL     1     -10.267  16.939  67.756  1.00  0.00    -0.308 C  
HETATM   17  O   UNL     1     -10.038  17.768  65.520  1.00  0.00    -0.548 OA 
HETATM   18  C   UNL     1     -10.552  15.231  69.633  1.00  0.00    -0.285 C  
HETATM   19  C   UNL     1     -10.381  15.681  68.226  1.00  0.00    -0.244 C  
BRANCH  16  20
HETATM   20  C   UNL     1     -10.055  18.250  68.424  1.00  0.00    -0.412 C  
BRANCH  20  21
HETATM   21  C   UNL     1      -8.609  18.609  68.532  1.00  0.00    -0.370 C  
HETATM   22  C   UNL     1      -8.096  19.770  68.097  1.00  0.00    -0.329 C  
ENDBRANCH  20  21
ENDBRANCH  16  20
ENDBRANCH  12  13
ENDBRANCH  10  12
ENDBRANCH   6  10
ENDBRANCH   3   5
TORSDOF 6
ENDMDL
MODEL      131
REMARK 921   NORMALIZED FREE ENERGY PREDICTED BY IDOCK:   -4.11 KCAL/MOL
REMARK 922        TOTAL FREE ENERGY PREDICTED BY IDOCK:   -7.08 KCAL/MOL
REMARK 923 INTER-LIGAND FREE ENERGY PREDICTED BY IDOCK:   -5.38 KCAL/MOL
REMARK 924 INTRA-LIGAND FREE ENERGY PREDICTED BY IDOCK:   -1.70 KCAL/MOL
REMARK 927      BINDING AFFINITY PREDICTED BY RF-SCORE:    0.00 PKD
ROOT
HETATM    1  C   UNL     1     -12.333   8.986  72.067  1.00  0.00    -0.455 C  
HETATM    2  C   UNL     1     -12.914   7.704  71.540  1.00  0.00    -0.378 C  
HETATM    3  C   UNL     1     -12.149   6.642  71.223  1.00  0.00    -0.395 C  
HETATM    4  C   UNL     1     -14.407   7.621  71.402  1.00  0.00    -0.537 C  
ENDROOT
BRANCH   3   5
HETATM    5  C   UNL     1     -10.696   6.531  71.367  1.00  0.00    -0.280 C  
HETATM    6  C   UNL     1      -9.951   5.331  70.806  1.00  0.00    -0.279 C  
HETATM    7  C   UNL     1     -10.069   5.524  72.314  1.00  0.00    -0.225 C  
HETATM    8  C   UNL     1     -10.913   4.514  73.049  1.00  0.00    -0.308 C  
HETATM    9  C   UNL     1      -8.889   6.011  73.127  1.00  0.00    -0.128 C  
BRANCH   6  10
HETATM   10  C   UNL     1      -8.690   5.591  70.076  1.00  0.00    -0.128 C  
HETATM   11  O   UNL     1      -7.856   4.712  69.947  1.00  0.00    -0.060 OA 
BRANCH  10  12
HETATM   12  O   UNL     1      -8.587   6.867  69.606  1.00  0.00    -0.132 OA 
BRANCH  12  13
HETATM   13  C   UNL     1      -8.519   7.082  68.170  1.00  0.00    -0.129 C  
HETATM   14  C   UNL     1      -7.432   8.071  67.764  1.00  0.00    -0.094 C  
HETATM   15  C   UNL     1      -8.248   9.292  67.461  1.00  0.00    -0.114 C  
HETATM   16  C   UNL     1      -9.690   8.962  67.324  1.00  0.00    -0.235 C  
HETATM   17  O   UNL     1      -7.780  10.407  67.281  1.00  0.00    -0.098 OA 
HETATM   18  C   UNL     1     -11.024   6.805  67.621  1.00  0.00    -0.346 C  
HETATM   19  C   UNL     1      -9.806   7.658  67.643  1.00  0.00    -0.207 C  
BRANCH  16  20
HETATM   20  C   UNL     1     -10.692  10.030  67.067  1.00  0.00    -0.248 C  
BRANCH  20  21
HETATM   21  C   UNL     1     -11.434  10.427  68.301  1.00  0.00    -0.218 C  
HETATM   22  C   UNL     1     -11.761  11.694  68.598  1.00  0.00    -0.386 C  
ENDBRANCH  20  21
ENDBRANCH  16  20
ENDBRANCH  12  13
ENDBRANCH  10  12
ENDBRANCH   6  10
ENDBRANCH   3   5
TORSDOF 6
ENDMDL
MODEL      132
REMARK 921   NORMALIZED FREE ENERGY PREDICTED BY IDOCK:   -4.11 KCAL/MOL
REMARK 922        TOTAL FREE ENERGY PREDICTED BY IDOCK:   -7.07 KCAL/MOL
REMARK 923 INTER-LIGAND FREE ENERGY PREDICTED BY IDOCK:   -5.90 KCAL/MOL
REMARK 924 INTRA-LIGAND FREE ENERGY PREDICTED BY IDOCK:   -1.17 KCAL/MOL
REMARK 927      BINDING AFFINITY PREDICTED BY RF-SCORE:    0.00 PKD
ROOT
HETATM    1  C   UNL     1     -10.415  16.859  67.334  1.00  0.00    -0.310 C  
HETATM    2  C   UNL     1      -9.343  16.082  66.623  1.00  0.00    -0.268 C  
HETATM    3  C   UNL     1      -9.504  14.795  66.260  1.00  0.00    -0.332 C  
HETATM    4  C   UNL     1      -8.068  16.801  66.289  1.00  0.00    -0.365 C  
ENDROOT
BRANCH   3   5
HETATM    5  C   UNL     1     -10.703  13.974  66.441  1.00  0.00    -0.278 C  
HETATM    6  C   UNL     1     -10.588  12.486  66.725  1.00  0.00    -0.253 C  
HETATM    7  C   UNL     1     -11.143  12.971  65.390  1.00  0.00    -0.300 C  
HETATM    8  C   UNL     1     -10.294  12.691  64.176  1.00  0.00    -0.412 C  
HETATM    9  C   UNL     1     -12.627  12.910  65.100  1.00  0.00    -0.536 C  
BRANCH   6  10
HETATM   10  C   UNL     1     -11.458  11.923  67.781  1.00  0.00    -0.319 C  
HETATM   11  O   UNL     1     -11.921  12.639  68.651  1.00  0.00    -0.304 OA 
BRANCH  10  12
HETATM   12  O   UNL     1     -11.651  10.578  67.666  1.00  0.00    -0.447 OA 
BRANCH  12  13
HETATM   13  C   UNL     1     -11.009   9.693  68.625  1.00  0.00    -0.111 C  
HETATM   14  C   UNL     1     -10.168  10.436  69.656  1.00  0.00    -0.245 C  
HETATM   15  C   UNL     1      -8.782  10.166  69.149  1.00  0.00    -0.170 C  
HETATM   16  C   UNL     1      -8.773   9.064  68.153  1.00  0.00    -0.130 C  
HETATM   17  O   UNL     1      -7.777  10.733  69.554  1.00  0.00    -0.139 OA 
HETATM   18  C   UNL     1     -10.619   7.667  67.076  1.00  0.00    -0.406 C  
HETATM   19  C   UNL     1     -10.064   8.742  67.941  1.00  0.00    -0.257 C  
BRANCH  16  20
HETATM   20  C   UNL     1      -7.509   8.656  67.485  1.00  0.00    -0.090 C  
BRANCH  20  21
HETATM   21  C   UNL     1      -7.405   9.179  66.089  1.00  0.00    -0.095 C  
HETATM   22  C   UNL     1      -7.354  10.485  65.786  1.00  0.00    -0.137 C  
ENDBRANCH  20  21
ENDBRANCH  16  20
ENDBRANCH  12  13
ENDBRANCH  10  12
ENDBRANCH   6  10
ENDBRANCH   3   5
TORSDOF 6
ENDMDL
MODEL      133
REMARK 921   NORMALIZED FREE ENERGY PREDICTED BY IDOCK:   -4.09 KCAL/MOL
REMARK 922        TOTAL FREE ENERGY PREDICTED BY IDOCK:   -7.04 KCAL/MOL
REMARK 923 INTER-LIGAND FREE ENERGY PREDICTED BY IDOCK:   -5.79 KCAL/MOL
REMARK 924 INTRA-LIGAND FREE ENERGY PREDICTED BY IDOCK:   -1.25 KCAL/MOL
REMARK 927      BINDING AFFINITY PREDICTED BY RF-SCORE:    0.00 PKD
ROOT
HETATM    1  C   UNL     1     -11.385  11.845  67.000  1.00  0.00    -0.392 C  
HETATM    2  C   UNL     1     -11.578  12.225  65.559  1.00  0.00    -0.422 C  
HETATM    3  C   UNL     1     -10.968  11.570  64.552  1.00  0.00    -0.367 C  
HETATM    4  C   UNL     1     -12.513  13.360  65.258  1.00  0.00    -0.532 C  
ENDROOT
BRANCH   3   5
HETATM    5  C   UNL     1     -10.090  10.403  64.666  1.00  0.00    -0.378 C  
HETATM    6  C   UNL     1      -8.649  10.560  65.121  1.00  0.00    -0.187 C  
HETATM    7  C   UNL     1      -8.960  10.164  63.682  1.00  0.00    -0.269 C  
HETATM    8  C   UNL     1      -8.619  11.182  62.623  1.00  0.00    -0.225 C  
HETATM    9  C   UNL     1      -8.770   8.738  63.213  1.00  0.00     0.011 C  
BRANCH   6  10
HETATM   10  C   UNL     1      -8.136   9.587  66.112  1.00  0.00    -0.111 C  
HETATM   11  O   UNL     1      -6.966   9.248  66.099  1.00  0.00    -0.084 OA 
BRANCH  10  12
HETATM   12  O   UNL     1      -9.090   9.140  66.978  1.00  0.00    -0.121 OA 
BRANCH  12  13
HETATM   13  C   UNL     1      -8.697   8.238  68.048  1.00  0.00    -0.135 C  
HETATM   14  C   UNL     1      -9.506   6.946  68.069  1.00  0.00    -0.124 C  
HETATM   15  C   UNL     1     -10.430   7.200  69.223  1.00  0.00    -0.211 C  
HETATM   16  C   UNL     1      -9.967   8.347  70.046  1.00  0.00    -0.188 C  
HETATM   17  O   UNL     1     -11.401   6.509  69.493  1.00  0.00    -0.362 OA 
HETATM   18  C   UNL     1      -8.034   9.999  69.813  1.00  0.00    -0.190 C  
HETATM   19  C   UNL     1      -8.907   8.868  69.399  1.00  0.00    -0.143 C  
BRANCH  16  20
HETATM   20  C   UNL     1     -10.757   8.806  71.220  1.00  0.00    -0.339 C  
BRANCH  20  21
HETATM   21  C   UNL     1     -11.620   9.983  70.904  1.00  0.00    -0.463 C  
HETATM   22  C   UNL     1     -12.784  10.240  71.520  1.00  0.00    -0.557 C  
ENDBRANCH  20  21
ENDBRANCH  16  20
ENDBRANCH  12  13
ENDBRANCH  10  12
ENDBRANCH   6  10
ENDBRANCH   3   5
TORSDOF 6
ENDMDL
MODEL      134
REMARK 921   NORMALIZED FREE ENERGY PREDICTED BY IDOCK:   -4.07 KCAL/MOL
REMARK 922        TOTAL FREE ENERGY PREDICTED BY IDOCK:   -7.01 KCAL/MOL
REMARK 923 INTER-LIGAND FREE ENERGY PREDICTED BY IDOCK:   -6.75 KCAL/MOL
REMARK 924 INTRA-LIGAND FREE ENERGY PREDICTED BY IDOCK:   -0.26 KCAL/MOL
REMARK 927      BINDING AFFINITY PREDICTED BY RF-SCORE:    0.00 PKD
ROOT
HETATM    1  C   UNL     1     -10.607  18.910  66.426  1.00  0.00    -0.460 C  
HETATM    2  C   UNL     1     -10.284  18.550  67.849  1.00  0.00    -0.415 C  
HETATM    3  C   UNL     1     -10.346  17.284  68.304  1.00  0.00    -0.361 C  
HETATM    4  C   UNL     1      -9.851  19.657  68.766  1.00  0.00    -0.519 C  
ENDROOT
BRANCH   3   5
HETATM    5  C   UNL     1     -10.676  16.086  67.529  1.00  0.00    -0.314 C  
HETATM    6  C   UNL     1     -10.000  14.758  67.829  1.00  0.00    -0.223 C  
HETATM    7  C   UNL     1      -9.700  15.496  66.528  1.00  0.00    -0.290 C  
HETATM    8  C   UNL     1      -8.303  16.046  66.383  1.00  0.00    -0.344 C  
HETATM    9  C   UNL     1     -10.286  15.023  65.216  1.00  0.00    -0.424 C  
BRANCH   6  10
HETATM   10  C   UNL     1     -10.854  13.551  67.869  1.00  0.00    -0.247 C  
HETATM   11  O   UNL     1     -12.002  13.616  68.274  1.00  0.00    -0.354 OA 
BRANCH  10  12
HETATM   12  O   UNL     1     -10.223  12.424  67.431  1.00  0.00    -0.206 OA 
BRANCH  12  13
HETATM   13  C   UNL     1     -11.010  11.384  66.790  1.00  0.00    -0.291 C  
HETATM   14  C   UNL     1     -10.980  10.060  67.544  1.00  0.00    -0.276 C  
HETATM   15  C   UNL     1     -10.043   9.259  66.689  1.00  0.00    -0.271 C  
HETATM   16  C   UNL     1      -9.839   9.897  65.363  1.00  0.00    -0.384 C  
HETATM   17  O   UNL     1      -9.561   8.184  67.015  1.00  0.00    -0.167 OA 
HETATM   18  C   UNL     1     -10.650  12.088  64.335  1.00  0.00    -0.361 C  
HETATM   19  C   UNL     1     -10.488  11.076  65.412  1.00  0.00    -0.306 C  
BRANCH  16  20
HETATM   20  C   UNL     1      -8.910   9.297  64.368  1.00  0.00    -0.197 C  
BRANCH  20  21
HETATM   21  C   UNL     1      -8.645  10.206  63.212  1.00  0.00    -0.198 C  
HETATM   22  C   UNL     1      -7.496  10.215  62.521  1.00  0.00    -0.144 C  
ENDBRANCH  20  21
ENDBRANCH  16  20
ENDBRANCH  12  13
ENDBRANCH  10  12
ENDBRANCH   6  10
ENDBRANCH   3   5
TORSDOF 6
ENDMDL
MODEL      135
REMARK 921   NORMALIZED FREE ENERGY PREDICTED BY IDOCK:   -4.07 KCAL/MOL
REMARK 922        TOTAL FREE ENERGY PREDICTED BY IDOCK:   -7.01 KCAL/MOL
REMARK 923 INTER-LIGAND FREE ENERGY PREDICTED BY IDOCK:   -5.86 KCAL/MOL
REMARK 924 INTRA-LIGAND FREE ENERGY PREDICTED BY IDOCK:   -1.15 KCAL/MOL
REMARK 927      BINDING AFFINITY PREDICTED BY RF-SCORE:    0.00 PKD
ROOT
HETATM    1  C   UNL     1      -8.914   3.658  70.063  1.00  0.00    -0.168 C  
HETATM    2  C   UNL     1      -8.694   4.732  71.091  1.00  0.00    -0.138 C  
HETATM    3  C   UNL     1      -8.824   6.042  70.804  1.00  0.00    -0.139 C  
HETATM    4  C   UNL     1      -8.350   4.300  72.487  1.00  0.00    -0.101 C  
ENDROOT
BRANCH   3   5
HETATM    5  C   UNL     1      -9.224   6.627  69.523  1.00  0.00    -0.143 C  
HETATM    6  C   UNL     1      -9.899   7.987  69.468  1.00  0.00    -0.181 C  
HETATM    7  C   UNL     1     -10.683   6.726  69.119  1.00  0.00    -0.287 C  
HETATM    8  C   UNL     1     -11.785   6.343  70.074  1.00  0.00    -0.345 C  
HETATM    9  C   UNL     1     -11.006   6.389  67.679  1.00  0.00    -0.441 C  
BRANCH   6  10
HETATM   10  C   UNL     1      -9.436   8.938  68.433  1.00  0.00    -0.140 C  
HETATM   11  O   UNL     1      -8.357   8.785  67.888  1.00  0.00    -0.117 OA 
BRANCH  10  12
HETATM   12  O   UNL     1     -10.317   9.951  68.193  1.00  0.00    -0.174 OA 
BRANCH  12  13
HETATM   13  C   UNL     1      -9.856  11.123  67.469  1.00  0.00    -0.177 C  
HETATM   14  C   UNL     1     -10.242  12.434  68.144  1.00  0.00    -0.225 C  
HETATM   15  C   UNL     1     -11.375  12.888  67.271  1.00  0.00    -0.310 C  
HETATM   16  C   UNL     1     -11.410  12.134  65.991  1.00  0.00    -0.410 C  
HETATM   17  O   UNL     1     -12.132  13.808  67.546  1.00  0.00    -0.384 OA 
HETATM   18  C   UNL     1     -10.035  10.189  65.071  1.00  0.00    -0.375 C  
HETATM   19  C   UNL     1     -10.459  11.185  66.090  1.00  0.00    -0.307 C  
BRANCH  16  20
HETATM   20  C   UNL     1     -12.479  12.389  64.990  1.00  0.00    -0.393 C  
BRANCH  20  21
HETATM   21  C   UNL     1     -12.102  13.448  64.006  1.00  0.00    -0.506 C  
HETATM   22  C   UNL     1     -12.273  14.761  64.225  1.00  0.00    -0.402 C  
ENDBRANCH  20  21
ENDBRANCH  16  20
ENDBRANCH  12  13
ENDBRANCH  10  12
ENDBRANCH   6  10
ENDBRANCH   3   5
TORSDOF 6
ENDMDL
MODEL      136
REMARK 921   NORMALIZED FREE ENERGY PREDICTED BY IDOCK:   -4.07 KCAL/MOL
REMARK 922        TOTAL FREE ENERGY PREDICTED BY IDOCK:   -7.01 KCAL/MOL
REMARK 923 INTER-LIGAND FREE ENERGY PREDICTED BY IDOCK:   -5.85 KCAL/MOL
REMARK 924 INTRA-LIGAND FREE ENERGY PREDICTED BY IDOCK:   -1.17 KCAL/MOL
REMARK 927      BINDING AFFINITY PREDICTED BY RF-SCORE:    0.00 PKD
ROOT
HETATM    1  C   UNL     1     -10.074  11.264  68.905  1.00  0.00    -0.185 C  
HETATM    2  C   UNL     1     -11.330  11.559  69.676  1.00  0.00    -0.329 C  
HETATM    3  C   UNL     1     -11.834  10.705  70.587  1.00  0.00    -0.463 C  
HETATM    4  C   UNL     1     -12.009  12.874  69.423  1.00  0.00    -0.327 C  
ENDROOT
BRANCH   3   5
HETATM    5  C   UNL     1     -11.260   9.424  71.004  1.00  0.00    -0.412 C  
HETATM    6  C   UNL     1     -11.831   8.114  70.489  1.00  0.00    -0.010 C  
HETATM    7  C   UNL     1     -11.996   8.498  71.955  1.00  0.00    -0.427 C  
HETATM    8  C   UNL     1     -13.401   8.803  72.409  1.00  0.00    -0.442 C  
HETATM    9  C   UNL     1     -11.160   7.835  73.028  1.00  0.00    -0.419 C  
BRANCH   6  10
HETATM   10  C   UNL     1     -10.871   7.076  70.050  1.00  0.00    -0.261 C  
HETATM   11  O   UNL     1     -11.168   5.895  70.104  1.00  0.00    -0.353 OA 
BRANCH  10  12
HETATM   12  O   UNL     1      -9.682   7.583  69.617  1.00  0.00    -0.166 OA 
BRANCH  12  13
HETATM   13  C   UNL     1      -8.979   6.902  68.543  1.00  0.00    -0.122 C  
HETATM   14  C   UNL     1      -7.511   7.300  68.442  1.00  0.00    -0.106 C  
HETATM   15  C   UNL     1      -7.538   8.209  67.249  1.00  0.00    -0.097 C  
HETATM   16  C   UNL     1      -8.804   8.066  66.485  1.00  0.00    -0.175 C  
HETATM   17  O   UNL     1      -6.609   8.927  66.908  1.00  0.00    -0.060 OA 
HETATM   18  C   UNL     1     -10.931   6.706  66.868  1.00  0.00    -0.396 C  
HETATM   19  C   UNL     1      -9.580   7.230  67.203  1.00  0.00    -0.203 C  
BRANCH  16  20
HETATM   20  C   UNL     1      -9.066   8.906  65.287  1.00  0.00    -0.196 C  
BRANCH  20  21
HETATM   21  C   UNL     1     -10.005  10.033  65.572  1.00  0.00    -0.367 C  
HETATM   22  C   UNL     1      -9.980  11.205  64.920  1.00  0.00    -0.331 C  
ENDBRANCH  20  21
ENDBRANCH  16  20
ENDBRANCH  12  13
ENDBRANCH  10  12
ENDBRANCH   6  10
ENDBRANCH   3   5
TORSDOF 6
ENDMDL
MODEL      137
REMARK 921   NORMALIZED FREE ENERGY PREDICTED BY IDOCK:   -4.04 KCAL/MOL
REMARK 922        TOTAL FREE ENERGY PREDICTED BY IDOCK:   -6.98 KCAL/MOL
REMARK 923 INTER-LIGAND FREE ENERGY PREDICTED BY IDOCK:   -5.96 KCAL/MOL
REMARK 924 INTRA-LIGAND FREE ENERGY PREDICTED BY IDOCK:   -1.02 KCAL/MOL
REMARK 927      BINDING AFFINITY PREDICTED BY RF-SCORE:    0.00 PKD
ROOT
HETATM    1  C   UNL     1     -10.348  13.340  64.800  1.00  0.00    -0.381 C  
HETATM    2  C   UNL     1     -11.233  12.182  64.434  1.00  0.00    -0.400 C  
HETATM    3  C   UNL     1     -11.148  10.986  65.049  1.00  0.00    -0.017 C  
HETATM    4  C   UNL     1     -12.260  12.403  63.362  1.00  0.00    -0.623 C  
ENDROOT
BRANCH   3   5
HETATM    5  C   UNL     1     -10.259  10.628  66.156  1.00  0.00    -0.308 C  
HETATM    6  C   UNL     1     -10.731   9.693  67.257  1.00  0.00    -0.284 C  
HETATM    7  C   UNL     1     -10.482  11.168  67.557  1.00  0.00    -0.239 C  
HETATM    8  C   UNL     1     -11.700  11.993  67.891  1.00  0.00    -0.393 C  
HETATM    9  C   UNL     1      -9.247  11.607  68.312  1.00  0.00    -0.187 C  
BRANCH   6  10
HETATM   10  C   UNL     1      -9.798   8.632  67.698  1.00  0.00    -0.180 C  
HETATM   11  O   UNL     1      -9.098   8.047  66.891  1.00  0.00    -0.139 OA 
BRANCH  10  12
HETATM   12  O   UNL     1      -9.833   8.402  69.042  1.00  0.00    -0.174 OA 
BRANCH  12  13
HETATM   13  C   UNL     1     -10.198   7.078  69.517  1.00  0.00    -0.199 C  
HETATM   14  C   UNL     1     -11.705   6.861  69.586  1.00  0.00    -0.076 C  
HETATM   15  C   UNL     1     -11.948   6.973  71.062  1.00  0.00    -0.361 C  
HETATM   16  C   UNL     1     -10.680   6.878  71.830  1.00  0.00    -0.245 C  
HETATM   17  O   UNL     1     -13.055   7.060  71.574  1.00  0.00    -0.380 OA 
HETATM   18  C   UNL     1      -8.228   6.695  71.138  1.00  0.00    -0.120 C  
HETATM   19  C   UNL     1      -9.691   6.841  70.915  1.00  0.00    -0.186 C  
BRANCH  16  20
HETATM   20  C   UNL     1     -10.678   7.008  73.311  1.00  0.00    -0.373 C  
BRANCH  20  21
HETATM   21  C   UNL     1     -10.535   5.691  74.001  1.00  0.00    -0.297 C  
HETATM   22  C   UNL     1     -11.050   4.545  73.531  1.00  0.00    -0.398 C  
ENDBRANCH  20  21
ENDBRANCH  16  20
ENDBRANCH  12  13
ENDBRANCH  10  12
ENDBRANCH   6  10
ENDBRANCH   3   5
TORSDOF 6
ENDMDL
MODEL      138
REMARK 921   NORMALIZED FREE ENERGY PREDICTED BY IDOCK:   -4.04 KCAL/MOL
REMARK 922        TOTAL FREE ENERGY PREDICTED BY IDOCK:   -6.97 KCAL/MOL
REMARK 923 INTER-LIGAND FREE ENERGY PREDICTED BY IDOCK:   -6.60 KCAL/MOL
REMARK 924 INTRA-LIGAND FREE ENERGY PREDICTED BY IDOCK:   -0.38 KCAL/MOL
REMARK 927      BINDING AFFINITY PREDICTED BY RF-SCORE:    0.00 PKD
ROOT
HETATM    1  C   UNL     1     -10.095  18.664  68.353  1.00  0.00    -0.426 C  
HETATM    2  C   UNL     1     -10.187  18.549  66.857  1.00  0.00    -0.411 C  
HETATM    3  C   UNL     1     -10.399  17.373  66.235  1.00  0.00    -0.330 C  
HETATM    4  C   UNL     1     -10.066  19.812  66.054  1.00  0.00    -0.574 C  
ENDROOT
BRANCH   3   5
HETATM    5  C   UNL     1     -10.612  16.070  66.868  1.00  0.00    -0.300 C  
HETATM    6  C   UNL     1      -9.737  14.881  66.507  1.00  0.00    -0.294 C  
HETATM    7  C   UNL     1     -11.206  14.904  66.099  1.00  0.00    -0.325 C  
HETATM    8  C   UNL     1     -11.484  15.006  64.620  1.00  0.00    -0.382 C  
HETATM    9  C   UNL     1     -12.227  14.065  66.835  1.00  0.00    -0.415 C  
BRANCH   6  10
HETATM   10  C   UNL     1      -9.241  14.036  67.616  1.00  0.00    -0.194 C  
HETATM   11  O   UNL     1      -9.803  14.039  68.697  1.00  0.00    -0.225 OA 
BRANCH  10  12
HETATM   12  O   UNL     1      -8.134  13.309  67.292  1.00  0.00    -0.175 OA 
BRANCH  12  13
HETATM   13  C   UNL     1      -8.286  11.895  66.995  1.00  0.00    -0.178 C  
HETATM   14  C   UNL     1      -9.472  11.599  66.084  1.00  0.00    -0.240 C  
HETATM   15  C   UNL     1     -10.462  11.045  67.066  1.00  0.00    -0.240 C  
HETATM   16  C   UNL     1      -9.809  10.684  68.351  1.00  0.00    -0.170 C  
HETATM   17  O   UNL     1     -11.643  10.848  66.818  1.00  0.00    -0.254 OA 
HETATM   18  C   UNL     1      -7.425  10.937  69.230  1.00  0.00    -0.124 C  
HETATM   19  C   UNL     1      -8.530  11.096  68.248  1.00  0.00    -0.145 C  
BRANCH  16  20
HETATM   20  C   UNL     1     -10.610  10.157  69.487  1.00  0.00    -0.269 C  
BRANCH  20  21
HETATM   21  C   UNL     1     -11.549  11.175  70.047  1.00  0.00    -0.421 C  
HETATM   22  C   UNL     1     -12.528  10.884  70.916  1.00  0.00    -0.507 C  
ENDBRANCH  20  21
ENDBRANCH  16  20
ENDBRANCH  12  13
ENDBRANCH  10  12
ENDBRANCH   6  10
ENDBRANCH   3   5
TORSDOF 6
ENDMDL
MODEL      139
REMARK 921   NORMALIZED FREE ENERGY PREDICTED BY IDOCK:   -4.02 KCAL/MOL
REMARK 922        TOTAL FREE ENERGY PREDICTED BY IDOCK:   -6.95 KCAL/MOL
REMARK 923 INTER-LIGAND FREE ENERGY PREDICTED BY IDOCK:   -6.02 KCAL/MOL
REMARK 924 INTRA-LIGAND FREE ENERGY PREDICTED BY IDOCK:   -0.93 KCAL/MOL
REMARK 927      BINDING AFFINITY PREDICTED BY RF-SCORE:    0.00 PKD
ROOT
HETATM    1  C   UNL     1     -10.997   5.999  68.118  1.00  0.00    -0.340 C  
HETATM    2  C   UNL     1     -10.174   6.111  69.371  1.00  0.00    -0.248 C  
HETATM    3  C   UNL     1      -9.701   7.290  69.820  1.00  0.00    -0.166 C  
HETATM    4  C   UNL     1      -9.913   4.853  70.147  1.00  0.00    -0.325 C  
ENDROOT
BRANCH   3   5
HETATM    5  C   UNL     1      -9.925   8.611  69.228  1.00  0.00    -0.195 C  
HETATM    6  C   UNL     1      -9.180   9.829  69.747  1.00  0.00    -0.248 C  
HETATM    7  C   UNL     1     -10.682   9.694  69.974  1.00  0.00    -0.298 C  
HETATM    8  C   UNL     1     -11.123   9.496  71.402  1.00  0.00    -0.438 C  
HETATM    9  C   UNL     1     -11.664  10.509  69.160  1.00  0.00    -0.261 C  
BRANCH   6  10
HETATM   10  C   UNL     1      -8.615  10.761  68.746  1.00  0.00    -0.156 C  
HETATM   11  O   UNL     1      -7.663  10.433  68.060  1.00  0.00    -0.091 OA 
BRANCH  10  12
HETATM   12  O   UNL     1      -9.253  11.965  68.705  1.00  0.00    -0.160 OA 
BRANCH  12  13
HETATM   13  C   UNL     1      -9.064  12.820  67.545  1.00  0.00    -0.193 C  
HETATM   14  C   UNL     1      -9.126  14.306  67.879  1.00  0.00    -0.190 C  
HETATM   15  C   UNL     1     -10.489  14.663  67.365  1.00  0.00    -0.255 C  
HETATM   16  C   UNL     1     -11.028  13.604  66.473  1.00  0.00    -0.295 C  
HETATM   17  O   UNL     1     -11.057  15.721  67.594  1.00  0.00    -0.323 OA 
HETATM   18  C   UNL     1     -10.163  11.307  65.768  1.00  0.00    -0.301 C  
HETATM   19  C   UNL     1     -10.139  12.592  66.516  1.00  0.00    -0.250 C  
BRANCH  16  20
HETATM   20  C   UNL     1     -12.387  13.728  65.884  1.00  0.00    -0.516 C  
BRANCH  20  21
HETATM   21  C   UNL     1     -12.360  14.259  64.488  1.00  0.00    -0.432 C  
HETATM   22  C   UNL     1     -12.187  13.490  63.403  1.00  0.00    -0.338 C  
ENDBRANCH  20  21
ENDBRANCH  16  20
ENDBRANCH  12  13
ENDBRANCH  10  12
ENDBRANCH   6  10
ENDBRANCH   3   5
TORSDOF 6
ENDMDL
MODEL      140
REMARK 921   NORMALIZED FREE ENERGY PREDICTED BY IDOCK:   -4.00 KCAL/MOL
REMARK 922        TOTAL FREE ENERGY PREDICTED BY IDOCK:   -6.92 KCAL/MOL
REMARK 923 INTER-LIGAND FREE ENERGY PREDICTED BY IDOCK:   -5.33 KCAL/MOL
REMARK 924 INTRA-LIGAND FREE ENERGY PREDICTED BY IDOCK:   -1.59 KCAL/MOL
REMARK 927      BINDING AFFINITY PREDICTED BY RF-SCORE:    0.00 PKD
ROOT
HETATM    1  C   UNL     1      -6.218  15.194  67.506  1.00  0.00    -0.079 C  
HETATM    2  C   UNL     1      -7.179  14.483  68.416  1.00  0.00    -0.116 C  
HETATM    3  C   UNL     1      -7.676  13.263  68.131  1.00  0.00    -0.143 C  
HETATM    4  C   UNL     1      -7.558  15.167  69.698  1.00  0.00    -0.163 C  
ENDROOT
BRANCH   3   5
HETATM    5  C   UNL     1      -7.354  12.433  66.969  1.00  0.00    -0.016 C  
HETATM    6  C   UNL     1      -7.825  10.990  66.894  1.00  0.00    -0.140 C  
HETATM    7  C   UNL     1      -6.342  11.305  67.058  1.00  0.00    -0.111 C  
HETATM    8  C   UNL     1      -5.721  10.916  68.376  1.00  0.00    -0.043 C  
HETATM    9  C   UNL     1      -5.387  11.167  65.892  1.00  0.00    -0.106 C  
BRANCH   6  10
HETATM   10  C   UNL     1      -8.393  10.524  65.609  1.00  0.00    -0.167 C  
HETATM   11  O   UNL     1      -8.152   9.403  65.195  1.00  0.00    -0.117 OA 
BRANCH  10  12
HETATM   12  O   UNL     1      -9.164  11.459  64.985  1.00  0.00    -0.180 OA 
BRANCH  12  13
HETATM   13  C   UNL     1     -10.595  11.228  64.874  1.00  0.00    -0.300 C  
HETATM   14  C   UNL     1     -11.167  11.648  63.525  1.00  0.00    -0.462 C  
HETATM   15  C   UNL     1     -11.851  12.933  63.888  1.00  0.00    -0.473 C  
HETATM   16  C   UNL     1     -12.006  13.070  65.359  1.00  0.00    -0.457 C  
HETATM   17  O   UNL     1     -12.289  13.734  63.074  1.00  0.00    -0.661 OA 
HETATM   18  C   UNL     1     -11.243  11.645  67.336  1.00  0.00    -0.358 C  
HETATM   19  C   UNL     1     -11.357  12.021  65.902  1.00  0.00    -0.391 C  
BRANCH  16  20
HETATM   20  C   UNL     1     -12.620  14.290  65.947  1.00  0.00    -0.376 C  
BRANCH  20  21
HETATM   21  C   UNL     1     -11.618  15.161  66.631  1.00  0.00    -0.122 C  
HETATM   22  C   UNL     1     -11.522  15.278  67.964  1.00  0.00    -0.351 C  
ENDBRANCH  20  21
ENDBRANCH  16  20
ENDBRANCH  12  13
ENDBRANCH  10  12
ENDBRANCH   6  10
ENDBRANCH   3   5
TORSDOF 6
ENDMDL
MODEL      141
REMARK 921   NORMALIZED FREE ENERGY PREDICTED BY IDOCK:   -3.99 KCAL/MOL
REMARK 922        TOTAL FREE ENERGY PREDICTED BY IDOCK:   -6.91 KCAL/MOL
REMARK 923 INTER-LIGAND FREE ENERGY PREDICTED BY IDOCK:   -5.90 KCAL/MOL
REMARK 924 INTRA-LIGAND FREE ENERGY PREDICTED BY IDOCK:   -1.01 KCAL/MOL
REMARK 927      BINDING AFFINITY PREDICTED BY RF-SCORE:    0.00 PKD
ROOT
HETATM    1  C   UNL     1      -8.704  12.676  67.130  1.00  0.00    -0.201 C  
HETATM    2  C   UNL     1     -10.059  13.147  67.576  1.00  0.00    -0.222 C  
HETATM    3  C   UNL     1     -11.185  12.853  66.898  1.00  0.00    -0.331 C  
HETATM    4  C   UNL     1     -10.135  13.947  68.844  1.00  0.00    -0.106 C  
ENDROOT
BRANCH   3   5
HETATM    5  C   UNL     1     -11.296  12.028  65.693  1.00  0.00    -0.381 C  
HETATM    6  C   UNL     1     -10.202  12.045  64.639  1.00  0.00    -0.313 C  
HETATM    7  C   UNL     1     -11.571  12.644  64.334  1.00  0.00    -0.415 C  
HETATM    8  C   UNL     1     -11.616  14.140  64.150  1.00  0.00    -0.252 C  
HETATM    9  C   UNL     1     -12.558  11.912  63.451  1.00  0.00    -0.555 C  
BRANCH   6  10
HETATM   10  C   UNL     1      -9.770  10.744  64.081  1.00  0.00    -0.309 C  
HETATM   11  O   UNL     1      -9.154  10.693  63.031  1.00  0.00    -0.218 OA 
BRANCH  10  12
HETATM   12  O   UNL     1     -10.140   9.676  64.844  1.00  0.00    -0.075 OA 
BRANCH  12  13
HETATM   13  C   UNL     1      -9.175   9.107  65.769  1.00  0.00    -0.234 C  
HETATM   14  C   UNL     1      -8.343   7.989  65.153  1.00  0.00    -0.139 C  
HETATM   15  C   UNL     1      -8.980   6.779  65.770  1.00  0.00    -0.016 C  
HETATM   16  C   UNL     1      -9.841   7.147  66.924  1.00  0.00    -0.271 C  
HETATM   17  O   UNL     1      -8.766   5.629  65.413  1.00  0.00    -0.153 OA 
HETATM   18  C   UNL     1     -10.524   9.383  67.950  1.00  0.00    -0.296 C  
HETATM   19  C   UNL     1      -9.858   8.494  66.962  1.00  0.00    -0.289 C  
BRANCH  16  20
HETATM   20  C   UNL     1     -10.609   6.108  67.659  1.00  0.00    -0.340 C  
BRANCH  20  21
HETATM   21  C   UNL     1     -10.484   6.246  69.142  1.00  0.00    -0.291 C  
HETATM   22  C   UNL     1     -11.531   6.420  69.963  1.00  0.00    -0.496 C  
ENDBRANCH  20  21
ENDBRANCH  16  20
ENDBRANCH  12  13
ENDBRANCH  10  12
ENDBRANCH   6  10
ENDBRANCH   3   5
TORSDOF 6
ENDMDL
MODEL      142
REMARK 921   NORMALIZED FREE ENERGY PREDICTED BY IDOCK:   -3.94 KCAL/MOL
REMARK 922        TOTAL FREE ENERGY PREDICTED BY IDOCK:   -6.84 KCAL/MOL
REMARK 923 INTER-LIGAND FREE ENERGY PREDICTED BY IDOCK:   -5.83 KCAL/MOL
REMARK 924 INTRA-LIGAND FREE ENERGY PREDICTED BY IDOCK:   -1.01 KCAL/MOL
REMARK 927      BINDING AFFINITY PREDICTED BY RF-SCORE:    0.00 PKD
ROOT
HETATM    1  C   UNL     1     -10.231  18.945  66.150  1.00  0.00    -0.485 C  
HETATM    2  C   UNL     1      -9.781  19.246  67.552  1.00  0.00    -0.406 C  
HETATM    3  C   UNL     1      -8.755  18.597  68.135  1.00  0.00    -0.336 C  
HETATM    4  C   UNL     1     -10.499  20.336  68.294  1.00  0.00    -0.267 C  
ENDROOT
BRANCH   3   5
HETATM    5  C   UNL     1      -7.907  17.568  67.530  1.00  0.00    -0.210 C  
HETATM    6  C   UNL     1      -7.052  16.659  68.397  1.00  0.00    -0.167 C  
HETATM    7  C   UNL     1      -6.396  17.704  67.500  1.00  0.00    -0.176 C  
HETATM    8  C   UNL     1      -5.701  18.842  68.203  1.00  0.00    -0.189 C  
HETATM    9  C   UNL     1      -5.710  17.299  66.213  1.00  0.00    -0.166 C  
BRANCH   6  10
HETATM   10  C   UNL     1      -7.037  15.217  68.067  1.00  0.00    -0.128 C  
HETATM   11  O   UNL     1      -6.009  14.676  67.699  1.00  0.00    -0.280 OA 
BRANCH  10  12
HETATM   12  O   UNL     1      -8.251  14.614  68.209  1.00  0.00    -0.132 OA 
BRANCH  12  13
HETATM   13  C   UNL     1      -8.678  13.652  67.206  1.00  0.00    -0.218 C  
HETATM   14  C   UNL     1      -9.677  14.228  66.211  1.00  0.00    -0.321 C  
HETATM   15  C   UNL     1     -10.958  13.619  66.699  1.00  0.00    -0.292 C  
HETATM   16  C   UNL     1     -10.703  12.497  67.639  1.00  0.00    -0.242 C  
HETATM   17  O   UNL     1     -12.071  13.955  66.319  1.00  0.00    -0.405 OA 
HETATM   18  C   UNL     1      -8.573  11.518  68.652  1.00  0.00    -0.109 C  
HETATM   19  C   UNL     1      -9.370  12.474  67.840  1.00  0.00    -0.200 C  
BRANCH  16  20
HETATM   20  C   UNL     1     -11.831  11.775  68.283  1.00  0.00    -0.340 C  
BRANCH  20  21
HETATM   21  C   UNL     1     -12.036  12.184  69.705  1.00  0.00    -0.372 C  
HETATM   22  C   UNL     1     -12.011  13.458  70.124  1.00  0.00    -0.396 C  
ENDBRANCH  20  21
ENDBRANCH  16  20
ENDBRANCH  12  13
ENDBRANCH  10  12
ENDBRANCH   6  10
ENDBRANCH   3   5
TORSDOF 6
ENDMDL
MODEL      143
REMARK 921   NORMALIZED FREE ENERGY PREDICTED BY IDOCK:   -3.93 KCAL/MOL
REMARK 922        TOTAL FREE ENERGY PREDICTED BY IDOCK:   -6.84 KCAL/MOL
REMARK 923 INTER-LIGAND FREE ENERGY PREDICTED BY IDOCK:   -6.10 KCAL/MOL
REMARK 924 INTRA-LIGAND FREE ENERGY PREDICTED BY IDOCK:   -0.74 KCAL/MOL
REMARK 927      BINDING AFFINITY PREDICTED BY RF-SCORE:    0.00 PKD
ROOT
HETATM    1  C   UNL     1      -7.194  10.000  64.920  1.00  0.00    -0.140 C  
HETATM    2  C   UNL     1      -8.438   9.822  64.095  1.00  0.00    -0.182 C  
HETATM    3  C   UNL     1      -9.473  10.681  64.157  1.00  0.00    -0.327 C  
HETATM    4  C   UNL     1      -8.488   8.653  63.155  1.00  0.00    -0.100 C  
ENDROOT
BRANCH   3   5
HETATM    5  C   UNL     1      -9.555  11.903  64.959  1.00  0.00    -0.110 C  
HETATM    6  C   UNL     1     -10.443  11.964  66.190  1.00  0.00    -0.272 C  
HETATM    7  C   UNL     1     -10.796  12.776  64.949  1.00  0.00    -0.326 C  
HETATM    8  C   UNL     1     -12.041  12.354  64.209  1.00  0.00    -0.516 C  
HETATM    9  C   UNL     1     -10.566  14.271  64.910  1.00  0.00    -0.452 C  
BRANCH   6  10
HETATM   10  C   UNL     1      -9.882  12.591  67.408  1.00  0.00    -0.201 C  
HETATM   11  O   UNL     1      -9.281  13.649  67.339  1.00  0.00    -0.204 OA 
BRANCH  10  12
HETATM   12  O   UNL     1     -10.103  11.869  68.542  1.00  0.00    -0.211 OA 
BRANCH  12  13
HETATM   13  C   UNL     1     -11.223  10.943  68.577  1.00  0.00    -0.274 C  
HETATM   14  C   UNL     1     -12.160  11.180  69.756  1.00  0.00    -0.414 C  
HETATM   15  C   UNL     1     -11.773  10.052  70.666  1.00  0.00    -0.337 C  
HETATM   16  C   UNL     1     -10.972   9.026  69.950  1.00  0.00    -0.204 C  
HETATM   17  O   UNL     1     -12.129   9.954  71.832  1.00  0.00    -0.357 OA 
HETATM   18  C   UNL     1     -10.047   8.878  67.575  1.00  0.00    -0.285 C  
HETATM   19  C   UNL     1     -10.751   9.520  68.716  1.00  0.00    -0.218 C  
BRANCH  16  20
HETATM   20  C   UNL     1     -10.442   7.839  70.671  1.00  0.00    -0.213 C  
BRANCH  20  21
HETATM   21  C   UNL     1     -11.085   6.566  70.226  1.00  0.00    -0.392 C  
HETATM   22  C   UNL     1     -10.430   5.400  70.117  1.00  0.00    -0.361 C  
ENDBRANCH  20  21
ENDBRANCH  16  20
ENDBRANCH  12  13
ENDBRANCH  10  12
ENDBRANCH   6  10
ENDBRANCH   3   5
TORSDOF 6
ENDMDL
MODEL      144
REMARK 921   NORMALIZED FREE ENERGY PREDICTED BY IDOCK:   -3.93 KCAL/MOL
REMARK 922        TOTAL FREE ENERGY PREDICTED BY IDOCK:   -6.83 KCAL/MOL
REMARK 923 INTER-LIGAND FREE ENERGY PREDICTED BY IDOCK:   -5.95 KCAL/MOL
REMARK 924 INTRA-LIGAND FREE ENERGY PREDICTED BY IDOCK:   -0.87 KCAL/MOL
REMARK 927      BINDING AFFINITY PREDICTED BY RF-SCORE:    0.00 PKD
ROOT
HETATM    1  C   UNL     1      -9.960  13.030  68.309  1.00  0.00    -0.235 C  
HETATM    2  C   UNL     1     -11.297  13.699  68.161  1.00  0.00    -0.321 C  
HETATM    3  C   UNL     1     -12.078  13.522  67.077  1.00  0.00    -0.401 C  
HETATM    4  C   UNL     1     -11.770  14.568  69.291  1.00  0.00    -0.350 C  
ENDROOT
BRANCH   3   5
HETATM    5  C   UNL     1     -11.803  12.656  65.928  1.00  0.00    -0.499 C  
HETATM    6  C   UNL     1     -10.582  12.891  65.056  1.00  0.00    -0.333 C  
HETATM    7  C   UNL     1     -11.980  13.151  64.504  1.00  0.00    -0.442 C  
HETATM    8  C   UNL     1     -12.324  14.590  64.216  1.00  0.00    -0.396 C  
HETATM    9  C   UNL     1     -12.621  12.184  63.533  1.00  0.00    -0.621 C  
BRANCH   6  10
HETATM   10  C   UNL     1      -9.787  11.708  64.660  1.00  0.00    -0.227 C  
HETATM   11  O   UNL     1      -9.585  11.461  63.484  1.00  0.00    -0.277 OA 
BRANCH  10  12
HETATM   12  O   UNL     1      -9.348  10.969  65.718  1.00  0.00    -0.196 OA 
BRANCH  12  13
HETATM   13  C   UNL     1      -9.840   9.610  65.877  1.00  0.00    -0.288 C  
HETATM   14  C   UNL     1     -10.522   9.374  67.220  1.00  0.00    -0.332 C  
HETATM   15  C   UNL     1      -9.464   8.603  67.952  1.00  0.00    -0.139 C  
HETATM   16  C   UNL     1      -8.420   8.096  67.023  1.00  0.00    -0.120 C  
HETATM   17  O   UNL     1      -9.490   8.361  69.150  1.00  0.00    -0.154 OA 
HETATM   18  C   UNL     1      -8.025   8.383  64.516  1.00  0.00    -0.146 C  
HETATM   19  C   UNL     1      -8.715   8.611  65.813  1.00  0.00    -0.212 C  
BRANCH  16  20
HETATM   20  C   UNL     1      -7.248   7.341  67.538  1.00  0.00    -0.090 C  
BRANCH  20  21
HETATM   21  C   UNL     1      -7.499   5.870  67.604  1.00  0.00    -0.078 C  
HETATM   22  C   UNL     1      -8.426   5.308  68.394  1.00  0.00    -0.096 C  
ENDBRANCH  20  21
ENDBRANCH  16  20
ENDBRANCH  12  13
ENDBRANCH  10  12
ENDBRANCH   6  10
ENDBRANCH   3   5
TORSDOF 6
ENDMDL
MODEL      145
REMARK 921   NORMALIZED FREE ENERGY PREDICTED BY IDOCK:   -3.91 KCAL/MOL
REMARK 922        TOTAL FREE ENERGY PREDICTED BY IDOCK:   -6.80 KCAL/MOL
REMARK 923 INTER-LIGAND FREE ENERGY PREDICTED BY IDOCK:   -5.58 KCAL/MOL
REMARK 924 INTRA-LIGAND FREE ENERGY PREDICTED BY IDOCK:   -1.23 KCAL/MOL
REMARK 927      BINDING AFFINITY PREDICTED BY RF-SCORE:    0.00 PKD
ROOT
HETATM    1  C   UNL     1     -10.180  17.647  66.415  1.00  0.00    -0.364 C  
HETATM    2  C   UNL     1      -9.034  16.675  66.406  1.00  0.00    -0.326 C  
HETATM    3  C   UNL     1      -9.203  15.357  66.631  1.00  0.00    -0.303 C  
HETATM    4  C   UNL     1      -7.666  17.214  66.102  1.00  0.00    -0.302 C  
ENDROOT
BRANCH   3   5
HETATM    5  C   UNL     1     -10.470  14.661  66.868  1.00  0.00    -0.270 C  
HETATM    6  C   UNL     1     -10.499  13.158  67.083  1.00  0.00    -0.247 C  
HETATM    7  C   UNL     1     -11.088  13.763  65.813  1.00  0.00    -0.290 C  
HETATM    8  C   UNL     1     -10.361  13.452  64.529  1.00  0.00    -0.394 C  
HETATM    9  C   UNL     1     -12.586  13.874  65.631  1.00  0.00    -0.553 C  
BRANCH   6  10
HETATM   10  C   UNL     1     -11.351  12.641  68.177  1.00  0.00    -0.290 C  
HETATM   11  O   UNL     1     -12.083  13.389  68.800  1.00  0.00    -0.337 OA 
BRANCH  10  12
HETATM   12  O   UNL     1     -11.208  11.302  68.391  1.00  0.00    -0.218 OA 
BRANCH  12  13
HETATM   13  C   UNL     1     -10.168  10.584  67.671  1.00  0.00    -0.197 C  
HETATM   14  C   UNL     1     -10.719   9.614  66.633  1.00  0.00    -0.102 C  
HETATM   15  C   UNL     1     -10.525   8.300  67.330  1.00  0.00    -0.303 C  
HETATM   16  C   UNL     1      -9.606   8.431  68.490  1.00  0.00    -0.155 C  
HETATM   17  O   UNL     1     -11.007   7.242  66.952  1.00  0.00    -0.343 OA 
HETATM   18  C   UNL     1      -8.428  10.423  69.569  1.00  0.00    -0.115 C  
HETATM   19  C   UNL     1      -9.337   9.746  68.606  1.00  0.00    -0.147 C  
BRANCH  16  20
HETATM   20  C   UNL     1      -9.305   7.260  69.355  1.00  0.00    -0.151 C  
BRANCH  20  21
HETATM   21  C   UNL     1      -8.025   6.586  68.982  1.00  0.00    -0.111 C  
HETATM   22  C   UNL     1      -6.812   7.096  69.245  1.00  0.00    -0.057 C  
ENDBRANCH  20  21
ENDBRANCH  16  20
ENDBRANCH  12  13
ENDBRANCH  10  12
ENDBRANCH   6  10
ENDBRANCH   3   5
TORSDOF 6
ENDMDL
MODEL      146
REMARK 921   NORMALIZED FREE ENERGY PREDICTED BY IDOCK:   -3.91 KCAL/MOL
REMARK 922        TOTAL FREE ENERGY PREDICTED BY IDOCK:   -6.80 KCAL/MOL
REMARK 923 INTER-LIGAND FREE ENERGY PREDICTED BY IDOCK:   -6.53 KCAL/MOL
REMARK 924 INTRA-LIGAND FREE ENERGY PREDICTED BY IDOCK:   -0.27 KCAL/MOL
REMARK 927      BINDING AFFINITY PREDICTED BY RF-SCORE:    0.00 PKD
ROOT
HETATM    1  C   UNL     1     -13.618  13.294  72.404  1.00  0.00    -0.694 C  
HETATM    2  C   UNL     1     -13.203  14.681  72.000  1.00  0.00    -0.439 C  
HETATM    3  C   UNL     1     -12.681  14.954  70.789  1.00  0.00    -0.421 C  
HETATM    4  C   UNL     1     -13.419  15.788  72.991  1.00  0.00    -0.672 C  
ENDROOT
BRANCH   3   5
HETATM    5  C   UNL     1     -12.475  14.011  69.688  1.00  0.00    -0.204 C  
HETATM    6  C   UNL     1     -11.306  13.040  69.708  1.00  0.00    -0.114 C  
HETATM    7  C   UNL     1     -11.335  14.184  68.700  1.00  0.00    -0.306 C  
HETATM    8  C   UNL     1     -10.297  15.261  68.888  1.00  0.00    -0.243 C  
HETATM    9  C   UNL     1     -11.662  13.927  67.245  1.00  0.00    -0.418 C  
BRANCH   6  10
HETATM   10  C   UNL     1     -11.576  11.639  69.316  1.00  0.00    -0.320 C  
HETATM   11  O   UNL     1     -12.375  11.385  68.431  1.00  0.00    -0.505 OA 
BRANCH  10  12
HETATM   12  O   UNL     1     -10.866  10.726  70.038  1.00  0.00    -0.252 OA 
BRANCH  12  13
HETATM   13  C   UNL     1     -11.314   9.343  70.054  1.00  0.00    -0.141 C  
HETATM   14  C   UNL     1     -12.357   9.063  71.129  1.00  0.00    -0.306 C  
HETATM   15  C   UNL     1     -11.532   8.343  72.154  1.00  0.00    -0.372 C  
HETATM   16  C   UNL     1     -10.232   7.896  71.589  1.00  0.00    -0.239 C  
HETATM   17  O   UNL     1     -11.907   8.093  73.291  1.00  0.00    -0.103 OA 
HETATM   18  C   UNL     1      -9.112   8.218  69.317  1.00  0.00    -0.151 C  
HETATM   19  C   UNL     1     -10.173   8.403  70.342  1.00  0.00    -0.212 C  
BRANCH  16  20
HETATM   20  C   UNL     1      -9.234   7.199  72.442  1.00  0.00    -0.154 C  
BRANCH  20  21
HETATM   21  C   UNL     1      -8.552   6.079  71.726  1.00  0.00    -0.134 C  
HETATM   22  C   UNL     1      -8.773   4.782  71.991  1.00  0.00    -0.132 C  
ENDBRANCH  20  21
ENDBRANCH  16  20
ENDBRANCH  12  13
ENDBRANCH  10  12
ENDBRANCH   6  10
ENDBRANCH   3   5
TORSDOF 6
ENDMDL
MODEL      147
REMARK 921   NORMALIZED FREE ENERGY PREDICTED BY IDOCK:   -3.88 KCAL/MOL
REMARK 922        TOTAL FREE ENERGY PREDICTED BY IDOCK:   -6.77 KCAL/MOL
REMARK 923 INTER-LIGAND FREE ENERGY PREDICTED BY IDOCK:   -5.46 KCAL/MOL
REMARK 924 INTRA-LIGAND FREE ENERGY PREDICTED BY IDOCK:   -1.30 KCAL/MOL
REMARK 927      BINDING AFFINITY PREDICTED BY RF-SCORE:    0.00 PKD
ROOT
HETATM    1  C   UNL     1      -9.497   2.852  70.835  1.00  0.00    -0.227 C  
HETATM    2  C   UNL     1      -9.178   3.718  72.022  1.00  0.00    -0.175 C  
HETATM    3  C   UNL     1      -9.731   4.934  72.198  1.00  0.00    -0.213 C  
HETATM    4  C   UNL     1      -8.230   3.169  73.049  1.00  0.00    -0.079 C  
ENDROOT
BRANCH   3   5
HETATM    5  C   UNL     1     -10.722   5.582  71.337  1.00  0.00    -0.290 C  
HETATM    6  C   UNL     1     -10.396   6.880  70.620  1.00  0.00    -0.220 C  
HETATM    7  C   UNL     1     -11.414   6.866  71.755  1.00  0.00    -0.310 C  
HETATM    8  C   UNL     1     -11.017   7.593  73.015  1.00  0.00    -0.457 C  
HETATM    9  C   UNL     1     -12.897   6.955  71.466  1.00  0.00    -0.384 C  
BRANCH   6  10
HETATM   10  C   UNL     1     -10.799   6.997  69.201  1.00  0.00    -0.195 C  
HETATM   11  O   UNL     1     -11.100   6.007  68.558  1.00  0.00    -0.313 OA 
BRANCH  10  12
HETATM   12  O   UNL     1     -10.780   8.278  68.735  1.00  0.00    -0.161 OA 
BRANCH  12  13
HETATM   13  C   UNL     1     -10.294   9.335  69.606  1.00  0.00    -0.217 C  
HETATM   14  C   UNL     1     -11.406  10.232  70.137  1.00  0.00    -0.388 C  
HETATM   15  C   UNL     1     -11.221  11.456  69.289  1.00  0.00    -0.277 C  
HETATM   16  C   UNL     1      -9.905  11.445  68.599  1.00  0.00    -0.199 C  
HETATM   17  O   UNL     1     -12.021  12.379  69.226  1.00  0.00    -0.298 OA 
HETATM   18  C   UNL     1      -8.008   9.740  68.481  1.00  0.00    -0.089 C  
HETATM   19  C   UNL     1      -9.347  10.251  68.878  1.00  0.00    -0.180 C  
BRANCH  16  20
HETATM   20  C   UNL     1      -9.528  12.542  67.668  1.00  0.00    -0.188 C  
BRANCH  20  21
HETATM   21  C   UNL     1      -9.865  12.228  66.247  1.00  0.00    -0.254 C  
HETATM   22  C   UNL     1     -11.082  12.409  65.714  1.00  0.00    -0.351 C  
ENDBRANCH  20  21
ENDBRANCH  16  20
ENDBRANCH  12  13
ENDBRANCH  10  12
ENDBRANCH   6  10
ENDBRANCH   3   5
TORSDOF 6
ENDMDL
MODEL      148
REMARK 921   NORMALIZED FREE ENERGY PREDICTED BY IDOCK:   -3.86 KCAL/MOL
REMARK 922        TOTAL FREE ENERGY PREDICTED BY IDOCK:   -6.74 KCAL/MOL
REMARK 923 INTER-LIGAND FREE ENERGY PREDICTED BY IDOCK:   -5.26 KCAL/MOL
REMARK 924 INTRA-LIGAND FREE ENERGY PREDICTED BY IDOCK:   -1.48 KCAL/MOL
REMARK 927      BINDING AFFINITY PREDICTED BY RF-SCORE:    0.00 PKD
ROOT
HETATM    1  C   UNL     1      -8.016  19.033  66.816  1.00  0.00    -0.270 C  
HETATM    2  C   UNL     1      -9.518  19.009  66.877  1.00  0.00    -0.355 C  
HETATM    3  C   UNL     1     -10.199  18.029  67.501  1.00  0.00    -0.376 C  
HETATM    4  C   UNL     1     -10.259  20.149  66.239  1.00  0.00    -0.541 C  
ENDROOT
BRANCH   3   5
HETATM    5  C   UNL     1      -9.633  16.893  68.232  1.00  0.00    -0.258 C  
HETATM    6  C   UNL     1      -9.533  15.524  67.580  1.00  0.00    -0.208 C  
HETATM    7  C   UNL     1     -10.508  15.757  68.730  1.00  0.00    -0.228 C  
HETATM    8  C   UNL     1     -11.974  15.691  68.383  1.00  0.00    -0.084 C  
HETATM    9  C   UNL     1     -10.206  15.236  70.118  1.00  0.00    -0.166 C  
BRANCH   6  10
HETATM   10  C   UNL     1      -8.271  14.773  67.759  1.00  0.00    -0.159 C  
HETATM   11  O   UNL     1      -7.310  15.295  68.296  1.00  0.00    -0.106 OA 
BRANCH  10  12
HETATM   12  O   UNL     1      -8.319  13.505  67.262  1.00  0.00    -0.186 OA 
BRANCH  12  13
HETATM   13  C   UNL     1      -9.021  12.481  68.018  1.00  0.00    -0.192 C  
HETATM   14  C   UNL     1      -8.088  11.444  68.632  1.00  0.00    -0.141 C  
HETATM   15  C   UNL     1      -8.300  10.280  67.710  1.00  0.00    -0.110 C  
HETATM   16  C   UNL     1      -9.512  10.465  66.871  1.00  0.00    -0.196 C  
HETATM   17  O   UNL     1      -7.605   9.275  67.698  1.00  0.00    -0.088 OA 
HETATM   18  C   UNL     1     -11.182  12.380  66.613  1.00  0.00    -0.366 C  
HETATM   19  C   UNL     1      -9.966  11.705  67.140  1.00  0.00    -0.219 C  
BRANCH  16  20
HETATM   20  C   UNL     1      -9.891   9.452  65.851  1.00  0.00    -0.362 C  
BRANCH  20  21
HETATM   21  C   UNL     1      -9.185   9.658  64.551  1.00  0.00    -0.277 C  
HETATM   22  C   UNL     1      -9.598  10.519  63.609  1.00  0.00    -0.370 C  
ENDBRANCH  20  21
ENDBRANCH  16  20
ENDBRANCH  12  13
ENDBRANCH  10  12
ENDBRANCH   6  10
ENDBRANCH   3   5
TORSDOF 6
ENDMDL
MODEL      149
REMARK 921   NORMALIZED FREE ENERGY PREDICTED BY IDOCK:   -3.85 KCAL/MOL
REMARK 922        TOTAL FREE ENERGY PREDICTED BY IDOCK:   -6.72 KCAL/MOL
REMARK 923 INTER-LIGAND FREE ENERGY PREDICTED BY IDOCK:   -5.31 KCAL/MOL
REMARK 924 INTRA-LIGAND FREE ENERGY PREDICTED BY IDOCK:   -1.41 KCAL/MOL
REMARK 927      BINDING AFFINITY PREDICTED BY RF-SCORE:    0.00 PKD
ROOT
HETATM    1  C   UNL     1      -9.663  13.888  67.150  1.00  0.00    -0.244 C  
HETATM    2  C   UNL     1      -8.200  14.214  67.258  1.00  0.00    -0.200 C  
HETATM    3  C   UNL     1      -7.264  13.268  67.471  1.00  0.00    -0.157 C  
HETATM    4  C   UNL     1      -7.792  15.648  67.087  1.00  0.00    -0.253 C  
ENDROOT
BRANCH   3   5
HETATM    5  C   UNL     1      -7.482  11.825  67.585  1.00  0.00    -0.123 C  
HETATM    6  C   UNL     1      -6.531  10.959  68.394  1.00  0.00    -0.057 C  
HETATM    7  C   UNL     1      -6.583  10.829  66.876  1.00  0.00    -0.091 C  
HETATM    8  C   UNL     1      -5.355  11.283  66.127  1.00  0.00    -0.116 C  
HETATM    9  C   UNL     1      -7.271   9.651  66.222  1.00  0.00    -0.094 C  
BRANCH   6  10
HETATM   10  C   UNL     1      -7.127   9.944  69.291  1.00  0.00    -0.069 C  
HETATM   11  O   UNL     1      -6.561   8.884  69.492  1.00  0.00    -0.043 OA 
BRANCH  10  12
HETATM   12  O   UNL     1      -8.325  10.324  69.821  1.00  0.00    -0.165 OA 
BRANCH  12  13
HETATM   13  C   UNL     1      -9.492   9.491  69.585  1.00  0.00    -0.199 C  
HETATM   14  C   UNL     1     -10.335   9.962  68.405  1.00  0.00    -0.226 C  
HETATM   15  C   UNL     1     -11.490  10.607  69.112  1.00  0.00    -0.280 C  
HETATM   16  C   UNL     1     -11.531  10.223  70.547  1.00  0.00    -0.427 C  
HETATM   17  O   UNL     1     -12.332  11.304  68.564  1.00  0.00    -0.543 OA 
HETATM   18  C   UNL     1      -9.990   8.824  72.026  1.00  0.00    -0.391 C  
HETATM   19  C   UNL     1     -10.418   9.498  70.772  1.00  0.00    -0.384 C  
BRANCH  16  20
HETATM   20  C   UNL     1     -12.569  10.783  71.453  1.00  0.00    -0.516 C  
BRANCH  20  21
HETATM   21  C   UNL     1     -13.758   9.888  71.582  1.00  0.00    -0.243 C  
HETATM   22  C   UNL     1     -13.896   8.970  72.551  1.00  0.00    -0.491 C  
ENDBRANCH  20  21
ENDBRANCH  16  20
ENDBRANCH  12  13
ENDBRANCH  10  12
ENDBRANCH   6  10
ENDBRANCH   3   5
TORSDOF 6
ENDMDL
MODEL      150
REMARK 921   NORMALIZED FREE ENERGY PREDICTED BY IDOCK:   -3.85 KCAL/MOL
REMARK 922        TOTAL FREE ENERGY PREDICTED BY IDOCK:   -6.72 KCAL/MOL
REMARK 923 INTER-LIGAND FREE ENERGY PREDICTED BY IDOCK:   -5.35 KCAL/MOL
REMARK 924 INTRA-LIGAND FREE ENERGY PREDICTED BY IDOCK:   -1.37 KCAL/MOL
REMARK 927      BINDING AFFINITY PREDICTED BY RF-SCORE:    0.00 PKD
ROOT
HETATM    1  C   UNL     1      -8.583  19.577  66.645  1.00  0.00    -0.369 C  
HETATM    2  C   UNL     1      -9.823  19.157  67.383  1.00  0.00    -0.404 C  
HETATM    3  C   UNL     1     -10.237  17.876  67.428  1.00  0.00    -0.363 C  
HETATM    4  C   UNL     1     -10.592  20.220  68.114  1.00  0.00    -0.187 C  
ENDROOT
BRANCH   3   5
HETATM    5  C   UNL     1      -9.569  16.715  66.838  1.00  0.00    -0.259 C  
HETATM    6  C   UNL     1     -10.059  15.307  67.131  1.00  0.00    -0.240 C  
HETATM    7  C   UNL     1      -8.716  15.781  67.677  1.00  0.00    -0.178 C  
HETATM    8  C   UNL     1      -8.625  15.940  69.173  1.00  0.00    -0.252 C  
HETATM    9  C   UNL     1      -7.419  15.315  67.053  1.00  0.00    -0.125 C  
BRANCH   6  10
HETATM   10  C   UNL     1     -10.158  14.367  65.993  1.00  0.00    -0.322 C  
HETATM   11  O   UNL     1     -10.037  14.765  64.847  1.00  0.00    -0.352 OA 
BRANCH  10  12
HETATM   12  O   UNL     1     -10.401  13.079  66.370  1.00  0.00    -0.271 OA 
BRANCH  12  13
HETATM   13  C   UNL     1      -9.723  12.553  67.543  1.00  0.00    -0.196 C  
HETATM   14  C   UNL     1      -8.449  11.787  67.204  1.00  0.00    -0.170 C  
HETATM   15  C   UNL     1      -8.907  10.369  67.380  1.00  0.00    -0.132 C  
HETATM   16  C   UNL     1     -10.194  10.302  68.118  1.00  0.00    -0.192 C  
HETATM   17  O   UNL     1      -8.268   9.389  67.023  1.00  0.00    -0.114 OA 
HETATM   18  C   UNL     1     -11.794  12.083  69.007  1.00  0.00    -0.372 C  
HETATM   19  C   UNL     1     -10.596  11.577  68.286  1.00  0.00    -0.228 C  
BRANCH  16  20
HETATM   20  C   UNL     1     -10.858   8.995  68.368  1.00  0.00    -0.062 C  
BRANCH  20  21
HETATM   21  C   UNL     1     -10.509   8.422  69.703  1.00  0.00    -0.221 C  
HETATM   22  C   UNL     1     -10.566   9.117  70.849  1.00  0.00    -0.341 C  
ENDBRANCH  20  21
ENDBRANCH  16  20
ENDBRANCH  12  13
ENDBRANCH  10  12
ENDBRANCH   6  10
ENDBRANCH   3   5
TORSDOF 6
ENDMDL
MODEL      151
REMARK 921   NORMALIZED FREE ENERGY PREDICTED BY IDOCK:   -3.84 KCAL/MOL
REMARK 922        TOTAL FREE ENERGY PREDICTED BY IDOCK:   -6.71 KCAL/MOL
REMARK 923 INTER-LIGAND FREE ENERGY PREDICTED BY IDOCK:   -6.34 KCAL/MOL
REMARK 924 INTRA-LIGAND FREE ENERGY PREDICTED BY IDOCK:   -0.37 KCAL/MOL
REMARK 927      BINDING AFFINITY PREDICTED BY RF-SCORE:    0.00 PKD
ROOT
HETATM    1  C   UNL     1     -13.632  13.304  72.431  1.00  0.00    -0.694 C  
HETATM    2  C   UNL     1     -13.332  14.712  72.000  1.00  0.00    -0.459 C  
HETATM    3  C   UNL     1     -12.876  15.007  70.767  1.00  0.00    -0.447 C  
HETATM    4  C   UNL     1     -13.587  15.812  72.988  1.00  0.00    -0.638 C  
ENDROOT
BRANCH   3   5
HETATM    5  C   UNL     1     -12.646  14.068  69.666  1.00  0.00    -0.066 C  
HETATM    6  C   UNL     1     -11.390  13.214  69.627  1.00  0.00    -0.182 C  
HETATM    7  C   UNL     1     -11.589  14.332  68.609  1.00  0.00    -0.352 C  
HETATM    8  C   UNL     1     -10.651  15.507  68.720  1.00  0.00    -0.242 C  
HETATM    9  C   UNL     1     -11.976  14.018  67.181  1.00  0.00    -0.465 C  
BRANCH   6  10
HETATM   10  C   UNL     1     -11.547  11.786  69.269  1.00  0.00    -0.315 C  
HETATM   11  O   UNL     1     -12.387  11.439  68.458  1.00  0.00    -0.504 OA 
BRANCH  10  12
HETATM   12  O   UNL     1     -10.688  10.962  69.934  1.00  0.00    -0.206 OA 
BRANCH  12  13
HETATM   13  C   UNL     1     -11.032   9.557  70.075  1.00  0.00    -0.251 C  
HETATM   14  C   UNL     1     -10.619   8.972  71.420  1.00  0.00    -0.393 C  
HETATM   15  C   UNL     1      -9.407   8.178  71.032  1.00  0.00    -0.152 C  
HETATM   16  C   UNL     1      -9.329   7.991  69.560  1.00  0.00    -0.156 C  
HETATM   17  O   UNL     1      -8.620   7.687  71.828  1.00  0.00    -0.109 OA 
HETATM   18  C   UNL     1     -10.746   8.842  67.613  1.00  0.00    -0.206 C  
HETATM   19  C   UNL     1     -10.336   8.717  69.037  1.00  0.00    -0.227 C  
BRANCH  16  20
HETATM   20  C   UNL     1      -8.182   7.270  68.947  1.00  0.00    -0.125 C  
BRANCH  20  21
HETATM   21  C   UNL     1      -7.150   8.200  68.396  1.00  0.00    -0.077 C  
HETATM   22  C   UNL     1      -6.940   8.385  67.084  1.00  0.00    -0.075 C  
ENDBRANCH  20  21
ENDBRANCH  16  20
ENDBRANCH  12  13
ENDBRANCH  10  12
ENDBRANCH   6  10
ENDBRANCH   3   5
TORSDOF 6
ENDMDL
MODEL      152
REMARK 921   NORMALIZED FREE ENERGY PREDICTED BY IDOCK:   -3.84 KCAL/MOL
REMARK 922        TOTAL FREE ENERGY PREDICTED BY IDOCK:   -6.70 KCAL/MOL
REMARK 923 INTER-LIGAND FREE ENERGY PREDICTED BY IDOCK:   -5.46 KCAL/MOL
REMARK 924 INTRA-LIGAND FREE ENERGY PREDICTED BY IDOCK:   -1.24 KCAL/MOL
REMARK 927      BINDING AFFINITY PREDICTED BY RF-SCORE:    0.00 PKD
ROOT
HETATM    1  C   UNL     1     -10.268  18.341  66.208  1.00  0.00    -0.414 C  
HETATM    2  C   UNL     1      -9.861  18.996  67.499  1.00  0.00    -0.386 C  
HETATM    3  C   UNL     1      -8.910  18.480  68.301  1.00  0.00    -0.332 C  
HETATM    4  C   UNL     1     -10.534  20.287  67.866  1.00  0.00    -0.321 C  
ENDROOT
BRANCH   3   5
HETATM    5  C   UNL     1      -8.110  17.278  68.056  1.00  0.00    -0.221 C  
HETATM    6  C   UNL     1      -7.454  16.536  69.208  1.00  0.00    -0.183 C  
HETATM    7  C   UNL     1      -6.599  17.291  68.196  1.00  0.00    -0.164 C  
HETATM    8  C   UNL     1      -5.874  18.507  68.715  1.00  0.00    -0.206 C  
HETATM    9  C   UNL     1      -5.820  16.548  67.133  1.00  0.00    -0.174 C  
BRANCH   6  10
HETATM   10  C   UNL     1      -7.550  15.059  69.212  1.00  0.00    -0.187 C  
HETATM   11  O   UNL     1      -6.679  14.383  69.730  1.00  0.00    -0.145 OA 
BRANCH  10  12
HETATM   12  O   UNL     1      -8.665  14.585  68.586  1.00  0.00    -0.173 OA 
BRANCH  12  13
HETATM   13  C   UNL     1      -8.534  14.020  67.253  1.00  0.00    -0.207 C  
HETATM   14  C   UNL     1      -9.617  14.497  66.292  1.00  0.00    -0.328 C  
HETATM   15  C   UNL     1     -10.506  13.291  66.234  1.00  0.00    -0.287 C  
HETATM   16  C   UNL     1      -9.830  12.090  66.789  1.00  0.00    -0.218 C  
HETATM   17  O   UNL     1     -11.621  13.280  65.731  1.00  0.00    -0.317 OA 
HETATM   18  C   UNL     1      -7.563  11.721  67.904  1.00  0.00    -0.121 C  
HETATM   19  C   UNL     1      -8.652  12.519  67.283  1.00  0.00    -0.191 C  
BRANCH  16  20
HETATM   20  C   UNL     1     -10.544  10.788  66.872  1.00  0.00    -0.312 C  
BRANCH  20  21
HETATM   21  C   UNL     1     -10.116   9.832  65.808  1.00  0.00    -0.308 C  
HETATM   22  C   UNL     1      -9.149   8.917  65.975  1.00  0.00    -0.265 C  
ENDBRANCH  20  21
ENDBRANCH  16  20
ENDBRANCH  12  13
ENDBRANCH  10  12
ENDBRANCH   6  10
ENDBRANCH   3   5
TORSDOF 6
ENDMDL
MODEL      153
REMARK 921   NORMALIZED FREE ENERGY PREDICTED BY IDOCK:   -3.83 KCAL/MOL
REMARK 922        TOTAL FREE ENERGY PREDICTED BY IDOCK:   -6.70 KCAL/MOL
REMARK 923 INTER-LIGAND FREE ENERGY PREDICTED BY IDOCK:   -5.31 KCAL/MOL
REMARK 924 INTRA-LIGAND FREE ENERGY PREDICTED BY IDOCK:   -1.39 KCAL/MOL
REMARK 927      BINDING AFFINITY PREDICTED BY RF-SCORE:    0.00 PKD
ROOT
HETATM    1  C   UNL     1     -11.891  10.985  70.164  1.00  0.00    -0.441 C  
HETATM    2  C   UNL     1     -12.220  10.077  71.316  1.00  0.00    -0.498 C  
HETATM    3  C   UNL     1     -11.375   9.120  71.744  1.00  0.00    -0.451 C  
HETATM    4  C   UNL     1     -13.531  10.289  72.016  1.00  0.00    -0.385 C  
ENDROOT
BRANCH   3   5
HETATM    5  C   UNL     1     -10.037   8.831  71.225  1.00  0.00    -0.336 C  
HETATM    6  C   UNL     1      -9.602   7.400  70.958  1.00  0.00    -0.161 C  
HETATM    7  C   UNL     1      -8.970   8.194  72.096  1.00  0.00    -0.246 C  
HETATM    8  C   UNL     1      -9.284   7.719  73.492  1.00  0.00    -0.350 C  
HETATM    9  C   UNL     1      -7.572   8.757  71.965  1.00  0.00    -0.022 C  
BRANCH   6  10
HETATM   10  C   UNL     1      -8.882   7.130  69.693  1.00  0.00    -0.141 C  
HETATM   11  O   UNL     1      -7.966   6.328  69.660  1.00  0.00    -0.107 OA 
BRANCH  10  12
HETATM   12  O   UNL     1      -9.343   7.862  68.639  1.00  0.00    -0.146 OA 
BRANCH  12  13
HETATM   13  C   UNL     1      -8.405   8.682  67.891  1.00  0.00    -0.123 C  
HETATM   14  C   UNL     1      -8.394  10.139  68.338  1.00  0.00    -0.113 C  
HETATM   15  C   UNL     1      -9.164  10.790  67.227  1.00  0.00    -0.147 C  
HETATM   16  C   UNL     1      -9.286   9.890  66.051  1.00  0.00    -0.240 C  
HETATM   17  O   UNL     1      -9.578  11.940  67.257  1.00  0.00    -0.176 OA 
HETATM   18  C   UNL     1      -8.572   7.478  65.615  1.00  0.00    -0.131 C  
HETATM   19  C   UNL     1      -8.753   8.711  66.426  1.00  0.00    -0.150 C  
BRANCH  16  20
HETATM   20  C   UNL     1     -10.050  10.314  64.848  1.00  0.00    -0.346 C  
BRANCH  20  21
HETATM   21  C   UNL     1      -9.169  10.557  63.667  1.00  0.00    -0.298 C  
HETATM   22  C   UNL     1      -9.250   9.862  62.522  1.00  0.00    -0.307 C  
ENDBRANCH  20  21
ENDBRANCH  16  20
ENDBRANCH  12  13
ENDBRANCH  10  12
ENDBRANCH   6  10
ENDBRANCH   3   5
TORSDOF 6
ENDMDL
MODEL      154
REMARK 921   NORMALIZED FREE ENERGY PREDICTED BY IDOCK:   -3.83 KCAL/MOL
REMARK 922        TOTAL FREE ENERGY PREDICTED BY IDOCK:   -6.70 KCAL/MOL
REMARK 923 INTER-LIGAND FREE ENERGY PREDICTED BY IDOCK:   -5.96 KCAL/MOL
REMARK 924 INTRA-LIGAND FREE ENERGY PREDICTED BY IDOCK:   -0.74 KCAL/MOL
REMARK 927      BINDING AFFINITY PREDICTED BY RF-SCORE:    0.00 PKD
ROOT
HETATM    1  C   UNL     1      -8.039  15.609  69.124  1.00  0.00    -0.238 C  
HETATM    2  C   UNL     1      -7.493  14.524  68.239  1.00  0.00    -0.120 C  
HETATM    3  C   UNL     1      -8.275  13.561  67.713  1.00  0.00    -0.176 C  
HETATM    4  C   UNL     1      -6.027  14.558  67.920  1.00  0.00    -0.150 C  
ENDROOT
BRANCH   3   5
HETATM    5  C   UNL     1      -9.725  13.426  67.862  1.00  0.00    -0.226 C  
HETATM    6  C   UNL     1     -10.470  12.285  67.191  1.00  0.00    -0.238 C  
HETATM    7  C   UNL     1     -10.670  13.719  66.711  1.00  0.00    -0.276 C  
HETATM    8  C   UNL     1     -10.146  14.038  65.334  1.00  0.00    -0.343 C  
HETATM    9  C   UNL     1     -11.930  14.482  67.055  1.00  0.00    -0.371 C  
BRANCH   6  10
HETATM   10  C   UNL     1     -11.493  11.573  67.990  1.00  0.00    -0.311 C  
HETATM   11  O   UNL     1     -12.167  12.172  68.810  1.00  0.00    -0.204 OA 
BRANCH  10  12
HETATM   12  O   UNL     1     -11.567  10.240  67.713  1.00  0.00    -0.331 OA 
BRANCH  12  13
HETATM   13  C   UNL     1     -10.390   9.414  67.922  1.00  0.00    -0.225 C  
HETATM   14  C   UNL     1     -10.187   8.372  66.828  1.00  0.00    -0.376 C  
HETATM   15  C   UNL     1     -10.641   7.125  67.526  1.00  0.00    -0.278 C  
HETATM   16  C   UNL     1     -10.736   7.328  68.995  1.00  0.00    -0.183 C  
HETATM   17  O   UNL     1     -10.841   6.056  66.967  1.00  0.00    -0.308 OA 
HETATM   18  C   UNL     1     -10.409   9.363  70.501  1.00  0.00    -0.341 C  
HETATM   19  C   UNL     1     -10.491   8.636  69.207  1.00  0.00    -0.226 C  
BRANCH  16  20
HETATM   20  C   UNL     1     -11.211   6.234  69.883  1.00  0.00    -0.498 C  
BRANCH  20  21
HETATM   21  C   UNL     1     -10.090   5.407  70.421  1.00  0.00    -0.314 C  
HETATM   22  C   UNL     1      -9.825   5.275  71.730  1.00  0.00    -0.222 C  
ENDBRANCH  20  21
ENDBRANCH  16  20
ENDBRANCH  12  13
ENDBRANCH  10  12
ENDBRANCH   6  10
ENDBRANCH   3   5
TORSDOF 6
ENDMDL
MODEL      155
REMARK 921   NORMALIZED FREE ENERGY PREDICTED BY IDOCK:   -3.83 KCAL/MOL
REMARK 922        TOTAL FREE ENERGY PREDICTED BY IDOCK:   -6.69 KCAL/MOL
REMARK 923 INTER-LIGAND FREE ENERGY PREDICTED BY IDOCK:   -4.84 KCAL/MOL
REMARK 924 INTRA-LIGAND FREE ENERGY PREDICTED BY IDOCK:   -1.86 KCAL/MOL
REMARK 927      BINDING AFFINITY PREDICTED BY RF-SCORE:    0.00 PKD
ROOT
HETATM    1  C   UNL     1      -5.375  12.928  67.893  1.00  0.00    -0.110 C  
HETATM    2  C   UNL     1      -6.290  12.808  69.079  1.00  0.00    -0.096 C  
HETATM    3  C   UNL     1      -7.417  12.071  69.049  1.00  0.00     0.017 C  
HETATM    4  C   UNL     1      -5.894  13.523  70.338  1.00  0.00    -0.164 C  
ENDROOT
BRANCH   3   5
HETATM    5  C   UNL     1      -7.907  11.258  67.934  1.00  0.00    -0.116 C  
HETATM    6  C   UNL     1      -8.872  10.110  68.177  1.00  0.00    -0.126 C  
HETATM    7  C   UNL     1      -7.441   9.828  67.731  1.00  0.00    -0.090 C  
HETATM    8  C   UNL     1      -6.552   9.147  68.741  1.00  0.00    -0.053 C  
HETATM    9  C   UNL     1      -7.140   9.415  66.307  1.00  0.00    -0.088 C  
BRANCH   6  10
HETATM   10  C   UNL     1     -10.023   9.979  67.256  1.00  0.00    -0.197 C  
HETATM   11  O   UNL     1     -10.636   8.928  67.174  1.00  0.00    -0.286 OA 
BRANCH  10  12
HETATM   12  O   UNL     1     -10.284  11.114  66.547  1.00  0.00    -0.216 OA 
BRANCH  12  13
HETATM   13  C   UNL     1     -11.614  11.695  66.617  1.00  0.00    -0.115 C  
HETATM   14  C   UNL     1     -12.005  12.451  65.353  1.00  0.00    -0.457 C  
HETATM   15  C   UNL     1     -11.844  13.873  65.804  1.00  0.00    -0.378 C  
HETATM   16  C   UNL     1     -11.745  13.966  67.283  1.00  0.00    -0.418 C  
HETATM   17  O   UNL     1     -11.861  14.840  65.055  1.00  0.00    -0.369 OA 
HETATM   18  C   UNL     1     -11.672  12.218  69.143  1.00  0.00    -0.377 C  
HETATM   19  C   UNL     1     -11.714  12.697  67.736  1.00  0.00    -0.412 C  
BRANCH  16  20
HETATM   20  C   UNL     1     -11.536  15.279  67.948  1.00  0.00    -0.325 C  
BRANCH  20  21
HETATM   21  C   UNL     1     -10.090  15.595  68.149  1.00  0.00    -0.222 C  
HETATM   22  C   UNL     1      -9.408  15.286  69.263  1.00  0.00    -0.239 C  
ENDBRANCH  20  21
ENDBRANCH  16  20
ENDBRANCH  12  13
ENDBRANCH  10  12
ENDBRANCH   6  10
ENDBRANCH   3   5
TORSDOF 6
ENDMDL
MODEL      156
REMARK 921   NORMALIZED FREE ENERGY PREDICTED BY IDOCK:   -3.82 KCAL/MOL
REMARK 922        TOTAL FREE ENERGY PREDICTED BY IDOCK:   -6.68 KCAL/MOL
REMARK 923 INTER-LIGAND FREE ENERGY PREDICTED BY IDOCK:   -5.85 KCAL/MOL
REMARK 924 INTRA-LIGAND FREE ENERGY PREDICTED BY IDOCK:   -0.83 KCAL/MOL
REMARK 927      BINDING AFFINITY PREDICTED BY RF-SCORE:    0.00 PKD
ROOT
HETATM    1  C   UNL     1     -10.448  18.965  66.587  1.00  0.00    -0.496 C  
HETATM    2  C   UNL     1      -9.047  19.218  67.067  1.00  0.00    -0.339 C  
HETATM    3  C   UNL     1      -8.151  18.226  67.235  1.00  0.00    -0.233 C  
HETATM    4  C   UNL     1      -8.648  20.642  67.331  1.00  0.00    -0.300 C  
ENDROOT
BRANCH   3   5
HETATM    5  C   UNL     1      -8.352  16.803  66.954  1.00  0.00    -0.241 C  
HETATM    6  C   UNL     1      -9.341  15.985  67.766  1.00  0.00    -0.211 C  
HETATM    7  C   UNL     1      -7.843  15.730  67.899  1.00  0.00    -0.149 C  
HETATM    8  C   UNL     1      -7.222  16.089  69.225  1.00  0.00    -0.226 C  
HETATM    9  C   UNL     1      -7.204  14.518  67.257  1.00  0.00    -0.053 C  
BRANCH   6  10
HETATM   10  C   UNL     1     -10.234  15.064  67.029  1.00  0.00    -0.257 C  
HETATM   11  O   UNL     1     -10.943  15.476  66.128  1.00  0.00    -0.316 OA 
BRANCH  10  12
HETATM   12  O   UNL     1     -10.170  13.776  67.471  1.00  0.00    -0.238 OA 
BRANCH  12  13
HETATM   13  C   UNL     1     -11.352  12.937  67.359  1.00  0.00    -0.309 C  
HETATM   14  C   UNL     1     -11.942  12.550  68.710  1.00  0.00    -0.283 C  
HETATM   15  C   UNL     1     -11.487  11.126  68.830  1.00  0.00    -0.299 C  
HETATM   16  C   UNL     1     -11.010  10.597  67.526  1.00  0.00    -0.371 C  
HETATM   17  O   UNL     1     -11.561  10.462  69.853  1.00  0.00    -0.257 OA 
HETATM   18  C   UNL     1     -10.708  11.649  65.219  1.00  0.00    -0.346 C  
HETATM   19  C   UNL     1     -11.035  11.636  66.669  1.00  0.00    -0.349 C  
BRANCH  16  20
HETATM   20  C   UNL     1     -10.469   9.216  67.420  1.00  0.00    -0.339 C  
BRANCH  20  21
HETATM   21  C   UNL     1      -8.979   9.177  67.508  1.00  0.00    -0.131 C  
HETATM   22  C   UNL     1      -8.174   9.049  66.442  1.00  0.00    -0.111 C  
ENDBRANCH  20  21
ENDBRANCH  16  20
ENDBRANCH  12  13
ENDBRANCH  10  12
ENDBRANCH   6  10
ENDBRANCH   3   5
TORSDOF 6
ENDMDL
MODEL      157
REMARK 921   NORMALIZED FREE ENERGY PREDICTED BY IDOCK:   -3.82 KCAL/MOL
REMARK 922        TOTAL FREE ENERGY PREDICTED BY IDOCK:   -6.68 KCAL/MOL
REMARK 923 INTER-LIGAND FREE ENERGY PREDICTED BY IDOCK:   -5.98 KCAL/MOL
REMARK 924 INTRA-LIGAND FREE ENERGY PREDICTED BY IDOCK:   -0.69 KCAL/MOL
REMARK 927      BINDING AFFINITY PREDICTED BY RF-SCORE:    0.00 PKD
ROOT
HETATM    1  C   UNL     1     -10.068  13.649  68.296  1.00  0.00    -0.240 C  
HETATM    2  C   UNL     1     -11.336  14.380  67.955  1.00  0.00    -0.322 C  
HETATM    3  C   UNL     1     -12.141  13.996  66.945  1.00  0.00    -0.465 C  
HETATM    4  C   UNL     1     -11.710  15.558  68.806  1.00  0.00    -0.372 C  
ENDROOT
BRANCH   3   5
HETATM    5  C   UNL     1     -11.963  12.835  66.071  1.00  0.00    -0.491 C  
HETATM    6  C   UNL     1     -10.685  12.657  65.269  1.00  0.00    -0.318 C  
HETATM    7  C   UNL     1     -11.998  12.968  64.560  1.00  0.00    -0.450 C  
HETATM    8  C   UNL     1     -12.093  14.320  63.898  1.00  0.00    -0.247 C  
HETATM    9  C   UNL     1     -12.747  11.890  63.808  1.00  0.00    -0.466 C  
BRANCH   6  10
HETATM   10  C   UNL     1     -10.076  11.309  65.243  1.00  0.00    -0.267 C  
HETATM   11  O   UNL     1     -10.175  10.603  64.255  1.00  0.00    -0.351 OA 
BRANCH  10  12
HETATM   12  O   UNL     1      -9.441  10.976  66.403  1.00  0.00    -0.184 OA 
BRANCH  12  13
HETATM   13  C   UNL     1      -9.874   9.792  67.125  1.00  0.00    -0.188 C  
HETATM   14  C   UNL     1     -11.092  10.040  68.007  1.00  0.00    -0.263 C  
HETATM   15  C   UNL     1     -10.461  10.095  69.366  1.00  0.00    -0.233 C  
HETATM   16  C   UNL     1      -9.077   9.553  69.345  1.00  0.00    -0.172 C  
HETATM   17  O   UNL     1     -11.034  10.473  70.378  1.00  0.00    -0.287 OA 
HETATM   18  C   UNL     1      -7.568   8.690  67.475  1.00  0.00    -0.094 C  
HETATM   19  C   UNL     1      -8.798   9.294  68.053  1.00  0.00    -0.128 C  
BRANCH  16  20
HETATM   20  C   UNL     1      -8.244   9.551  70.577  1.00  0.00    -0.203 C  
BRANCH  20  21
HETATM   21  C   UNL     1      -7.968   8.172  71.079  1.00  0.00    -0.096 C  
HETATM   22  C   UNL     1      -7.847   7.864  72.379  1.00  0.00    -0.144 C  
ENDBRANCH  20  21
ENDBRANCH  16  20
ENDBRANCH  12  13
ENDBRANCH  10  12
ENDBRANCH   6  10
ENDBRANCH   3   5
TORSDOF 6
ENDMDL
MODEL      158
REMARK 921   NORMALIZED FREE ENERGY PREDICTED BY IDOCK:   -3.81 KCAL/MOL
REMARK 922        TOTAL FREE ENERGY PREDICTED BY IDOCK:   -6.67 KCAL/MOL
REMARK 923 INTER-LIGAND FREE ENERGY PREDICTED BY IDOCK:   -5.99 KCAL/MOL
REMARK 924 INTRA-LIGAND FREE ENERGY PREDICTED BY IDOCK:   -0.69 KCAL/MOL
REMARK 927      BINDING AFFINITY PREDICTED BY RF-SCORE:    0.00 PKD
ROOT
HETATM    1  C   UNL     1     -12.889   9.095  71.949  1.00  0.00    -0.466 C  
HETATM    2  C   UNL     1     -13.028   7.671  71.490  1.00  0.00    -0.378 C  
HETATM    3  C   UNL     1     -12.125   7.081  70.683  1.00  0.00    -0.332 C  
HETATM    4  C   UNL     1     -14.209   6.891  71.991  1.00  0.00    -0.245 C  
ENDROOT
BRANCH   3   5
HETATM    5  C   UNL     1     -10.888   7.672  70.168  1.00  0.00    -0.255 C  
HETATM    6  C   UNL     1     -10.889   8.468  68.874  1.00  0.00    -0.009 C  
HETATM    7  C   UNL     1     -10.195   7.112  68.940  1.00  0.00    -0.188 C  
HETATM    8  C   UNL     1     -10.819   6.005  68.128  1.00  0.00    -0.365 C  
HETATM    9  C   UNL     1      -8.686   7.016  69.005  1.00  0.00    -0.128 C  
BRANCH   6  10
HETATM   10  C   UNL     1     -10.132   9.739  68.854  1.00  0.00    -0.183 C  
HETATM   11  O   UNL     1      -9.200   9.918  69.618  1.00  0.00    -0.203 OA 
BRANCH  10  12
HETATM   12  O   UNL     1     -10.595  10.632  67.933  1.00  0.00    -0.196 OA 
BRANCH  12  13
HETATM   13  C   UNL     1      -9.964  11.939  67.846  1.00  0.00    -0.191 C  
HETATM   14  C   UNL     1     -10.915  13.085  68.171  1.00  0.00    -0.269 C  
HETATM   15  C   UNL     1     -11.200  13.623  66.800  1.00  0.00    -0.314 C  
HETATM   16  C   UNL     1     -10.229  13.109  65.801  1.00  0.00    -0.294 C  
HETATM   17  O   UNL     1     -12.078  14.436  66.547  1.00  0.00    -0.418 OA 
HETATM   18  C   UNL     1      -8.303  11.437  65.937  1.00  0.00     0.040 C  
HETATM   19  C   UNL     1      -9.463  12.211  66.452  1.00  0.00    -0.238 C  
BRANCH  16  20
HETATM   20  C   UNL     1     -10.350  13.477  64.365  1.00  0.00    -0.306 C  
BRANCH  20  21
HETATM   21  C   UNL     1     -11.171  12.499  63.591  1.00  0.00    -0.545 C  
HETATM   22  C   UNL     1     -12.378  12.065  63.984  1.00  0.00    -0.504 C  
ENDBRANCH  20  21
ENDBRANCH  16  20
ENDBRANCH  12  13
ENDBRANCH  10  12
ENDBRANCH   6  10
ENDBRANCH   3   5
TORSDOF 6
ENDMDL
MODEL      159
REMARK 921   NORMALIZED FREE ENERGY PREDICTED BY IDOCK:   -3.81 KCAL/MOL
REMARK 922        TOTAL FREE ENERGY PREDICTED BY IDOCK:   -6.67 KCAL/MOL
REMARK 923 INTER-LIGAND FREE ENERGY PREDICTED BY IDOCK:   -4.94 KCAL/MOL
REMARK 924 INTRA-LIGAND FREE ENERGY PREDICTED BY IDOCK:   -1.73 KCAL/MOL
REMARK 927      BINDING AFFINITY PREDICTED BY RF-SCORE:    0.00 PKD
ROOT
HETATM    1  C   UNL     1      -8.099  12.725  67.910  1.00  0.00    -0.159 C  
HETATM    2  C   UNL     1      -8.620  11.431  67.351  1.00  0.00    -0.142 C  
HETATM    3  C   UNL     1      -9.663  10.777  67.897  1.00  0.00    -0.181 C  
HETATM    4  C   UNL     1      -7.954  10.886  66.121  1.00  0.00    -0.155 C  
ENDROOT
BRANCH   3   5
HETATM    5  C   UNL     1     -10.466  11.205  69.044  1.00  0.00    -0.233 C  
HETATM    6  C   UNL     1     -11.902  10.733  69.205  1.00  0.00    -0.347 C  
HETATM    7  C   UNL     1     -11.606  12.196  68.888  1.00  0.00    -0.377 C  
HETATM    8  C   UNL     1     -12.036  12.681  67.527  1.00  0.00    -0.314 C  
HETATM    9  C   UNL     1     -11.723  13.259  69.958  1.00  0.00    -0.295 C  
BRANCH   6  10
HETATM   10  C   UNL     1     -12.329  10.291  70.551  1.00  0.00    -0.284 C  
HETATM   11  O   UNL     1     -13.481  10.443  70.917  1.00  0.00    -0.259 OA 
BRANCH  10  12
HETATM   12  O   UNL     1     -11.323   9.736  71.285  1.00  0.00    -0.361 OA 
BRANCH  12  13
HETATM   13  C   UNL     1     -11.353   8.307  71.548  1.00  0.00    -0.268 C  
HETATM   14  C   UNL     1     -11.076   7.961  73.007  1.00  0.00    -0.379 C  
HETATM   15  C   UNL     1      -9.663   7.466  72.925  1.00  0.00    -0.183 C  
HETATM   16  C   UNL     1      -9.268   7.180  71.521  1.00  0.00    -0.148 C  
HETATM   17  O   UNL     1      -8.947   7.258  73.894  1.00  0.00    -0.181 OA 
HETATM   18  C   UNL     1     -10.451   7.478  69.278  1.00  0.00    -0.216 C  
HETATM   19  C   UNL     1     -10.299   7.583  70.753  1.00  0.00    -0.205 C  
BRANCH  16  20
HETATM   20  C   UNL     1      -7.891   6.719  71.199  1.00  0.00    -0.101 C  
BRANCH  20  21
HETATM   21  C   UNL     1      -6.932   7.853  71.039  1.00  0.00    -0.049 C  
HETATM   22  C   UNL     1      -7.298   9.092  70.675  1.00  0.00    -0.099 C  
ENDBRANCH  20  21
ENDBRANCH  16  20
ENDBRANCH  12  13
ENDBRANCH  10  12
ENDBRANCH   6  10
ENDBRANCH   3   5
TORSDOF 6
ENDMDL
MODEL      160
REMARK 921   NORMALIZED FREE ENERGY PREDICTED BY IDOCK:   -3.80 KCAL/MOL
REMARK 922        TOTAL FREE ENERGY PREDICTED BY IDOCK:   -6.65 KCAL/MOL
REMARK 923 INTER-LIGAND FREE ENERGY PREDICTED BY IDOCK:   -5.11 KCAL/MOL
REMARK 924 INTRA-LIGAND FREE ENERGY PREDICTED BY IDOCK:   -1.54 KCAL/MOL
REMARK 927      BINDING AFFINITY PREDICTED BY RF-SCORE:    0.00 PKD
ROOT
HETATM    1  C   UNL     1     -11.470  10.630  68.434  1.00  0.00    -0.330 C  
HETATM    2  C   UNL     1     -10.503   9.509  68.175  1.00  0.00    -0.268 C  
HETATM    3  C   UNL     1     -10.008   8.741  69.164  1.00  0.00    -0.193 C  
HETATM    4  C   UNL     1     -10.118   9.239  66.750  1.00  0.00    -0.331 C  
ENDROOT
BRANCH   3   5
HETATM    5  C   UNL     1     -10.335   8.822  70.589  1.00  0.00    -0.253 C  
HETATM    6  C   UNL     1     -10.006   7.673  71.527  1.00  0.00    -0.200 C  
HETATM    7  C   UNL     1     -11.458   7.998  71.192  1.00  0.00    -0.302 C  
HETATM    8  C   UNL     1     -12.198   6.970  70.373  1.00  0.00    -0.138 C  
HETATM    9  C   UNL     1     -12.345   8.703  72.195  1.00  0.00    -0.452 C  
BRANCH   6  10
HETATM   10  C   UNL     1      -9.406   8.010  72.837  1.00  0.00    -0.271 C  
HETATM   11  O   UNL     1      -8.515   8.837  72.916  1.00  0.00    -0.409 OA 
BRANCH  10  12
HETATM   12  O   UNL     1      -9.941   7.308  73.876  1.00  0.00    -0.311 OA 
BRANCH  12  13
HETATM   13  C   UNL     1      -9.328   6.047  74.260  1.00  0.00    -0.147 C  
HETATM   14  C   UNL     1      -7.818   6.029  74.055  1.00  0.00    -0.101 C  
HETATM   15  C   UNL     1      -7.703   5.197  72.812  1.00  0.00    -0.098 C  
HETATM   16  C   UNL     1      -8.968   4.473  72.524  1.00  0.00    -0.133 C  
HETATM   17  O   UNL     1      -6.678   5.074  72.157  1.00  0.00    -0.048 OA 
HETATM   18  C   UNL     1     -11.269   4.469  73.630  1.00  0.00    -0.346 C  
HETATM   19  C   UNL     1      -9.862   4.907  73.433  1.00  0.00    -0.166 C  
BRANCH  16  20
HETATM   20  C   UNL     1      -9.095   3.621  71.312  1.00  0.00    -0.180 C  
BRANCH  20  21
HETATM   21  C   UNL     1      -9.849   4.297  70.214  1.00  0.00    -0.263 C  
HETATM   22  C   UNL     1      -9.273   4.781  69.103  1.00  0.00    -0.175 C  
ENDBRANCH  20  21
ENDBRANCH  16  20
ENDBRANCH  12  13
ENDBRANCH  10  12
ENDBRANCH   6  10
ENDBRANCH   3   5
TORSDOF 6
ENDMDL
MODEL      161
REMARK 921   NORMALIZED FREE ENERGY PREDICTED BY IDOCK:   -3.79 KCAL/MOL
REMARK 922        TOTAL FREE ENERGY PREDICTED BY IDOCK:   -6.64 KCAL/MOL
REMARK 923 INTER-LIGAND FREE ENERGY PREDICTED BY IDOCK:   -5.56 KCAL/MOL
REMARK 924 INTRA-LIGAND FREE ENERGY PREDICTED BY IDOCK:   -1.08 KCAL/MOL
REMARK 927      BINDING AFFINITY PREDICTED BY RF-SCORE:    0.00 PKD
ROOT
HETATM    1  C   UNL     1     -10.792   5.736  68.702  1.00  0.00    -0.270 C  
HETATM    2  C   UNL     1      -9.668   5.456  69.660  1.00  0.00    -0.240 C  
HETATM    3  C   UNL     1      -8.902   6.435  70.179  1.00  0.00    -0.150 C  
HETATM    4  C   UNL     1      -9.433   4.028  70.059  1.00  0.00    -0.260 C  
ENDROOT
BRANCH   3   5
HETATM    5  C   UNL     1      -9.044   7.875  69.954  1.00  0.00    -0.146 C  
HETATM    6  C   UNL     1      -8.128   8.863  70.658  1.00  0.00    -0.161 C  
HETATM    7  C   UNL     1      -9.607   8.793  71.025  1.00  0.00    -0.290 C  
HETATM    8  C   UNL     1      -9.925   8.277  72.405  1.00  0.00    -0.379 C  
HETATM    9  C   UNL     1     -10.573   9.858  70.555  1.00  0.00    -0.359 C  
BRANCH   6  10
HETATM   10  C   UNL     1      -7.570   9.971  69.850  1.00  0.00    -0.170 C  
HETATM   11  O   UNL     1      -6.908  10.849  70.376  1.00  0.00    -0.257 OA 
BRANCH  10  12
HETATM   12  O   UNL     1      -7.884   9.890  68.526  1.00  0.00    -0.080 OA 
BRANCH  12  13
HETATM   13  C   UNL     1      -8.045  11.120  67.768  1.00  0.00    -0.117 C  
HETATM   14  C   UNL     1      -9.267  11.927  68.189  1.00  0.00    -0.187 C  
HETATM   15  C   UNL     1     -10.214  11.632  67.064  1.00  0.00    -0.212 C  
HETATM   16  C   UNL     1      -9.507  11.031  65.903  1.00  0.00    -0.244 C  
HETATM   17  O   UNL     1     -11.403  11.913  67.072  1.00  0.00    -0.302 OA 
HETATM   18  C   UNL     1      -7.089  10.309  65.513  1.00  0.00    -0.142 C  
HETATM   19  C   UNL     1      -8.234  10.836  66.301  1.00  0.00    -0.162 C  
BRANCH  16  20
HETATM   20  C   UNL     1     -10.258  10.615  64.689  1.00  0.00    -0.404 C  
BRANCH  20  21
HETATM   21  C   UNL     1     -10.785  11.780  63.916  1.00  0.00    -0.457 C  
HETATM   22  C   UNL     1     -12.069  11.913  63.553  1.00  0.00    -0.575 C  
ENDBRANCH  20  21
ENDBRANCH  16  20
ENDBRANCH  12  13
ENDBRANCH  10  12
ENDBRANCH   6  10
ENDBRANCH   3   5
TORSDOF 6
ENDMDL
MODEL      162
REMARK 921   NORMALIZED FREE ENERGY PREDICTED BY IDOCK:   -3.79 KCAL/MOL
REMARK 922        TOTAL FREE ENERGY PREDICTED BY IDOCK:   -6.64 KCAL/MOL
REMARK 923 INTER-LIGAND FREE ENERGY PREDICTED BY IDOCK:   -5.22 KCAL/MOL
REMARK 924 INTRA-LIGAND FREE ENERGY PREDICTED BY IDOCK:   -1.42 KCAL/MOL
REMARK 927      BINDING AFFINITY PREDICTED BY RF-SCORE:    0.00 PKD
ROOT
HETATM    1  C   UNL     1     -11.697  10.492  69.602  1.00  0.00    -0.328 C  
HETATM    2  C   UNL     1     -12.213   9.924  70.894  1.00  0.00    -0.420 C  
HETATM    3  C   UNL     1     -11.861   8.701  71.336  1.00  0.00    -0.352 C  
HETATM    4  C   UNL     1     -13.126  10.785  71.718  1.00  0.00    -0.573 C  
ENDROOT
BRANCH   3   5
HETATM    5  C   UNL     1     -10.929   7.769  70.697  1.00  0.00    -0.255 C  
HETATM    6  C   UNL     1     -11.443   6.551  69.948  1.00  0.00    -0.467 C  
HETATM    7  C   UNL     1     -10.686   6.382  71.261  1.00  0.00    -0.288 C  
HETATM    8  C   UNL     1     -11.487   5.862  72.428  1.00  0.00    -0.358 C  
HETATM    9  C   UNL     1      -9.250   5.903  71.271  1.00  0.00    -0.155 C  
BRANCH   6  10
HETATM   10  C   UNL     1     -10.826   6.245  68.639  1.00  0.00    -0.333 C  
HETATM   11  O   UNL     1     -10.443   5.117  68.382  1.00  0.00    -0.118 OA 
BRANCH  10  12
HETATM   12  O   UNL     1     -10.737   7.326  67.813  1.00  0.00    -0.225 OA 
BRANCH  12  13
HETATM   13  C   UNL     1      -9.445   7.667  67.240  1.00  0.00    -0.148 C  
HETATM   14  C   UNL     1      -8.273   7.275  68.132  1.00  0.00    -0.124 C  
HETATM   15  C   UNL     1      -7.877   8.608  68.695  1.00  0.00    -0.107 C  
HETATM   16  C   UNL     1      -8.489   9.724  67.929  1.00  0.00    -0.125 C  
HETATM   17  O   UNL     1      -7.095   8.760  69.622  1.00  0.00    -0.052 OA 
HETATM   18  C   UNL     1     -10.136   9.808  65.979  1.00  0.00    -0.322 C  
HETATM   19  C   UNL     1      -9.315   9.152  67.031  1.00  0.00    -0.188 C  
BRANCH  16  20
HETATM   20  C   UNL     1      -8.269  11.136  68.340  1.00  0.00    -0.144 C  
BRANCH  20  21
HETATM   21  C   UNL     1      -6.867  11.590  68.096  1.00  0.00    -0.068 C  
HETATM   22  C   UNL     1      -6.098  12.165  69.033  1.00  0.00    -0.075 C  
ENDBRANCH  20  21
ENDBRANCH  16  20
ENDBRANCH  12  13
ENDBRANCH  10  12
ENDBRANCH   6  10
ENDBRANCH   3   5
TORSDOF 6
ENDMDL
MODEL      163
REMARK 921   NORMALIZED FREE ENERGY PREDICTED BY IDOCK:   -3.77 KCAL/MOL
REMARK 922        TOTAL FREE ENERGY PREDICTED BY IDOCK:   -6.61 KCAL/MOL
REMARK 923 INTER-LIGAND FREE ENERGY PREDICTED BY IDOCK:   -5.52 KCAL/MOL
REMARK 924 INTRA-LIGAND FREE ENERGY PREDICTED BY IDOCK:   -1.09 KCAL/MOL
REMARK 927      BINDING AFFINITY PREDICTED BY RF-SCORE:    0.00 PKD
ROOT
HETATM    1  C   UNL     1     -11.434  14.113  64.467  1.00  0.00    -0.380 C  
HETATM    2  C   UNL     1     -11.537  12.615  64.390  1.00  0.00    -0.415 C  
HETATM    3  C   UNL     1     -10.828  11.801  65.196  1.00  0.00    -0.351 C  
HETATM    4  C   UNL     1     -12.496  12.034  63.392  1.00  0.00    -0.625 C  
ENDROOT
BRANCH   3   5
HETATM    5  C   UNL     1      -9.911  12.203  66.265  1.00  0.00    -0.249 C  
HETATM    6  C   UNL     1      -9.637  11.277  67.438  1.00  0.00    -0.182 C  
HETATM    7  C   UNL     1     -10.419  12.569  67.647  1.00  0.00    -0.228 C  
HETATM    8  C   UNL     1     -11.875  12.414  68.010  1.00  0.00    -0.376 C  
HETATM    9  C   UNL     1      -9.772  13.769  68.304  1.00  0.00    -0.231 C  
BRANCH   6  10
HETATM   10  C   UNL     1      -8.231  11.129  67.877  1.00  0.00    -0.121 C  
HETATM   11  O   UNL     1      -7.315  11.297  67.091  1.00  0.00    -0.114 OA 
BRANCH  10  12
HETATM   12  O   UNL     1      -8.105  10.789  69.191  1.00  0.00    -0.152 OA 
BRANCH  12  13
HETATM   13  C   UNL     1      -7.877   9.396  69.536  1.00  0.00    -0.091 C  
HETATM   14  C   UNL     1      -7.304   8.580  68.383  1.00  0.00    -0.094 C  
HETATM   15  C   UNL     1      -8.514   7.811  67.942  1.00  0.00    -0.122 C  
HETATM   16  C   UNL     1      -9.594   7.866  68.960  1.00  0.00    -0.155 C  
HETATM   17  O   UNL     1      -8.579   7.163  66.907  1.00  0.00    -0.119 OA 
HETATM   18  C   UNL     1      -9.831   9.085  71.191  1.00  0.00    -0.371 C  
HETATM   19  C   UNL     1      -9.162   8.710  69.917  1.00  0.00    -0.155 C  
BRANCH  16  20
HETATM   20  C   UNL     1     -10.905   7.209  68.711  1.00  0.00    -0.157 C  
BRANCH  20  21
HETATM   21  C   UNL     1     -11.202   6.132  69.703  1.00  0.00    -0.488 C  
HETATM   22  C   UNL     1     -10.378   5.104  69.954  1.00  0.00    -0.347 C  
ENDBRANCH  20  21
ENDBRANCH  16  20
ENDBRANCH  12  13
ENDBRANCH  10  12
ENDBRANCH   6  10
ENDBRANCH   3   5
TORSDOF 6
ENDMDL
MODEL      164
REMARK 921   NORMALIZED FREE ENERGY PREDICTED BY IDOCK:   -3.76 KCAL/MOL
REMARK 922        TOTAL FREE ENERGY PREDICTED BY IDOCK:   -6.60 KCAL/MOL
REMARK 923 INTER-LIGAND FREE ENERGY PREDICTED BY IDOCK:   -5.93 KCAL/MOL
REMARK 924 INTRA-LIGAND FREE ENERGY PREDICTED BY IDOCK:   -0.67 KCAL/MOL
REMARK 927      BINDING AFFINITY PREDICTED BY RF-SCORE:    0.00 PKD
ROOT
HETATM    1  C   UNL     1     -10.958   6.332  67.911  1.00  0.00    -0.421 C  
HETATM    2  C   UNL     1     -10.198   5.973  66.665  1.00  0.00    -0.246 C  
HETATM    3  C   UNL     1      -9.390   6.848  66.035  1.00  0.00    -0.026 C  
HETATM    4  C   UNL     1     -10.339   4.572  66.143  1.00  0.00    -0.258 C  
ENDROOT
BRANCH   3   5
HETATM    5  C   UNL     1      -9.085   8.218  66.450  1.00  0.00    -0.226 C  
HETATM    6  C   UNL     1      -9.950   9.379  65.988  1.00  0.00    -0.352 C  
HETATM    7  C   UNL     1      -8.522   9.234  65.473  1.00  0.00    -0.151 C  
HETATM    8  C   UNL     1      -8.373   8.909  64.008  1.00  0.00    -0.168 C  
HETATM    9  C   UNL     1      -7.417  10.126  65.995  1.00  0.00    -0.118 C  
BRANCH   6  10
HETATM   10  C   UNL     1     -10.324  10.395  66.996  1.00  0.00    -0.240 C  
HETATM   11  O   UNL     1      -9.912  10.316  68.140  1.00  0.00    -0.142 OA 
BRANCH  10  12
HETATM   12  O   UNL     1     -11.150  11.365  66.509  1.00  0.00    -0.292 OA 
BRANCH  12  13
HETATM   13  C   UNL     1     -10.581  12.653  66.146  1.00  0.00    -0.258 C  
HETATM   14  C   UNL     1      -9.255  12.939  66.840  1.00  0.00    -0.234 C  
HETATM   15  C   UNL     1      -9.681  13.923  67.888  1.00  0.00    -0.231 C  
HETATM   16  C   UNL     1     -11.037  14.463  67.607  1.00  0.00    -0.311 C  
HETATM   17  O   UNL     1      -8.977  14.287  68.819  1.00  0.00    -0.173 OA 
HETATM   18  C   UNL     1     -12.778  13.962  65.808  1.00  0.00    -0.503 C  
HETATM   19  C   UNL     1     -11.495  13.783  66.538  1.00  0.00    -0.364 C  
BRANCH  16  20
HETATM   20  C   UNL     1     -11.679  15.423  68.543  1.00  0.00    -0.355 C  
BRANCH  20  21
HETATM   21  C   UNL     1     -12.173  14.765  69.789  1.00  0.00    -0.337 C  
HETATM   22  C   UNL     1     -12.896  15.395  70.727  1.00  0.00    -0.524 C  
ENDBRANCH  20  21
ENDBRANCH  16  20
ENDBRANCH  12  13
ENDBRANCH  10  12
ENDBRANCH   6  10
ENDBRANCH   3   5
TORSDOF 6
ENDMDL
MODEL      165
REMARK 921   NORMALIZED FREE ENERGY PREDICTED BY IDOCK:   -3.74 KCAL/MOL
REMARK 922        TOTAL FREE ENERGY PREDICTED BY IDOCK:   -6.58 KCAL/MOL
REMARK 923 INTER-LIGAND FREE ENERGY PREDICTED BY IDOCK:   -6.07 KCAL/MOL
REMARK 924 INTRA-LIGAND FREE ENERGY PREDICTED BY IDOCK:   -0.51 KCAL/MOL
REMARK 927      BINDING AFFINITY PREDICTED BY RF-SCORE:    0.00 PKD
ROOT
HETATM    1  C   UNL     1     -11.049   9.482  71.175  1.00  0.00    -0.450 C  
HETATM    2  C   UNL     1     -11.000   8.104  70.577  1.00  0.00    -0.248 C  
HETATM    3  C   UNL     1     -10.211   7.801  69.528  1.00  0.00    -0.207 C  
HETATM    4  C   UNL     1     -11.848   7.040  71.210  1.00  0.00    -0.371 C  
ENDROOT
BRANCH   3   5
HETATM    5  C   UNL     1      -9.274   8.695  68.845  1.00  0.00    -0.145 C  
HETATM    6  C   UNL     1      -9.783   9.820  67.959  1.00  0.00    -0.165 C  
HETATM    7  C   UNL     1      -9.064   8.624  67.343  1.00  0.00    -0.148 C  
HETATM    8  C   UNL     1      -9.903   7.716  66.480  1.00  0.00    -0.242 C  
HETATM    9  C   UNL     1      -7.636   8.744  66.859  1.00  0.00    -0.090 C  
BRANCH   6  10
HETATM   10  C   UNL     1      -9.134  11.143  68.095  1.00  0.00    -0.159 C  
HETATM   11  O   UNL     1      -8.251  11.319  68.916  1.00  0.00    -0.141 OA 
BRANCH  10  12
HETATM   12  O   UNL     1      -9.633  12.083  67.243  1.00  0.00    -0.180 OA 
BRANCH  12  13
HETATM   13  C   UNL     1     -10.570  13.068  67.756  1.00  0.00    -0.226 C  
HETATM   14  C   UNL     1     -11.993  12.863  67.248  1.00  0.00    -0.371 C  
HETATM   15  C   UNL     1     -12.095  13.953  66.223  1.00  0.00    -0.451 C  
HETATM   16  C   UNL     1     -10.999  14.945  66.373  1.00  0.00    -0.336 C  
HETATM   17  O   UNL     1     -13.003  14.052  65.410  1.00  0.00    -0.726 OA 
HETATM   18  C   UNL     1      -8.965  15.082  67.911  1.00  0.00    -0.175 C  
HETATM   19  C   UNL     1     -10.186  14.461  67.332  1.00  0.00    -0.247 C  
BRANCH  16  20
HETATM   20  C   UNL     1     -10.878  16.090  65.432  1.00  0.00    -0.340 C  
BRANCH  20  21
HETATM   21  C   UNL     1     -10.177  17.260  66.041  1.00  0.00    -0.314 C  
HETATM   22  C   UNL     1     -10.606  18.526  65.928  1.00  0.00    -0.336 C  
ENDBRANCH  20  21
ENDBRANCH  16  20
ENDBRANCH  12  13
ENDBRANCH  10  12
ENDBRANCH   6  10
ENDBRANCH   3   5
TORSDOF 6
ENDMDL
MODEL      166
REMARK 921   NORMALIZED FREE ENERGY PREDICTED BY IDOCK:   -3.74 KCAL/MOL
REMARK 922        TOTAL FREE ENERGY PREDICTED BY IDOCK:   -6.57 KCAL/MOL
REMARK 923 INTER-LIGAND FREE ENERGY PREDICTED BY IDOCK:   -5.52 KCAL/MOL
REMARK 924 INTRA-LIGAND FREE ENERGY PREDICTED BY IDOCK:   -1.06 KCAL/MOL
REMARK 927      BINDING AFFINITY PREDICTED BY RF-SCORE:    0.00 PKD
ROOT
HETATM    1  C   UNL     1     -11.083  15.988  64.948  1.00  0.00    -0.381 C  
HETATM    2  C   UNL     1      -9.942  15.591  65.841  1.00  0.00    -0.377 C  
HETATM    3  C   UNL     1      -9.906  14.407  66.483  1.00  0.00    -0.298 C  
HETATM    4  C   UNL     1      -8.798  16.554  65.980  1.00  0.00    -0.267 C  
ENDROOT
BRANCH   3   5
HETATM    5  C   UNL     1     -10.895  13.331  66.398  1.00  0.00    -0.296 C  
HETATM    6  C   UNL     1     -10.468  11.876  66.497  1.00  0.00    -0.256 C  
HETATM    7  C   UNL     1     -10.988  12.435  65.176  1.00  0.00    -0.339 C  
HETATM    8  C   UNL     1      -9.984  12.537  64.056  1.00  0.00    -0.225 C  
HETATM    9  C   UNL     1     -12.383  12.104  64.691  1.00  0.00    -0.356 C  
BRANCH   6  10
HETATM   10  C   UNL     1     -11.283  10.981  67.348  1.00  0.00    -0.285 C  
HETATM   11  O   UNL     1     -12.224  11.419  67.986  1.00  0.00    -0.607 OA 
BRANCH  10  12
HETATM   12  O   UNL     1     -10.860   9.685  67.334  1.00  0.00    -0.274 OA 
BRANCH  12  13
HETATM   13  C   UNL     1     -10.781   8.960  68.592  1.00  0.00    -0.078 C  
HETATM   14  C   UNL     1      -9.847   9.614  69.603  1.00  0.00    -0.233 C  
HETATM   15  C   UNL     1      -8.651   8.712  69.520  1.00  0.00    -0.131 C  
HETATM   16  C   UNL     1      -8.978   7.439  68.827  1.00  0.00    -0.129 C  
HETATM   17  O   UNL     1      -7.563   8.962  70.019  1.00  0.00    -0.057 OA 
HETATM   18  C   UNL     1     -11.083   6.567  67.675  1.00  0.00    -0.380 C  
HETATM   19  C   UNL     1     -10.245   7.568  68.387  1.00  0.00    -0.211 C  
BRANCH  16  20
HETATM   20  C   UNL     1      -7.928   6.412  68.592  1.00  0.00    -0.106 C  
BRANCH  20  21
HETATM   21  C   UNL     1      -8.161   5.165  69.380  1.00  0.00    -0.087 C  
HETATM   22  C   UNL     1      -8.712   5.150  70.603  1.00  0.00    -0.142 C  
ENDBRANCH  20  21
ENDBRANCH  16  20
ENDBRANCH  12  13
ENDBRANCH  10  12
ENDBRANCH   6  10
ENDBRANCH   3   5
TORSDOF 6
ENDMDL
MODEL      167
REMARK 921   NORMALIZED FREE ENERGY PREDICTED BY IDOCK:   -3.74 KCAL/MOL
REMARK 922        TOTAL FREE ENERGY PREDICTED BY IDOCK:   -6.57 KCAL/MOL
REMARK 923 INTER-LIGAND FREE ENERGY PREDICTED BY IDOCK:   -6.08 KCAL/MOL
REMARK 924 INTRA-LIGAND FREE ENERGY PREDICTED BY IDOCK:   -0.49 KCAL/MOL
REMARK 927      BINDING AFFINITY PREDICTED BY RF-SCORE:    0.00 PKD
ROOT
HETATM    1  C   UNL     1      -8.000  10.298  65.191  1.00  0.00    -0.147 C  
HETATM    2  C   UNL     1      -9.002  10.802  64.191  1.00  0.00    -0.167 C  
HETATM    3  C   UNL     1      -9.989  11.657  64.525  1.00  0.00    -0.290 C  
HETATM    4  C   UNL     1      -8.855  10.345  62.768  1.00  0.00    -0.249 C  
ENDROOT
BRANCH   3   5
HETATM    5  C   UNL     1     -10.227  12.254  65.840  1.00  0.00    -0.274 C  
HETATM    6  C   UNL     1     -11.515  11.974  66.596  1.00  0.00    -0.411 C  
HETATM    7  C   UNL     1     -11.242  13.365  66.033  1.00  0.00    -0.310 C  
HETATM    8  C   UNL     1     -12.135  13.811  64.903  1.00  0.00    -0.428 C  
HETATM    9  C   UNL     1     -10.829  14.502  66.943  1.00  0.00    -0.305 C  
BRANCH   6  10
HETATM   10  C   UNL     1     -11.407  11.675  68.042  1.00  0.00    -0.296 C  
HETATM   11  O   UNL     1     -11.289  12.576  68.854  1.00  0.00    -0.258 OA 
BRANCH  10  12
HETATM   12  O   UNL     1     -11.443  10.342  68.325  1.00  0.00    -0.273 OA 
BRANCH  12  13
HETATM   13  C   UNL     1     -10.286   9.525  67.998  1.00  0.00    -0.214 C  
HETATM   14  C   UNL     1     -10.561   8.517  66.888  1.00  0.00    -0.279 C  
HETATM   15  C   UNL     1     -10.682   7.245  67.673  1.00  0.00    -0.224 C  
HETATM   16  C   UNL     1     -10.154   7.405  69.052  1.00  0.00    -0.193 C  
HETATM   17  O   UNL     1     -11.098   6.190  67.216  1.00  0.00    -0.333 OA 
HETATM   18  C   UNL     1      -9.226   9.401  70.346  1.00  0.00    -0.305 C  
HETATM   19  C   UNL     1      -9.841   8.709  69.183  1.00  0.00    -0.185 C  
BRANCH  16  20
HETATM   20  C   UNL     1     -10.215   6.281  70.023  1.00  0.00    -0.237 C  
BRANCH  20  21
HETATM   21  C   UNL     1     -11.108   6.575  71.184  1.00  0.00    -0.332 C  
HETATM   22  C   UNL     1     -12.236   7.295  71.091  1.00  0.00    -0.376 C  
ENDBRANCH  20  21
ENDBRANCH  16  20
ENDBRANCH  12  13
ENDBRANCH  10  12
ENDBRANCH   6  10
ENDBRANCH   3   5
TORSDOF 6
ENDMDL
MODEL      168
REMARK 921   NORMALIZED FREE ENERGY PREDICTED BY IDOCK:   -3.74 KCAL/MOL
REMARK 922        TOTAL FREE ENERGY PREDICTED BY IDOCK:   -6.57 KCAL/MOL
REMARK 923 INTER-LIGAND FREE ENERGY PREDICTED BY IDOCK:   -6.13 KCAL/MOL
REMARK 924 INTRA-LIGAND FREE ENERGY PREDICTED BY IDOCK:   -0.43 KCAL/MOL
REMARK 927      BINDING AFFINITY PREDICTED BY RF-SCORE:    0.00 PKD
ROOT
HETATM    1  C   UNL     1     -13.681  13.063  72.192  1.00  0.00    -0.547 C  
HETATM    2  C   UNL     1     -12.927  14.351  72.018  1.00  0.00    -0.432 C  
HETATM    3  C   UNL     1     -12.267  14.654  70.883  1.00  0.00    -0.391 C  
HETATM    4  C   UNL     1     -12.952  15.331  73.155  1.00  0.00    -0.625 C  
ENDROOT
BRANCH   3   5
HETATM    5  C   UNL     1     -12.205  13.849  69.661  1.00  0.00    -0.374 C  
HETATM    6  C   UNL     1     -11.042  12.903  69.416  1.00  0.00    -0.131 C  
HETATM    7  C   UNL     1     -11.205  14.155  68.561  1.00  0.00    -0.285 C  
HETATM    8  C   UNL     1     -10.153  15.222  68.738  1.00  0.00    -0.219 C  
HETATM    9  C   UNL     1     -11.719  14.063  67.141  1.00  0.00    -0.421 C  
BRANCH   6  10
HETATM   10  C   UNL     1     -11.357  11.552  68.900  1.00  0.00    -0.268 C  
HETATM   11  O   UNL     1     -12.283  11.385  68.125  1.00  0.00    -0.602 OA 
BRANCH  10  12
HETATM   12  O   UNL     1     -10.535  10.579  69.385  1.00  0.00    -0.218 OA 
BRANCH  12  13
HETATM   13  C   UNL     1      -9.261  10.345  68.727  1.00  0.00    -0.172 C  
HETATM   14  C   UNL     1      -9.187  10.955  67.331  1.00  0.00    -0.155 C  
HETATM   15  C   UNL     1      -9.350   9.736  66.473  1.00  0.00    -0.162 C  
HETATM   16  C   UNL     1      -9.152   8.489  67.256  1.00  0.00    -0.152 C  
HETATM   17  O   UNL     1      -9.551   9.763  65.267  1.00  0.00    -0.269 OA 
HETATM   18  C   UNL     1      -8.727   8.030  69.732  1.00  0.00    -0.136 C  
HETATM   19  C   UNL     1      -9.005   8.873  68.539  1.00  0.00    -0.134 C  
BRANCH  16  20
HETATM   20  C   UNL     1      -9.311   7.157  66.615  1.00  0.00    -0.207 C  
BRANCH  20  21
HETATM   21  C   UNL     1      -8.054   6.682  65.962  1.00  0.00    -0.122 C  
HETATM   22  C   UNL     1      -7.985   5.588  65.189  1.00  0.00    -0.110 C  
ENDBRANCH  20  21
ENDBRANCH  16  20
ENDBRANCH  12  13
ENDBRANCH  10  12
ENDBRANCH   6  10
ENDBRANCH   3   5
TORSDOF 6
ENDMDL
MODEL      169
REMARK 921   NORMALIZED FREE ENERGY PREDICTED BY IDOCK:   -3.73 KCAL/MOL
REMARK 922        TOTAL FREE ENERGY PREDICTED BY IDOCK:   -6.56 KCAL/MOL
REMARK 923 INTER-LIGAND FREE ENERGY PREDICTED BY IDOCK:   -6.26 KCAL/MOL
REMARK 924 INTRA-LIGAND FREE ENERGY PREDICTED BY IDOCK:   -0.31 KCAL/MOL
REMARK 927      BINDING AFFINITY PREDICTED BY RF-SCORE:    0.00 PKD
ROOT
HETATM    1  C   UNL     1     -12.174  14.490  70.924  1.00  0.00    -0.409 C  
HETATM    2  C   UNL     1     -13.217  13.723  71.688  1.00  0.00    -0.450 C  
HETATM    3  C   UNL     1     -13.218  12.378  71.757  1.00  0.00    -0.435 C  
HETATM    4  C   UNL     1     -14.265  14.513  72.418  1.00  0.00    -0.470 C  
ENDROOT
BRANCH   3   5
HETATM    5  C   UNL     1     -12.234  11.467  71.170  1.00  0.00    -0.330 C  
HETATM    6  C   UNL     1     -12.597  10.595  69.980  1.00  0.00    -0.232 C  
HETATM    7  C   UNL     1     -12.343   9.963  71.344  1.00  0.00    -0.498 C  
HETATM    8  C   UNL     1     -13.539   9.342  72.022  1.00  0.00    -0.519 C  
HETATM    9  C   UNL     1     -11.054   9.224  71.628  1.00  0.00    -0.438 C  
BRANCH   6  10
HETATM   10  C   UNL     1     -11.616  10.504  68.875  1.00  0.00    -0.196 C  
HETATM   11  O   UNL     1     -11.848  11.019  67.796  1.00  0.00    -0.605 OA 
BRANCH  10  12
HETATM   12  O   UNL     1     -10.495   9.800  69.201  1.00  0.00    -0.197 OA 
BRANCH  12  13
HETATM   13  C   UNL     1      -9.798   9.069  68.157  1.00  0.00    -0.166 C  
HETATM   14  C   UNL     1     -10.678   8.041  67.456  1.00  0.00    -0.238 C  
HETATM   15  C   UNL     1     -10.178   6.765  68.067  1.00  0.00    -0.171 C  
HETATM   16  C   UNL     1      -8.882   6.968  68.764  1.00  0.00    -0.129 C  
HETATM   17  O   UNL     1     -10.731   5.681  67.948  1.00  0.00    -0.223 OA 
HETATM   18  C   UNL     1      -7.447   9.030  69.218  1.00  0.00    -0.075 C  
HETATM   19  C   UNL     1      -8.636   8.292  68.717  1.00  0.00    -0.133 C  
BRANCH  16  20
HETATM   20  C   UNL     1      -8.223   5.845  69.482  1.00  0.00    -0.113 C  
BRANCH  20  21
HETATM   21  C   UNL     1      -8.606   5.784  70.924  1.00  0.00    -0.130 C  
HETATM   22  C   UNL     1      -8.169   6.654  71.847  1.00  0.00    -0.103 C  
ENDBRANCH  20  21
ENDBRANCH  16  20
ENDBRANCH  12  13
ENDBRANCH  10  12
ENDBRANCH   6  10
ENDBRANCH   3   5
TORSDOF 6
ENDMDL
MODEL      170
REMARK 921   NORMALIZED FREE ENERGY PREDICTED BY IDOCK:   -3.73 KCAL/MOL
REMARK 922        TOTAL FREE ENERGY PREDICTED BY IDOCK:   -6.56 KCAL/MOL
REMARK 923 INTER-LIGAND FREE ENERGY PREDICTED BY IDOCK:   -4.55 KCAL/MOL
REMARK 924 INTRA-LIGAND FREE ENERGY PREDICTED BY IDOCK:   -2.01 KCAL/MOL
REMARK 927      BINDING AFFINITY PREDICTED BY RF-SCORE:    0.00 PKD
ROOT
HETATM    1  C   UNL     1      -9.193   4.042  69.547  1.00  0.00    -0.220 C  
HETATM    2  C   UNL     1      -8.603   5.020  68.569  1.00  0.00    -0.097 C  
HETATM    3  C   UNL     1      -8.838   6.344  68.642  1.00  0.00    -0.120 C  
HETATM    4  C   UNL     1      -7.699   4.476  67.502  1.00  0.00    -0.085 C  
ENDROOT
BRANCH   3   5
HETATM    5  C   UNL     1      -9.630   7.042  69.657  1.00  0.00    -0.150 C  
HETATM    6  C   UNL     1     -11.149   7.007  69.614  1.00  0.00    -0.254 C  
HETATM    7  C   UNL     1     -10.403   8.306  69.327  1.00  0.00    -0.223 C  
HETATM    8  C   UNL     1     -10.487   8.823  67.913  1.00  0.00    -0.275 C  
HETATM    9  C   UNL     1     -10.350   9.413  70.358  1.00  0.00    -0.318 C  
BRANCH   6  10
HETATM   10  C   UNL     1     -11.863   6.775  70.889  1.00  0.00    -0.385 C  
HETATM   11  O   UNL     1     -12.797   7.487  71.216  1.00  0.00    -0.334 OA 
BRANCH  10  12
HETATM   12  O   UNL     1     -11.361   5.733  71.611  1.00  0.00    -0.242 OA 
BRANCH  12  13
HETATM   13  C   UNL     1     -10.884   5.980  72.961  1.00  0.00    -0.260 C  
HETATM   14  C   UNL     1     -10.665   7.459  73.257  1.00  0.00    -0.441 C  
HETATM   15  C   UNL     1      -9.170   7.552  73.188  1.00  0.00    -0.193 C  
HETATM   16  C   UNL     1      -8.539   6.207  73.231  1.00  0.00    -0.123 C  
HETATM   17  O   UNL     1      -8.544   8.602  73.167  1.00  0.00    -0.393 OA 
HETATM   18  C   UNL     1      -9.484   3.835  73.273  1.00  0.00    -0.126 C  
HETATM   19  C   UNL     1      -9.552   5.319  73.199  1.00  0.00    -0.157 C  
BRANCH  16  20
HETATM   20  C   UNL     1      -7.063   6.058  73.130  1.00  0.00    -0.085 C  
BRANCH  20  21
HETATM   21  C   UNL     1      -6.580   6.097  71.717  1.00  0.00    -0.055 C  
HETATM   22  C   UNL     1      -5.757   5.180  71.187  1.00  0.00    -0.012 C  
ENDBRANCH  20  21
ENDBRANCH  16  20
ENDBRANCH  12  13
ENDBRANCH  10  12
ENDBRANCH   6  10
ENDBRANCH   3   5
TORSDOF 6
ENDMDL
MODEL      171
REMARK 921   NORMALIZED FREE ENERGY PREDICTED BY IDOCK:   -3.73 KCAL/MOL
REMARK 922        TOTAL FREE ENERGY PREDICTED BY IDOCK:   -6.55 KCAL/MOL
REMARK 923 INTER-LIGAND FREE ENERGY PREDICTED BY IDOCK:   -5.52 KCAL/MOL
REMARK 924 INTRA-LIGAND FREE ENERGY PREDICTED BY IDOCK:   -1.03 KCAL/MOL
REMARK 927      BINDING AFFINITY PREDICTED BY RF-SCORE:    0.00 PKD
ROOT
HETATM    1  C   UNL     1      -9.456  16.557  65.713  1.00  0.00    -0.149 C  
HETATM    2  C   UNL     1     -10.487  15.557  65.270  1.00  0.00    -0.437 C  
HETATM    3  C   UNL     1     -10.447  14.264  65.648  1.00  0.00    -0.336 C  
HETATM    4  C   UNL     1     -11.607  16.050  64.402  1.00  0.00    -0.212 C  
ENDROOT
BRANCH   3   5
HETATM    5  C   UNL     1      -9.472  13.640  66.545  1.00  0.00    -0.270 C  
HETATM    6  C   UNL     1      -9.896  12.543  67.507  1.00  0.00    -0.198 C  
HETATM    7  C   UNL     1      -9.483  13.912  68.038  1.00  0.00    -0.208 C  
HETATM    8  C   UNL     1     -10.574  14.736  68.674  1.00  0.00    -0.255 C  
HETATM    9  C   UNL     1      -8.134  14.113  68.694  1.00  0.00    -0.126 C  
BRANCH   6  10
HETATM   10  C   UNL     1      -9.018  11.357  67.621  1.00  0.00    -0.140 C  
HETATM   11  O   UNL     1      -8.307  11.021  66.691  1.00  0.00    -0.144 OA 
BRANCH  10  12
HETATM   12  O   UNL     1      -9.114  10.723  68.824  1.00  0.00    -0.165 OA 
BRANCH  12  13
HETATM   13  C   UNL     1     -10.133   9.701  68.999  1.00  0.00    -0.186 C  
HETATM   14  C   UNL     1     -11.458  10.258  69.508  1.00  0.00    -0.273 C  
HETATM   15  C   UNL     1     -11.417   9.834  70.946  1.00  0.00    -0.369 C  
HETATM   16  C   UNL     1     -10.371   8.804  71.180  1.00  0.00    -0.315 C  
HETATM   17  O   UNL     1     -12.191  10.233  71.805  1.00  0.00    -0.351 OA 
HETATM   18  C   UNL     1      -8.600   7.742  69.680  1.00  0.00    -0.135 C  
HETATM   19  C   UNL     1      -9.708   8.675  70.015  1.00  0.00    -0.176 C  
BRANCH  16  20
HETATM   20  C   UNL     1     -10.124   8.272  72.546  1.00  0.00    -0.376 C  
BRANCH  20  21
HETATM   21  C   UNL     1     -10.991   7.098  72.869  1.00  0.00    -0.359 C  
HETATM   22  C   UNL     1     -11.219   6.086  72.019  1.00  0.00    -0.341 C  
ENDBRANCH  20  21
ENDBRANCH  16  20
ENDBRANCH  12  13
ENDBRANCH  10  12
ENDBRANCH   6  10
ENDBRANCH   3   5
TORSDOF 6
ENDMDL
MODEL      172
REMARK 921   NORMALIZED FREE ENERGY PREDICTED BY IDOCK:   -3.72 KCAL/MOL
REMARK 922        TOTAL FREE ENERGY PREDICTED BY IDOCK:   -6.54 KCAL/MOL
REMARK 923 INTER-LIGAND FREE ENERGY PREDICTED BY IDOCK:   -5.30 KCAL/MOL
REMARK 924 INTRA-LIGAND FREE ENERGY PREDICTED BY IDOCK:   -1.25 KCAL/MOL
REMARK 927      BINDING AFFINITY PREDICTED BY RF-SCORE:    0.00 PKD
ROOT
HETATM    1  C   UNL     1     -13.387  15.739  71.167  1.00  0.00    -0.225 C  
HETATM    2  C   UNL     1     -12.907  14.331  71.380  1.00  0.00    -0.415 C  
HETATM    3  C   UNL     1     -12.318  13.614  70.404  1.00  0.00    -0.415 C  
HETATM    4  C   UNL     1     -13.076  13.738  72.749  1.00  0.00    -0.432 C  
ENDROOT
BRANCH   3   5
HETATM    5  C   UNL     1     -12.012  14.064  69.045  1.00  0.00    -0.392 C  
HETATM    6  C   UNL     1     -10.843  13.470  68.276  1.00  0.00    -0.277 C  
HETATM    7  C   UNL     1     -10.793  14.919  68.749  1.00  0.00    -0.254 C  
HETATM    8  C   UNL     1      -9.782  15.234  69.823  1.00  0.00    -0.167 C  
HETATM    9  C   UNL     1     -10.993  16.059  67.775  1.00  0.00    -0.307 C  
BRANCH   6  10
HETATM   10  C   UNL     1     -11.069  13.112  66.858  1.00  0.00    -0.282 C  
HETATM   11  O   UNL     1     -12.119  13.393  66.308  1.00  0.00    -0.403 OA 
BRANCH  10  12
HETATM   12  O   UNL     1     -10.018  12.457  66.289  1.00  0.00    -0.235 OA 
BRANCH  12  13
HETATM   13  C   UNL     1      -9.131  11.681  67.140  1.00  0.00    -0.171 C  
HETATM   14  C   UNL     1      -7.655  11.938  66.859  1.00  0.00    -0.093 C  
HETATM   15  C   UNL     1      -7.284  10.700  66.099  1.00  0.00    -0.138 C  
HETATM   16  C   UNL     1      -8.318   9.642  66.244  1.00  0.00    -0.117 C  
HETATM   17  O   UNL     1      -6.233  10.552  65.493  1.00  0.00    -0.117 OA 
HETATM   18  C   UNL     1     -10.594   9.573  67.399  1.00  0.00    -0.337 C  
HETATM   19  C   UNL     1      -9.331  10.203  66.933  1.00  0.00    -0.185 C  
BRANCH  16  20
HETATM   20  C   UNL     1      -8.178   8.342  65.537  1.00  0.00    -0.138 C  
BRANCH  20  21
HETATM   21  C   UNL     1      -7.430   7.330  66.343  1.00  0.00    -0.084 C  
HETATM   22  C   UNL     1      -7.757   6.990  67.599  1.00  0.00    -0.112 C  
ENDBRANCH  20  21
ENDBRANCH  16  20
ENDBRANCH  12  13
ENDBRANCH  10  12
ENDBRANCH   6  10
ENDBRANCH   3   5
TORSDOF 6
ENDMDL
MODEL      173
REMARK 921   NORMALIZED FREE ENERGY PREDICTED BY IDOCK:   -3.71 KCAL/MOL
REMARK 922        TOTAL FREE ENERGY PREDICTED BY IDOCK:   -6.53 KCAL/MOL
REMARK 923 INTER-LIGAND FREE ENERGY PREDICTED BY IDOCK:   -5.68 KCAL/MOL
REMARK 924 INTRA-LIGAND FREE ENERGY PREDICTED BY IDOCK:   -0.85 KCAL/MOL
REMARK 927      BINDING AFFINITY PREDICTED BY RF-SCORE:    0.00 PKD
ROOT
HETATM    1  C   UNL     1     -12.731  13.598  70.501  1.00  0.00    -0.260 C  
HETATM    2  C   UNL     1     -11.745  14.641  70.053  1.00  0.00    -0.348 C  
HETATM    3  C   UNL     1     -11.344  14.752  68.772  1.00  0.00    -0.301 C  
HETATM    4  C   UNL     1     -11.230  15.601  71.087  1.00  0.00    -0.409 C  
ENDROOT
BRANCH   3   5
HETATM    5  C   UNL     1     -11.802  13.952  67.635  1.00  0.00    -0.422 C  
HETATM    6  C   UNL     1     -10.806  13.218  66.753  1.00  0.00    -0.289 C  
HETATM    7  C   UNL     1     -11.583  14.410  66.205  1.00  0.00    -0.372 C  
HETATM    8  C   UNL     1     -10.776  15.646  65.896  1.00  0.00    -0.336 C  
HETATM    9  C   UNL     1     -12.740  14.208  65.251  1.00  0.00    -0.425 C  
BRANCH   6  10
HETATM   10  C   UNL     1     -11.128  11.826  66.370  1.00  0.00    -0.307 C  
HETATM   11  O   UNL     1     -10.795  11.388  65.283  1.00  0.00    -0.284 OA 
BRANCH  10  12
HETATM   12  O   UNL     1     -11.814  11.143  67.331  1.00  0.00    -0.570 OA 
BRANCH  12  13
HETATM   13  C   UNL     1     -11.070  10.340  68.287  1.00  0.00    -0.254 C  
HETATM   14  C   UNL     1     -10.102  11.159  69.132  1.00  0.00    -0.134 C  
HETATM   15  C   UNL     1      -8.791  10.811  68.492  1.00  0.00    -0.149 C  
HETATM   16  C   UNL     1      -8.914   9.619  67.615  1.00  0.00    -0.131 C  
HETATM   17  O   UNL     1      -7.738  11.392  68.717  1.00  0.00    -0.132 OA 
HETATM   18  C   UNL     1     -10.892   8.167  66.907  1.00  0.00    -0.007 C  
HETATM   19  C   UNL     1     -10.224   9.307  67.591  1.00  0.00    -0.285 C  
BRANCH  16  20
HETATM   20  C   UNL     1      -7.745   9.121  66.842  1.00  0.00    -0.098 C  
BRANCH  20  21
HETATM   21  C   UNL     1      -6.882   8.199  67.640  1.00  0.00    -0.070 C  
HETATM   22  C   UNL     1      -7.341   7.102  68.262  1.00  0.00    -0.100 C  
ENDBRANCH  20  21
ENDBRANCH  16  20
ENDBRANCH  12  13
ENDBRANCH  10  12
ENDBRANCH   6  10
ENDBRANCH   3   5
TORSDOF 6
ENDMDL
MODEL      174
REMARK 921   NORMALIZED FREE ENERGY PREDICTED BY IDOCK:   -3.71 KCAL/MOL
REMARK 922        TOTAL FREE ENERGY PREDICTED BY IDOCK:   -6.53 KCAL/MOL
REMARK 923 INTER-LIGAND FREE ENERGY PREDICTED BY IDOCK:   -5.24 KCAL/MOL
REMARK 924 INTRA-LIGAND FREE ENERGY PREDICTED BY IDOCK:   -1.29 KCAL/MOL
REMARK 927      BINDING AFFINITY PREDICTED BY RF-SCORE:    0.00 PKD
ROOT
HETATM    1  C   UNL     1      -8.072   8.099  65.010  1.00  0.00    -0.155 C  
HETATM    2  C   UNL     1      -7.241   8.136  66.261  1.00  0.00    -0.078 C  
HETATM    3  C   UNL     1      -7.717   7.734  67.456  1.00  0.00    -0.117 C  
HETATM    4  C   UNL     1      -5.822   8.612  66.141  1.00  0.00    -0.047 C  
ENDROOT
BRANCH   3   5
HETATM    5  C   UNL     1      -9.043   7.177  67.732  1.00  0.00    -0.127 C  
HETATM    6  C   UNL     1      -9.348   6.529  69.072  1.00  0.00    -0.128 C  
HETATM    7  C   UNL     1      -9.272   5.679  67.808  1.00  0.00    -0.106 C  
HETATM    8  C   UNL     1      -8.121   4.708  67.728  1.00  0.00    -0.096 C  
HETATM    9  C   UNL     1     -10.530   5.157  67.149  1.00  0.00    -0.224 C  
BRANCH   6  10
HETATM   10  C   UNL     1     -10.637   6.868  69.716  1.00  0.00    -0.233 C  
HETATM   11  O   UNL     1     -11.254   6.028  70.346  1.00  0.00    -0.337 OA 
BRANCH  10  12
HETATM   12  O   UNL     1     -11.022   8.160  69.514  1.00  0.00    -0.176 OA 
BRANCH  12  13
HETATM   13  C   UNL     1     -10.577   9.179  70.450  1.00  0.00    -0.230 C  
HETATM   14  C   UNL     1     -11.490   9.319  71.662  1.00  0.00    -0.468 C  
HETATM   15  C   UNL     1     -12.228  10.581  71.326  1.00  0.00    -0.368 C  
HETATM   16  C   UNL     1     -11.560  11.325  70.227  1.00  0.00    -0.366 C  
HETATM   17  O   UNL     1     -13.215  10.983  71.925  1.00  0.00    -0.473 OA 
HETATM   18  C   UNL     1      -9.532  10.823  68.759  1.00  0.00    -0.187 C  
HETATM   19  C   UNL     1     -10.550  10.539  69.804  1.00  0.00    -0.274 C  
BRANCH  16  20
HETATM   20  C   UNL     1     -12.145  12.586  69.700  1.00  0.00    -0.272 C  
BRANCH  20  21
HETATM   21  C   UNL     1     -12.099  13.699  70.695  1.00  0.00    -0.398 C  
HETATM   22  C   UNL     1     -12.912  14.765  70.657  1.00  0.00    -0.376 C  
ENDBRANCH  20  21
ENDBRANCH  16  20
ENDBRANCH  12  13
ENDBRANCH  10  12
ENDBRANCH   6  10
ENDBRANCH   3   5
TORSDOF 6
ENDMDL
MODEL      175
REMARK 921   NORMALIZED FREE ENERGY PREDICTED BY IDOCK:   -3.70 KCAL/MOL
REMARK 922        TOTAL FREE ENERGY PREDICTED BY IDOCK:   -6.52 KCAL/MOL
REMARK 923 INTER-LIGAND FREE ENERGY PREDICTED BY IDOCK:   -5.65 KCAL/MOL
REMARK 924 INTRA-LIGAND FREE ENERGY PREDICTED BY IDOCK:   -0.88 KCAL/MOL
REMARK 927      BINDING AFFINITY PREDICTED BY RF-SCORE:    0.00 PKD
ROOT
HETATM    1  C   UNL     1     -13.552  13.239  72.242  1.00  0.00    -0.703 C  
HETATM    2  C   UNL     1     -13.343  14.690  71.909  1.00  0.00    -0.453 C  
HETATM    3  C   UNL     1     -12.911  15.097  70.699  1.00  0.00    -0.440 C  
HETATM    4  C   UNL     1     -13.664  15.702  72.970  1.00  0.00    -0.560 C  
ENDROOT
BRANCH   3   5
HETATM    5  C   UNL     1     -12.625  14.253  69.538  1.00  0.00    -0.026 C  
HETATM    6  C   UNL     1     -11.295  13.527  69.416  1.00  0.00    -0.293 C  
HETATM    7  C   UNL     1     -11.630  14.680  68.474  1.00  0.00    -0.346 C  
HETATM    8  C   UNL     1     -10.804  15.931  68.636  1.00  0.00    -0.291 C  
HETATM    9  C   UNL     1     -12.027  14.416  67.038  1.00  0.00    -0.424 C  
BRANCH   6  10
HETATM   10  C   UNL     1     -11.326  12.115  68.973  1.00  0.00    -0.276 C  
HETATM   11  O   UNL     1     -12.232  11.705  68.269  1.00  0.00    -0.525 OA 
BRANCH  10  12
HETATM   12  O   UNL     1     -10.277  11.378  69.438  1.00  0.00    -0.063 OA 
BRANCH  12  13
HETATM   13  C   UNL     1      -9.337  10.816  68.483  1.00  0.00    -0.174 C  
HETATM   14  C   UNL     1      -8.715   9.507  68.955  1.00  0.00    -0.133 C  
HETATM   15  C   UNL     1      -7.345   9.965  69.360  1.00  0.00    -0.091 C  
HETATM   16  C   UNL     1      -7.047  11.320  68.828  1.00  0.00    -0.096 C  
HETATM   17  O   UNL     1      -6.548   9.285  69.989  1.00  0.00    -0.044 OA 
HETATM   18  C   UNL     1      -8.419  13.019  67.505  1.00  0.00    -0.190 C  
HETATM   19  C   UNL     1      -8.181  11.749  68.241  1.00  0.00    -0.157 C  
BRANCH  16  20
HETATM   20  C   UNL     1      -5.759  11.993  69.145  1.00  0.00    -0.064 C  
BRANCH  20  21
HETATM   21  C   UNL     1      -5.858  12.887  70.337  1.00  0.00    -0.152 C  
HETATM   22  C   UNL     1      -5.857  14.226  70.265  1.00  0.00    -0.146 C  
ENDBRANCH  20  21
ENDBRANCH  16  20
ENDBRANCH  12  13
ENDBRANCH  10  12
ENDBRANCH   6  10
ENDBRANCH   3   5
TORSDOF 6
ENDMDL
MODEL      176
REMARK 921   NORMALIZED FREE ENERGY PREDICTED BY IDOCK:   -3.70 KCAL/MOL
REMARK 922        TOTAL FREE ENERGY PREDICTED BY IDOCK:   -6.52 KCAL/MOL
REMARK 923 INTER-LIGAND FREE ENERGY PREDICTED BY IDOCK:   -5.28 KCAL/MOL
REMARK 924 INTRA-LIGAND FREE ENERGY PREDICTED BY IDOCK:   -1.24 KCAL/MOL
REMARK 927      BINDING AFFINITY PREDICTED BY RF-SCORE:    0.00 PKD
ROOT
HETATM    1  C   UNL     1     -11.802  10.742  70.517  1.00  0.00    -0.453 C  
HETATM    2  C   UNL     1     -12.409   9.820  71.536  1.00  0.00    -0.495 C  
HETATM    3  C   UNL     1     -11.704   8.838  72.132  1.00  0.00    -0.433 C  
HETATM    4  C   UNL     1     -13.847  10.042  71.908  1.00  0.00    -0.121 C  
ENDROOT
BRANCH   3   5
HETATM    5  C   UNL     1     -10.284   8.535  71.941  1.00  0.00    -0.369 C  
HETATM    6  C   UNL     1      -9.843   7.163  71.462  1.00  0.00    -0.176 C  
HETATM    7  C   UNL     1      -9.537   7.613  72.887  1.00  0.00    -0.274 C  
HETATM    8  C   UNL     1     -10.257   6.873  73.986  1.00  0.00    -0.384 C  
HETATM    9  C   UNL     1      -8.141   8.042  73.281  1.00  0.00    -0.240 C  
BRANCH   6  10
HETATM   10  C   UNL     1      -8.800   7.108  70.413  1.00  0.00    -0.151 C  
HETATM   11  O   UNL     1      -8.073   6.136  70.312  1.00  0.00    -0.108 OA 
BRANCH  10  12
HETATM   12  O   UNL     1      -8.755   8.225  69.633  1.00  0.00    -0.135 OA 
BRANCH  12  13
HETATM   13  C   UNL     1      -9.751   8.390  68.587  1.00  0.00    -0.164 C  
HETATM   14  C   UNL     1      -9.994   7.117  67.785  1.00  0.00    -0.192 C  
HETATM   15  C   UNL     1      -9.256   7.427  66.516  1.00  0.00    -0.165 C  
HETATM   16  C   UNL     1      -8.937   8.875  66.414  1.00  0.00    -0.193 C  
HETATM   17  O   UNL     1      -9.010   6.607  65.644  1.00  0.00    -0.093 OA 
HETATM   18  C   UNL     1      -9.277  10.855  67.990  1.00  0.00    -0.156 C  
HETATM   19  C   UNL     1      -9.321   9.426  67.582  1.00  0.00    -0.146 C  
BRANCH  16  20
HETATM   20  C   UNL     1      -8.167   9.401  65.256  1.00  0.00    -0.133 C  
BRANCH  20  21
HETATM   21  C   UNL     1      -9.051   9.875  64.149  1.00  0.00    -0.294 C  
HETATM   22  C   UNL     1     -10.023  10.785  64.312  1.00  0.00    -0.403 C  
ENDBRANCH  20  21
ENDBRANCH  16  20
ENDBRANCH  12  13
ENDBRANCH  10  12
ENDBRANCH   6  10
ENDBRANCH   3   5
TORSDOF 6
ENDMDL
MODEL      177
REMARK 921   NORMALIZED FREE ENERGY PREDICTED BY IDOCK:   -3.69 KCAL/MOL
REMARK 922        TOTAL FREE ENERGY PREDICTED BY IDOCK:   -6.51 KCAL/MOL
REMARK 923 INTER-LIGAND FREE ENERGY PREDICTED BY IDOCK:   -4.86 KCAL/MOL
REMARK 924 INTRA-LIGAND FREE ENERGY PREDICTED BY IDOCK:   -1.65 KCAL/MOL
REMARK 927      BINDING AFFINITY PREDICTED BY RF-SCORE:    0.00 PKD
ROOT
HETATM    1  C   UNL     1     -11.856   8.107  72.562  1.00  0.00    -0.438 C  
HETATM    2  C   UNL     1     -11.947   9.363  71.741  1.00  0.00    -0.452 C  
HETATM    3  C   UNL     1     -10.922   9.809  70.990  1.00  0.00    -0.402 C  
HETATM    4  C   UNL     1     -13.250  10.109  71.751  1.00  0.00    -0.542 C  
ENDROOT
BRANCH   3   5
HETATM    5  C   UNL     1      -9.619   9.167  70.810  1.00  0.00    -0.338 C  
HETATM    6  C   UNL     1      -8.798   9.418  69.556  1.00  0.00    -0.165 C  
HETATM    7  C   UNL     1      -9.420   8.048  69.804  1.00  0.00    -0.159 C  
HETATM    8  C   UNL     1     -10.525   7.639  68.863  1.00  0.00    -0.211 C  
HETATM    9  C   UNL     1      -8.569   6.881  70.257  1.00  0.00    -0.140 C  
BRANCH   6  10
HETATM   10  C   UNL     1      -7.349   9.667  69.727  1.00  0.00    -0.104 C  
HETATM   11  O   UNL     1      -6.943  10.363  70.640  1.00  0.00    -0.324 OA 
BRANCH  10  12
HETATM   12  O   UNL     1      -6.578   9.062  68.779  1.00  0.00    -0.052 OA 
BRANCH  12  13
HETATM   13  C   UNL     1      -6.196   9.819  67.598  1.00  0.00    -0.056 C  
HETATM   14  C   UNL     1      -6.135  11.322  67.844  1.00  0.00    -0.050 C  
HETATM   15  C   UNL     1      -7.401  11.777  67.182  1.00  0.00    -0.146 C  
HETATM   16  C   UNL     1      -7.963  10.721  66.300  1.00  0.00    -0.160 C  
HETATM   17  O   UNL     1      -7.875  12.898  67.297  1.00  0.00    -0.167 OA 
HETATM   18  C   UNL     1      -7.280   8.310  65.808  1.00  0.00    -0.072 C  
HETATM   19  C   UNL     1      -7.192   9.632  66.484  1.00  0.00    -0.090 C  
BRANCH  16  20
HETATM   20  C   UNL     1      -9.244  10.939  65.576  1.00  0.00    -0.232 C  
BRANCH  20  21
HETATM   21  C   UNL     1     -10.409  10.317  66.274  1.00  0.00    -0.256 C  
HETATM   22  C   UNL     1     -11.150  10.951  67.195  1.00  0.00    -0.308 C  
ENDBRANCH  20  21
ENDBRANCH  16  20
ENDBRANCH  12  13
ENDBRANCH  10  12
ENDBRANCH   6  10
ENDBRANCH   3   5
TORSDOF 6
ENDMDL
MODEL      178
REMARK 921   NORMALIZED FREE ENERGY PREDICTED BY IDOCK:   -3.69 KCAL/MOL
REMARK 922        TOTAL FREE ENERGY PREDICTED BY IDOCK:   -6.50 KCAL/MOL
REMARK 923 INTER-LIGAND FREE ENERGY PREDICTED BY IDOCK:   -5.58 KCAL/MOL
REMARK 924 INTRA-LIGAND FREE ENERGY PREDICTED BY IDOCK:   -0.92 KCAL/MOL
REMARK 927      BINDING AFFINITY PREDICTED BY RF-SCORE:    0.00 PKD
ROOT
HETATM    1  C   UNL     1     -11.694  15.768  70.589  1.00  0.00    -0.412 C  
HETATM    2  C   UNL     1     -12.473  14.777  71.408  1.00  0.00    -0.401 C  
HETATM    3  C   UNL     1     -12.447  13.454  71.156  1.00  0.00    -0.414 C  
HETATM    4  C   UNL     1     -13.276  15.306  72.561  1.00  0.00    -0.527 C  
ENDROOT
BRANCH   3   5
HETATM    5  C   UNL     1     -11.664  12.770  70.126  1.00  0.00    -0.239 C  
HETATM    6  C   UNL     1     -12.328  12.260  68.858  1.00  0.00     0.205 C  
HETATM    7  C   UNL     1     -11.793  11.276  69.893  1.00  0.00    -0.436 C  
HETATM    8  C   UNL     1     -12.825  10.459  70.629  1.00  0.00    -0.393 C  
HETATM    9  C   UNL     1     -10.506  10.520  69.650  1.00  0.00    -0.257 C  
BRANCH   6  10
HETATM   10  C   UNL     1     -11.633  12.508  67.575  1.00  0.00    -0.361 C  
HETATM   11  O   UNL     1     -12.133  12.155  66.521  1.00  0.00    -0.627 OA 
BRANCH  10  12
HETATM   12  O   UNL     1     -10.430  13.132  67.721  1.00  0.00    -0.222 OA 
BRANCH  12  13
HETATM   13  C   UNL     1      -9.395  12.900  66.726  1.00  0.00    -0.243 C  
HETATM   14  C   UNL     1      -9.499  11.533  66.061  1.00  0.00    -0.249 C  
HETATM   15  C   UNL     1      -8.387  10.792  66.744  1.00  0.00    -0.136 C  
HETATM   16  C   UNL     1      -7.471  11.722  67.454  1.00  0.00    -0.143 C  
HETATM   17  O   UNL     1      -8.216   9.584  66.669  1.00  0.00    -0.114 OA 
HETATM   18  C   UNL     1      -7.493  14.247  67.831  1.00  0.00    -0.157 C  
HETATM   19  C   UNL     1      -8.023  12.946  67.345  1.00  0.00    -0.178 C  
BRANCH  16  20
HETATM   20  C   UNL     1      -6.320  11.201  68.238  1.00  0.00    -0.049 C  
BRANCH  20  21
HETATM   21  C   UNL     1      -6.616  11.116  69.700  1.00  0.00    -0.139 C  
HETATM   22  C   UNL     1      -5.796  11.584  70.653  1.00  0.00    -0.087 C  
ENDBRANCH  20  21
ENDBRANCH  16  20
ENDBRANCH  12  13
ENDBRANCH  10  12
ENDBRANCH   6  10
ENDBRANCH   3   5
TORSDOF 6
ENDMDL
MODEL      179
REMARK 921   NORMALIZED FREE ENERGY PREDICTED BY IDOCK:   -3.68 KCAL/MOL
REMARK 922        TOTAL FREE ENERGY PREDICTED BY IDOCK:   -6.49 KCAL/MOL
REMARK 923 INTER-LIGAND FREE ENERGY PREDICTED BY IDOCK:   -5.38 KCAL/MOL
REMARK 924 INTRA-LIGAND FREE ENERGY PREDICTED BY IDOCK:   -1.11 KCAL/MOL
REMARK 927      BINDING AFFINITY PREDICTED BY RF-SCORE:    0.00 PKD
ROOT
HETATM    1  C   UNL     1     -10.644   5.786  71.000  1.00  0.00    -0.318 C  
HETATM    2  C   UNL     1      -9.442   5.296  70.243  1.00  0.00    -0.225 C  
HETATM    3  C   UNL     1      -8.459   6.122  69.837  1.00  0.00    -0.129 C  
HETATM    4  C   UNL     1      -9.344   3.823  69.971  1.00  0.00    -0.250 C  
ENDROOT
BRANCH   3   5
HETATM    5  C   UNL     1      -8.363   7.562  70.083  1.00  0.00    -0.134 C  
HETATM    6  C   UNL     1      -9.246   8.539  69.324  1.00  0.00    -0.153 C  
HETATM    7  C   UNL     1      -7.744   8.501  69.063  1.00  0.00    -0.096 C  
HETATM    8  C   UNL     1      -7.318   8.004  67.704  1.00  0.00    -0.093 C  
HETATM    9  C   UNL     1      -6.835   9.580  69.608  1.00  0.00    -0.063 C  
BRANCH   6  10
HETATM   10  C   UNL     1      -9.883   9.627  70.099  1.00  0.00    -0.262 C  
HETATM   11  O   UNL     1     -10.178   9.465  71.270  1.00  0.00    -0.315 OA 
BRANCH  10  12
HETATM   12  O   UNL     1     -10.093  10.761  69.371  1.00  0.00    -0.212 OA 
BRANCH  12  13
HETATM   13  C   UNL     1     -11.390  10.963  68.747  1.00  0.00    -0.292 C  
HETATM   14  C   UNL     1     -11.372  10.737  67.240  1.00  0.00    -0.173 C  
HETATM   15  C   UNL     1     -11.404  12.148  66.734  1.00  0.00    -0.342 C  
HETATM   16  C   UNL     1     -11.792  13.101  67.806  1.00  0.00    -0.392 C  
HETATM   17  O   UNL     1     -11.205  12.468  65.571  1.00  0.00    -0.294 OA 
HETATM   18  C   UNL     1     -12.276  12.825  70.298  1.00  0.00    -0.351 C  
HETATM   19  C   UNL     1     -11.873  12.376  68.938  1.00  0.00    -0.350 C  
BRANCH  16  20
HETATM   20  C   UNL     1     -11.845  14.563  67.538  1.00  0.00    -0.404 C  
BRANCH  20  21
HETATM   21  C   UNL     1     -10.511  15.220  67.683  1.00  0.00    -0.263 C  
HETATM   22  C   UNL     1      -9.781  15.658  66.647  1.00  0.00    -0.266 C  
ENDBRANCH  20  21
ENDBRANCH  16  20
ENDBRANCH  12  13
ENDBRANCH  10  12
ENDBRANCH   6  10
ENDBRANCH   3   5
TORSDOF 6
ENDMDL
MODEL      180
REMARK 921   NORMALIZED FREE ENERGY PREDICTED BY IDOCK:   -3.67 KCAL/MOL
REMARK 922        TOTAL FREE ENERGY PREDICTED BY IDOCK:   -6.48 KCAL/MOL
REMARK 923 INTER-LIGAND FREE ENERGY PREDICTED BY IDOCK:   -5.43 KCAL/MOL
REMARK 924 INTRA-LIGAND FREE ENERGY PREDICTED BY IDOCK:   -1.05 KCAL/MOL
REMARK 927      BINDING AFFINITY PREDICTED BY RF-SCORE:    0.00 PKD
ROOT
HETATM    1  C   UNL     1     -10.610  13.973  64.856  1.00  0.00    -0.442 C  
HETATM    2  C   UNL     1     -11.147  12.672  64.327  1.00  0.00    -0.405 C  
HETATM    3  C   UNL     1     -10.671  11.478  64.731  1.00  0.00    -0.366 C  
HETATM    4  C   UNL     1     -12.274  12.735  63.337  1.00  0.00    -0.594 C  
ENDROOT
BRANCH   3   5
HETATM    5  C   UNL     1      -9.634  11.239  65.737  1.00  0.00    -0.256 C  
HETATM    6  C   UNL     1      -9.517   9.889  66.423  1.00  0.00    -0.234 C  
HETATM    7  C   UNL     1      -9.974  11.112  67.211  1.00  0.00    -0.211 C  
HETATM    8  C   UNL     1     -11.406  11.102  67.683  1.00  0.00    -0.356 C  
HETATM    9  C   UNL     1      -9.039  11.805  68.177  1.00  0.00    -0.185 C  
BRANCH   6  10
HETATM   10  C   UNL     1      -8.161   9.316  66.577  1.00  0.00    -0.107 C  
HETATM   11  O   UNL     1      -7.298   9.533  65.745  1.00  0.00    -0.093 OA 
BRANCH  10  12
HETATM   12  O   UNL     1      -8.018   8.551  67.696  1.00  0.00    -0.105 OA 
BRANCH  12  13
HETATM   13  C   UNL     1      -7.938   7.107  67.553  1.00  0.00    -0.113 C  
HETATM   14  C   UNL     1      -8.861   6.561  66.469  1.00  0.00    -0.142 C  
HETATM   15  C   UNL     1      -9.965   5.972  67.296  1.00  0.00    -0.150 C  
HETATM   16  C   UNL     1      -9.563   5.834  68.720  1.00  0.00    -0.156 C  
HETATM   17  O   UNL     1     -11.036   5.590  66.846  1.00  0.00    -0.212 OA 
HETATM   18  C   UNL     1      -7.467   6.501  70.016  1.00  0.00    -0.094 C  
HETATM   19  C   UNL     1      -8.349   6.408  68.822  1.00  0.00    -0.121 C  
BRANCH  16  20
HETATM   20  C   UNL     1     -10.521   5.313  69.731  1.00  0.00    -0.340 C  
BRANCH  20  21
HETATM   21  C   UNL     1     -10.906   6.346  70.740  1.00  0.00    -0.321 C  
HETATM   22  C   UNL     1     -12.141   6.860  70.844  1.00  0.00    -0.424 C  
ENDBRANCH  20  21
ENDBRANCH  16  20
ENDBRANCH  12  13
ENDBRANCH  10  12
ENDBRANCH   6  10
ENDBRANCH   3   5
TORSDOF 6
ENDMDL
MODEL      181
REMARK 921   NORMALIZED FREE ENERGY PREDICTED BY IDOCK:   -3.67 KCAL/MOL
REMARK 922        TOTAL FREE ENERGY PREDICTED BY IDOCK:   -6.48 KCAL/MOL
REMARK 923 INTER-LIGAND FREE ENERGY PREDICTED BY IDOCK:   -5.78 KCAL/MOL
REMARK 924 INTRA-LIGAND FREE ENERGY PREDICTED BY IDOCK:   -0.69 KCAL/MOL
REMARK 927      BINDING AFFINITY PREDICTED BY RF-SCORE:    0.00 PKD
ROOT
HETATM    1  C   UNL     1     -10.499  17.315  67.079  1.00  0.00    -0.287 C  
HETATM    2  C   UNL     1      -9.822  17.321  68.421  1.00  0.00    -0.309 C  
HETATM    3  C   UNL     1      -9.871  16.266  69.258  1.00  0.00    -0.252 C  
HETATM    4  C   UNL     1      -9.045  18.547  68.803  1.00  0.00    -0.283 C  
ENDROOT
BRANCH   3   5
HETATM    5  C   UNL     1     -10.517  14.976  69.010  1.00  0.00    -0.245 C  
HETATM    6  C   UNL     1     -11.808  14.897  68.213  1.00  0.00    -0.308 C  
HETATM    7  C   UNL     1     -11.810  14.591  69.707  1.00  0.00    -0.367 C  
HETATM    8  C   UNL     1     -12.544  15.572  70.586  1.00  0.00    -0.493 C  
HETATM    9  C   UNL     1     -11.905  13.166  70.206  1.00  0.00    -0.299 C  
BRANCH   6  10
HETATM   10  C   UNL     1     -11.916  13.831  67.192  1.00  0.00    -0.405 C  
HETATM   11  O   UNL     1     -12.769  13.887  66.324  1.00  0.00    -0.399 OA 
BRANCH  10  12
HETATM   12  O   UNL     1     -10.999  12.834  67.348  1.00  0.00    -0.241 OA 
BRANCH  12  13
HETATM   13  C   UNL     1     -10.085  12.544  66.256  1.00  0.00    -0.250 C  
HETATM   14  C   UNL     1     -10.522  11.353  65.410  1.00  0.00    -0.336 C  
HETATM   15  C   UNL     1      -9.578  10.292  65.893  1.00  0.00    -0.209 C  
HETATM   16  C   UNL     1      -8.447  10.878  66.658  1.00  0.00    -0.151 C  
HETATM   17  O   UNL     1      -9.687   9.102  65.632  1.00  0.00    -0.270 OA 
HETATM   18  C   UNL     1      -7.884  13.256  67.396  1.00  0.00    -0.159 C  
HETATM   19  C   UNL     1      -8.714  12.194  66.769  1.00  0.00    -0.183 C  
BRANCH  16  20
HETATM   20  C   UNL     1      -7.412  10.003  67.270  1.00  0.00    -0.091 C  
BRANCH  20  21
HETATM   21  C   UNL     1      -7.751   9.610  68.671  1.00  0.00    -0.080 C  
HETATM   22  C   UNL     1      -7.317  10.271  69.755  1.00  0.00    -0.167 C  
ENDBRANCH  20  21
ENDBRANCH  16  20
ENDBRANCH  12  13
ENDBRANCH  10  12
ENDBRANCH   6  10
ENDBRANCH   3   5
TORSDOF 6
ENDMDL
MODEL      182
REMARK 921   NORMALIZED FREE ENERGY PREDICTED BY IDOCK:   -3.66 KCAL/MOL
REMARK 922        TOTAL FREE ENERGY PREDICTED BY IDOCK:   -6.46 KCAL/MOL
REMARK 923 INTER-LIGAND FREE ENERGY PREDICTED BY IDOCK:   -5.21 KCAL/MOL
REMARK 924 INTRA-LIGAND FREE ENERGY PREDICTED BY IDOCK:   -1.25 KCAL/MOL
REMARK 927      BINDING AFFINITY PREDICTED BY RF-SCORE:    0.00 PKD
ROOT
HETATM    1  C   UNL     1     -10.982   8.111  70.206  1.00  0.00    -0.240 C  
HETATM    2  C   UNL     1     -10.208   8.071  71.494  1.00  0.00    -0.243 C  
HETATM    3  C   UNL     1      -9.004   8.658  71.630  1.00  0.00    -0.305 C  
HETATM    4  C   UNL     1     -10.838   7.371  72.663  1.00  0.00    -0.349 C  
ENDROOT
BRANCH   3   5
HETATM    5  C   UNL     1      -8.287   9.438  70.620  1.00  0.00    -0.217 C  
HETATM    6  C   UNL     1      -7.524   8.746  69.503  1.00  0.00    -0.075 C  
HETATM    7  C   UNL     1      -6.770   9.498  70.594  1.00  0.00    -0.110 C  
HETATM    8  C   UNL     1      -5.941   8.656  71.531  1.00  0.00    -0.050 C  
HETATM    9  C   UNL     1      -6.156  10.853  70.319  1.00  0.00    -0.142 C  
BRANCH   6  10
HETATM   10  C   UNL     1      -7.675   9.288  68.134  1.00  0.00    -0.088 C  
HETATM   11  O   UNL     1      -7.003   8.852  67.217  1.00  0.00    -0.076 OA 
BRANCH  10  12
HETATM   12  O   UNL     1      -8.600  10.286  68.044  1.00  0.00    -0.117 OA 
BRANCH  12  13
HETATM   13  C   UNL     1      -8.530  11.207  66.921  1.00  0.00    -0.147 C  
HETATM   14  C   UNL     1      -8.467  12.668  67.349  1.00  0.00    -0.186 C  
HETATM   15  C   UNL     1      -9.868  13.118  67.058  1.00  0.00    -0.244 C  
HETATM   16  C   UNL     1     -10.582  12.145  66.192  1.00  0.00    -0.290 C  
HETATM   17  O   UNL     1     -10.342  14.182  67.429  1.00  0.00    -0.253 OA 
HETATM   18  C   UNL     1      -9.947   9.864  65.235  1.00  0.00    -0.320 C  
HETATM   19  C   UNL     1      -9.751  11.094  66.047  1.00  0.00    -0.263 C  
BRANCH  16  20
HETATM   20  C   UNL     1     -12.003  12.366  65.813  1.00  0.00    -0.437 C  
BRANCH  20  21
HETATM   21  C   UNL     1     -12.150  12.871  64.415  1.00  0.00    -0.474 C  
HETATM   22  C   UNL     1     -12.637  12.134  63.405  1.00  0.00    -0.584 C  
ENDBRANCH  20  21
ENDBRANCH  16  20
ENDBRANCH  12  13
ENDBRANCH  10  12
ENDBRANCH   6  10
ENDBRANCH   3   5
TORSDOF 6
ENDMDL
MODEL      183
REMARK 921   NORMALIZED FREE ENERGY PREDICTED BY IDOCK:   -3.66 KCAL/MOL
REMARK 922        TOTAL FREE ENERGY PREDICTED BY IDOCK:   -6.46 KCAL/MOL
REMARK 923 INTER-LIGAND FREE ENERGY PREDICTED BY IDOCK:   -5.33 KCAL/MOL
REMARK 924 INTRA-LIGAND FREE ENERGY PREDICTED BY IDOCK:   -1.12 KCAL/MOL
REMARK 927      BINDING AFFINITY PREDICTED BY RF-SCORE:    0.00 PKD
ROOT
HETATM    1  C   UNL     1     -11.155   6.228  68.423  1.00  0.00    -0.371 C  
HETATM    2  C   UNL     1     -10.010   6.519  69.352  1.00  0.00    -0.178 C  
HETATM    3  C   UNL     1      -9.536   7.765  69.546  1.00  0.00    -0.160 C  
HETATM    4  C   UNL     1      -9.414   5.364  70.104  1.00  0.00    -0.213 C  
ENDROOT
BRANCH   3   5
HETATM    5  C   UNL     1     -10.048   9.002  68.953  1.00  0.00    -0.207 C  
HETATM    6  C   UNL     1      -9.441  10.346  69.320  1.00  0.00    -0.214 C  
HETATM    7  C   UNL     1     -10.856   9.995  69.769  1.00  0.00    -0.308 C  
HETATM    8  C   UNL     1     -11.055   9.808  71.252  1.00  0.00    -0.375 C  
HETATM    9  C   UNL     1     -12.059  10.605  69.084  1.00  0.00    -0.152 C  
BRANCH   6  10
HETATM   10  C   UNL     1      -9.178  11.299  68.219  1.00  0.00    -0.176 C  
HETATM   11  O   UNL     1      -8.811  10.901  67.128  1.00  0.00    -0.134 OA 
BRANCH  10  12
HETATM   12  O   UNL     1      -9.377  12.602  68.570  1.00  0.00    -0.178 OA 
BRANCH  12  13
HETATM   13  C   UNL     1      -9.096  13.642  67.594  1.00  0.00    -0.207 C  
HETATM   14  C   UNL     1      -7.847  14.450  67.924  1.00  0.00    -0.155 C  
HETATM   15  C   UNL     1      -8.452  15.721  68.444  1.00  0.00    -0.170 C  
HETATM   16  C   UNL     1      -9.894  15.816  68.101  1.00  0.00    -0.209 C  
HETATM   17  O   UNL     1      -7.823  16.599  69.017  1.00  0.00    -0.236 OA 
HETATM   18  C   UNL     1     -11.523  14.226  66.944  1.00  0.00    -0.377 C  
HETATM   19  C   UNL     1     -10.219  14.642  67.524  1.00  0.00    -0.225 C  
BRANCH  16  20
HETATM   20  C   UNL     1     -10.707  16.974  68.557  1.00  0.00    -0.352 C  
BRANCH  20  21
HETATM   21  C   UNL     1     -10.718  18.091  67.566  1.00  0.00    -0.352 C  
HETATM   22  C   UNL     1     -10.102  18.035  66.375  1.00  0.00    -0.384 C  
ENDBRANCH  20  21
ENDBRANCH  16  20
ENDBRANCH  12  13
ENDBRANCH  10  12
ENDBRANCH   6  10
ENDBRANCH   3   5
TORSDOF 6
ENDMDL
MODEL      184
REMARK 921   NORMALIZED FREE ENERGY PREDICTED BY IDOCK:   -3.64 KCAL/MOL
REMARK 922        TOTAL FREE ENERGY PREDICTED BY IDOCK:   -6.44 KCAL/MOL
REMARK 923 INTER-LIGAND FREE ENERGY PREDICTED BY IDOCK:   -6.18 KCAL/MOL
REMARK 924 INTRA-LIGAND FREE ENERGY PREDICTED BY IDOCK:   -0.27 KCAL/MOL
REMARK 927      BINDING AFFINITY PREDICTED BY RF-SCORE:    0.00 PKD
ROOT
HETATM    1  C   UNL     1     -12.166  14.341  63.736  1.00  0.00    -0.106 C  
HETATM    2  C   UNL     1     -12.186  12.992  64.399  1.00  0.00    -0.471 C  
HETATM    3  C   UNL     1     -11.672  12.784  65.626  1.00  0.00    -0.443 C  
HETATM    4  C   UNL     1     -12.837  11.862  63.656  1.00  0.00    -0.429 C  
ENDROOT
BRANCH   3   5
HETATM    5  C   UNL     1     -11.072  13.785  66.511  1.00  0.00    -0.309 C  
HETATM    6  C   UNL     1      -9.797  14.507  66.111  1.00  0.00    -0.339 C  
HETATM    7  C   UNL     1      -9.784  13.507  67.263  1.00  0.00    -0.236 C  
HETATM    8  C   UNL     1      -9.004  12.237  67.032  1.00  0.00    -0.204 C  
HETATM    9  C   UNL     1      -9.729  13.981  68.699  1.00  0.00    -0.179 C  
BRANCH   6  10
HETATM   10  C   UNL     1      -9.740  15.968  66.337  1.00  0.00    -0.284 C  
HETATM   11  O   UNL     1     -10.503  16.505  67.121  1.00  0.00    -0.307 OA 
BRANCH  10  12
HETATM   12  O   UNL     1      -8.788  16.597  65.591  1.00  0.00    -0.448 OA 
BRANCH  12  13
HETATM   13  C   UNL     1      -7.588  17.084  66.250  1.00  0.00    -0.305 C  
HETATM   14  C   UNL     1      -7.153  16.213  67.423  1.00  0.00    -0.209 C  
HETATM   15  C   UNL     1      -7.597  17.049  68.587  1.00  0.00    -0.238 C  
HETATM   16  C   UNL     1      -7.909  18.440  68.169  1.00  0.00    -0.304 C  
HETATM   17  O   UNL     1      -7.631  16.657  69.744  1.00  0.00     0.171 OA 
HETATM   18  C   UNL     1      -7.957  19.614  65.901  1.00  0.00    -0.265 C  
HETATM   19  C   UNL     1      -7.801  18.460  66.826  1.00  0.00    -0.253 C  
BRANCH  16  20
HETATM   20  C   UNL     1      -8.412  19.434  69.154  1.00  0.00    -0.148 C  
BRANCH  20  21
HETATM   21  C   UNL     1      -9.898  19.579  69.113  1.00  0.00    -0.431 C  
HETATM   22  C   UNL     1     -10.595  19.783  67.985  1.00  0.00    -0.439 C  
ENDBRANCH  20  21
ENDBRANCH  16  20
ENDBRANCH  12  13
ENDBRANCH  10  12
ENDBRANCH   6  10
ENDBRANCH   3   5
TORSDOF 6
ENDMDL
MODEL      185
REMARK 921   NORMALIZED FREE ENERGY PREDICTED BY IDOCK:   -3.61 KCAL/MOL
REMARK 922        TOTAL FREE ENERGY PREDICTED BY IDOCK:   -6.40 KCAL/MOL
REMARK 923 INTER-LIGAND FREE ENERGY PREDICTED BY IDOCK:   -4.94 KCAL/MOL
REMARK 924 INTRA-LIGAND FREE ENERGY PREDICTED BY IDOCK:   -1.46 KCAL/MOL
REMARK 927      BINDING AFFINITY PREDICTED BY RF-SCORE:    0.00 PKD
ROOT
HETATM    1  C   UNL     1      -7.133  11.277  68.789  1.00  0.00    -0.096 C  
HETATM    2  C   UNL     1      -6.671  10.277  67.766  1.00  0.00    -0.073 C  
HETATM    3  C   UNL     1      -7.441   9.246  67.367  1.00  0.00    -0.087 C  
HETATM    4  C   UNL     1      -5.312  10.476  67.161  1.00  0.00    -0.041 C  
ENDROOT
BRANCH   3   5
HETATM    5  C   UNL     1      -8.809   8.951  67.799  1.00  0.00    -0.136 C  
HETATM    6  C   UNL     1      -9.725   8.096  66.940  1.00  0.00    -0.291 C  
HETATM    7  C   UNL     1     -10.008   9.584  67.116  1.00  0.00    -0.261 C  
HETATM    8  C   UNL     1      -9.843  10.442  65.888  1.00  0.00    -0.294 C  
HETATM    9  C   UNL     1     -11.123  10.058  68.022  1.00  0.00    -0.263 C  
BRANCH   6  10
HETATM   10  C   UNL     1     -10.527   7.056  67.622  1.00  0.00    -0.237 C  
HETATM   11  O   UNL     1     -11.373   6.426  67.013  1.00  0.00    -0.314 OA 
BRANCH  10  12
HETATM   12  O   UNL     1     -10.221   6.913  68.943  1.00  0.00    -0.165 OA 
BRANCH  12  13
HETATM   13  C   UNL     1     -11.163   6.227  69.811  1.00  0.00    -0.430 C  
HETATM   14  C   UNL     1     -12.123   7.174  70.522  1.00  0.00    -0.217 C  
HETATM   15  C   UNL     1     -11.543   7.192  71.905  1.00  0.00    -0.278 C  
HETATM   16  C   UNL     1     -10.578   6.079  72.104  1.00  0.00    -0.256 C  
HETATM   17  O   UNL     1     -11.873   7.978  72.781  1.00  0.00    -0.372 OA 
HETATM   18  C   UNL     1      -9.649   4.275  70.554  1.00  0.00    -0.267 C  
HETATM   19  C   UNL     1     -10.451   5.477  70.905  1.00  0.00    -0.319 C  
BRANCH  16  20
HETATM   20  C   UNL     1      -9.848   5.930  73.390  1.00  0.00    -0.167 C  
BRANCH  20  21
HETATM   21  C   UNL     1      -8.493   6.557  73.355  1.00  0.00    -0.126 C  
HETATM   22  C   UNL     1      -8.287   7.881  73.295  1.00  0.00    -0.248 C  
ENDBRANCH  20  21
ENDBRANCH  16  20
ENDBRANCH  12  13
ENDBRANCH  10  12
ENDBRANCH   6  10
ENDBRANCH   3   5
TORSDOF 6
ENDMDL
MODEL      186
REMARK 921   NORMALIZED FREE ENERGY PREDICTED BY IDOCK:   -3.61 KCAL/MOL
REMARK 922        TOTAL FREE ENERGY PREDICTED BY IDOCK:   -6.39 KCAL/MOL
REMARK 923 INTER-LIGAND FREE ENERGY PREDICTED BY IDOCK:   -5.26 KCAL/MOL
REMARK 924 INTRA-LIGAND FREE ENERGY PREDICTED BY IDOCK:   -1.13 KCAL/MOL
REMARK 927      BINDING AFFINITY PREDICTED BY RF-SCORE:    0.00 PKD
ROOT
HETATM    1  C   UNL     1      -8.611   2.434  66.971  1.00  0.00    -0.121 C  
HETATM    2  C   UNL     1      -9.357   3.518  66.245  1.00  0.00    -0.177 C  
HETATM    3  C   UNL     1      -9.621   4.714  66.807  1.00  0.00    -0.195 C  
HETATM    4  C   UNL     1      -9.785   3.242  64.832  1.00  0.00    -0.109 C  
ENDROOT
BRANCH   3   5
HETATM    5  C   UNL     1      -9.213   5.169  68.137  1.00  0.00    -0.136 C  
HETATM    6  C   UNL     1     -10.222   5.256  69.269  1.00  0.00    -0.301 C  
HETATM    7  C   UNL     1      -9.629   6.528  68.671  1.00  0.00    -0.125 C  
HETATM    8  C   UNL     1     -10.582   7.409  67.904  1.00  0.00    -0.255 C  
HETATM    9  C   UNL     1      -8.568   7.311  69.413  1.00  0.00    -0.134 C  
BRANCH   6  10
HETATM   10  C   UNL     1      -9.808   4.743  70.594  1.00  0.00    -0.222 C  
HETATM   11  O   UNL     1      -9.840   3.549  70.834  1.00  0.00    -0.171 OA 
BRANCH  10  12
HETATM   12  O   UNL     1      -9.423   5.723  71.461  1.00  0.00    -0.149 OA 
BRANCH  12  13
HETATM   13  C   UNL     1     -10.349   6.145  72.498  1.00  0.00    -0.193 C  
HETATM   14  C   UNL     1     -11.790   5.738  72.216  1.00  0.00    -0.215 C  
HETATM   15  C   UNL     1     -12.381   7.045  71.777  1.00  0.00    -0.354 C  
HETATM   16  C   UNL     1     -11.496   8.186  72.128  1.00  0.00    -0.412 C  
HETATM   17  O   UNL     1     -13.481   7.165  71.258  1.00  0.00    -0.362 OA 
HETATM   18  C   UNL     1      -9.179   8.338  73.189  1.00  0.00    -0.293 C  
HETATM   19  C   UNL     1     -10.371   7.645  72.633  1.00  0.00    -0.332 C  
BRANCH  16  20
HETATM   20  C   UNL     1     -11.863   9.576  71.747  1.00  0.00    -0.430 C  
BRANCH  20  21
HETATM   21  C   UNL     1     -11.624   9.854  70.299  1.00  0.00    -0.319 C  
HETATM   22  C   UNL     1     -10.597  10.586  69.842  1.00  0.00    -0.261 C  
ENDBRANCH  20  21
ENDBRANCH  16  20
ENDBRANCH  12  13
ENDBRANCH  10  12
ENDBRANCH   6  10
ENDBRANCH   3   5
TORSDOF 6
ENDMDL
MODEL      187
REMARK 921   NORMALIZED FREE ENERGY PREDICTED BY IDOCK:   -3.61 KCAL/MOL
REMARK 922        TOTAL FREE ENERGY PREDICTED BY IDOCK:   -6.39 KCAL/MOL
REMARK 923 INTER-LIGAND FREE ENERGY PREDICTED BY IDOCK:   -5.62 KCAL/MOL
REMARK 924 INTRA-LIGAND FREE ENERGY PREDICTED BY IDOCK:   -0.77 KCAL/MOL
REMARK 927      BINDING AFFINITY PREDICTED BY RF-SCORE:    0.00 PKD
ROOT
HETATM    1  C   UNL     1     -14.086  15.216  71.081  1.00  0.00    -0.463 C  
HETATM    2  C   UNL     1     -12.891  14.380  71.443  1.00  0.00    -0.410 C  
HETATM    3  C   UNL     1     -11.949  14.039  70.543  1.00  0.00    -0.390 C  
HETATM    4  C   UNL     1     -12.752  13.949  72.875  1.00  0.00    -0.172 C  
ENDROOT
BRANCH   3   5
HETATM    5  C   UNL     1     -11.894  14.435  69.135  1.00  0.00    -0.359 C  
HETATM    6  C   UNL     1     -10.982  13.710  68.160  1.00  0.00    -0.273 C  
HETATM    7  C   UNL     1     -10.686  15.151  68.560  1.00  0.00    -0.240 C  
HETATM    8  C   UNL     1      -9.443  15.370  69.385  1.00  0.00    -0.267 C  
HETATM    9  C   UNL     1     -10.971  16.293  67.609  1.00  0.00    -0.245 C  
BRANCH   6  10
HETATM   10  C   UNL     1     -11.540  13.359  66.835  1.00  0.00    -0.365 C  
HETATM   11  O   UNL     1     -12.652  13.736  66.510  1.00  0.00    -0.362 OA 
BRANCH  10  12
HETATM   12  O   UNL     1     -10.701  12.596  66.077  1.00  0.00    -0.262 OA 
BRANCH  12  13
HETATM   13  C   UNL     1     -10.740  11.151  66.227  1.00  0.00    -0.240 C  
HETATM   14  C   UNL     1     -11.160  10.705  67.623  1.00  0.00    -0.385 C  
HETATM   15  C   UNL     1      -9.842  10.285  68.203  1.00  0.00    -0.148 C  
HETATM   16  C   UNL     1      -8.809  10.128  67.146  1.00  0.00    -0.138 C  
HETATM   17  O   UNL     1      -9.656  10.035  69.385  1.00  0.00    -0.197 OA 
HETATM   18  C   UNL     1      -8.810  10.546  64.627  1.00  0.00    -0.211 C  
HETATM   19  C   UNL     1      -9.383  10.541  65.999  1.00  0.00    -0.215 C  
BRANCH  16  20
HETATM   20  C   UNL     1      -7.412   9.759  67.499  1.00  0.00    -0.091 C  
BRANCH  20  21
HETATM   21  C   UNL     1      -6.606  10.934  67.947  1.00  0.00    -0.063 C  
HETATM   22  C   UNL     1      -6.852  12.196  67.562  1.00  0.00    -0.127 C  
ENDBRANCH  20  21
ENDBRANCH  16  20
ENDBRANCH  12  13
ENDBRANCH  10  12
ENDBRANCH   6  10
ENDBRANCH   3   5
TORSDOF 6
ENDMDL
MODEL      188
REMARK 921   NORMALIZED FREE ENERGY PREDICTED BY IDOCK:   -3.61 KCAL/MOL
REMARK 922        TOTAL FREE ENERGY PREDICTED BY IDOCK:   -6.39 KCAL/MOL
REMARK 923 INTER-LIGAND FREE ENERGY PREDICTED BY IDOCK:   -5.61 KCAL/MOL
REMARK 924 INTRA-LIGAND FREE ENERGY PREDICTED BY IDOCK:   -0.78 KCAL/MOL
REMARK 927      BINDING AFFINITY PREDICTED BY RF-SCORE:    0.00 PKD
ROOT
HETATM    1  C   UNL     1     -11.419  12.100  66.047  1.00  0.00    -0.427 C  
HETATM    2  C   UNL     1     -11.250  11.683  64.613  1.00  0.00    -0.320 C  
HETATM    3  C   UNL     1     -10.402  10.704  64.241  1.00  0.00    -0.325 C  
HETATM    4  C   UNL     1     -12.092  12.378  63.582  1.00  0.00    -0.648 C  
ENDROOT
BRANCH   3   5
HETATM    5  C   UNL     1      -9.568   9.882  65.121  1.00  0.00    -0.367 C  
HETATM    6  C   UNL     1      -8.385  10.487  65.856  1.00  0.00    -0.161 C  
HETATM    7  C   UNL     1      -8.157   9.484  64.730  1.00  0.00    -0.130 C  
HETATM    8  C   UNL     1      -7.512  10.025  63.478  1.00  0.00    -0.140 C  
HETATM    9  C   UNL     1      -7.752   8.058  65.033  1.00  0.00    -0.112 C  
BRANCH   6  10
HETATM   10  C   UNL     1      -8.207  10.126  67.280  1.00  0.00    -0.117 C  
HETATM   11  O   UNL     1      -7.543  10.830  68.020  1.00  0.00    -0.089 OA 
BRANCH  10  12
HETATM   12  O   UNL     1      -8.836   8.967  67.629  1.00  0.00    -0.124 OA 
BRANCH  12  13
HETATM   13  C   UNL     1     -10.225   9.024  68.053  1.00  0.00    -0.212 C  
HETATM   14  C   UNL     1     -10.418   9.761  69.373  1.00  0.00    -0.241 C  
HETATM   15  C   UNL     1     -10.639   8.616  70.316  1.00  0.00    -0.223 C  
HETATM   16  C   UNL     1     -10.934   7.358  69.584  1.00  0.00    -0.186 C  
HETATM   17  O   UNL     1     -10.645   8.718  71.535  1.00  0.00    -0.255 OA 
HETATM   18  C   UNL     1     -11.010   6.757  67.103  1.00  0.00    -0.458 C  
HETATM   19  C   UNL     1     -10.784   7.644  68.276  1.00  0.00    -0.107 C  
BRANCH  16  20
HETATM   20  C   UNL     1     -11.143   6.083  70.320  1.00  0.00    -0.415 C  
BRANCH  20  21
HETATM   21  C   UNL     1      -9.918   5.229  70.344  1.00  0.00    -0.303 C  
HETATM   22  C   UNL     1      -9.734   4.169  69.542  1.00  0.00    -0.254 C  
ENDBRANCH  20  21
ENDBRANCH  16  20
ENDBRANCH  12  13
ENDBRANCH  10  12
ENDBRANCH   6  10
ENDBRANCH   3   5
TORSDOF 6
ENDMDL
MODEL      189
REMARK 921   NORMALIZED FREE ENERGY PREDICTED BY IDOCK:   -3.58 KCAL/MOL
REMARK 922        TOTAL FREE ENERGY PREDICTED BY IDOCK:   -6.36 KCAL/MOL
REMARK 923 INTER-LIGAND FREE ENERGY PREDICTED BY IDOCK:   -5.98 KCAL/MOL
REMARK 924 INTRA-LIGAND FREE ENERGY PREDICTED BY IDOCK:   -0.37 KCAL/MOL
REMARK 927      BINDING AFFINITY PREDICTED BY RF-SCORE:    0.00 PKD
ROOT
HETATM    1  C   UNL     1     -12.610  15.695  70.063  1.00  0.00    -0.181 C  
HETATM    2  C   UNL     1     -12.074  14.292  70.044  1.00  0.00    -0.400 C  
HETATM    3  C   UNL     1     -10.996  13.941  69.316  1.00  0.00    -0.222 C  
HETATM    4  C   UNL     1     -12.764  13.271  70.902  1.00  0.00    -0.332 C  
ENDROOT
BRANCH   3   5
HETATM    5  C   UNL     1     -10.168  14.823  68.491  1.00  0.00    -0.232 C  
HETATM    6  C   UNL     1     -10.551  15.121  67.051  1.00  0.00    -0.300 C  
HETATM    7  C   UNL     1      -9.317  14.278  67.358  1.00  0.00    -0.203 C  
HETATM    8  C   UNL     1      -9.388  12.826  66.958  1.00  0.00    -0.229 C  
HETATM    9  C   UNL     1      -7.927  14.861  67.222  1.00  0.00    -0.237 C  
BRANCH   6  10
HETATM   10  C   UNL     1     -10.450  16.525  66.594  1.00  0.00    -0.266 C  
HETATM   11  O   UNL     1     -10.561  16.802  65.413  1.00  0.00    -0.563 OA 
BRANCH  10  12
HETATM   12  O   UNL     1     -10.220  17.410  67.605  1.00  0.00    -0.314 OA 
BRANCH  12  13
HETATM   13  C   UNL     1      -9.642  18.705  67.286  1.00  0.00    -0.297 C  
HETATM   14  C   UNL     1      -8.505  18.619  66.275  1.00  0.00    -0.241 C  
HETATM   15  C   UNL     1      -7.311  18.802  67.164  1.00  0.00    -0.213 C  
HETATM   16  C   UNL     1      -7.702  19.327  68.498  1.00  0.00    -0.380 C  
HETATM   17  O   UNL     1      -6.155  18.610  66.815  1.00  0.00    -0.154 OA 
HETATM   18  C   UNL     1      -9.957  19.843  69.579  1.00  0.00    -0.086 C  
HETATM   19  C   UNL     1      -9.049  19.354  68.508  1.00  0.00    -0.426 C  
BRANCH  16  20
HETATM   20  C   UNL     1      -6.681  19.543  69.557  1.00  0.00    -0.354 C  
BRANCH  20  21
HETATM   21  C   UNL     1      -6.094  18.263  70.055  1.00  0.00    -0.117 C  
HETATM   22  C   UNL     1      -6.361  17.063  69.518  1.00  0.00    -0.235 C  
ENDBRANCH  20  21
ENDBRANCH  16  20
ENDBRANCH  12  13
ENDBRANCH  10  12
ENDBRANCH   6  10
ENDBRANCH   3   5
TORSDOF 6
ENDMDL
MODEL      190
REMARK 921   NORMALIZED FREE ENERGY PREDICTED BY IDOCK:   -3.57 KCAL/MOL
REMARK 922        TOTAL FREE ENERGY PREDICTED BY IDOCK:   -6.34 KCAL/MOL
REMARK 923 INTER-LIGAND FREE ENERGY PREDICTED BY IDOCK:   -5.46 KCAL/MOL
REMARK 924 INTRA-LIGAND FREE ENERGY PREDICTED BY IDOCK:   -0.88 KCAL/MOL
REMARK 927      BINDING AFFINITY PREDICTED BY RF-SCORE:    0.00 PKD
ROOT
HETATM    1  C   UNL     1     -12.904  12.682  64.753  1.00  0.00    -0.349 C  
HETATM    2  C   UNL     1     -11.537  12.207  64.348  1.00  0.00    -0.422 C  
HETATM    3  C   UNL     1     -10.539  12.038  65.237  1.00  0.00    -0.328 C  
HETATM    4  C   UNL     1     -11.313  11.887  62.898  1.00  0.00     0.204 C  
ENDROOT
BRANCH   3   5
HETATM    5  C   UNL     1     -10.610  12.232  66.686  1.00  0.00    -0.257 C  
HETATM    6  C   UNL     1      -9.945  13.430  67.341  1.00  0.00    -0.230 C  
HETATM    7  C   UNL     1      -9.396  12.027  67.573  1.00  0.00    -0.179 C  
HETATM    8  C   UNL     1      -8.039  11.738  66.983  1.00  0.00    -0.169 C  
HETATM    9  C   UNL     1      -9.635  11.308  68.883  1.00  0.00    -0.119 C  
BRANCH   6  10
HETATM   10  C   UNL     1     -10.713  14.156  68.378  1.00  0.00    -0.256 C  
HETATM   11  O   UNL     1     -11.921  14.020  68.464  1.00  0.00    -0.349 OA 
BRANCH  10  12
HETATM   12  O   UNL     1      -9.941  14.957  69.166  1.00  0.00    -0.223 OA 
BRANCH  12  13
HETATM   13  C   UNL     1      -9.884  16.380  68.877  1.00  0.00    -0.260 C  
HETATM   14  C   UNL     1     -10.877  16.814  67.805  1.00  0.00    -0.285 C  
HETATM   15  C   UNL     1      -9.970  16.990  66.623  1.00  0.00    -0.302 C  
HETATM   16  C   UNL     1      -8.543  17.036  67.035  1.00  0.00    -0.232 C  
HETATM   17  O   UNL     1     -10.357  17.145  65.474  1.00  0.00    -0.599 OA 
HETATM   18  C   UNL     1      -7.364  16.755  69.283  1.00  0.00    -0.164 C  
HETATM   19  C   UNL     1      -8.528  16.779  68.358  1.00  0.00    -0.231 C  
BRANCH  16  20
HETATM   20  C   UNL     1      -7.464  17.161  66.020  1.00  0.00    -0.178 C  
BRANCH  20  21
HETATM   21  C   UNL     1      -6.896  18.541  65.955  1.00  0.00    -0.318 C  
HETATM   22  C   UNL     1      -5.659  18.817  65.515  1.00  0.00    -0.219 C  
ENDBRANCH  20  21
ENDBRANCH  16  20
ENDBRANCH  12  13
ENDBRANCH  10  12
ENDBRANCH   6  10
ENDBRANCH   3   5
TORSDOF 6
ENDMDL
MODEL      191
REMARK 921   NORMALIZED FREE ENERGY PREDICTED BY IDOCK:   -3.57 KCAL/MOL
REMARK 922        TOTAL FREE ENERGY PREDICTED BY IDOCK:   -6.34 KCAL/MOL
REMARK 923 INTER-LIGAND FREE ENERGY PREDICTED BY IDOCK:   -5.36 KCAL/MOL
REMARK 924 INTRA-LIGAND FREE ENERGY PREDICTED BY IDOCK:   -0.98 KCAL/MOL
REMARK 927      BINDING AFFINITY PREDICTED BY RF-SCORE:    0.00 PKD
ROOT
HETATM    1  C   UNL     1      -7.839   9.932  69.959  1.00  0.00    -0.192 C  
HETATM    2  C   UNL     1      -9.321   9.705  69.849  1.00  0.00    -0.256 C  
HETATM    3  C   UNL     1     -10.059  10.232  68.853  1.00  0.00    -0.216 C  
HETATM    4  C   UNL     1      -9.969   8.830  70.882  1.00  0.00    -0.279 C  
ENDROOT
BRANCH   3   5
HETATM    5  C   UNL     1      -9.575  11.040  67.732  1.00  0.00    -0.180 C  
HETATM    6  C   UNL     1      -9.437  12.547  67.866  1.00  0.00    -0.196 C  
HETATM    7  C   UNL     1     -10.505  11.952  66.954  1.00  0.00    -0.253 C  
HETATM    8  C   UNL     1     -11.935  12.158  67.383  1.00  0.00    -0.168 C  
HETATM    9  C   UNL     1     -10.332  11.963  65.450  1.00  0.00    -0.306 C  
BRANCH   6  10
HETATM   10  C   UNL     1      -8.205  13.170  67.333  1.00  0.00    -0.187 C  
HETATM   11  O   UNL     1      -7.222  12.492  67.089  1.00  0.00    -0.136 OA 
BRANCH  10  12
HETATM   12  O   UNL     1      -8.305  14.521  67.173  1.00  0.00    -0.201 OA 
BRANCH  12  13
HETATM   13  C   UNL     1      -7.874  15.389  68.256  1.00  0.00    -0.123 C  
HETATM   14  C   UNL     1      -8.994  15.728  69.233  1.00  0.00    -0.266 C  
HETATM   15  C   UNL     1      -9.317  17.136  68.827  1.00  0.00    -0.252 C  
HETATM   16  C   UNL     1      -8.251  17.712  67.967  1.00  0.00    -0.242 C  
HETATM   17  O   UNL     1     -10.299  17.756  69.210  1.00  0.00    -0.318 OA 
HETATM   18  C   UNL     1      -6.102  16.755  66.973  1.00  0.00    -0.218 C  
HETATM   19  C   UNL     1      -7.379  16.711  67.733  1.00  0.00    -0.163 C  
BRANCH  16  20
HETATM   20  C   UNL     1      -8.384  19.084  67.410  1.00  0.00    -0.299 C  
BRANCH  20  21
HETATM   21  C   UNL     1      -9.334  19.145  66.259  1.00  0.00    -0.342 C  
HETATM   22  C   UNL     1     -10.365  20.000  66.190  1.00  0.00    -0.570 C  
ENDBRANCH  20  21
ENDBRANCH  16  20
ENDBRANCH  12  13
ENDBRANCH  10  12
ENDBRANCH   6  10
ENDBRANCH   3   5
TORSDOF 6
ENDMDL
MODEL      192
REMARK 921   NORMALIZED FREE ENERGY PREDICTED BY IDOCK:   -3.55 KCAL/MOL
REMARK 922        TOTAL FREE ENERGY PREDICTED BY IDOCK:   -6.31 KCAL/MOL
REMARK 923 INTER-LIGAND FREE ENERGY PREDICTED BY IDOCK:   -5.34 KCAL/MOL
REMARK 924 INTRA-LIGAND FREE ENERGY PREDICTED BY IDOCK:   -0.98 KCAL/MOL
REMARK 927      BINDING AFFINITY PREDICTED BY RF-SCORE:    0.00 PKD
ROOT
HETATM    1  C   UNL     1      -7.216  15.826  68.940  1.00  0.00    -0.147 C  
HETATM    2  C   UNL     1      -6.370  14.692  69.447  1.00  0.00    -0.125 C  
HETATM    3  C   UNL     1      -6.369  13.477  68.866  1.00  0.00    -0.098 C  
HETATM    4  C   UNL     1      -5.481  14.961  70.627  1.00  0.00    -0.138 C  
ENDROOT
BRANCH   3   5
HETATM    5  C   UNL     1      -7.114  13.072  67.672  1.00  0.00    -0.156 C  
HETATM    6  C   UNL     1      -8.615  12.843  67.736  1.00  0.00    -0.185 C  
HETATM    7  C   UNL     1      -7.668  11.667  67.523  1.00  0.00    -0.136 C  
HETATM    8  C   UNL     1      -7.581  10.670  68.651  1.00  0.00    -0.103 C  
HETATM    9  C   UNL     1      -7.521  11.029  66.159  1.00  0.00    -0.076 C  
BRANCH   6  10
HETATM   10  C   UNL     1      -9.438  13.400  66.640  1.00  0.00    -0.260 C  
HETATM   11  O   UNL     1      -9.435  14.596  66.407  1.00  0.00    -0.275 OA 
BRANCH  10  12
HETATM   12  O   UNL     1     -10.164  12.457  65.974  1.00  0.00    -0.236 OA 
BRANCH  12  13
HETATM   13  C   UNL     1     -11.446  12.045  66.520  1.00  0.00    -0.349 C  
HETATM   14  C   UNL     1     -12.157  13.155  67.285  1.00  0.00    -0.329 C  
HETATM   15  C   UNL     1     -11.917  12.731  68.703  1.00  0.00    -0.233 C  
HETATM   16  C   UNL     1     -11.453  11.322  68.778  1.00  0.00    -0.359 C  
HETATM   17  O   UNL     1     -12.141  13.432  69.680  1.00  0.00    -0.312 OA 
HETATM   18  C   UNL     1     -10.880   9.575  67.006  1.00  0.00    -0.125 C  
HETATM   19  C   UNL     1     -11.282  10.917  67.504  1.00  0.00    -0.364 C  
BRANCH  16  20
HETATM   20  C   UNL     1     -11.110  10.704  70.087  1.00  0.00    -0.341 C  
BRANCH  20  21
HETATM   21  C   UNL     1     -12.281  10.031  70.725  1.00  0.00    -0.408 C  
HETATM   22  C   UNL     1     -13.004  10.577  71.714  1.00  0.00    -0.582 C  
ENDBRANCH  20  21
ENDBRANCH  16  20
ENDBRANCH  12  13
ENDBRANCH  10  12
ENDBRANCH   6  10
ENDBRANCH   3   5
TORSDOF 6
ENDMDL
MODEL      193
REMARK 921   NORMALIZED FREE ENERGY PREDICTED BY IDOCK:   -3.55 KCAL/MOL
REMARK 922        TOTAL FREE ENERGY PREDICTED BY IDOCK:   -6.31 KCAL/MOL
REMARK 923 INTER-LIGAND FREE ENERGY PREDICTED BY IDOCK:   -6.16 KCAL/MOL
REMARK 924 INTRA-LIGAND FREE ENERGY PREDICTED BY IDOCK:   -0.15 KCAL/MOL
REMARK 927      BINDING AFFINITY PREDICTED BY RF-SCORE:    0.00 PKD
ROOT
HETATM    1  C   UNL     1     -11.763  12.842  65.766  1.00  0.00    -0.437 C  
HETATM    2  C   UNL     1     -11.514  11.911  64.612  1.00  0.00    -0.345 C  
HETATM    3  C   UNL     1     -10.663  10.870  64.696  1.00  0.00    -0.254 C  
HETATM    4  C   UNL     1     -12.279  12.155  63.343  1.00  0.00    -0.635 C  
ENDROOT
BRANCH   3   5
HETATM    5  C   UNL     1      -9.900  10.451  65.874  1.00  0.00    -0.294 C  
HETATM    6  C   UNL     1      -8.846  11.362  66.479  1.00  0.00    -0.187 C  
HETATM    7  C   UNL     1      -8.433  10.074  65.774  1.00  0.00    -0.145 C  
HETATM    8  C   UNL     1      -7.672  10.238  64.483  1.00  0.00    -0.107 C  
HETATM    9  C   UNL     1      -7.996   8.863  66.568  1.00  0.00    -0.103 C  
BRANCH   6  10
HETATM   10  C   UNL     1      -8.823  11.495  67.953  1.00  0.00    -0.152 C  
HETATM   11  O   UNL     1      -8.429  12.522  68.477  1.00  0.00    -0.146 OA 
BRANCH  10  12
HETATM   12  O   UNL     1      -9.262  10.381  68.606  1.00  0.00    -0.148 OA 
BRANCH  12  13
HETATM   13  C   UNL     1     -10.679  10.061  68.571  1.00  0.00    -0.231 C  
HETATM   14  C   UNL     1     -11.560  11.188  69.096  1.00  0.00    -0.393 C  
HETATM   15  C   UNL     1     -11.928  10.663  70.452  1.00  0.00    -0.346 C  
HETATM   16  C   UNL     1     -11.623   9.214  70.574  1.00  0.00    -0.238 C  
HETATM   17  O   UNL     1     -12.474  11.325  71.323  1.00  0.00    -0.368 OA 
HETATM   18  C   UNL     1     -10.511   7.525  69.015  1.00  0.00    -0.216 C  
HETATM   19  C   UNL     1     -10.990   8.868  69.436  1.00  0.00    -0.064 C  
BRANCH  16  20
HETATM   20  C   UNL     1     -11.866   8.493  71.852  1.00  0.00    -0.407 C  
BRANCH  20  21
HETATM   21  C   UNL     1     -12.862   7.389  71.706  1.00  0.00    -0.365 C  
HETATM   22  C   UNL     1     -14.180   7.592  71.556  1.00  0.00    -0.580 C  
ENDBRANCH  20  21
ENDBRANCH  16  20
ENDBRANCH  12  13
ENDBRANCH  10  12
ENDBRANCH   6  10
ENDBRANCH   3   5
TORSDOF 6
ENDMDL
MODEL      194
REMARK 921   NORMALIZED FREE ENERGY PREDICTED BY IDOCK:   -3.55 KCAL/MOL
REMARK 922        TOTAL FREE ENERGY PREDICTED BY IDOCK:   -6.31 KCAL/MOL
REMARK 923 INTER-LIGAND FREE ENERGY PREDICTED BY IDOCK:   -5.02 KCAL/MOL
REMARK 924 INTRA-LIGAND FREE ENERGY PREDICTED BY IDOCK:   -1.29 KCAL/MOL
REMARK 927      BINDING AFFINITY PREDICTED BY RF-SCORE:    0.00 PKD
ROOT
HETATM    1  C   UNL     1     -10.090  16.342  66.133  1.00  0.00    -0.364 C  
HETATM    2  C   UNL     1      -9.852  16.191  67.609  1.00  0.00    -0.236 C  
HETATM    3  C   UNL     1      -9.971  15.008  68.242  1.00  0.00    -0.225 C  
HETATM    4  C   UNL     1      -9.435  17.413  68.376  1.00  0.00    -0.293 C  
ENDROOT
BRANCH   3   5
HETATM    5  C   UNL     1     -10.293  13.715  67.635  1.00  0.00    -0.239 C  
HETATM    6  C   UNL     1      -9.972  12.418  68.358  1.00  0.00    -0.210 C  
HETATM    7  C   UNL     1      -9.209  12.801  67.095  1.00  0.00    -0.219 C  
HETATM    8  C   UNL     1      -7.749  13.132  67.275  1.00  0.00    -0.107 C  
HETATM    9  C   UNL     1      -9.501  12.119  65.776  1.00  0.00    -0.156 C  
BRANCH   6  10
HETATM   10  C   UNL     1     -11.009  11.362  68.361  1.00  0.00    -0.215 C  
HETATM   11  O   UNL     1     -12.040  11.503  67.726  1.00  0.00    -0.626 OA 
BRANCH  10  12
HETATM   12  O   UNL     1     -10.685  10.284  69.130  1.00  0.00    -0.201 OA 
BRANCH  12  13
HETATM   13  C   UNL     1      -9.914   9.205  68.534  1.00  0.00    -0.174 C  
HETATM   14  C   UNL     1     -10.783   8.067  68.010  1.00  0.00    -0.112 C  
HETATM   15  C   UNL     1     -10.579   7.030  69.074  1.00  0.00    -0.217 C  
HETATM   16  C   UNL     1      -9.415   7.360  69.937  1.00  0.00    -0.153 C  
HETATM   17  O   UNL     1     -11.241   6.008  69.177  1.00  0.00    -0.378 OA 
HETATM   18  C   UNL     1      -7.822   9.353  70.036  1.00  0.00    -0.135 C  
HETATM   19  C   UNL     1      -8.989   8.575  69.541  1.00  0.00    -0.149 C  
BRANCH  16  20
HETATM   20  C   UNL     1      -9.054   6.490  71.088  1.00  0.00    -0.152 C  
BRANCH  20  21
HETATM   21  C   UNL     1      -9.743   6.897  72.350  1.00  0.00    -0.168 C  
HETATM   22  C   UNL     1      -9.190   7.696  73.275  1.00  0.00    -0.285 C  
ENDBRANCH  20  21
ENDBRANCH  16  20
ENDBRANCH  12  13
ENDBRANCH  10  12
ENDBRANCH   6  10
ENDBRANCH   3   5
TORSDOF 6
ENDMDL
MODEL      195
REMARK 921   NORMALIZED FREE ENERGY PREDICTED BY IDOCK:   -3.54 KCAL/MOL
REMARK 922        TOTAL FREE ENERGY PREDICTED BY IDOCK:   -6.30 KCAL/MOL
REMARK 923 INTER-LIGAND FREE ENERGY PREDICTED BY IDOCK:   -6.00 KCAL/MOL
REMARK 924 INTRA-LIGAND FREE ENERGY PREDICTED BY IDOCK:   -0.30 KCAL/MOL
REMARK 927      BINDING AFFINITY PREDICTED BY RF-SCORE:    0.00 PKD
ROOT
HETATM    1  C   UNL     1     -10.160   2.927  71.972  1.00  0.00    -0.184 C  
HETATM    2  C   UNL     1     -10.631   3.307  73.347  1.00  0.00    -0.280 C  
HETATM    3  C   UNL     1     -11.185   4.505  73.615  1.00  0.00    -0.346 C  
HETATM    4  C   UNL     1     -10.497   2.282  74.436  1.00  0.00    -0.195 C  
ENDROOT
BRANCH   3   5
HETATM    5  C   UNL     1     -11.456   5.582  72.660  1.00  0.00    -0.331 C  
HETATM    6  C   UNL     1     -10.414   5.985  71.631  1.00  0.00    -0.276 C  
HETATM    7  C   UNL     1     -10.770   6.931  72.772  1.00  0.00    -0.286 C  
HETATM    8  C   UNL     1      -9.690   7.174  73.796  1.00  0.00    -0.331 C  
HETATM    9  C   UNL     1     -11.637   8.147  72.529  1.00  0.00    -0.468 C  
BRANCH   6  10
HETATM   10  C   UNL     1     -10.876   6.215  70.244  1.00  0.00    -0.319 C  
HETATM   11  O   UNL     1     -11.978   6.689  70.029  1.00  0.00    -0.340 OA 
BRANCH  10  12
HETATM   12  O   UNL     1      -9.969   5.839  69.299  1.00  0.00    -0.157 OA 
BRANCH  12  13
HETATM   13  C   UNL     1      -8.999   6.816  68.830  1.00  0.00    -0.131 C  
HETATM   14  C   UNL     1      -8.051   7.291  69.925  1.00  0.00    -0.127 C  
HETATM   15  C   UNL     1      -8.612   8.650  70.225  1.00  0.00    -0.141 C  
HETATM   16  C   UNL     1      -9.548   9.098  69.162  1.00  0.00    -0.161 C  
HETATM   17  O   UNL     1      -8.287   9.333  71.186  1.00  0.00    -0.291 OA 
HETATM   18  C   UNL     1     -10.458   7.984  67.052  1.00  0.00    -0.410 C  
HETATM   19  C   UNL     1      -9.679   8.057  68.316  1.00  0.00    -0.177 C  
BRANCH  16  20
HETATM   20  C   UNL     1     -10.257  10.400  69.275  1.00  0.00    -0.248 C  
BRANCH  20  21
HETATM   21  C   UNL     1     -11.635  10.255  69.834  1.00  0.00    -0.326 C  
HETATM   22  C   UNL     1     -12.247  11.204  70.558  1.00  0.00    -0.475 C  
ENDBRANCH  20  21
ENDBRANCH  16  20
ENDBRANCH  12  13
ENDBRANCH  10  12
ENDBRANCH   6  10
ENDBRANCH   3   5
TORSDOF 6
ENDMDL
MODEL      196
REMARK 921   NORMALIZED FREE ENERGY PREDICTED BY IDOCK:   -3.53 KCAL/MOL
REMARK 922        TOTAL FREE ENERGY PREDICTED BY IDOCK:   -6.30 KCAL/MOL
REMARK 923 INTER-LIGAND FREE ENERGY PREDICTED BY IDOCK:   -4.91 KCAL/MOL
REMARK 924 INTRA-LIGAND FREE ENERGY PREDICTED BY IDOCK:   -1.39 KCAL/MOL
REMARK 927      BINDING AFFINITY PREDICTED BY RF-SCORE:    0.00 PKD
ROOT
HETATM    1  C   UNL     1     -11.043  11.571  64.232  1.00  0.00    -0.385 C  
HETATM    2  C   UNL     1      -9.894  10.613  64.090  1.00  0.00    -0.396 C  
HETATM    3  C   UNL     1      -9.218  10.134  65.153  1.00  0.00    -0.262 C  
HETATM    4  C   UNL     1      -9.527  10.166  62.705  1.00  0.00    -0.277 C  
ENDROOT
BRANCH   3   5
HETATM    5  C   UNL     1      -9.492  10.407  66.565  1.00  0.00    -0.204 C  
HETATM    6  C   UNL     1      -8.682   9.729  67.657  1.00  0.00    -0.125 C  
HETATM    7  C   UNL     1     -10.151   9.373  67.459  1.00  0.00    -0.268 C  
HETATM    8  C   UNL     1     -10.436   7.979  66.960  1.00  0.00    -0.410 C  
HETATM    9  C   UNL     1     -11.208   9.886  68.413  1.00  0.00    -0.134 C  
BRANCH   6  10
HETATM   10  C   UNL     1      -8.220  10.568  68.786  1.00  0.00    -0.134 C  
HETATM   11  O   UNL     1      -7.518  11.543  68.587  1.00  0.00    -0.104 OA 
BRANCH  10  12
HETATM   12  O   UNL     1      -8.649  10.125  70.002  1.00  0.00    -0.152 OA 
BRANCH  12  13
HETATM   13  C   UNL     1      -7.871   9.109  70.692  1.00  0.00    -0.146 C  
HETATM   14  C   UNL     1      -6.938   8.337  69.766  1.00  0.00    -0.048 C  
HETATM   15  C   UNL     1      -7.679   7.040  69.622  1.00  0.00    -0.110 C  
HETATM   16  C   UNL     1      -8.739   6.903  70.654  1.00  0.00    -0.149 C  
HETATM   17  O   UNL     1      -7.401   6.175  68.805  1.00  0.00    -0.081 OA 
HETATM   18  C   UNL     1      -9.602   8.454  72.489  1.00  0.00    -0.358 C  
HETATM   19  C   UNL     1      -8.764   8.073  71.322  1.00  0.00    -0.159 C  
BRANCH  16  20
HETATM   20  C   UNL     1      -9.629   5.712  70.673  1.00  0.00    -0.213 C  
BRANCH  20  21
HETATM   21  C   UNL     1     -10.823   5.876  69.791  1.00  0.00    -0.447 C  
HETATM   22  C   UNL     1     -11.890   6.622  70.115  1.00  0.00    -0.347 C  
ENDBRANCH  20  21
ENDBRANCH  16  20
ENDBRANCH  12  13
ENDBRANCH  10  12
ENDBRANCH   6  10
ENDBRANCH   3   5
TORSDOF 6
ENDMDL
MODEL      197
REMARK 921   NORMALIZED FREE ENERGY PREDICTED BY IDOCK:   -3.52 KCAL/MOL
REMARK 922        TOTAL FREE ENERGY PREDICTED BY IDOCK:   -6.27 KCAL/MOL
REMARK 923 INTER-LIGAND FREE ENERGY PREDICTED BY IDOCK:   -5.69 KCAL/MOL
REMARK 924 INTRA-LIGAND FREE ENERGY PREDICTED BY IDOCK:   -0.58 KCAL/MOL
REMARK 927      BINDING AFFINITY PREDICTED BY RF-SCORE:    0.00 PKD
ROOT
HETATM    1  C   UNL     1     -12.823  15.462  69.374  1.00  0.00     0.390 C  
HETATM    2  C   UNL     1     -11.778  14.419  69.652  1.00  0.00    -0.362 C  
HETATM    3  C   UNL     1     -10.730  14.210  68.832  1.00  0.00    -0.270 C  
HETATM    4  C   UNL     1     -11.915  13.616  70.914  1.00  0.00    -0.226 C  
ENDROOT
BRANCH   3   5
HETATM    5  C   UNL     1     -10.409  14.950  67.610  1.00  0.00    -0.242 C  
HETATM    6  C   UNL     1      -9.709  14.263  66.449  1.00  0.00    -0.315 C  
HETATM    7  C   UNL     1      -8.980  15.326  67.264  1.00  0.00    -0.209 C  
HETATM    8  C   UNL     1      -7.822  14.844  68.101  1.00  0.00    -0.122 C  
HETATM    9  C   UNL     1      -8.767  16.717  66.708  1.00  0.00    -0.256 C  
BRANCH   6  10
HETATM   10  C   UNL     1     -10.223  14.530  65.087  1.00  0.00    -0.389 C  
HETATM   11  O   UNL     1     -10.761  15.591  64.824  1.00  0.00    -0.421 OA 
BRANCH  10  12
HETATM   12  O   UNL     1     -10.037  13.492  64.223  1.00  0.00    -0.336 OA 
BRANCH  12  13
HETATM   13  C   UNL     1     -10.966  12.375  64.259  1.00  0.00    -0.351 C  
HETATM   14  C   UNL     1     -12.075  12.551  65.289  1.00  0.00    -0.500 C  
HETATM   15  C   UNL     1     -11.613  11.626  66.376  1.00  0.00    -0.062 C  
HETATM   16  C   UNL     1     -10.553  10.704  65.890  1.00  0.00    -0.178 C  
HETATM   17  O   UNL     1     -12.094  11.586  67.499  1.00  0.00    -0.614 OA 
HETATM   18  C   UNL     1      -9.315  10.483  63.668  1.00  0.00    -0.324 C  
HETATM   19  C   UNL     1     -10.267  11.095  64.633  1.00  0.00    -0.376 C  
BRANCH  16  20
HETATM   20  C   UNL     1      -9.916   9.728  66.813  1.00  0.00    -0.278 C  
BRANCH  20  21
HETATM   21  C   UNL     1      -8.667  10.261  67.435  1.00  0.00    -0.128 C  
HETATM   22  C   UNL     1      -8.376  10.141  68.739  1.00  0.00    -0.122 C  
ENDBRANCH  20  21
ENDBRANCH  16  20
ENDBRANCH  12  13
ENDBRANCH  10  12
ENDBRANCH   6  10
ENDBRANCH   3   5
TORSDOF 6
ENDMDL
MODEL      198
REMARK 921   NORMALIZED FREE ENERGY PREDICTED BY IDOCK:   -3.51 KCAL/MOL
REMARK 922        TOTAL FREE ENERGY PREDICTED BY IDOCK:   -6.26 KCAL/MOL
REMARK 923 INTER-LIGAND FREE ENERGY PREDICTED BY IDOCK:   -5.38 KCAL/MOL
REMARK 924 INTRA-LIGAND FREE ENERGY PREDICTED BY IDOCK:   -0.88 KCAL/MOL
REMARK 927      BINDING AFFINITY PREDICTED BY RF-SCORE:    0.00 PKD
ROOT
HETATM    1  C   UNL     1     -11.019   6.370  68.119  1.00  0.00    -0.393 C  
HETATM    2  C   UNL     1     -10.298   5.974  66.861  1.00  0.00    -0.303 C  
HETATM    3  C   UNL     1      -9.234   6.656  66.394  1.00  0.00    -0.180 C  
HETATM    4  C   UNL     1     -10.783   4.752  66.136  1.00  0.00    -0.177 C  
ENDROOT
BRANCH   3   5
HETATM    5  C   UNL     1      -8.592   7.817  67.015  1.00  0.00    -0.129 C  
HETATM    6  C   UNL     1      -7.875   8.852  66.166  1.00  0.00    -0.102 C  
HETATM    7  C   UNL     1      -7.081   7.939  67.094  1.00  0.00    -0.079 C  
HETATM    8  C   UNL     1      -6.182   6.930  66.425  1.00  0.00    -0.045 C  
HETATM    9  C   UNL     1      -6.517   8.460  68.397  1.00  0.00    -0.059 C  
BRANCH   6  10
HETATM   10  C   UNL     1      -8.113  10.278  66.480  1.00  0.00    -0.121 C  
HETATM   11  O   UNL     1      -7.364  11.141  66.057  1.00  0.00    -0.079 OA 
BRANCH  10  12
HETATM   12  O   UNL     1      -9.207  10.485  67.268  1.00  0.00    -0.143 OA 
BRANCH  12  13
HETATM   13  C   UNL     1     -10.521  10.525  66.647  1.00  0.00    -0.228 C  
HETATM   14  C   UNL     1     -10.476  10.921  65.176  1.00  0.00    -0.316 C  
HETATM   15  C   UNL     1     -10.955  12.341  65.243  1.00  0.00    -0.307 C  
HETATM   16  C   UNL     1     -11.586  12.641  66.554  1.00  0.00    -0.441 C  
HETATM   17  O   UNL     1     -10.896  13.133  64.313  1.00  0.00    -0.374 OA 
HETATM   18  C   UNL     1     -11.891  11.285  68.696  1.00  0.00    -0.369 C  
HETATM   19  C   UNL     1     -11.409  11.542  67.314  1.00  0.00    -0.359 C  
BRANCH  16  20
HETATM   20  C   UNL     1     -12.093  14.005  66.858  1.00  0.00    -0.465 C  
BRANCH  20  21
HETATM   21  C   UNL     1     -11.210  14.745  67.809  1.00  0.00    -0.323 C  
HETATM   22  C   UNL     1     -11.633  15.753  68.586  1.00  0.00    -0.392 C  
ENDBRANCH  20  21
ENDBRANCH  16  20
ENDBRANCH  12  13
ENDBRANCH  10  12
ENDBRANCH   6  10
ENDBRANCH   3   5
TORSDOF 6
ENDMDL
MODEL      199
REMARK 921   NORMALIZED FREE ENERGY PREDICTED BY IDOCK:   -3.51 KCAL/MOL
REMARK 922        TOTAL FREE ENERGY PREDICTED BY IDOCK:   -6.26 KCAL/MOL
REMARK 923 INTER-LIGAND FREE ENERGY PREDICTED BY IDOCK:   -4.97 KCAL/MOL
REMARK 924 INTRA-LIGAND FREE ENERGY PREDICTED BY IDOCK:   -1.28 KCAL/MOL
REMARK 927      BINDING AFFINITY PREDICTED BY RF-SCORE:    0.00 PKD
ROOT
HETATM    1  C   UNL     1     -12.165  13.045  70.513  1.00  0.00    -0.392 C  
HETATM    2  C   UNL     1     -11.752  13.302  69.091  1.00  0.00    -0.379 C  
HETATM    3  C   UNL     1     -11.433  12.306  68.241  1.00  0.00    -0.367 C  
HETATM    4  C   UNL     1     -11.732  14.726  68.618  1.00  0.00    -0.356 C  
ENDROOT
BRANCH   3   5
HETATM    5  C   UNL     1     -11.472  10.868  68.517  1.00  0.00    -0.380 C  
HETATM    6  C   UNL     1     -10.578  10.259  69.584  1.00  0.00    -0.288 C  
HETATM    7  C   UNL     1     -10.333   9.952  68.110  1.00  0.00    -0.232 C  
HETATM    8  C   UNL     1      -9.061  10.506  67.519  1.00  0.00    -0.144 C  
HETATM    9  C   UNL     1     -10.723   8.614  67.522  1.00  0.00    -0.209 C  
BRANCH   6  10
HETATM   10  C   UNL     1     -11.186   9.271  70.503  1.00  0.00    -0.265 C  
HETATM   11  O   UNL     1     -12.379   9.306  70.749  1.00  0.00    -0.219 OA 
BRANCH  10  12
HETATM   12  O   UNL     1     -10.289   8.381  71.014  1.00  0.00    -0.190 OA 
BRANCH  12  13
HETATM   13  C   UNL     1     -10.367   6.990  70.600  1.00  0.00    -0.207 C  
HETATM   14  C   UNL     1     -11.178   6.125  71.559  1.00  0.00    -0.346 C  
HETATM   15  C   UNL     1     -10.087   5.388  72.278  1.00  0.00    -0.186 C  
HETATM   16  C   UNL     1      -8.789   5.507  71.565  1.00  0.00    -0.142 C  
HETATM   17  O   UNL     1     -10.258   4.716  73.285  1.00  0.00    -0.153 OA 
HETATM   18  C   UNL     1      -8.050   6.790  69.485  1.00  0.00    -0.126 C  
HETATM   19  C   UNL     1      -9.001   6.360  70.544  1.00  0.00    -0.151 C  
BRANCH  16  20
HETATM   20  C   UNL     1      -7.557   4.890  72.124  1.00  0.00    -0.089 C  
BRANCH  20  21
HETATM   21  C   UNL     1      -6.663   5.890  72.780  1.00  0.00    -0.073 C  
HETATM   22  C   UNL     1      -7.037   6.658  73.814  1.00  0.00    -0.080 C  
ENDBRANCH  20  21
ENDBRANCH  16  20
ENDBRANCH  12  13
ENDBRANCH  10  12
ENDBRANCH   6  10
ENDBRANCH   3   5
TORSDOF 6
ENDMDL
MODEL      200
REMARK 921   NORMALIZED FREE ENERGY PREDICTED BY IDOCK:   -3.50 KCAL/MOL
REMARK 922        TOTAL FREE ENERGY PREDICTED BY IDOCK:   -6.24 KCAL/MOL
REMARK 923 INTER-LIGAND FREE ENERGY PREDICTED BY IDOCK:   -5.31 KCAL/MOL
REMARK 924 INTRA-LIGAND FREE ENERGY PREDICTED BY IDOCK:   -0.93 KCAL/MOL
REMARK 927      BINDING AFFINITY PREDICTED BY RF-SCORE:    0.00 PKD
ROOT
HETATM    1  C   UNL     1      -9.039   4.876  68.031  1.00  0.00    -0.131 C  
HETATM    2  C   UNL     1      -9.460   4.052  69.216  1.00  0.00    -0.260 C  
HETATM    3  C   UNL     1     -10.065   4.593  70.292  1.00  0.00    -0.276 C  
HETATM    4  C   UNL     1      -9.215   2.572  69.158  1.00  0.00    -0.199 C  
ENDROOT
BRANCH   3   5
HETATM    5  C   UNL     1     -10.442   5.996  70.476  1.00  0.00    -0.303 C  
HETATM    6  C   UNL     1      -9.729   6.861  71.502  1.00  0.00    -0.164 C  
HETATM    7  C   UNL     1     -11.185   6.459  71.716  1.00  0.00    -0.324 C  
HETATM    8  C   UNL     1     -11.453   5.518  72.863  1.00  0.00    -0.327 C  
HETATM    9  C   UNL     1     -12.303   7.454  71.495  1.00  0.00    -0.385 C  
BRANCH   6  10
HETATM   10  C   UNL     1      -9.343   8.229  71.091  1.00  0.00    -0.165 C  
HETATM   11  O   UNL     1      -8.662   8.927  71.821  1.00  0.00    -0.312 OA 
BRANCH  10  12
HETATM   12  O   UNL     1      -9.829   8.587  69.868  1.00  0.00    -0.181 OA 
BRANCH  12  13
HETATM   13  C   UNL     1      -8.977   8.431  68.701  1.00  0.00    -0.140 C  
HETATM   14  C   UNL     1      -7.838   9.442  68.652  1.00  0.00    -0.088 C  
HETATM   15  C   UNL     1      -8.339  10.395  67.607  1.00  0.00    -0.114 C  
HETATM   16  C   UNL     1      -9.468   9.811  66.837  1.00  0.00    -0.202 C  
HETATM   17  O   UNL     1      -7.840  11.485  67.371  1.00  0.00    -0.128 OA 
HETATM   18  C   UNL     1     -10.763   7.618  67.026  1.00  0.00    -0.340 C  
HETATM   19  C   UNL     1      -9.753   8.634  67.427  1.00  0.00    -0.227 C  
BRANCH  16  20
HETATM   20  C   UNL     1     -10.152  10.599  65.778  1.00  0.00    -0.327 C  
BRANCH  20  21
HETATM   21  C   UNL     1     -11.104  11.605  66.337  1.00  0.00    -0.347 C  
HETATM   22  C   UNL     1     -11.976  12.299  65.591  1.00  0.00    -0.373 C  
ENDBRANCH  20  21
ENDBRANCH  16  20
ENDBRANCH  12  13
ENDBRANCH  10  12
ENDBRANCH   6  10
ENDBRANCH   3   5
TORSDOF 6
ENDMDL
MODEL      201
REMARK 921   NORMALIZED FREE ENERGY PREDICTED BY IDOCK:   -3.50 KCAL/MOL
REMARK 922        TOTAL FREE ENERGY PREDICTED BY IDOCK:   -6.24 KCAL/MOL
REMARK 923 INTER-LIGAND FREE ENERGY PREDICTED BY IDOCK:   -5.51 KCAL/MOL
REMARK 924 INTRA-LIGAND FREE ENERGY PREDICTED BY IDOCK:   -0.73 KCAL/MOL
REMARK 927      BINDING AFFINITY PREDICTED BY RF-SCORE:    0.00 PKD
ROOT
HETATM    1  C   UNL     1     -10.708  15.377  70.489  1.00  0.00    -0.290 C  
HETATM    2  C   UNL     1     -12.114  14.944  70.183  1.00  0.00    -0.379 C  
HETATM    3  C   UNL     1     -12.395  14.010  69.253  1.00  0.00    -0.210 C  
HETATM    4  C   UNL     1     -13.223  15.568  70.979  1.00  0.00    -0.539 C  
ENDROOT
BRANCH   3   5
HETATM    5  C   UNL     1     -11.434  13.255  68.447  1.00  0.00    -0.349 C  
HETATM    6  C   UNL     1     -10.355  13.972  67.654  1.00  0.00    -0.242 C  
HETATM    7  C   UNL     1     -11.494  13.262  66.930  1.00  0.00    -0.376 C  
HETATM    8  C   UNL     1     -12.467  14.147  66.193  1.00  0.00    -0.426 C  
HETATM    9  C   UNL     1     -11.266  11.934  66.243  1.00  0.00    -0.392 C  
BRANCH   6  10
HETATM   10  C   UNL     1      -8.985  13.414  67.704  1.00  0.00    -0.202 C  
HETATM   11  O   UNL     1      -8.044  14.037  67.245  1.00  0.00    -0.183 OA 
BRANCH  10  12
HETATM   12  O   UNL     1      -8.921  12.182  68.285  1.00  0.00    -0.189 OA 
BRANCH  12  13
HETATM   13  C   UNL     1      -7.810  11.307  67.952  1.00  0.00    -0.116 C  
HETATM   14  C   UNL     1      -7.725  10.985  66.464  1.00  0.00    -0.154 C  
HETATM   15  C   UNL     1      -8.258   9.584  66.439  1.00  0.00    -0.115 C  
HETATM   16  C   UNL     1      -8.293   8.990  67.801  1.00  0.00    -0.117 C  
HETATM   17  O   UNL     1      -8.561   8.979  65.420  1.00  0.00    -0.155 OA 
HETATM   18  C   UNL     1      -7.756   9.911  70.121  1.00  0.00    -0.188 C  
HETATM   19  C   UNL     1      -7.935   9.977  68.646  1.00  0.00    -0.097 C  
BRANCH  16  20
HETATM   20  C   UNL     1      -8.829   7.621  68.018  1.00  0.00    -0.127 C  
BRANCH  20  21
HETATM   21  C   UNL     1     -10.320   7.570  67.940  1.00  0.00    -0.266 C  
HETATM   22  C   UNL     1     -10.993   6.894  66.997  1.00  0.00    -0.404 C  
ENDBRANCH  20  21
ENDBRANCH  16  20
ENDBRANCH  12  13
ENDBRANCH  10  12
ENDBRANCH   6  10
ENDBRANCH   3   5
TORSDOF 6
ENDMDL
MODEL      202
REMARK 921   NORMALIZED FREE ENERGY PREDICTED BY IDOCK:   -3.49 KCAL/MOL
REMARK 922        TOTAL FREE ENERGY PREDICTED BY IDOCK:   -6.23 KCAL/MOL
REMARK 923 INTER-LIGAND FREE ENERGY PREDICTED BY IDOCK:   -5.12 KCAL/MOL
REMARK 924 INTRA-LIGAND FREE ENERGY PREDICTED BY IDOCK:   -1.11 KCAL/MOL
REMARK 927      BINDING AFFINITY PREDICTED BY RF-SCORE:    0.00 PKD
ROOT
HETATM    1  C   UNL     1      -7.429  10.320  64.877  1.00  0.00    -0.114 C  
HETATM    2  C   UNL     1      -8.823   9.992  64.421  1.00  0.00    -0.239 C  
HETATM    3  C   UNL     1      -9.902  10.174  65.207  1.00  0.00    -0.388 C  
HETATM    4  C   UNL     1      -8.993   9.473  63.022  1.00  0.00    -0.221 C  
ENDROOT
BRANCH   3   5
HETATM    5  C   UNL     1      -9.919  10.736  66.559  1.00  0.00    -0.260 C  
HETATM    6  C   UNL     1     -11.232  11.111  67.225  1.00  0.00    -0.347 C  
HETATM    7  C   UNL     1     -10.247  12.197  66.805  1.00  0.00    -0.224 C  
HETATM    8  C   UNL     1     -10.689  13.097  65.680  1.00  0.00    -0.294 C  
HETATM    9  C   UNL     1      -9.397  12.912  67.833  1.00  0.00    -0.208 C  
BRANCH   6  10
HETATM   10  C   UNL     1     -11.416  10.721  68.641  1.00  0.00    -0.295 C  
HETATM   11  O   UNL     1     -12.195  11.327  69.355  1.00  0.00    -0.317 OA 
BRANCH  10  12
HETATM   12  O   UNL     1     -10.639   9.666  69.019  1.00  0.00    -0.209 OA 
BRANCH  12  13
HETATM   13  C   UNL     1      -9.778   9.811  70.180  1.00  0.00    -0.248 C  
HETATM   14  C   UNL     1      -8.303   9.939  69.819  1.00  0.00    -0.196 C  
HETATM   15  C   UNL     1      -7.797   8.571  70.168  1.00  0.00    -0.099 C  
HETATM   16  C   UNL     1      -8.773   7.829  71.008  1.00  0.00    -0.138 C  
HETATM   17  O   UNL     1      -6.694   8.144  69.860  1.00  0.00    -0.042 OA 
HETATM   18  C   UNL     1     -11.126   8.369  71.841  1.00  0.00    -0.378 C  
HETATM   19  C   UNL     1      -9.870   8.608  71.082  1.00  0.00    -0.285 C  
BRANCH  16  20
HETATM   20  C   UNL     1      -8.499   6.432  71.436  1.00  0.00    -0.126 C  
BRANCH  20  21
HETATM   21  C   UNL     1      -9.737   5.598  71.497  1.00  0.00    -0.200 C  
HETATM   22  C   UNL     1     -10.012   4.610  70.632  1.00  0.00    -0.293 C  
ENDBRANCH  20  21
ENDBRANCH  16  20
ENDBRANCH  12  13
ENDBRANCH  10  12
ENDBRANCH   6  10
ENDBRANCH   3   5
TORSDOF 6
ENDMDL
MODEL      203
REMARK 921   NORMALIZED FREE ENERGY PREDICTED BY IDOCK:   -3.47 KCAL/MOL
REMARK 922        TOTAL FREE ENERGY PREDICTED BY IDOCK:   -6.21 KCAL/MOL
REMARK 923 INTER-LIGAND FREE ENERGY PREDICTED BY IDOCK:   -5.28 KCAL/MOL
REMARK 924 INTRA-LIGAND FREE ENERGY PREDICTED BY IDOCK:   -0.93 KCAL/MOL
REMARK 927      BINDING AFFINITY PREDICTED BY RF-SCORE:    0.00 PKD
ROOT
HETATM    1  C   UNL     1     -11.367  14.583  66.558  1.00  0.00    -0.354 C  
HETATM    2  C   UNL     1      -9.878  14.382  66.618  1.00  0.00    -0.287 C  
HETATM    3  C   UNL     1      -9.318  13.159  66.678  1.00  0.00    -0.242 C  
HETATM    4  C   UNL     1      -9.008  15.605  66.576  1.00  0.00    -0.343 C  
ENDROOT
BRANCH   3   5
HETATM    5  C   UNL     1     -10.013  11.870  66.652  1.00  0.00    -0.220 C  
HETATM    6  C   UNL     1      -9.881  10.895  67.810  1.00  0.00    -0.194 C  
HETATM    7  C   UNL     1      -9.260  10.567  66.457  1.00  0.00    -0.183 C  
HETATM    8  C   UNL     1      -7.753  10.538  66.407  1.00  0.00    -0.135 C  
HETATM    9  C   UNL     1      -9.901   9.553  65.535  1.00  0.00    -0.304 C  
BRANCH   6  10
HETATM   10  C   UNL     1     -11.115  10.234  68.290  1.00  0.00    -0.254 C  
HETATM   11  O   UNL     1     -12.159  10.857  68.376  1.00  0.00    -0.559 OA 
BRANCH  10  12
HETATM   12  O   UNL     1     -10.937   8.922  68.615  1.00  0.00    -0.055 OA 
BRANCH  12  13
HETATM   13  C   UNL     1     -10.941   8.540  70.018  1.00  0.00    -0.196 C  
HETATM   14  C   UNL     1     -10.083   9.450  70.888  1.00  0.00    -0.366 C  
HETATM   15  C   UNL     1      -8.879   8.585  71.115  1.00  0.00    -0.179 C  
HETATM   16  C   UNL     1      -9.150   7.171  70.749  1.00  0.00    -0.153 C  
HETATM   17  O   UNL     1      -7.829   8.978  71.604  1.00  0.00    -0.316 OA 
HETATM   18  C   UNL     1     -11.166   5.988  69.721  1.00  0.00    -0.440 C  
HETATM   19  C   UNL     1     -10.384   7.155  70.208  1.00  0.00    -0.214 C  
BRANCH  16  20
HETATM   20  C   UNL     1      -8.080   6.143  70.851  1.00  0.00    -0.121 C  
BRANCH  20  21
HETATM   21  C   UNL     1      -7.243   6.064  69.616  1.00  0.00    -0.074 C  
HETATM   22  C   UNL     1      -7.565   6.662  68.460  1.00  0.00    -0.097 C  
ENDBRANCH  20  21
ENDBRANCH  16  20
ENDBRANCH  12  13
ENDBRANCH  10  12
ENDBRANCH   6  10
ENDBRANCH   3   5
TORSDOF 6
ENDMDL
MODEL      204
REMARK 921   NORMALIZED FREE ENERGY PREDICTED BY IDOCK:   -3.46 KCAL/MOL
REMARK 922        TOTAL FREE ENERGY PREDICTED BY IDOCK:   -6.19 KCAL/MOL
REMARK 923 INTER-LIGAND FREE ENERGY PREDICTED BY IDOCK:   -4.91 KCAL/MOL
REMARK 924 INTRA-LIGAND FREE ENERGY PREDICTED BY IDOCK:   -1.28 KCAL/MOL
REMARK 927      BINDING AFFINITY PREDICTED BY RF-SCORE:    0.00 PKD
ROOT
HETATM    1  C   UNL     1      -8.337  14.202  68.611  1.00  0.00    -0.123 C  
HETATM    2  C   UNL     1      -7.004  13.953  67.964  1.00  0.00    -0.142 C  
HETATM    3  C   UNL     1      -6.613  12.728  67.564  1.00  0.00    -0.158 C  
HETATM    4  C   UNL     1      -6.108  15.137  67.738  1.00  0.00    -0.164 C  
ENDROOT
BRANCH   3   5
HETATM    5  C   UNL     1      -7.389  11.489  67.640  1.00  0.00    -0.105 C  
HETATM    6  C   UNL     1      -7.671  10.833  68.981  1.00  0.00    -0.133 C  
HETATM    7  C   UNL     1      -6.733  10.163  67.982  1.00  0.00    -0.063 C  
HETATM    8  C   UNL     1      -5.280  10.091  68.379  1.00  0.00    -0.035 C  
HETATM    9  C   UNL     1      -7.185   8.963  67.179  1.00  0.00    -0.083 C  
BRANCH   6  10
HETATM   10  C   UNL     1      -9.044  10.338  69.225  1.00  0.00    -0.194 C  
HETATM   11  O   UNL     1      -9.233   9.204  69.628  1.00  0.00    -0.154 OA 
BRANCH  10  12
HETATM   12  O   UNL     1     -10.011  11.258  68.943  1.00  0.00    -0.203 OA 
BRANCH  12  13
HETATM   13  C   UNL     1     -11.020  10.933  67.949  1.00  0.00    -0.271 C  
HETATM   14  C   UNL     1     -10.645   9.734  67.085  1.00  0.00    -0.298 C  
HETATM   15  C   UNL     1     -10.242  10.410  65.809  1.00  0.00    -0.235 C  
HETATM   16  C   UNL     1     -10.694  11.825  65.777  1.00  0.00    -0.328 C  
HETATM   17  O   UNL     1      -9.674   9.850  64.881  1.00  0.00    -0.302 OA 
HETATM   18  C   UNL     1     -11.877  13.319  67.476  1.00  0.00    -0.403 C  
HETATM   19  C   UNL     1     -11.228  12.074  66.988  1.00  0.00    -0.377 C  
BRANCH  16  20
HETATM   20  C   UNL     1     -10.363  12.700  64.621  1.00  0.00    -0.354 C  
BRANCH  20  21
HETATM   21  C   UNL     1     -11.052  12.275  63.366  1.00  0.00    -0.487 C  
HETATM   22  C   UNL     1     -12.330  12.568  63.083  1.00  0.00    -0.303 C  
ENDBRANCH  20  21
ENDBRANCH  16  20
ENDBRANCH  12  13
ENDBRANCH  10  12
ENDBRANCH   6  10
ENDBRANCH   3   5
TORSDOF 6
ENDMDL
MODEL      205
REMARK 921   NORMALIZED FREE ENERGY PREDICTED BY IDOCK:   -3.46 KCAL/MOL
REMARK 922        TOTAL FREE ENERGY PREDICTED BY IDOCK:   -6.19 KCAL/MOL
REMARK 923 INTER-LIGAND FREE ENERGY PREDICTED BY IDOCK:   -5.61 KCAL/MOL
REMARK 924 INTRA-LIGAND FREE ENERGY PREDICTED BY IDOCK:   -0.59 KCAL/MOL
REMARK 927      BINDING AFFINITY PREDICTED BY RF-SCORE:    0.00 PKD
ROOT
HETATM    1  C   UNL     1      -7.722  18.869  68.377  1.00  0.00    -0.351 C  
HETATM    2  C   UNL     1      -9.195  18.976  68.095  1.00  0.00    -0.371 C  
HETATM    3  C   UNL     1     -10.076  18.040  68.497  1.00  0.00    -0.399 C  
HETATM    4  C   UNL     1      -9.677  20.195  67.363  1.00  0.00    -0.563 C  
ENDROOT
BRANCH   3   5
HETATM    5  C   UNL     1      -9.785  16.836  69.279  1.00  0.00    -0.139 C  
HETATM    6  C   UNL     1      -9.772  15.468  68.619  1.00  0.00    -0.208 C  
HETATM    7  C   UNL     1     -10.870  15.829  69.614  1.00  0.00    -0.300 C  
HETATM    8  C   UNL     1     -12.261  15.963  69.049  1.00  0.00     0.036 C  
HETATM    9  C   UNL     1     -10.855  15.269  71.020  1.00  0.00    -0.183 C  
BRANCH   6  10
HETATM   10  C   UNL     1      -8.663  14.552  68.968  1.00  0.00    -0.040 C  
HETATM   11  O   UNL     1      -7.603  14.990  69.380  1.00  0.00    -0.181 OA 
BRANCH  10  12
HETATM   12  O   UNL     1      -8.961  13.237  68.768  1.00  0.00    -0.027 OA 
BRANCH  12  13
HETATM   13  C   UNL     1      -9.073  12.743  67.406  1.00  0.00    -0.192 C  
HETATM   14  C   UNL     1      -8.603  13.750  66.363  1.00  0.00     0.344 C  
HETATM   15  C   UNL     1      -9.912  14.241  65.821  1.00  0.00    -0.323 C  
HETATM   16  C   UNL     1     -11.033  13.349  66.217  1.00  0.00    -0.296 C  
HETATM   17  O   UNL     1     -10.035  15.212  65.088  1.00  0.00    -0.323 OA 
HETATM   18  C   UNL     1     -11.175  11.276  67.701  1.00  0.00    -0.357 C  
HETATM   19  C   UNL     1     -10.505  12.434  67.053  1.00  0.00    -0.238 C  
BRANCH  16  20
HETATM   20  C   UNL     1     -12.431  13.669  65.826  1.00  0.00    -0.524 C  
BRANCH  20  21
HETATM   21  C   UNL     1     -12.890  12.881  64.643  1.00  0.00    -0.323 C  
HETATM   22  C   UNL     1     -12.131  12.654  63.560  1.00  0.00    -0.648 C  
ENDBRANCH  20  21
ENDBRANCH  16  20
ENDBRANCH  12  13
ENDBRANCH  10  12
ENDBRANCH   6  10
ENDBRANCH   3   5
TORSDOF 6
ENDMDL
MODEL      206
REMARK 921   NORMALIZED FREE ENERGY PREDICTED BY IDOCK:   -3.46 KCAL/MOL
REMARK 922        TOTAL FREE ENERGY PREDICTED BY IDOCK:   -6.19 KCAL/MOL
REMARK 923 INTER-LIGAND FREE ENERGY PREDICTED BY IDOCK:   -5.74 KCAL/MOL
REMARK 924 INTRA-LIGAND FREE ENERGY PREDICTED BY IDOCK:   -0.44 KCAL/MOL
REMARK 927      BINDING AFFINITY PREDICTED BY RF-SCORE:    0.00 PKD
ROOT
HETATM    1  C   UNL     1     -14.224  15.206  71.466  1.00  0.00    -0.647 C  
HETATM    2  C   UNL     1     -13.193  14.112  71.479  1.00  0.00    -0.423 C  
HETATM    3  C   UNL     1     -12.338  13.914  70.457  1.00  0.00    -0.439 C  
HETATM    4  C   UNL     1     -13.115  13.244  72.701  1.00  0.00    -0.257 C  
ENDROOT
BRANCH   3   5
HETATM    5  C   UNL     1     -12.231  14.711  69.233  1.00  0.00    -0.247 C  
HETATM    6  C   UNL     1     -11.305  14.282  68.108  1.00  0.00    -0.313 C  
HETATM    7  C   UNL     1     -10.990  15.529  68.927  1.00  0.00    -0.266 C  
HETATM    8  C   UNL     1      -9.769  15.455  69.809  1.00  0.00    -0.219 C  
HETATM    9  C   UNL     1     -11.221  16.911  68.355  1.00  0.00    -0.109 C  
BRANCH   6  10
HETATM   10  C   UNL     1     -11.828  14.360  66.726  1.00  0.00    -0.410 C  
HETATM   11  O   UNL     1     -12.945  13.951  66.461  1.00  0.00    -0.036 OA 
BRANCH  10  12
HETATM   12  O   UNL     1     -10.946  14.905  65.841  1.00  0.00    -0.324 OA 
BRANCH  12  13
HETATM   13  C   UNL     1     -10.175  14.020  64.984  1.00  0.00    -0.368 C  
HETATM   14  C   UNL     1     -10.962  13.515  63.781  1.00  0.00     0.139 C  
HETATM   15  C   UNL     1     -11.272  12.110  64.204  1.00  0.00    -0.368 C  
HETATM   16  C   UNL     1     -10.433  11.693  65.358  1.00  0.00    -0.324 C  
HETATM   17  O   UNL     1     -12.063  11.376  63.631  1.00  0.00    -0.187 OA 
HETATM   18  C   UNL     1      -8.710  12.911  66.795  1.00  0.00    -0.112 C  
HETATM   19  C   UNL     1      -9.737  12.786  65.727  1.00  0.00    -0.167 C  
BRANCH  16  20
HETATM   20  C   UNL     1     -10.603  10.350  65.973  1.00  0.00    -0.136 C  
BRANCH  20  21
HETATM   21  C   UNL     1      -9.567   9.376  65.516  1.00  0.00    -0.328 C  
HETATM   22  C   UNL     1      -8.959   9.441  64.322  1.00  0.00    -0.204 C  
ENDBRANCH  20  21
ENDBRANCH  16  20
ENDBRANCH  12  13
ENDBRANCH  10  12
ENDBRANCH   6  10
ENDBRANCH   3   5
TORSDOF 6
ENDMDL
MODEL      207
REMARK 921   NORMALIZED FREE ENERGY PREDICTED BY IDOCK:   -3.44 KCAL/MOL
REMARK 922        TOTAL FREE ENERGY PREDICTED BY IDOCK:   -6.17 KCAL/MOL
REMARK 923 INTER-LIGAND FREE ENERGY PREDICTED BY IDOCK:   -5.56 KCAL/MOL
REMARK 924 INTRA-LIGAND FREE ENERGY PREDICTED BY IDOCK:   -0.60 KCAL/MOL
REMARK 927      BINDING AFFINITY PREDICTED BY RF-SCORE:    0.00 PKD
ROOT
HETATM    1  C   UNL     1      -9.567  13.404  67.563  1.00  0.00    -0.221 C  
HETATM    2  C   UNL     1     -11.011  13.731  67.824  1.00  0.00    -0.272 C  
HETATM    3  C   UNL     1     -12.006  13.283  67.035  1.00  0.00    -0.419 C  
HETATM    4  C   UNL     1     -11.328  14.563  69.032  1.00  0.00    -0.296 C  
ENDROOT
BRANCH   3   5
HETATM    5  C   UNL     1     -11.877  12.406  65.869  1.00  0.00    -0.467 C  
HETATM    6  C   UNL     1     -10.647  12.475  64.980  1.00  0.00    -0.329 C  
HETATM    7  C   UNL     1     -11.999  12.946  64.455  1.00  0.00    -0.452 C  
HETATM    8  C   UNL     1     -12.133  14.425  64.194  1.00  0.00    -0.405 C  
HETATM    9  C   UNL     1     -12.788  12.101  63.480  1.00  0.00    -0.453 C  
BRANCH   6  10
HETATM   10  C   UNL     1     -10.040  11.195  64.553  1.00  0.00    -0.308 C  
HETATM   11  O   UNL     1      -9.416  11.122  63.509  1.00  0.00    -0.240 OA 
BRANCH  10  12
HETATM   12  O   UNL     1     -10.267  10.170  65.423  1.00  0.00    -0.298 OA 
BRANCH  12  13
HETATM   13  C   UNL     1      -9.257   9.859  66.421  1.00  0.00    -0.158 C  
HETATM   14  C   UNL     1      -7.849  10.258  65.992  1.00  0.00    -0.133 C  
HETATM   15  C   UNL     1      -7.267   8.923  65.632  1.00  0.00    -0.085 C  
HETATM   16  C   UNL     1      -8.098   7.808  66.154  1.00  0.00    -0.113 C  
HETATM   17  O   UNL     1      -6.206   8.770  65.043  1.00  0.00    -0.059 OA 
HETATM   18  C   UNL     1     -10.326   7.725  67.400  1.00  0.00    -0.354 C  
HETATM   19  C   UNL     1      -9.193   8.380  66.692  1.00  0.00    -0.226 C  
BRANCH  16  20
HETATM   20  C   UNL     1      -7.732   6.394  65.876  1.00  0.00    -0.094 C  
BRANCH  20  21
HETATM   21  C   UNL     1      -8.494   5.821  64.726  1.00  0.00    -0.079 C  
HETATM   22  C   UNL     1      -7.941   5.528  63.540  1.00  0.00    -0.104 C  
ENDBRANCH  20  21
ENDBRANCH  16  20
ENDBRANCH  12  13
ENDBRANCH  10  12
ENDBRANCH   6  10
ENDBRANCH   3   5
TORSDOF 6
ENDMDL
MODEL      208
REMARK 921   NORMALIZED FREE ENERGY PREDICTED BY IDOCK:   -3.44 KCAL/MOL
REMARK 922        TOTAL FREE ENERGY PREDICTED BY IDOCK:   -6.16 KCAL/MOL
REMARK 923 INTER-LIGAND FREE ENERGY PREDICTED BY IDOCK:   -5.06 KCAL/MOL
REMARK 924 INTRA-LIGAND FREE ENERGY PREDICTED BY IDOCK:   -1.10 KCAL/MOL
REMARK 927      BINDING AFFINITY PREDICTED BY RF-SCORE:    0.00 PKD
ROOT
HETATM    1  C   UNL     1     -14.249  15.440  71.215  1.00  0.00    -0.428 C  
HETATM    2  C   UNL     1     -12.888  15.176  71.795  1.00  0.00    -0.432 C  
HETATM    3  C   UNL     1     -12.041  14.272  71.264  1.00  0.00    -0.391 C  
HETATM    4  C   UNL     1     -12.472  15.983  72.990  1.00  0.00    -0.614 C  
ENDROOT
BRANCH   3   5
HETATM    5  C   UNL     1     -12.260  13.460  70.066  1.00  0.00    -0.367 C  
HETATM    6  C   UNL     1     -11.336  12.300  69.737  1.00  0.00    -0.149 C  
HETATM    7  C   UNL     1     -11.333  13.552  68.867  1.00  0.00    -0.332 C  
HETATM    8  C   UNL     1     -10.081  14.390  68.912  1.00  0.00    -0.202 C  
HETATM    9  C   UNL     1     -11.994  13.551  67.506  1.00  0.00    -0.385 C  
BRANCH   6  10
HETATM   10  C   UNL     1     -11.960  11.034  69.293  1.00  0.00    -0.339 C  
HETATM   11  O   UNL     1     -13.159  10.974  69.084  1.00  0.00     0.264 OA 
BRANCH  10  12
HETATM   12  O   UNL     1     -11.074  10.005  69.168  1.00  0.00    -0.225 OA 
BRANCH  12  13
HETATM   13  C   UNL     1      -9.713  10.299  68.752  1.00  0.00    -0.177 C  
HETATM   14  C   UNL     1      -9.549  10.357  67.238  1.00  0.00    -0.182 C  
HETATM   15  C   UNL     1      -8.876   9.044  66.967  1.00  0.00    -0.119 C  
HETATM   16  C   UNL     1      -8.344   8.439  68.216  1.00  0.00    -0.131 C  
HETATM   17  O   UNL     1      -8.723   8.564  65.853  1.00  0.00    -0.154 OA 
HETATM   18  C   UNL     1      -8.461   9.119  70.674  1.00  0.00    -0.246 C  
HETATM   19  C   UNL     1      -8.757   9.235  69.222  1.00  0.00    -0.141 C  
BRANCH  16  20
HETATM   20  C   UNL     1      -7.675   7.111  68.190  1.00  0.00    -0.117 C  
BRANCH  20  21
HETATM   21  C   UNL     1      -8.492   6.047  68.847  1.00  0.00    -0.116 C  
HETATM   22  C   UNL     1      -8.054   4.796  69.056  1.00  0.00    -0.078 C  
ENDBRANCH  20  21
ENDBRANCH  16  20
ENDBRANCH  12  13
ENDBRANCH  10  12
ENDBRANCH   6  10
ENDBRANCH   3   5
TORSDOF 6
ENDMDL
MODEL      209
REMARK 921   NORMALIZED FREE ENERGY PREDICTED BY IDOCK:   -3.42 KCAL/MOL
REMARK 922        TOTAL FREE ENERGY PREDICTED BY IDOCK:   -6.14 KCAL/MOL
REMARK 923 INTER-LIGAND FREE ENERGY PREDICTED BY IDOCK:   -6.53 KCAL/MOL
REMARK 924 INTRA-LIGAND FREE ENERGY PREDICTED BY IDOCK:    0.38 KCAL/MOL
REMARK 927      BINDING AFFINITY PREDICTED BY RF-SCORE:    0.00 PKD
ROOT
HETATM    1  C   UNL     1     -11.195  11.857  63.566  1.00  0.00    -0.501 C  
HETATM    2  C   UNL     1      -9.923  11.090  63.795  1.00  0.00    -0.404 C  
HETATM    3  C   UNL     1      -9.284  11.091  64.981  1.00  0.00    -0.219 C  
HETATM    4  C   UNL     1      -9.385  10.276  62.654  1.00  0.00    -0.335 C  
ENDROOT
BRANCH   3   5
HETATM    5  C   UNL     1      -9.710  11.765  66.209  1.00  0.00    -0.242 C  
HETATM    6  C   UNL     1      -8.697  12.461  67.103  1.00  0.00    -0.195 C  
HETATM    7  C   UNL     1      -9.396  11.191  67.578  1.00  0.00    -0.174 C  
HETATM    8  C   UNL     1      -8.524   9.970  67.730  1.00  0.00    -0.114 C  
HETATM    9  C   UNL     1     -10.505  11.255  68.604  1.00  0.00    -0.226 C  
BRANCH   6  10
HETATM   10  C   UNL     1      -9.053  13.798  67.627  1.00  0.00    -0.196 C  
HETATM   11  O   UNL     1      -8.973  14.038  68.819  1.00  0.00    -0.141 OA 
BRANCH  10  12
HETATM   12  O   UNL     1      -9.469  14.667  66.663  1.00  0.00    -0.251 OA 
BRANCH  12  13
HETATM   13  C   UNL     1     -10.648  15.479  66.912  1.00  0.00    -0.307 C  
HETATM   14  C   UNL     1     -10.371  16.678  67.810  1.00  0.00    -0.306 C  
HETATM   15  C   UNL     1     -10.963  16.212  69.108  1.00  0.00    -0.309 C  
HETATM   16  C   UNL     1     -11.841  15.031  68.911  1.00  0.00    -0.337 C  
HETATM   17  O   UNL     1     -10.800  16.774  70.181  1.00  0.00    -0.257 OA 
HETATM   18  C   UNL     1     -12.421  13.605  66.873  1.00  0.00    -0.189 C  
HETATM   19  C   UNL     1     -11.719  14.686  67.614  1.00  0.00    -0.389 C  
BRANCH  16  20
HETATM   20  C   UNL     1     -12.500  14.373  70.071  1.00  0.00    -0.353 C  
BRANCH  20  21
HETATM   21  C   UNL     1     -13.190  15.349  70.966  1.00  0.00    -0.560 C  
HETATM   22  C   UNL     1     -13.529  15.083  72.236  1.00  0.00    -0.521 C  
ENDBRANCH  20  21
ENDBRANCH  16  20
ENDBRANCH  12  13
ENDBRANCH  10  12
ENDBRANCH   6  10
ENDBRANCH   3   5
TORSDOF 6
ENDMDL
MODEL      210
REMARK 921   NORMALIZED FREE ENERGY PREDICTED BY IDOCK:   -3.42 KCAL/MOL
REMARK 922        TOTAL FREE ENERGY PREDICTED BY IDOCK:   -6.14 KCAL/MOL
REMARK 923 INTER-LIGAND FREE ENERGY PREDICTED BY IDOCK:   -5.35 KCAL/MOL
REMARK 924 INTRA-LIGAND FREE ENERGY PREDICTED BY IDOCK:   -0.80 KCAL/MOL
REMARK 927      BINDING AFFINITY PREDICTED BY RF-SCORE:    0.00 PKD
ROOT
HETATM    1  C   UNL     1      -8.253  15.916  66.758  1.00  0.00    -0.307 C  
HETATM    2  C   UNL     1      -8.736  16.534  68.040  1.00  0.00    -0.189 C  
HETATM    3  C   UNL     1      -9.640  15.931  68.836  1.00  0.00    -0.230 C  
HETATM    4  C   UNL     1      -8.149  17.857  68.439  1.00  0.00    -0.302 C  
ENDROOT
BRANCH   3   5
HETATM    5  C   UNL     1     -10.252  14.616  68.633  1.00  0.00    -0.244 C  
HETATM    6  C   UNL     1     -11.433  14.448  67.692  1.00  0.00    -0.369 C  
HETATM    7  C   UNL     1     -11.622  14.285  69.196  1.00  0.00    -0.346 C  
HETATM    8  C   UNL     1     -12.460  15.337  69.878  1.00  0.00    -0.275 C  
HETATM    9  C   UNL     1     -11.781  12.913  69.813  1.00  0.00    -0.351 C  
BRANCH   6  10
HETATM   10  C   UNL     1     -11.412  13.289  66.771  1.00  0.00    -0.350 C  
HETATM   11  O   UNL     1     -12.449  12.738  66.445  1.00  0.00    -0.443 OA 
BRANCH  10  12
HETATM   12  O   UNL     1     -10.158  12.935  66.371  1.00  0.00    -0.257 OA 
BRANCH  12  13
HETATM   13  C   UNL     1      -9.356  12.093  67.243  1.00  0.00    -0.183 C  
HETATM   14  C   UNL     1      -7.861  12.197  66.965  1.00  0.00    -0.123 C  
HETATM   15  C   UNL     1      -7.611  10.911  66.233  1.00  0.00    -0.136 C  
HETATM   16  C   UNL     1      -8.745   9.965  66.395  1.00  0.00    -0.144 C  
HETATM   17  O   UNL     1      -6.578  10.647  65.636  1.00  0.00    -0.123 OA 
HETATM   18  C   UNL     1     -11.022  10.146  67.538  1.00  0.00    -0.319 C  
HETATM   19  C   UNL     1      -9.700  10.638  67.066  1.00  0.00    -0.207 C  
BRANCH  16  20
HETATM   20  C   UNL     1      -8.733   8.643  65.716  1.00  0.00    -0.212 C  
BRANCH  20  21
HETATM   21  C   UNL     1      -8.085   7.581  66.543  1.00  0.00    -0.120 C  
HETATM   22  C   UNL     1      -8.015   7.620  67.882  1.00  0.00    -0.118 C  
ENDBRANCH  20  21
ENDBRANCH  16  20
ENDBRANCH  12  13
ENDBRANCH  10  12
ENDBRANCH   6  10
ENDBRANCH   3   5
TORSDOF 6
ENDMDL
MODEL      211
REMARK 921   NORMALIZED FREE ENERGY PREDICTED BY IDOCK:   -3.42 KCAL/MOL
REMARK 922        TOTAL FREE ENERGY PREDICTED BY IDOCK:   -6.13 KCAL/MOL
REMARK 923 INTER-LIGAND FREE ENERGY PREDICTED BY IDOCK:   -4.94 KCAL/MOL
REMARK 924 INTRA-LIGAND FREE ENERGY PREDICTED BY IDOCK:   -1.19 KCAL/MOL
REMARK 927      BINDING AFFINITY PREDICTED BY RF-SCORE:    0.00 PKD
ROOT
HETATM    1  C   UNL     1      -9.003  15.841  66.123  1.00  0.00    -0.372 C  
HETATM    2  C   UNL     1      -9.034  16.456  67.494  1.00  0.00    -0.197 C  
HETATM    3  C   UNL     1      -9.617  15.847  68.545  1.00  0.00    -0.205 C  
HETATM    4  C   UNL     1      -8.355  17.782  67.678  1.00  0.00    -0.228 C  
ENDROOT
BRANCH   3   5
HETATM    5  C   UNL     1     -10.254  14.529  68.555  1.00  0.00    -0.240 C  
HETATM    6  C   UNL     1     -11.390  14.210  67.598  1.00  0.00    -0.342 C  
HETATM    7  C   UNL     1     -11.659  14.331  69.095  1.00  0.00    -0.346 C  
HETATM    8  C   UNL     1     -12.500  15.506  69.526  1.00  0.00    -0.081 C  
HETATM    9  C   UNL     1     -11.885  13.100  69.944  1.00  0.00    -0.378 C  
BRANCH   6  10
HETATM   10  C   UNL     1     -11.356  12.900  66.909  1.00  0.00    -0.312 C  
HETATM   11  O   UNL     1     -12.375  12.415  66.449  1.00  0.00    -0.539 OA 
BRANCH  10  12
HETATM   12  O   UNL     1     -10.114  12.339  66.871  1.00  0.00    -0.208 OA 
BRANCH  12  13
HETATM   13  C   UNL     1      -9.945  10.978  67.351  1.00  0.00    -0.182 C  
HETATM   14  C   UNL     1      -9.474  10.908  68.799  1.00  0.00    -0.196 C  
HETATM   15  C   UNL     1      -8.028  10.551  68.617  1.00  0.00    -0.124 C  
HETATM   16  C   UNL     1      -7.754  10.078  67.236  1.00  0.00    -0.095 C  
HETATM   17  O   UNL     1      -7.194  10.580  69.511  1.00  0.00    -0.107 OA 
HETATM   18  C   UNL     1      -9.198   9.880  65.139  1.00  0.00    -0.288 C  
HETATM   19  C   UNL     1      -8.903  10.242  66.550  1.00  0.00    -0.150 C  
BRANCH  16  20
HETATM   20  C   UNL     1      -6.375   9.713  66.819  1.00  0.00    -0.066 C  
BRANCH  20  21
HETATM   21  C   UNL     1      -5.735  10.765  65.972  1.00  0.00    -0.140 C  
HETATM   22  C   UNL     1      -5.356  10.568  64.701  1.00  0.00    -0.147 C  
ENDBRANCH  20  21
ENDBRANCH  16  20
ENDBRANCH  12  13
ENDBRANCH  10  12
ENDBRANCH   6  10
ENDBRANCH   3   5
TORSDOF 6
ENDMDL
MODEL      212
REMARK 921   NORMALIZED FREE ENERGY PREDICTED BY IDOCK:   -3.41 KCAL/MOL
REMARK 922        TOTAL FREE ENERGY PREDICTED BY IDOCK:   -6.13 KCAL/MOL
REMARK 923 INTER-LIGAND FREE ENERGY PREDICTED BY IDOCK:   -5.01 KCAL/MOL
REMARK 924 INTRA-LIGAND FREE ENERGY PREDICTED BY IDOCK:   -1.12 KCAL/MOL
REMARK 927      BINDING AFFINITY PREDICTED BY RF-SCORE:    0.00 PKD
ROOT
HETATM    1  C   UNL     1     -12.371   9.194  71.217  1.00  0.00    -0.382 C  
HETATM    2  C   UNL     1     -12.252  10.654  70.881  1.00  0.00    -0.497 C  
HETATM    3  C   UNL     1     -11.441  11.106  69.905  1.00  0.00    -0.386 C  
HETATM    4  C   UNL     1     -13.104  11.617  71.656  1.00  0.00    -0.456 C  
ENDROOT
BRANCH   3   5
HETATM    5  C   UNL     1     -10.606  10.301  69.012  1.00  0.00    -0.247 C  
HETATM    6  C   UNL     1      -9.094  10.443  69.027  1.00  0.00    -0.193 C  
HETATM    7  C   UNL     1      -9.896  10.918  67.821  1.00  0.00    -0.194 C  
HETATM    8  C   UNL     1      -9.921  12.407  67.584  1.00  0.00    -0.200 C  
HETATM    9  C   UNL     1      -9.915  10.116  66.538  1.00  0.00    -0.283 C  
BRANCH   6  10
HETATM   10  C   UNL     1      -8.290   9.200  68.998  1.00  0.00    -0.127 C  
HETATM   11  O   UNL     1      -7.082   9.246  68.846  1.00  0.00    -0.066 OA 
BRANCH  10  12
HETATM   12  O   UNL     1      -9.036   8.068  69.144  1.00  0.00    -0.144 OA 
BRANCH  12  13
HETATM   13  C   UNL     1      -9.345   7.599  70.484  1.00  0.00    -0.163 C  
HETATM   14  C   UNL     1      -8.120   7.519  71.388  1.00  0.00    -0.096 C  
HETATM   15  C   UNL     1      -7.870   6.040  71.408  1.00  0.00    -0.112 C  
HETATM   16  C   UNL     1      -9.041   5.283  70.894  1.00  0.00    -0.168 C  
HETATM   17  O   UNL     1      -6.859   5.517  71.854  1.00  0.00    -0.059 OA 
HETATM   18  C   UNL     1     -11.280   5.998  69.895  1.00  0.00    -0.438 C  
HETATM   19  C   UNL     1      -9.919   6.207  70.457  1.00  0.00    -0.223 C  
BRANCH  16  20
HETATM   20  C   UNL     1      -8.997   3.802  70.782  1.00  0.00    -0.157 C  
BRANCH  20  21
HETATM   21  C   UNL     1      -9.471   3.119  72.023  1.00  0.00    -0.203 C  
HETATM   22  C   UNL     1     -10.492   3.563  72.773  1.00  0.00    -0.216 C  
ENDBRANCH  20  21
ENDBRANCH  16  20
ENDBRANCH  12  13
ENDBRANCH  10  12
ENDBRANCH   6  10
ENDBRANCH   3   5
TORSDOF 6
ENDMDL
MODEL      213
REMARK 921   NORMALIZED FREE ENERGY PREDICTED BY IDOCK:   -3.39 KCAL/MOL
REMARK 922        TOTAL FREE ENERGY PREDICTED BY IDOCK:   -6.10 KCAL/MOL
REMARK 923 INTER-LIGAND FREE ENERGY PREDICTED BY IDOCK:   -5.26 KCAL/MOL
REMARK 924 INTRA-LIGAND FREE ENERGY PREDICTED BY IDOCK:   -0.84 KCAL/MOL
REMARK 927      BINDING AFFINITY PREDICTED BY RF-SCORE:    0.00 PKD
ROOT
HETATM    1  C   UNL     1      -8.982  11.308  67.160  1.00  0.00    -0.155 C  
HETATM    2  C   UNL     1      -9.682  11.095  65.847  1.00  0.00    -0.268 C  
HETATM    3  C   UNL     1      -9.802   9.877  65.283  1.00  0.00    -0.373 C  
HETATM    4  C   UNL     1     -10.286  12.294  65.177  1.00  0.00    -0.316 C  
ENDROOT
BRANCH   3   5
HETATM    5  C   UNL     1      -9.339   8.602  65.836  1.00  0.00    -0.262 C  
HETATM    6  C   UNL     1      -8.014   8.514  66.574  1.00  0.00    -0.099 C  
HETATM    7  C   UNL     1      -8.181   7.844  65.214  1.00  0.00    -0.147 C  
HETATM    8  C   UNL     1      -7.382   8.433  64.080  1.00  0.00    -0.105 C  
HETATM    9  C   UNL     1      -8.343   6.343  65.105  1.00  0.00    -0.109 C  
BRANCH   6  10
HETATM   10  C   UNL     1      -7.985   7.739  67.835  1.00  0.00    -0.125 C  
HETATM   11  O   UNL     1      -6.927   7.363  68.307  1.00  0.00    -0.073 OA 
BRANCH  10  12
HETATM   12  O   UNL     1      -9.222   7.507  68.358  1.00  0.00    -0.140 OA 
BRANCH  12  13
HETATM   13  C   UNL     1      -9.329   7.082  69.744  1.00  0.00    -0.146 C  
HETATM   14  C   UNL     1     -10.491   6.128  69.991  1.00  0.00    -0.294 C  
HETATM   15  C   UNL     1     -11.479   7.038  70.658  1.00  0.00    -0.324 C  
HETATM   16  C   UNL     1     -10.835   8.298  71.113  1.00  0.00    -0.276 C  
HETATM   17  O   UNL     1     -12.650   6.753  70.864  1.00  0.00    -0.336 OA 
HETATM   18  C   UNL     1      -8.473   9.238  70.874  1.00  0.00    -0.203 C  
HETATM   19  C   UNL     1      -9.568   8.255  70.658  1.00  0.00    -0.190 C  
BRANCH  16  20
HETATM   20  C   UNL     1     -11.638   9.368  71.762  1.00  0.00    -0.433 C  
BRANCH  20  21
HETATM   21  C   UNL     1     -12.433  10.163  70.779  1.00  0.00    -0.417 C  
HETATM   22  C   UNL     1     -12.115  11.410  70.399  1.00  0.00    -0.473 C  
ENDBRANCH  20  21
ENDBRANCH  16  20
ENDBRANCH  12  13
ENDBRANCH  10  12
ENDBRANCH   6  10
ENDBRANCH   3   5
TORSDOF 6
ENDMDL
MODEL      214
REMARK 921   NORMALIZED FREE ENERGY PREDICTED BY IDOCK:   -3.37 KCAL/MOL
REMARK 922        TOTAL FREE ENERGY PREDICTED BY IDOCK:   -6.07 KCAL/MOL
REMARK 923 INTER-LIGAND FREE ENERGY PREDICTED BY IDOCK:   -5.44 KCAL/MOL
REMARK 924 INTRA-LIGAND FREE ENERGY PREDICTED BY IDOCK:   -0.64 KCAL/MOL
REMARK 927      BINDING AFFINITY PREDICTED BY RF-SCORE:    0.00 PKD
ROOT
HETATM    1  C   UNL     1     -11.142  10.256  69.951  1.00  0.00    -0.362 C  
HETATM    2  C   UNL     1     -11.844   9.651  71.134  1.00  0.00    -0.448 C  
HETATM    3  C   UNL     1     -11.231   8.800  71.979  1.00  0.00    -0.443 C  
HETATM    4  C   UNL     1     -13.270  10.053  71.377  1.00  0.00    -0.486 C  
ENDROOT
BRANCH   3   5
HETATM    5  C   UNL     1      -9.834   8.366  71.929  1.00  0.00    -0.328 C  
HETATM    6  C   UNL     1      -9.482   6.919  71.627  1.00  0.00    -0.157 C  
HETATM    7  C   UNL     1      -9.236   7.493  73.018  1.00  0.00    -0.233 C  
HETATM    8  C   UNL     1     -10.091   6.937  74.129  1.00  0.00    -0.351 C  
HETATM    9  C   UNL     1      -7.838   7.851  73.473  1.00  0.00    -0.214 C  
BRANCH   6  10
HETATM   10  C   UNL     1      -8.379   6.669  70.673  1.00  0.00    -0.129 C  
HETATM   11  O   UNL     1      -7.225   6.609  71.060  1.00  0.00    -0.074 OA 
BRANCH  10  12
HETATM   12  O   UNL     1      -8.797   6.534  69.382  1.00  0.00    -0.132 OA 
BRANCH  12  13
HETATM   13  C   UNL     1      -9.907   5.642  69.094  1.00  0.00    -0.162 C  
HETATM   14  C   UNL     1      -9.568   4.173  69.318  1.00  0.00    -0.256 C  
HETATM   15  C   UNL     1      -9.398   3.696  67.906  1.00  0.00    -0.190 C  
HETATM   16  C   UNL     1      -9.953   4.670  66.932  1.00  0.00    -0.239 C  
HETATM   17  O   UNL     1      -8.924   2.611  67.597  1.00  0.00    -0.129 OA 
HETATM   18  C   UNL     1     -10.996   6.988  67.182  1.00  0.00    -0.393 C  
HETATM   19  C   UNL     1     -10.331   5.744  67.653  1.00  0.00    -0.270 C  
BRANCH  16  20
HETATM   20  C   UNL     1      -9.853   4.423  65.470  1.00  0.00    -0.225 C  
BRANCH  20  21
HETATM   21  C   UNL     1      -8.742   5.193  64.834  1.00  0.00    -0.140 C  
HETATM   22  C   UNL     1      -7.471   5.156  65.261  1.00  0.00    -0.073 C  
ENDBRANCH  20  21
ENDBRANCH  16  20
ENDBRANCH  12  13
ENDBRANCH  10  12
ENDBRANCH   6  10
ENDBRANCH   3   5
TORSDOF 6
ENDMDL
MODEL      215
REMARK 921   NORMALIZED FREE ENERGY PREDICTED BY IDOCK:   -3.36 KCAL/MOL
REMARK 922        TOTAL FREE ENERGY PREDICTED BY IDOCK:   -6.06 KCAL/MOL
REMARK 923 INTER-LIGAND FREE ENERGY PREDICTED BY IDOCK:   -5.01 KCAL/MOL
REMARK 924 INTRA-LIGAND FREE ENERGY PREDICTED BY IDOCK:   -1.05 KCAL/MOL
REMARK 927      BINDING AFFINITY PREDICTED BY RF-SCORE:    0.00 PKD
ROOT
HETATM    1  C   UNL     1      -9.641   1.929  69.665  1.00  0.00    -0.048 C  
HETATM    2  C   UNL     1      -8.540   2.509  70.507  1.00  0.00    -0.101 C  
HETATM    3  C   UNL     1      -8.161   3.799  70.411  1.00  0.00    -0.073 C  
HETATM    4  C   UNL     1      -7.876   1.605  71.504  1.00  0.00    -0.040 C  
ENDROOT
BRANCH   3   5
HETATM    5  C   UNL     1      -8.750   4.826  69.550  1.00  0.00    -0.111 C  
HETATM    6  C   UNL     1      -8.700   6.292  69.947  1.00  0.00    -0.141 C  
HETATM    7  C   UNL     1     -10.030   5.545  69.936  1.00  0.00    -0.282 C  
HETATM    8  C   UNL     1     -10.677   5.319  71.279  1.00  0.00    -0.198 C  
HETATM    9  C   UNL     1     -11.035   5.769  68.828  1.00  0.00    -0.223 C  
BRANCH   6  10
HETATM   10  C   UNL     1      -8.340   7.272  68.899  1.00  0.00    -0.126 C  
HETATM   11  O   UNL     1      -7.331   7.123  68.231  1.00  0.00    -0.094 OA 
BRANCH  10  12
HETATM   12  O   UNL     1      -9.223   8.306  68.794  1.00  0.00    -0.144 OA 
BRANCH  12  13
HETATM   13  C   UNL     1      -9.217   9.338  69.817  1.00  0.00    -0.181 C  
HETATM   14  C   UNL     1      -8.489   8.919  71.088  1.00  0.00    -0.250 C  
HETATM   15  C   UNL     1      -9.643   8.639  72.005  1.00  0.00    -0.314 C  
HETATM   16  C   UNL     1     -10.910   9.200  71.471  1.00  0.00    -0.436 C  
HETATM   17  O   UNL     1      -9.543   8.080  73.088  1.00  0.00    -0.268 OA 
HETATM   18  C   UNL     1     -11.510  10.403  69.299  1.00  0.00    -0.281 C  
HETATM   19  C   UNL     1     -10.617   9.686  70.248  1.00  0.00    -0.333 C  
BRANCH  16  20
HETATM   20  C   UNL     1     -12.193   9.002  72.196  1.00  0.00    -0.427 C  
BRANCH  20  21
HETATM   21  C   UNL     1     -13.043   7.942  71.577  1.00  0.00    -0.343 C  
HETATM   22  C   UNL     1     -14.380   7.905  71.681  1.00  0.00    -0.595 C  
ENDBRANCH  20  21
ENDBRANCH  16  20
ENDBRANCH  12  13
ENDBRANCH  10  12
ENDBRANCH   6  10
ENDBRANCH   3   5
TORSDOF 6
ENDMDL
MODEL      216
REMARK 921   NORMALIZED FREE ENERGY PREDICTED BY IDOCK:   -3.33 KCAL/MOL
REMARK 922        TOTAL FREE ENERGY PREDICTED BY IDOCK:   -6.02 KCAL/MOL
REMARK 923 INTER-LIGAND FREE ENERGY PREDICTED BY IDOCK:   -4.97 KCAL/MOL
REMARK 924 INTRA-LIGAND FREE ENERGY PREDICTED BY IDOCK:   -1.06 KCAL/MOL
REMARK 927      BINDING AFFINITY PREDICTED BY RF-SCORE:    0.00 PKD
ROOT
HETATM    1  C   UNL     1      -5.499  18.252  65.624  1.00  0.00    -0.222 C  
HETATM    2  C   UNL     1      -6.420  19.429  65.463  1.00  0.00    -0.288 C  
HETATM    3  C   UNL     1      -7.528  19.586  66.214  1.00  0.00    -0.291 C  
HETATM    4  C   UNL     1      -6.050  20.467  64.444  1.00  0.00    -0.338 C  
ENDROOT
BRANCH   3   5
HETATM    5  C   UNL     1      -7.989  18.713  67.294  1.00  0.00    -0.245 C  
HETATM    6  C   UNL     1      -8.317  17.254  67.025  1.00  0.00    -0.231 C  
HETATM    7  C   UNL     1      -9.429  18.239  67.369  1.00  0.00    -0.266 C  
HETATM    8  C   UNL     1     -10.410  18.547  66.266  1.00  0.00    -0.459 C  
HETATM    9  C   UNL     1     -10.066  18.240  68.742  1.00  0.00    -0.393 C  
BRANCH   6  10
HETATM   10  C   UNL     1      -7.825  16.252  67.996  1.00  0.00    -0.149 C  
HETATM   11  O   UNL     1      -6.757  16.409  68.561  1.00  0.00    -0.133 OA 
BRANCH  10  12
HETATM   12  O   UNL     1      -8.665  15.191  68.156  1.00  0.00    -0.161 OA 
BRANCH  12  13
HETATM   13  C   UNL     1      -8.929  14.327  67.017  1.00  0.00    -0.236 C  
HETATM   14  C   UNL     1     -10.415  14.083  66.782  1.00  0.00    -0.277 C  
HETATM   15  C   UNL     1     -10.567  12.687  67.311  1.00  0.00    -0.228 C  
HETATM   16  C   UNL     1      -9.248  12.025  67.485  1.00  0.00    -0.180 C  
HETATM   17  O   UNL     1     -11.641  12.138  67.509  1.00  0.00    -0.325 OA 
HETATM   18  C   UNL     1      -6.841  12.822  67.186  1.00  0.00     0.012 C  
HETATM   19  C   UNL     1      -8.320  12.964  67.214  1.00  0.00    -0.185 C  
BRANCH  16  20
HETATM   20  C   UNL     1      -9.158  10.649  68.041  1.00  0.00    -0.147 C  
BRANCH  20  21
HETATM   21  C   UNL     1      -8.671   9.656  67.036  1.00  0.00    -0.135 C  
HETATM   22  C   UNL     1      -7.387   9.287  66.917  1.00  0.00    -0.090 C  
ENDBRANCH  20  21
ENDBRANCH  16  20
ENDBRANCH  12  13
ENDBRANCH  10  12
ENDBRANCH   6  10
ENDBRANCH   3   5
TORSDOF 6
ENDMDL
MODEL      217
REMARK 921   NORMALIZED FREE ENERGY PREDICTED BY IDOCK:   -3.29 KCAL/MOL
REMARK 922        TOTAL FREE ENERGY PREDICTED BY IDOCK:   -5.96 KCAL/MOL
REMARK 923 INTER-LIGAND FREE ENERGY PREDICTED BY IDOCK:   -4.67 KCAL/MOL
REMARK 924 INTRA-LIGAND FREE ENERGY PREDICTED BY IDOCK:   -1.29 KCAL/MOL
REMARK 927      BINDING AFFINITY PREDICTED BY RF-SCORE:    0.00 PKD
ROOT
HETATM    1  C   UNL     1      -8.214  13.994  68.457  1.00  0.00    -0.136 C  
HETATM    2  C   UNL     1      -6.807  13.837  67.951  1.00  0.00    -0.159 C  
HETATM    3  C   UNL     1      -6.416  12.771  67.227  1.00  0.00    -0.073 C  
HETATM    4  C   UNL     1      -5.833  14.939  68.253  1.00  0.00    -0.118 C  
ENDROOT
BRANCH   3   5
HETATM    5  C   UNL     1      -7.251  11.653  66.785  1.00  0.00    -0.082 C  
HETATM    6  C   UNL     1      -7.170  10.304  67.477  1.00  0.00    -0.088 C  
HETATM    7  C   UNL     1      -6.660  10.465  66.049  1.00  0.00    -0.120 C  
HETATM    8  C   UNL     1      -5.171  10.330  65.856  1.00  0.00    -0.054 C  
HETATM    9  C   UNL     1      -7.458   9.935  64.878  1.00  0.00    -0.135 C  
BRANCH   6  10
HETATM   10  C   UNL     1      -8.443   9.616  67.785  1.00  0.00    -0.125 C  
HETATM   11  O   UNL     1      -8.571   8.423  67.574  1.00  0.00    -0.127 OA 
BRANCH  10  12
HETATM   12  O   UNL     1      -9.399  10.444  68.294  1.00  0.00    -0.142 OA 
BRANCH  12  13
HETATM   13  C   UNL     1     -10.700  10.495  67.647  1.00  0.00    -0.275 C  
HETATM   14  C   UNL     1     -10.614  10.774  66.151  1.00  0.00    -0.241 C  
HETATM   15  C   UNL     1     -11.027  12.215  66.100  1.00  0.00    -0.298 C  
HETATM   16  C   UNL     1     -11.664  12.643  67.372  1.00  0.00    -0.432 C  
HETATM   17  O   UNL     1     -10.917  12.929  65.114  1.00  0.00    -0.280 OA 
HETATM   18  C   UNL     1     -12.065  11.472  69.606  1.00  0.00    -0.363 C  
HETATM   19  C   UNL     1     -11.550  11.599  68.217  1.00  0.00    -0.378 C  
BRANCH  16  20
HETATM   20  C   UNL     1     -12.111  14.048  67.561  1.00  0.00    -0.361 C  
BRANCH  20  21
HETATM   21  C   UNL     1     -11.438  14.713  68.716  1.00  0.00    -0.322 C  
HETATM   22  C   UNL     1     -12.010  15.671  69.461  1.00  0.00    -0.363 C  
ENDBRANCH  20  21
ENDBRANCH  16  20
ENDBRANCH  12  13
ENDBRANCH  10  12
ENDBRANCH   6  10
ENDBRANCH   3   5
TORSDOF 6
ENDMDL
MODEL      218
REMARK 921   NORMALIZED FREE ENERGY PREDICTED BY IDOCK:   -3.29 KCAL/MOL
REMARK 922        TOTAL FREE ENERGY PREDICTED BY IDOCK:   -5.96 KCAL/MOL
REMARK 923 INTER-LIGAND FREE ENERGY PREDICTED BY IDOCK:   -5.19 KCAL/MOL
REMARK 924 INTRA-LIGAND FREE ENERGY PREDICTED BY IDOCK:   -0.77 KCAL/MOL
REMARK 927      BINDING AFFINITY PREDICTED BY RF-SCORE:    0.00 PKD
ROOT
HETATM    1  C   UNL     1      -7.566  10.523  64.935  1.00  0.00    -0.006 C  
HETATM    2  C   UNL     1      -8.848   9.773  64.706  1.00  0.00    -0.239 C  
HETATM    3  C   UNL     1      -9.825   9.714  65.631  1.00  0.00    -0.369 C  
HETATM    4  C   UNL     1      -9.033   9.100  63.376  1.00  0.00     0.020 C  
ENDROOT
BRANCH   3   5
HETATM    5  C   UNL     1      -9.837  10.371  66.940  1.00  0.00    -0.236 C  
HETATM    6  C   UNL     1     -11.107  10.418  67.772  1.00  0.00    -0.365 C  
HETATM    7  C   UNL     1     -10.546  11.695  67.156  1.00  0.00    -0.269 C  
HETATM    8  C   UNL     1     -11.373  12.324  66.063  1.00  0.00    -0.398 C  
HETATM    9  C   UNL     1      -9.822  12.714  68.009  1.00  0.00    -0.218 C  
BRANCH   6  10
HETATM   10  C   UNL     1     -10.988  10.124  69.218  1.00  0.00    -0.240 C  
HETATM   11  O   UNL     1     -11.362  10.933  70.048  1.00  0.00    -0.288 OA 
BRANCH  10  12
HETATM   12  O   UNL     1     -10.428   8.909  69.481  1.00  0.00    -0.219 OA 
BRANCH  12  13
HETATM   13  C   UNL     1     -11.216   7.913  70.189  1.00  0.00    -0.152 C  
HETATM   14  C   UNL     1     -11.436   8.257  71.657  1.00  0.00    -0.333 C  
HETATM   15  C   UNL     1     -10.470   7.321  72.323  1.00  0.00    -0.214 C  
HETATM   16  C   UNL     1     -10.007   6.263  71.388  1.00  0.00    -0.210 C  
HETATM   17  O   UNL     1     -10.157   7.379  73.503  1.00  0.00    -0.297 OA 
HETATM   18  C   UNL     1     -10.425   5.817  68.909  1.00  0.00    -0.326 C  
HETATM   19  C   UNL     1     -10.530   6.572  70.186  1.00  0.00    -0.259 C  
BRANCH  16  20
HETATM   20  C   UNL     1      -9.009   5.251  71.824  1.00  0.00    -0.147 C  
BRANCH  20  21
HETATM   21  C   UNL     1      -9.638   3.941  72.174  1.00  0.00    -0.209 C  
HETATM   22  C   UNL     1      -9.506   2.831  71.432  1.00  0.00    -0.216 C  
ENDBRANCH  20  21
ENDBRANCH  16  20
ENDBRANCH  12  13
ENDBRANCH  10  12
ENDBRANCH   6  10
ENDBRANCH   3   5
TORSDOF 6
ENDMDL
MODEL      219
REMARK 921   NORMALIZED FREE ENERGY PREDICTED BY IDOCK:   -3.28 KCAL/MOL
REMARK 922        TOTAL FREE ENERGY PREDICTED BY IDOCK:   -5.95 KCAL/MOL
REMARK 923 INTER-LIGAND FREE ENERGY PREDICTED BY IDOCK:   -5.43 KCAL/MOL
REMARK 924 INTRA-LIGAND FREE ENERGY PREDICTED BY IDOCK:   -0.51 KCAL/MOL
REMARK 927      BINDING AFFINITY PREDICTED BY RF-SCORE:    0.00 PKD
ROOT
HETATM    1  C   UNL     1      -6.275  14.883  69.893  1.00  0.00    -0.149 C  
HETATM    2  C   UNL     1      -6.057  13.397  69.938  1.00  0.00    -0.126 C  
HETATM    3  C   UNL     1      -6.523  12.570  68.982  1.00  0.00    -0.097 C  
HETATM    4  C   UNL     1      -5.259  12.844  71.084  1.00  0.00    -0.173 C  
ENDROOT
BRANCH   3   5
HETATM    5  C   UNL     1      -7.249  12.949  67.768  1.00  0.00    -0.134 C  
HETATM    6  C   UNL     1      -8.419  13.917  67.836  1.00  0.00    -0.177 C  
HETATM    7  C   UNL     1      -8.656  12.449  67.498  1.00  0.00    -0.177 C  
HETATM    8  C   UNL     1      -9.408  11.643  68.527  1.00  0.00    -0.169 C  
HETATM    9  C   UNL     1      -8.955  12.019  66.078  1.00  0.00    -0.021 C  
BRANCH   6  10
HETATM   10  C   UNL     1      -8.485  14.981  66.809  1.00  0.00    -0.204 C  
HETATM   11  O   UNL     1      -7.607  15.821  66.730  1.00  0.00    -0.218 OA 
BRANCH  10  12
HETATM   12  O   UNL     1      -9.596  14.908  66.022  1.00  0.00    -0.296 OA 
BRANCH  12  13
HETATM   13  C   UNL     1     -10.821  15.545  66.477  1.00  0.00    -0.284 C  
HETATM   14  C   UNL     1     -10.575  16.675  67.470  1.00  0.00    -0.311 C  
HETATM   15  C   UNL     1     -10.962  16.017  68.761  1.00  0.00    -0.320 C  
HETATM   16  C   UNL     1     -11.724  14.763  68.525  1.00  0.00    -0.347 C  
HETATM   17  O   UNL     1     -10.741  16.487  69.868  1.00  0.00    -0.329 OA 
HETATM   18  C   UNL     1     -12.372  13.484  66.412  1.00  0.00    -0.413 C  
HETATM   19  C   UNL     1     -11.712  14.564  67.193  1.00  0.00    -0.420 C  
BRANCH  16  20
HETATM   20  C   UNL     1     -12.171  13.921  69.666  1.00  0.00    -0.374 C  
BRANCH  20  21
HETATM   21  C   UNL     1     -13.139  14.630  70.556  1.00  0.00    -0.252 C  
HETATM   22  C   UNL     1     -13.193  14.456  71.885  1.00  0.00    -0.444 C  
ENDBRANCH  20  21
ENDBRANCH  16  20
ENDBRANCH  12  13
ENDBRANCH  10  12
ENDBRANCH   6  10
ENDBRANCH   3   5
TORSDOF 6
ENDMDL
MODEL      220
REMARK 921   NORMALIZED FREE ENERGY PREDICTED BY IDOCK:   -3.27 KCAL/MOL
REMARK 922        TOTAL FREE ENERGY PREDICTED BY IDOCK:   -5.94 KCAL/MOL
REMARK 923 INTER-LIGAND FREE ENERGY PREDICTED BY IDOCK:   -4.41 KCAL/MOL
REMARK 924 INTRA-LIGAND FREE ENERGY PREDICTED BY IDOCK:   -1.53 KCAL/MOL
REMARK 927      BINDING AFFINITY PREDICTED BY RF-SCORE:    0.00 PKD
ROOT
HETATM    1  C   UNL     1      -8.502   8.901  63.993  1.00  0.00    -0.146 C  
HETATM    2  C   UNL     1      -7.324   8.494  64.831  1.00  0.00    -0.087 C  
HETATM    3  C   UNL     1      -7.461   7.819  65.989  1.00  0.00    -0.078 C  
HETATM    4  C   UNL     1      -5.954   8.837  64.321  1.00  0.00    -0.066 C  
ENDROOT
BRANCH   3   5
HETATM    5  C   UNL     1      -8.710   7.345  66.588  1.00  0.00    -0.141 C  
HETATM    6  C   UNL     1      -8.763   6.940  68.051  1.00  0.00    -0.125 C  
HETATM    7  C   UNL     1      -8.907   5.886  66.958  1.00  0.00    -0.112 C  
HETATM    8  C   UNL     1      -7.779   4.892  66.840  1.00  0.00    -0.092 C  
HETATM    9  C   UNL     1     -10.258   5.287  66.633  1.00  0.00    -0.291 C  
BRANCH   6  10
HETATM   10  C   UNL     1      -9.918   7.410  68.848  1.00  0.00    -0.169 C  
HETATM   11  O   UNL     1     -10.323   6.760  69.796  1.00  0.00    -0.189 OA 
BRANCH  10  12
HETATM   12  O   UNL     1     -10.444   8.586  68.402  1.00  0.00    -0.212 OA 
BRANCH  12  13
HETATM   13  C   UNL     1      -9.948   9.833  68.960  1.00  0.00    -0.184 C  
HETATM   14  C   UNL     1     -10.674  10.249  70.234  1.00  0.00    -0.310 C  
HETATM   15  C   UNL     1     -11.558  11.346  69.720  1.00  0.00    -0.332 C  
HETATM   16  C   UNL     1     -11.131  11.802  68.372  1.00  0.00    -0.286 C  
HETATM   17  O   UNL     1     -12.472  11.850  70.357  1.00  0.00    -0.253 OA 
HETATM   18  C   UNL     1      -9.316  11.016  66.756  1.00  0.00    -0.199 C  
HETATM   19  C   UNL     1     -10.136  10.975  67.997  1.00  0.00    -0.198 C  
BRANCH  16  20
HETATM   20  C   UNL     1     -11.894  12.854  67.650  1.00  0.00    -0.400 C  
BRANCH  20  21
HETATM   21  C   UNL     1     -11.241  14.195  67.736  1.00  0.00    -0.307 C  
HETATM   22  C   UNL     1     -10.007  14.391  68.224  1.00  0.00    -0.232 C  
ENDBRANCH  20  21
ENDBRANCH  16  20
ENDBRANCH  12  13
ENDBRANCH  10  12
ENDBRANCH   6  10
ENDBRANCH   3   5
TORSDOF 6
ENDMDL
MODEL      221
REMARK 921   NORMALIZED FREE ENERGY PREDICTED BY IDOCK:   -3.26 KCAL/MOL
REMARK 922        TOTAL FREE ENERGY PREDICTED BY IDOCK:   -5.92 KCAL/MOL
REMARK 923 INTER-LIGAND FREE ENERGY PREDICTED BY IDOCK:   -5.28 KCAL/MOL
REMARK 924 INTRA-LIGAND FREE ENERGY PREDICTED BY IDOCK:   -0.64 KCAL/MOL
REMARK 927      BINDING AFFINITY PREDICTED BY RF-SCORE:    0.00 PKD
ROOT
HETATM    1  C   UNL     1     -11.574  12.287  65.875  1.00  0.00    -0.450 C  
HETATM    2  C   UNL     1     -10.767  11.552  64.842  1.00  0.00    -0.357 C  
HETATM    3  C   UNL     1      -9.586  10.971  65.128  1.00  0.00    -0.281 C  
HETATM    4  C   UNL     1     -11.338  11.449  63.457  1.00  0.00    -0.257 C  
ENDROOT
BRANCH   3   5
HETATM    5  C   UNL     1      -8.928  10.914  66.435  1.00  0.00    -0.186 C  
HETATM    6  C   UNL     1      -7.827  11.898  66.792  1.00  0.00    -0.070 C  
HETATM    7  C   UNL     1      -7.500  10.423  66.582  1.00  0.00    -0.114 C  
HETATM    8  C   UNL     1      -6.660  10.094  65.373  1.00  0.00    -0.120 C  
HETATM    9  C   UNL     1      -7.219   9.516  67.760  1.00  0.00    -0.082 C  
BRANCH   6  10
HETATM   10  C   UNL     1      -7.868  12.510  68.139  1.00  0.00    -0.151 C  
HETATM   11  O   UNL     1      -6.841  12.690  68.770  1.00  0.00    -0.087 OA 
BRANCH  10  12
HETATM   12  O   UNL     1      -9.128  12.816  68.558  1.00  0.00    -0.154 OA 
BRANCH  12  13
HETATM   13  C   UNL     1      -9.811  13.951  67.959  1.00  0.00    -0.234 C  
HETATM   14  C   UNL     1      -8.882  15.125  67.672  1.00  0.00    -0.178 C  
HETATM   15  C   UNL     1      -9.245  16.062  68.786  1.00  0.00    -0.224 C  
HETATM   16  C   UNL     1     -10.520  15.663  69.437  1.00  0.00    -0.253 C  
HETATM   17  O   UNL     1      -8.610  17.065  69.077  1.00  0.00    -0.230 OA 
HETATM   18  C   UNL     1     -12.098  13.681  69.120  1.00  0.00    -0.361 C  
HETATM   19  C   UNL     1     -10.877  14.493  68.874  1.00  0.00    -0.262 C  
BRANCH  16  20
HETATM   20  C   UNL     1     -11.049  16.426  70.598  1.00  0.00    -0.179 C  
BRANCH  20  21
HETATM   21  C   UNL     1     -11.495  15.537  71.712  1.00  0.00    -0.504 C  
HETATM   22  C   UNL     1     -12.512  15.829  72.536  1.00  0.00    -0.542 C  
ENDBRANCH  20  21
ENDBRANCH  16  20
ENDBRANCH  12  13
ENDBRANCH  10  12
ENDBRANCH   6  10
ENDBRANCH   3   5
TORSDOF 6
ENDMDL
MODEL      222
REMARK 921   NORMALIZED FREE ENERGY PREDICTED BY IDOCK:   -3.24 KCAL/MOL
REMARK 922        TOTAL FREE ENERGY PREDICTED BY IDOCK:   -5.90 KCAL/MOL
REMARK 923 INTER-LIGAND FREE ENERGY PREDICTED BY IDOCK:   -5.41 KCAL/MOL
REMARK 924 INTRA-LIGAND FREE ENERGY PREDICTED BY IDOCK:   -0.49 KCAL/MOL
REMARK 927      BINDING AFFINITY PREDICTED BY RF-SCORE:    0.00 PKD
ROOT
HETATM    1  C   UNL     1      -9.429   9.035  69.591  1.00  0.00    -0.174 C  
HETATM    2  C   UNL     1      -9.356   9.169  68.096  1.00  0.00    -0.147 C  
HETATM    3  C   UNL     1      -8.791  10.233  67.493  1.00  0.00    -0.128 C  
HETATM    4  C   UNL     1      -9.913   8.047  67.268  1.00  0.00    -0.282 C  
ENDROOT
BRANCH   3   5
HETATM    5  C   UNL     1      -8.140  11.370  68.147  1.00  0.00    -0.137 C  
HETATM    6  C   UNL     1      -7.596  12.527  67.327  1.00  0.00    -0.131 C  
HETATM    7  C   UNL     1      -6.640  11.585  68.052  1.00  0.00    -0.058 C  
HETATM    8  C   UNL     1      -5.780  10.708  67.178  1.00  0.00    -0.043 C  
HETATM    9  C   UNL     1      -5.942  12.018  69.323  1.00  0.00    -0.081 C  
BRANCH   6  10
HETATM   10  C   UNL     1      -7.870  13.898  67.814  1.00  0.00    -0.168 C  
HETATM   11  O   UNL     1      -7.237  14.847  67.385  1.00  0.00    -0.194 OA 
BRANCH  10  12
HETATM   12  O   UNL     1      -8.854  13.953  68.756  1.00  0.00    -0.117 OA 
BRANCH  12  13
HETATM   13  C   UNL     1     -10.211  14.262  68.336  1.00  0.00    -0.245 C  
HETATM   14  C   UNL     1     -11.259  13.379  69.002  1.00  0.00    -0.323 C  
HETATM   15  C   UNL     1     -11.601  12.439  67.884  1.00  0.00    -0.356 C  
HETATM   16  C   UNL     1     -11.102  12.943  66.579  1.00  0.00    -0.318 C  
HETATM   17  O   UNL     1     -12.266  11.422  68.018  1.00  0.00    -0.607 OA 
HETATM   18  C   UNL     1      -9.708  14.975  65.908  1.00  0.00    -0.376 C  
HETATM   19  C   UNL     1     -10.385  14.050  66.855  1.00  0.00    -0.269 C  
BRANCH  16  20
HETATM   20  C   UNL     1     -11.290  12.148  65.337  1.00  0.00    -0.388 C  
BRANCH  20  21
HETATM   21  C   UNL     1     -12.360  12.706  64.456  1.00  0.00    -0.537 C  
HETATM   22  C   UNL     1     -12.997  11.992  63.516  1.00  0.00    -0.329 C  
ENDBRANCH  20  21
ENDBRANCH  16  20
ENDBRANCH  12  13
ENDBRANCH  10  12
ENDBRANCH   6  10
ENDBRANCH   3   5
TORSDOF 6
ENDMDL
MODEL      223
REMARK 921   NORMALIZED FREE ENERGY PREDICTED BY IDOCK:   -3.24 KCAL/MOL
REMARK 922        TOTAL FREE ENERGY PREDICTED BY IDOCK:   -5.90 KCAL/MOL
REMARK 923 INTER-LIGAND FREE ENERGY PREDICTED BY IDOCK:   -4.73 KCAL/MOL
REMARK 924 INTRA-LIGAND FREE ENERGY PREDICTED BY IDOCK:   -1.16 KCAL/MOL
REMARK 927      BINDING AFFINITY PREDICTED BY RF-SCORE:    0.00 PKD
ROOT
HETATM    1  C   UNL     1     -10.602  15.751  65.085  1.00  0.00    -0.436 C  
HETATM    2  C   UNL     1     -11.192  14.370  65.010  1.00  0.00    -0.376 C  
HETATM    3  C   UNL     1     -10.731  13.347  65.756  1.00  0.00    -0.280 C  
HETATM    4  C   UNL     1     -12.355  14.159  64.084  1.00  0.00    -0.372 C  
ENDROOT
BRANCH   3   5
HETATM    5  C   UNL     1      -9.662  13.399  66.755  1.00  0.00    -0.262 C  
HETATM    6  C   UNL     1      -9.591  12.368  67.868  1.00  0.00    -0.205 C  
HETATM    7  C   UNL     1      -9.937  13.818  68.188  1.00  0.00    -0.242 C  
HETATM    8  C   UNL     1     -11.342  14.076  68.669  1.00  0.00    -0.307 C  
HETATM    9  C   UNL     1      -8.917  14.735  68.826  1.00  0.00    -0.179 C  
BRANCH   6  10
HETATM   10  C   UNL     1      -8.265  11.788  68.178  1.00  0.00    -0.153 C  
HETATM   11  O   UNL     1      -7.265  12.184  67.605  1.00  0.00    -0.101 OA 
BRANCH  10  12
HETATM   12  O   UNL     1      -8.309  10.805  69.122  1.00  0.00    -0.150 OA 
BRANCH  12  13
HETATM   13  C   UNL     1      -8.140   9.424  68.704  1.00  0.00    -0.104 C  
HETATM   14  C   UNL     1      -6.705   9.087  68.315  1.00  0.00    -0.061 C  
HETATM   15  C   UNL     1      -6.807   9.062  66.819  1.00  0.00    -0.080 C  
HETATM   16  C   UNL     1      -8.223   9.004  66.372  1.00  0.00    -0.111 C  
HETATM   17  O   UNL     1      -5.847   9.023  66.063  1.00  0.00    -0.049 OA 
HETATM   18  C   UNL     1     -10.451   9.065  67.617  1.00  0.00    -0.324 C  
HETATM   19  C   UNL     1      -8.971   9.116  67.487  1.00  0.00    -0.131 C  
BRANCH  16  20
HETATM   20  C   UNL     1      -8.562   9.016  64.924  1.00  0.00    -0.206 C  
BRANCH  20  21
HETATM   21  C   UNL     1      -8.882  10.386  64.423  1.00  0.00    -0.223 C  
HETATM   22  C   UNL     1      -9.876  10.650  63.562  1.00  0.00    -0.384 C  
ENDBRANCH  20  21
ENDBRANCH  16  20
ENDBRANCH  12  13
ENDBRANCH  10  12
ENDBRANCH   6  10
ENDBRANCH   3   5
TORSDOF 6
ENDMDL
MODEL      224
REMARK 921   NORMALIZED FREE ENERGY PREDICTED BY IDOCK:   -3.23 KCAL/MOL
REMARK 922        TOTAL FREE ENERGY PREDICTED BY IDOCK:   -5.89 KCAL/MOL
REMARK 923 INTER-LIGAND FREE ENERGY PREDICTED BY IDOCK:   -4.73 KCAL/MOL
REMARK 924 INTRA-LIGAND FREE ENERGY PREDICTED BY IDOCK:   -1.16 KCAL/MOL
REMARK 927      BINDING AFFINITY PREDICTED BY RF-SCORE:    0.00 PKD
ROOT
HETATM    1  C   UNL     1      -7.991   8.355  63.758  1.00  0.00    -0.159 C  
HETATM    2  C   UNL     1      -7.029   7.616  64.646  1.00  0.00    -0.052 C  
HETATM    3  C   UNL     1      -7.386   7.134  65.852  1.00  0.00    -0.075 C  
HETATM    4  C   UNL     1      -5.636   7.395  64.131  1.00  0.00    -0.033 C  
ENDROOT
BRANCH   3   5
HETATM    5  C   UNL     1      -8.713   7.198  66.467  1.00  0.00    -0.139 C  
HETATM    6  C   UNL     1      -8.870   7.158  67.978  1.00  0.00    -0.129 C  
HETATM    7  C   UNL     1      -9.340   5.983  67.126  1.00  0.00    -0.121 C  
HETATM    8  C   UNL     1      -8.569   4.697  67.284  1.00  0.00    -0.104 C  
HETATM    9  C   UNL     1     -10.813   5.759  66.859  1.00  0.00    -0.337 C  
BRANCH   6  10
HETATM   10  C   UNL     1      -9.819   8.113  68.592  1.00  0.00    -0.183 C  
HETATM   11  O   UNL     1     -10.593   7.748  69.458  1.00  0.00    -0.227 OA 
BRANCH  10  12
HETATM   12  O   UNL     1      -9.726   9.374  68.082  1.00  0.00    -0.141 OA 
BRANCH  12  13
HETATM   13  C   UNL     1     -10.829   9.895  67.292  1.00  0.00    -0.199 C  
HETATM   14  C   UNL     1     -10.468  10.109  65.827  1.00  0.00    -0.128 C  
HETATM   15  C   UNL     1     -10.314  11.600  65.780  1.00  0.00    -0.249 C  
HETATM   16  C   UNL     1     -10.898  12.245  66.985  1.00  0.00    -0.288 C  
HETATM   17  O   UNL     1      -9.832  12.214  64.839  1.00  0.00    -0.237 OA 
HETATM   18  C   UNL     1     -11.966  11.324  69.113  1.00  0.00    -0.405 C  
HETATM   19  C   UNL     1     -11.277  11.240  67.799  1.00  0.00    -0.354 C  
BRANCH  16  20
HETATM   20  C   UNL     1     -10.818  13.718  67.171  1.00  0.00    -0.288 C  
BRANCH  20  21
HETATM   21  C   UNL     1     -12.019  14.428  66.638  1.00  0.00    -0.414 C  
HETATM   22  C   UNL     1     -12.826  13.920  65.694  1.00  0.00    -0.467 C  
ENDBRANCH  20  21
ENDBRANCH  16  20
ENDBRANCH  12  13
ENDBRANCH  10  12
ENDBRANCH   6  10
ENDBRANCH   3   5
TORSDOF 6
ENDMDL
MODEL      225
REMARK 921   NORMALIZED FREE ENERGY PREDICTED BY IDOCK:   -3.21 KCAL/MOL
REMARK 922        TOTAL FREE ENERGY PREDICTED BY IDOCK:   -5.86 KCAL/MOL
REMARK 923 INTER-LIGAND FREE ENERGY PREDICTED BY IDOCK:   -3.94 KCAL/MOL
REMARK 924 INTRA-LIGAND FREE ENERGY PREDICTED BY IDOCK:   -1.92 KCAL/MOL
REMARK 927      BINDING AFFINITY PREDICTED BY RF-SCORE:    0.00 PKD
ROOT
HETATM    1  C   UNL     1     -11.869  12.072  69.318  1.00  0.00    -0.377 C  
HETATM    2  C   UNL     1     -11.105  11.698  68.078  1.00  0.00    -0.299 C  
HETATM    3  C   UNL     1      -9.958  10.994  68.123  1.00  0.00    -0.190 C  
HETATM    4  C   UNL     1     -11.681  12.111  66.755  1.00  0.00    -0.377 C  
ENDROOT
BRANCH   3   5
HETATM    5  C   UNL     1      -9.303  10.453  69.316  1.00  0.00    -0.202 C  
HETATM    6  C   UNL     1      -8.327   9.295  69.206  1.00  0.00    -0.124 C  
HETATM    7  C   UNL     1      -9.680   9.096  69.880  1.00  0.00    -0.206 C  
HETATM    8  C   UNL     1     -10.655   8.196  69.162  1.00  0.00    -0.179 C  
HETATM    9  C   UNL     1      -9.790   9.001  71.386  1.00  0.00    -0.381 C  
BRANCH   6  10
HETATM   10  C   UNL     1      -7.069   9.386  69.980  1.00  0.00    -0.083 C  
HETATM   11  O   UNL     1      -6.330   8.422  70.080  1.00  0.00    -0.034 OA 
BRANCH  10  12
HETATM   12  O   UNL     1      -6.864  10.611  70.542  1.00  0.00    -0.309 OA 
BRANCH  12  13
HETATM   13  C   UNL     1      -5.678  11.364  70.169  1.00  0.00    -0.129 C  
HETATM   14  C   UNL     1      -5.208  12.320  71.259  1.00  0.00    -0.103 C  
HETATM   15  C   UNL     1      -5.674  13.637  70.713  1.00  0.00    -0.197 C  
HETATM   16  C   UNL     1      -6.035  13.531  69.275  1.00  0.00    -0.091 C  
HETATM   17  O   UNL     1      -5.689  14.681  71.348  1.00  0.00    -0.125 OA 
HETATM   18  C   UNL     1      -6.135  11.573  67.639  1.00  0.00    -0.062 C  
HETATM   19  C   UNL     1      -5.935  12.225  68.960  1.00  0.00    -0.070 C  
BRANCH  16  20
HETATM   20  C   UNL     1      -6.566  14.708  68.538  1.00  0.00    -0.095 C  
BRANCH  20  21
HETATM   21  C   UNL     1      -7.977  14.512  68.088  1.00  0.00    -0.133 C  
HETATM   22  C   UNL     1      -9.047  14.829  68.832  1.00  0.00    -0.168 C  
ENDBRANCH  20  21
ENDBRANCH  16  20
ENDBRANCH  12  13
ENDBRANCH  10  12
ENDBRANCH   6  10
ENDBRANCH   3   5
TORSDOF 6
ENDMDL
MODEL      226
REMARK 921   NORMALIZED FREE ENERGY PREDICTED BY IDOCK:   -3.19 KCAL/MOL
REMARK 922        TOTAL FREE ENERGY PREDICTED BY IDOCK:   -5.83 KCAL/MOL
REMARK 923 INTER-LIGAND FREE ENERGY PREDICTED BY IDOCK:   -4.72 KCAL/MOL
REMARK 924 INTRA-LIGAND FREE ENERGY PREDICTED BY IDOCK:   -1.12 KCAL/MOL
REMARK 927      BINDING AFFINITY PREDICTED BY RF-SCORE:    0.00 PKD
ROOT
HETATM    1  C   UNL     1      -8.544   4.393  71.182  1.00  0.00    -0.120 C  
HETATM    2  C   UNL     1      -8.535   5.760  71.808  1.00  0.00    -0.131 C  
HETATM    3  C   UNL     1      -8.879   6.868  71.124  1.00  0.00    -0.142 C  
HETATM    4  C   UNL     1      -8.156   5.859  73.257  1.00  0.00    -0.116 C  
ENDROOT
BRANCH   3   5
HETATM    5  C   UNL     1      -9.341   6.938  69.737  1.00  0.00    -0.146 C  
HETATM    6  C   UNL     1     -10.175   8.114  69.255  1.00  0.00    -0.216 C  
HETATM    7  C   UNL     1     -10.801   6.728  69.377  1.00  0.00    -0.312 C  
HETATM    8  C   UNL     1     -11.852   6.565  70.446  1.00  0.00    -0.378 C  
HETATM    9  C   UNL     1     -11.076   5.892  68.146  1.00  0.00    -0.121 C  
BRANCH   6  10
HETATM   10  C   UNL     1      -9.826   8.707  67.946  1.00  0.00    -0.173 C  
HETATM   11  O   UNL     1      -8.956   8.211  67.252  1.00  0.00    -0.134 OA 
BRANCH  10  12
HETATM   12  O   UNL     1     -10.553   9.820  67.643  1.00  0.00    -0.242 OA 
BRANCH  12  13
HETATM   13  C   UNL     1     -10.593  10.914  68.599  1.00  0.00    -0.195 C  
HETATM   14  C   UNL     1     -11.897  11.701  68.555  1.00  0.00    -0.357 C  
HETATM   15  C   UNL     1     -11.464  12.940  67.828  1.00  0.00    -0.323 C  
HETATM   16  C   UNL     1      -9.983  13.056  67.786  1.00  0.00    -0.227 C  
HETATM   17  O   UNL     1     -12.231  13.784  67.387  1.00  0.00    -0.368 OA 
HETATM   18  C   UNL     1      -8.089  11.536  68.575  1.00  0.00    -0.146 C  
HETATM   19  C   UNL     1      -9.504  11.918  68.325  1.00  0.00    -0.197 C  
BRANCH  16  20
HETATM   20  C   UNL     1      -9.331  14.187  67.074  1.00  0.00    -0.253 C  
BRANCH  20  21
HETATM   21  C   UNL     1      -8.873  15.261  68.006  1.00  0.00    -0.169 C  
HETATM   22  C   UNL     1      -9.560  15.646  69.092  1.00  0.00    -0.251 C  
ENDBRANCH  20  21
ENDBRANCH  16  20
ENDBRANCH  12  13
ENDBRANCH  10  12
ENDBRANCH   6  10
ENDBRANCH   3   5
TORSDOF 6
ENDMDL
MODEL      227
REMARK 921   NORMALIZED FREE ENERGY PREDICTED BY IDOCK:   -3.18 KCAL/MOL
REMARK 922        TOTAL FREE ENERGY PREDICTED BY IDOCK:   -5.81 KCAL/MOL
REMARK 923 INTER-LIGAND FREE ENERGY PREDICTED BY IDOCK:   -4.54 KCAL/MOL
REMARK 924 INTRA-LIGAND FREE ENERGY PREDICTED BY IDOCK:   -1.28 KCAL/MOL
REMARK 927      BINDING AFFINITY PREDICTED BY RF-SCORE:    0.00 PKD
ROOT
HETATM    1  C   UNL     1      -7.382  16.428  66.581  1.00  0.00    -0.241 C  
HETATM    2  C   UNL     1      -8.060  16.321  67.918  1.00  0.00    -0.153 C  
HETATM    3  C   UNL     1      -8.646  15.183  68.340  1.00  0.00    -0.159 C  
HETATM    4  C   UNL     1      -8.041  17.530  68.807  1.00  0.00    -0.232 C  
ENDROOT
BRANCH   3   5
HETATM    5  C   UNL     1      -8.689  13.902  67.634  1.00  0.00    -0.187 C  
HETATM    6  C   UNL     1      -9.335  12.685  68.275  1.00  0.00    -0.195 C  
HETATM    7  C   UNL     1      -7.825  12.731  68.065  1.00  0.00    -0.150 C  
HETATM    8  C   UNL     1      -6.981  12.801  69.312  1.00  0.00     0.041 C  
HETATM    9  C   UNL     1      -7.173  11.933  66.956  1.00  0.00    -0.118 C  
BRANCH   6  10
HETATM   10  C   UNL     1     -10.223  11.857  67.429  1.00  0.00    -0.196 C  
HETATM   11  O   UNL     1     -10.388  12.128  66.253  1.00  0.00    -0.215 OA 
BRANCH  10  12
HETATM   12  O   UNL     1     -10.804  10.823  68.101  1.00  0.00    -0.199 OA 
BRANCH  12  13
HETATM   13  C   UNL     1     -10.062  10.175  69.169  1.00  0.00    -0.213 C  
HETATM   14  C   UNL     1      -9.030   9.175  68.660  1.00  0.00    -0.136 C  
HETATM   15  C   UNL     1      -9.717   7.874  68.950  1.00  0.00    -0.158 C  
HETATM   16  C   UNL     1     -10.859   8.059  69.882  1.00  0.00    -0.217 C  
HETATM   17  O   UNL     1      -9.344   6.788  68.529  1.00  0.00    -0.128 OA 
HETATM   18  C   UNL     1     -11.924  10.118  70.953  1.00  0.00    -0.461 C  
HETATM   19  C   UNL     1     -10.976   9.388  70.070  1.00  0.00    -0.267 C  
BRANCH  16  20
HETATM   20  C   UNL     1     -11.713   6.906  70.273  1.00  0.00    -0.344 C  
BRANCH  20  21
HETATM   21  C   UNL     1     -11.548   6.533  71.710  1.00  0.00    -0.359 C  
HETATM   22  C   UNL     1     -10.468   5.903  72.196  1.00  0.00    -0.250 C  
ENDBRANCH  20  21
ENDBRANCH  16  20
ENDBRANCH  12  13
ENDBRANCH  10  12
ENDBRANCH   6  10
ENDBRANCH   3   5
TORSDOF 6
ENDMDL
MODEL      228
REMARK 921   NORMALIZED FREE ENERGY PREDICTED BY IDOCK:   -3.17 KCAL/MOL
REMARK 922        TOTAL FREE ENERGY PREDICTED BY IDOCK:   -5.81 KCAL/MOL
REMARK 923 INTER-LIGAND FREE ENERGY PREDICTED BY IDOCK:   -5.47 KCAL/MOL
REMARK 924 INTRA-LIGAND FREE ENERGY PREDICTED BY IDOCK:   -0.33 KCAL/MOL
REMARK 927      BINDING AFFINITY PREDICTED BY RF-SCORE:    0.00 PKD
ROOT
HETATM    1  C   UNL     1     -11.909  14.633  74.122  1.00  0.00     0.293 C  
HETATM    2  C   UNL     1     -12.041  16.028  73.579  1.00  0.00    -0.573 C  
HETATM    3  C   UNL     1     -11.912  16.306  72.267  1.00  0.00    -0.605 C  
HETATM    4  C   UNL     1     -12.359  17.126  74.551  1.00  0.00     0.135 C  
ENDROOT
BRANCH   3   5
HETATM    5  C   UNL     1     -11.678  15.349  71.184  1.00  0.00    -0.418 C  
HETATM    6  C   UNL     1     -12.336  15.538  69.827  1.00  0.00    -0.261 C  
HETATM    7  C   UNL     1     -12.759  14.385  70.731  1.00  0.00    -0.427 C  
HETATM    8  C   UNL     1     -14.156  14.459  71.294  1.00  0.00    -0.282 C  
HETATM    9  C   UNL     1     -12.316  12.968  70.439  1.00  0.00    -0.351 C  
BRANCH   6  10
HETATM   10  C   UNL     1     -11.497  15.329  68.626  1.00  0.00    -0.337 C  
HETATM   11  O   UNL     1     -11.208  16.264  67.901  1.00  0.00    -0.309 OA 
BRANCH  10  12
HETATM   12  O   UNL     1     -11.124  14.030  68.443  1.00  0.00    -0.236 OA 
BRANCH  12  13
HETATM   13  C   UNL     1     -10.640  13.617  67.136  1.00  0.00    -0.272 C  
HETATM   14  C   UNL     1     -11.388  12.415  66.573  1.00  0.00    -0.392 C  
HETATM   15  C   UNL     1     -10.389  11.319  66.797  1.00  0.00    -0.238 C  
HETATM   16  C   UNL     1      -9.042  11.866  67.103  1.00  0.00    -0.178 C  
HETATM   17  O   UNL     1     -10.634  10.127  66.676  1.00  0.00    -0.212 OA 
HETATM   18  C   UNL     1      -8.153  14.237  67.435  1.00  0.00    -0.213 C  
HETATM   19  C   UNL     1      -9.194  13.202  67.196  1.00  0.00    -0.227 C  
BRANCH  16  20
HETATM   20  C   UNL     1      -7.905  10.957  67.406  1.00  0.00    -0.113 C  
BRANCH  20  21
HETATM   21  C   UNL     1      -7.763  10.684  68.867  1.00  0.00    -0.121 C  
HETATM   22  C   UNL     1      -6.689  11.037  69.589  1.00  0.00    -0.137 C  
ENDBRANCH  20  21
ENDBRANCH  16  20
ENDBRANCH  12  13
ENDBRANCH  10  12
ENDBRANCH   6  10
ENDBRANCH   3   5
TORSDOF 6
ENDMDL
MODEL      229
REMARK 921   NORMALIZED FREE ENERGY PREDICTED BY IDOCK:   -3.17 KCAL/MOL
REMARK 922        TOTAL FREE ENERGY PREDICTED BY IDOCK:   -5.80 KCAL/MOL
REMARK 923 INTER-LIGAND FREE ENERGY PREDICTED BY IDOCK:   -4.55 KCAL/MOL
REMARK 924 INTRA-LIGAND FREE ENERGY PREDICTED BY IDOCK:   -1.26 KCAL/MOL
REMARK 927      BINDING AFFINITY PREDICTED BY RF-SCORE:    0.00 PKD
ROOT
HETATM    1  C   UNL     1      -9.433   2.862  69.374  1.00  0.00    -0.158 C  
HETATM    2  C   UNL     1      -9.265   3.689  70.618  1.00  0.00    -0.204 C  
HETATM    3  C   UNL     1      -9.210   5.035  70.588  1.00  0.00    -0.195 C  
HETATM    4  C   UNL     1      -9.189   2.964  71.931  1.00  0.00    -0.171 C  
ENDROOT
BRANCH   3   5
HETATM    5  C   UNL     1      -9.342   5.894  69.410  1.00  0.00    -0.150 C  
HETATM    6  C   UNL     1      -9.442   7.403  69.559  1.00  0.00    -0.155 C  
HETATM    7  C   UNL     1     -10.647   6.597  69.085  1.00  0.00    -0.280 C  
HETATM    8  C   UNL     1     -11.821   6.539  70.030  1.00  0.00    -0.284 C  
HETATM    9  C   UNL     1     -11.061   6.606  67.630  1.00  0.00    -0.357 C  
BRANCH   6  10
HETATM   10  C   UNL     1      -8.640   8.235  68.635  1.00  0.00    -0.133 C  
HETATM   11  O   UNL     1      -7.667   7.769  68.067  1.00  0.00    -0.119 OA 
BRANCH  10  12
HETATM   12  O   UNL     1      -9.096   9.514  68.520  1.00  0.00    -0.130 OA 
BRANCH  12  13
HETATM   13  C   UNL     1      -8.514  10.379  67.508  1.00  0.00    -0.115 C  
HETATM   14  C   UNL     1      -7.591  11.444  68.089  1.00  0.00    -0.114 C  
HETATM   15  C   UNL     1      -8.460  12.663  67.994  1.00  0.00    -0.177 C  
HETATM   16  C   UNL     1      -9.625  12.433  67.101  1.00  0.00    -0.206 C  
HETATM   17  O   UNL     1      -8.207  13.734  68.529  1.00  0.00    -0.150 OA 
HETATM   18  C   UNL     1     -10.476  10.387  65.833  1.00  0.00    -0.196 C  
HETATM   19  C   UNL     1      -9.578  11.132  66.755  1.00  0.00    -0.215 C  
BRANCH  16  20
HETATM   20  C   UNL     1     -10.645  13.495  66.896  1.00  0.00    -0.270 C  
BRANCH  20  21
HETATM   21  C   UNL     1     -11.820  13.342  67.805  1.00  0.00    -0.395 C  
HETATM   22  C   UNL     1     -11.740  13.407  69.142  1.00  0.00    -0.375 C  
ENDBRANCH  20  21
ENDBRANCH  16  20
ENDBRANCH  12  13
ENDBRANCH  10  12
ENDBRANCH   6  10
ENDBRANCH   3   5
TORSDOF 6
ENDMDL
MODEL      230
REMARK 921   NORMALIZED FREE ENERGY PREDICTED BY IDOCK:   -3.17 KCAL/MOL
REMARK 922        TOTAL FREE ENERGY PREDICTED BY IDOCK:   -5.80 KCAL/MOL
REMARK 923 INTER-LIGAND FREE ENERGY PREDICTED BY IDOCK:   -4.61 KCAL/MOL
REMARK 924 INTRA-LIGAND FREE ENERGY PREDICTED BY IDOCK:   -1.19 KCAL/MOL
REMARK 927      BINDING AFFINITY PREDICTED BY RF-SCORE:    0.00 PKD
ROOT
HETATM    1  C   UNL     1      -9.214   2.547  69.718  1.00  0.00    -0.195 C  
HETATM    2  C   UNL     1      -8.126   3.322  70.407  1.00  0.00    -0.058 C  
HETATM    3  C   UNL     1      -7.902   4.627  70.159  1.00  0.00    -0.060 C  
HETATM    4  C   UNL     1      -7.295   2.599  71.426  1.00  0.00    -0.033 C  
ENDROOT
BRANCH   3   5
HETATM    5  C   UNL     1      -8.663   5.494  69.257  1.00  0.00    -0.107 C  
HETATM    6  C   UNL     1      -8.603   7.006  69.401  1.00  0.00    -0.134 C  
HETATM    7  C   UNL     1      -9.887   6.254  69.733  1.00  0.00    -0.195 C  
HETATM    8  C   UNL     1     -10.295   6.244  71.185  1.00  0.00    -0.255 C  
HETATM    9  C   UNL     1     -11.069   6.283  68.789  1.00  0.00    -0.424 C  
BRANCH   6  10
HETATM   10  C   UNL     1      -8.457   7.805  68.164  1.00  0.00    -0.124 C  
HETATM   11  O   UNL     1      -7.875   7.348  67.196  1.00  0.00    -0.112 OA 
BRANCH  10  12
HETATM   12  O   UNL     1      -9.014   9.046  68.250  1.00  0.00    -0.133 OA 
BRANCH  12  13
HETATM   13  C   UNL     1     -10.246   9.313  67.527  1.00  0.00    -0.242 C  
HETATM   14  C   UNL     1     -10.016   9.668  66.062  1.00  0.00    -0.344 C  
HETATM   15  C   UNL     1     -10.230  11.153  66.086  1.00  0.00    -0.244 C  
HETATM   16  C   UNL     1     -10.895  11.586  67.342  1.00  0.00    -0.294 C  
HETATM   17  O   UNL     1      -9.955  11.904  65.161  1.00  0.00    -0.247 OA 
HETATM   18  C   UNL     1     -11.609  10.347  69.458  1.00  0.00    -0.288 C  
HETATM   19  C   UNL     1     -10.982  10.487  68.117  1.00  0.00    -0.330 C  
BRANCH  16  20
HETATM   20  C   UNL     1     -11.165  13.025  67.600  1.00  0.00    -0.315 C  
BRANCH  20  21
HETATM   21  C   UNL     1      -9.990  13.731  68.193  1.00  0.00    -0.242 C  
HETATM   22  C   UNL     1     -10.084  14.862  68.908  1.00  0.00    -0.236 C  
ENDBRANCH  20  21
ENDBRANCH  16  20
ENDBRANCH  12  13
ENDBRANCH  10  12
ENDBRANCH   6  10
ENDBRANCH   3   5
TORSDOF 6
ENDMDL
MODEL      231
REMARK 921   NORMALIZED FREE ENERGY PREDICTED BY IDOCK:   -3.17 KCAL/MOL
REMARK 922        TOTAL FREE ENERGY PREDICTED BY IDOCK:   -5.80 KCAL/MOL
REMARK 923 INTER-LIGAND FREE ENERGY PREDICTED BY IDOCK:   -5.93 KCAL/MOL
REMARK 924 INTRA-LIGAND FREE ENERGY PREDICTED BY IDOCK:    0.13 KCAL/MOL
REMARK 927      BINDING AFFINITY PREDICTED BY RF-SCORE:    0.00 PKD
ROOT
HETATM    1  C   UNL     1     -12.224  11.046  70.496  1.00  0.00    -0.472 C  
HETATM    2  C   UNL     1     -10.965  10.278  70.207  1.00  0.00    -0.375 C  
HETATM    3  C   UNL     1     -10.048  10.706  69.317  1.00  0.00    -0.227 C  
HETATM    4  C   UNL     1     -10.732   9.009  70.974  1.00  0.00    -0.339 C  
ENDROOT
BRANCH   3   5
HETATM    5  C   UNL     1     -10.084  11.949  68.545  1.00  0.00    -0.211 C  
HETATM    6  C   UNL     1     -11.409  12.551  68.107  1.00  0.00    -0.343 C  
HETATM    7  C   UNL     1     -10.458  11.957  67.074  1.00  0.00    -0.253 C  
HETATM    8  C   UNL     1     -10.927  10.703  66.382  1.00  0.00    -0.056 C  
HETATM    9  C   UNL     1      -9.632  12.853  66.177  1.00  0.00    -0.215 C  
BRANCH   6  10
HETATM   10  C   UNL     1     -11.583  14.011  68.270  1.00  0.00    -0.329 C  
HETATM   11  O   UNL     1     -12.139  14.669  67.408  1.00  0.00    -0.352 OA 
BRANCH  10  12
HETATM   12  O   UNL     1     -11.060  14.495  69.432  1.00  0.00    -0.256 OA 
BRANCH  12  13
HETATM   13  C   UNL     1     -10.403  15.791  69.420  1.00  0.00    -0.263 C  
HETATM   14  C   UNL     1     -11.149  16.834  68.596  1.00  0.00    -0.247 C  
HETATM   15  C   UNL     1     -10.302  16.888  67.360  1.00  0.00    -0.309 C  
HETATM   16  C   UNL     1      -8.982  16.241  67.576  1.00  0.00    -0.193 C  
HETATM   17  O   UNL     1     -10.628  17.453  66.325  1.00  0.00    -0.297 OA 
HETATM   18  C   UNL     1      -7.956  14.982  69.546  1.00  0.00    -0.135 C  
HETATM   19  C   UNL     1      -9.029  15.700  68.809  1.00  0.00    -0.205 C  
BRANCH  16  20
HETATM   20  C   UNL     1      -7.996  16.140  66.468  1.00  0.00    -0.294 C  
BRANCH  20  21
HETATM   21  C   UNL     1      -7.158  17.369  66.333  1.00  0.00    -0.328 C  
HETATM   22  C   UNL     1      -5.845  17.407  66.605  1.00  0.00    -0.234 C  
ENDBRANCH  20  21
ENDBRANCH  16  20
ENDBRANCH  12  13
ENDBRANCH  10  12
ENDBRANCH   6  10
ENDBRANCH   3   5
TORSDOF 6
ENDMDL
MODEL      232
REMARK 921   NORMALIZED FREE ENERGY PREDICTED BY IDOCK:   -3.17 KCAL/MOL
REMARK 922        TOTAL FREE ENERGY PREDICTED BY IDOCK:   -5.80 KCAL/MOL
REMARK 923 INTER-LIGAND FREE ENERGY PREDICTED BY IDOCK:   -4.77 KCAL/MOL
REMARK 924 INTRA-LIGAND FREE ENERGY PREDICTED BY IDOCK:   -1.03 KCAL/MOL
REMARK 927      BINDING AFFINITY PREDICTED BY RF-SCORE:    0.00 PKD
ROOT
HETATM    1  C   UNL     1     -12.112  14.347  73.766  1.00  0.00     0.241 C  
HETATM    2  C   UNL     1     -12.068  15.794  73.363  1.00  0.00    -0.596 C  
HETATM    3  C   UNL     1     -11.771  16.186  72.108  1.00  0.00    -0.569 C  
HETATM    4  C   UNL     1     -12.403  16.818  74.409  1.00  0.00    -0.248 C  
ENDROOT
BRANCH   3   5
HETATM    5  C   UNL     1     -11.496  15.321  70.960  1.00  0.00    -0.396 C  
HETATM    6  C   UNL     1     -12.068  15.645  69.590  1.00  0.00    -0.329 C  
HETATM    7  C   UNL     1     -12.570  14.429  70.363  1.00  0.00    -0.405 C  
HETATM    8  C   UNL     1     -13.995  14.493  70.851  1.00  0.00     0.027 C  
HETATM    9  C   UNL     1     -12.142  13.032  69.972  1.00  0.00    -0.367 C  
BRANCH   6  10
HETATM   10  C   UNL     1     -11.165  15.518  68.425  1.00  0.00    -0.341 C  
HETATM   11  O   UNL     1     -11.618  15.365  67.304  1.00  0.00    -0.243 OA 
BRANCH  10  12
HETATM   12  O   UNL     1      -9.843  15.580  68.752  1.00  0.00    -0.201 OA 
BRANCH  12  13
HETATM   13  C   UNL     1      -8.866  15.029  67.828  1.00  0.00    -0.171 C  
HETATM   14  C   UNL     1      -8.948  13.512  67.704  1.00  0.00    -0.200 C  
HETATM   15  C   UNL     1      -7.760  13.089  68.517  1.00  0.00    -0.111 C  
HETATM   16  C   UNL     1      -6.845  14.230  68.776  1.00  0.00    -0.099 C  
HETATM   17  O   UNL     1      -7.537  11.938  68.864  1.00  0.00    -0.108 OA 
HETATM   18  C   UNL     1      -6.961  16.722  68.230  1.00  0.00    -0.161 C  
HETATM   19  C   UNL     1      -7.460  15.322  68.282  1.00  0.00    -0.112 C  
BRANCH  16  20
HETATM   20  C   UNL     1      -5.622  14.050  69.603  1.00  0.00    -0.098 C  
BRANCH  20  21
HETATM   21  C   UNL     1      -5.872  14.293  71.055  1.00  0.00    -0.209 C  
HETATM   22  C   UNL     1      -5.418  13.494  72.032  1.00  0.00    -0.076 C  
ENDBRANCH  20  21
ENDBRANCH  16  20
ENDBRANCH  12  13
ENDBRANCH  10  12
ENDBRANCH   6  10
ENDBRANCH   3   5
TORSDOF 6
ENDMDL
MODEL      233
REMARK 921   NORMALIZED FREE ENERGY PREDICTED BY IDOCK:   -3.17 KCAL/MOL
REMARK 922        TOTAL FREE ENERGY PREDICTED BY IDOCK:   -5.80 KCAL/MOL
REMARK 923 INTER-LIGAND FREE ENERGY PREDICTED BY IDOCK:   -4.80 KCAL/MOL
REMARK 924 INTRA-LIGAND FREE ENERGY PREDICTED BY IDOCK:   -1.00 KCAL/MOL
REMARK 927      BINDING AFFINITY PREDICTED BY RF-SCORE:    0.00 PKD
ROOT
HETATM    1  C   UNL     1      -7.579   9.974  63.466  1.00  0.00    -0.146 C  
HETATM    2  C   UNL     1      -7.626   8.948  64.562  1.00  0.00    -0.109 C  
HETATM    3  C   UNL     1      -8.539   8.989  65.552  1.00  0.00    -0.190 C  
HETATM    4  C   UNL     1      -6.626   7.829  64.511  1.00  0.00    -0.048 C  
ENDROOT
BRANCH   3   5
HETATM    5  C   UNL     1      -9.622   9.962  65.708  1.00  0.00    -0.312 C  
HETATM    6  C   UNL     1      -9.321  11.404  66.079  1.00  0.00    -0.235 C  
HETATM    7  C   UNL     1     -10.024  10.487  67.074  1.00  0.00    -0.244 C  
HETATM    8  C   UNL     1      -9.242  10.123  68.311  1.00  0.00    -0.130 C  
HETATM    9  C   UNL     1     -11.509  10.617  67.333  1.00  0.00    -0.022 C  
BRANCH   6  10
HETATM   10  C   UNL     1     -10.043  12.464  65.340  1.00  0.00    -0.269 C  
HETATM   11  O   UNL     1     -11.024  12.195  64.669  1.00  0.00    -0.290 OA 
BRANCH  10  12
HETATM   12  O   UNL     1      -9.493  13.702  65.491  1.00  0.00    -0.019 OA 
BRANCH  12  13
HETATM   13  C   UNL     1      -9.975  14.558  66.564  1.00  0.00    -0.280 C  
HETATM   14  C   UNL     1     -10.667  15.818  66.059  1.00  0.00    -0.311 C  
HETATM   15  C   UNL     1      -9.609  16.851  66.310  1.00  0.00    -0.276 C  
HETATM   16  C   UNL     1      -8.553  16.337  67.220  1.00  0.00    -0.199 C  
HETATM   17  O   UNL     1      -9.645  17.994  65.877  1.00  0.00    -0.520 OA 
HETATM   18  C   UNL     1      -8.137  14.064  68.305  1.00  0.00    -0.148 C  
HETATM   19  C   UNL     1      -8.841  15.038  67.430  1.00  0.00    -0.202 C  
BRANCH  16  20
HETATM   20  C   UNL     1      -7.379  17.179  67.571  1.00  0.00    -0.180 C  
BRANCH  20  21
HETATM   21  C   UNL     1      -7.603  17.986  68.808  1.00  0.00    -0.277 C  
HETATM   22  C   UNL     1      -7.862  19.303  68.800  1.00  0.00    -0.388 C  
ENDBRANCH  20  21
ENDBRANCH  16  20
ENDBRANCH  12  13
ENDBRANCH  10  12
ENDBRANCH   6  10
ENDBRANCH   3   5
TORSDOF 6
ENDMDL
MODEL      234
REMARK 921   NORMALIZED FREE ENERGY PREDICTED BY IDOCK:   -3.14 KCAL/MOL
REMARK 922        TOTAL FREE ENERGY PREDICTED BY IDOCK:   -5.76 KCAL/MOL
REMARK 923 INTER-LIGAND FREE ENERGY PREDICTED BY IDOCK:   -4.77 KCAL/MOL
REMARK 924 INTRA-LIGAND FREE ENERGY PREDICTED BY IDOCK:   -0.99 KCAL/MOL
REMARK 927      BINDING AFFINITY PREDICTED BY RF-SCORE:    0.00 PKD
ROOT
HETATM    1  C   UNL     1     -12.144  13.850  69.698  1.00  0.00    -0.404 C  
HETATM    2  C   UNL     1     -11.175  14.924  69.290  1.00  0.00    -0.300 C  
HETATM    3  C   UNL     1     -10.641  14.982  68.054  1.00  0.00    -0.250 C  
HETATM    4  C   UNL     1     -10.832  15.974  70.306  1.00  0.00    -0.327 C  
ENDROOT
BRANCH   3   5
HETATM    5  C   UNL     1     -10.925  14.087  66.930  1.00  0.00    -0.301 C  
HETATM    6  C   UNL     1      -9.842  13.741  65.922  1.00  0.00    -0.279 C  
HETATM    7  C   UNL     1     -11.027  14.609  65.509  1.00  0.00    -0.344 C  
HETATM    8  C   UNL     1     -10.715  16.047  65.182  1.00  0.00    -0.429 C  
HETATM    9  C   UNL     1     -12.145  14.040  64.663  1.00  0.00    -0.462 C  
BRANCH   6  10
HETATM   10  C   UNL     1      -9.721  12.326  65.509  1.00  0.00    -0.161 C  
HETATM   11  O   UNL     1      -9.544  12.035  64.339  1.00  0.00    -0.115 OA 
BRANCH  10  12
HETATM   12  O   UNL     1      -9.839  11.445  66.543  1.00  0.00    -0.200 OA 
BRANCH  12  13
HETATM   13  C   UNL     1      -8.635  10.997  67.223  1.00  0.00    -0.130 C  
HETATM   14  C   UNL     1      -7.598  10.406  66.275  1.00  0.00    -0.127 C  
HETATM   15  C   UNL     1      -7.761   8.939  66.543  1.00  0.00    -0.099 C  
HETATM   16  C   UNL     1      -8.532   8.697  67.790  1.00  0.00    -0.125 C  
HETATM   17  O   UNL     1      -7.265   8.054  65.862  1.00  0.00    -0.064 OA 
HETATM   18  C   UNL     1      -9.706  10.247  69.446  1.00  0.00    -0.242 C  
HETATM   19  C   UNL     1      -8.942   9.908  68.216  1.00  0.00    -0.119 C  
BRANCH  16  20
HETATM   20  C   UNL     1      -8.854   7.313  68.227  1.00  0.00    -0.127 C  
BRANCH  20  21
HETATM   21  C   UNL     1      -7.831   6.756  69.163  1.00  0.00    -0.111 C  
HETATM   22  C   UNL     1      -6.936   7.509  69.820  1.00  0.00    -0.055 C  
ENDBRANCH  20  21
ENDBRANCH  16  20
ENDBRANCH  12  13
ENDBRANCH  10  12
ENDBRANCH   6  10
ENDBRANCH   3   5
TORSDOF 6
ENDMDL
MODEL      235
REMARK 921   NORMALIZED FREE ENERGY PREDICTED BY IDOCK:   -3.11 KCAL/MOL
REMARK 922        TOTAL FREE ENERGY PREDICTED BY IDOCK:   -5.72 KCAL/MOL
REMARK 923 INTER-LIGAND FREE ENERGY PREDICTED BY IDOCK:   -4.93 KCAL/MOL
REMARK 924 INTRA-LIGAND FREE ENERGY PREDICTED BY IDOCK:   -0.80 KCAL/MOL
REMARK 927      BINDING AFFINITY PREDICTED BY RF-SCORE:    0.00 PKD
ROOT
HETATM    1  C   UNL     1      -8.409   8.893  62.684  1.00  0.00    -0.203 C  
HETATM    2  C   UNL     1      -7.236   8.277  63.393  1.00  0.00    -0.093 C  
HETATM    3  C   UNL     1      -7.111   8.297  64.734  1.00  0.00    -0.080 C  
HETATM    4  C   UNL     1      -6.196   7.593  62.553  1.00  0.00    -0.068 C  
ENDROOT
BRANCH   3   5
HETATM    5  C   UNL     1      -8.063   8.852  65.698  1.00  0.00    -0.113 C  
HETATM    6  C   UNL     1      -8.164  10.353  65.910  1.00  0.00    -0.150 C  
HETATM    7  C   UNL     1      -7.600   9.460  67.009  1.00  0.00    -0.091 C  
HETATM    8  C   UNL     1      -6.133   9.629  67.315  1.00  0.00    -0.056 C  
HETATM    9  C   UNL     1      -8.423   9.123  68.233  1.00  0.00    -0.125 C  
BRANCH   6  10
HETATM   10  C   UNL     1      -9.520  10.942  65.993  1.00  0.00    -0.203 C  
HETATM   11  O   UNL     1     -10.481  10.248  66.276  1.00  0.00    -0.215 OA 
BRANCH  10  12
HETATM   12  O   UNL     1      -9.551  12.276  65.715  1.00  0.00    -0.241 OA 
BRANCH  12  13
HETATM   13  C   UNL     1     -10.794  13.004  65.910  1.00  0.00    -0.272 C  
HETATM   14  C   UNL     1     -11.158  13.894  64.727  1.00  0.00    -0.386 C  
HETATM   15  C   UNL     1     -10.798  15.249  65.262  1.00  0.00    -0.403 C  
HETATM   16  C   UNL     1     -10.608  15.219  66.735  1.00  0.00    -0.304 C  
HETATM   17  O   UNL     1     -10.737  16.264  64.583  1.00  0.00    -0.670 OA 
HETATM   18  C   UNL     1     -10.648  13.339  68.463  1.00  0.00    -0.270 C  
HETATM   19  C   UNL     1     -10.708  13.925  67.098  1.00  0.00    -0.282 C  
BRANCH  16  20
HETATM   20  C   UNL     1     -10.202  16.444  67.473  1.00  0.00    -0.273 C  
BRANCH  20  21
HETATM   21  C   UNL     1      -8.726  16.522  67.685  1.00  0.00    -0.195 C  
HETATM   22  C   UNL     1      -8.152  16.626  68.893  1.00  0.00    -0.235 C  
ENDBRANCH  20  21
ENDBRANCH  16  20
ENDBRANCH  12  13
ENDBRANCH  10  12
ENDBRANCH   6  10
ENDBRANCH   3   5
TORSDOF 6
ENDMDL
MODEL      236
REMARK 921   NORMALIZED FREE ENERGY PREDICTED BY IDOCK:   -3.10 KCAL/MOL
REMARK 922        TOTAL FREE ENERGY PREDICTED BY IDOCK:   -5.71 KCAL/MOL
REMARK 923 INTER-LIGAND FREE ENERGY PREDICTED BY IDOCK:   -4.48 KCAL/MOL
REMARK 924 INTRA-LIGAND FREE ENERGY PREDICTED BY IDOCK:   -1.23 KCAL/MOL
REMARK 927      BINDING AFFINITY PREDICTED BY RF-SCORE:    0.00 PKD
ROOT
HETATM    1  C   UNL     1      -8.970   9.590  63.258  1.00  0.00    -0.208 C  
HETATM    2  C   UNL     1      -7.919   9.866  64.297  1.00  0.00    -0.146 C  
HETATM    3  C   UNL     1      -8.154   9.724  65.616  1.00  0.00    -0.120 C  
HETATM    4  C   UNL     1      -6.559  10.283  63.817  1.00  0.00    -0.079 C  
ENDROOT
BRANCH   3   5
HETATM    5  C   UNL     1      -9.392   9.258  66.244  1.00  0.00    -0.257 C  
HETATM    6  C   UNL     1      -9.502   9.152  67.755  1.00  0.00    -0.160 C  
HETATM    7  C   UNL     1      -9.482   7.891  66.898  1.00  0.00    -0.243 C  
HETATM    8  C   UNL     1      -8.266   7.011  67.037  1.00  0.00    -0.117 C  
HETATM    9  C   UNL     1     -10.751   7.108  66.644  1.00  0.00    -0.092 C  
BRANCH   6  10
HETATM   10  C   UNL     1     -10.742   9.655  68.386  1.00  0.00    -0.209 C  
HETATM   11  O   UNL     1     -11.454  10.455  67.805  1.00  0.00    -0.406 OA 
BRANCH  10  12
HETATM   12  O   UNL     1     -10.963   9.146  69.632  1.00  0.00    -0.226 OA 
BRANCH  12  13
HETATM   13  C   UNL     1     -10.316   7.900  70.005  1.00  0.00    -0.221 C  
HETATM   14  C   UNL     1     -11.304   6.796  70.365  1.00  0.00    -0.399 C  
HETATM   15  C   UNL     1     -11.195   6.785  71.861  1.00  0.00    -0.260 C  
HETATM   16  C   UNL     1      -9.992   7.525  72.323  1.00  0.00    -0.226 C  
HETATM   17  O   UNL     1     -11.958   6.184  72.603  1.00  0.00    -0.178 OA 
HETATM   18  C   UNL     1      -8.201   8.880  71.109  1.00  0.00    -0.218 C  
HETATM   19  C   UNL     1      -9.448   8.078  71.222  1.00  0.00    -0.190 C  
BRANCH  16  20
HETATM   20  C   UNL     1      -9.709   7.681  73.775  1.00  0.00    -0.240 C  
BRANCH  20  21
HETATM   21  C   UNL     1      -8.727   6.674  74.277  1.00  0.00    -0.171 C  
HETATM   22  C   UNL     1      -8.281   5.641  73.547  1.00  0.00    -0.112 C  
ENDBRANCH  20  21
ENDBRANCH  16  20
ENDBRANCH  12  13
ENDBRANCH  10  12
ENDBRANCH   6  10
ENDBRANCH   3   5
TORSDOF 6
ENDMDL
MODEL      237
REMARK 921   NORMALIZED FREE ENERGY PREDICTED BY IDOCK:   -3.10 KCAL/MOL
REMARK 922        TOTAL FREE ENERGY PREDICTED BY IDOCK:   -5.70 KCAL/MOL
REMARK 923 INTER-LIGAND FREE ENERGY PREDICTED BY IDOCK:   -4.99 KCAL/MOL
REMARK 924 INTRA-LIGAND FREE ENERGY PREDICTED BY IDOCK:   -0.72 KCAL/MOL
REMARK 927      BINDING AFFINITY PREDICTED BY RF-SCORE:    0.00 PKD
ROOT
HETATM    1  C   UNL     1      -7.153  15.284  69.526  1.00  0.00    -0.201 C  
HETATM    2  C   UNL     1      -6.315  14.181  70.110  1.00  0.00    -0.125 C  
HETATM    3  C   UNL     1      -6.131  13.005  69.481  1.00  0.00    -0.115 C  
HETATM    4  C   UNL     1      -5.647  14.439  71.430  1.00  0.00    -0.176 C  
ENDROOT
BRANCH   3   5
HETATM    5  C   UNL     1      -6.646  12.621  68.165  1.00  0.00    -0.081 C  
HETATM    6  C   UNL     1      -8.007  11.962  68.027  1.00  0.00    -0.147 C  
HETATM    7  C   UNL     1      -6.738  11.166  67.743  1.00  0.00    -0.065 C  
HETATM    8  C   UNL     1      -6.421  10.053  68.710  1.00  0.00    -0.045 C  
HETATM    9  C   UNL     1      -6.323  10.851  66.323  1.00  0.00    -0.132 C  
BRANCH   6  10
HETATM   10  C   UNL     1      -8.893  12.444  66.944  1.00  0.00    -0.205 C  
HETATM   11  O   UNL     1      -8.932  13.626  66.654  1.00  0.00    -0.211 OA 
BRANCH  10  12
HETATM   12  O   UNL     1      -9.624  11.452  66.359  1.00  0.00    -0.195 OA 
BRANCH  12  13
HETATM   13  C   UNL     1     -11.070  11.469  66.504  1.00  0.00    -0.282 C  
HETATM   14  C   UNL     1     -11.759  12.419  65.531  1.00  0.00    -0.459 C  
HETATM   15  C   UNL     1     -12.100  13.565  66.436  1.00  0.00    -0.417 C  
HETATM   16  C   UNL     1     -11.980  13.182  67.867  1.00  0.00    -0.347 C  
HETATM   17  O   UNL     1     -12.493  14.656  66.049  1.00  0.00    -0.220 OA 
HETATM   18  C   UNL     1     -11.207  11.053  69.046  1.00  0.00    -0.320 C  
HETATM   19  C   UNL     1     -11.476  11.932  67.878  1.00  0.00    -0.385 C  
BRANCH  16  20
HETATM   20  C   UNL     1     -12.228  14.178  68.942  1.00  0.00    -0.257 C  
BRANCH  20  21
HETATM   21  C   UNL     1     -10.976  14.857  69.393  1.00  0.00    -0.284 C  
HETATM   22  C   UNL     1     -10.804  15.356  70.627  1.00  0.00    -0.318 C  
ENDBRANCH  20  21
ENDBRANCH  16  20
ENDBRANCH  12  13
ENDBRANCH  10  12
ENDBRANCH   6  10
ENDBRANCH   3   5
TORSDOF 6
ENDMDL
MODEL      238
REMARK 921   NORMALIZED FREE ENERGY PREDICTED BY IDOCK:   -3.09 KCAL/MOL
REMARK 922        TOTAL FREE ENERGY PREDICTED BY IDOCK:   -5.70 KCAL/MOL
REMARK 923 INTER-LIGAND FREE ENERGY PREDICTED BY IDOCK:   -4.74 KCAL/MOL
REMARK 924 INTRA-LIGAND FREE ENERGY PREDICTED BY IDOCK:   -0.96 KCAL/MOL
REMARK 927      BINDING AFFINITY PREDICTED BY RF-SCORE:    0.00 PKD
ROOT
HETATM    1  C   UNL     1     -11.263  12.194  63.487  1.00  0.00    -0.536 C  
HETATM    2  C   UNL     1     -10.135  11.202  63.541  1.00  0.00    -0.437 C  
HETATM    3  C   UNL     1      -9.363  11.047  64.634  1.00  0.00    -0.235 C  
HETATM    4  C   UNL     1      -9.904  10.344  62.331  1.00  0.00     0.059 C  
ENDROOT
BRANCH   3   5
HETATM    5  C   UNL     1      -9.500  11.745  65.914  1.00  0.00    -0.239 C  
HETATM    6  C   UNL     1      -8.592  11.404  67.084  1.00  0.00    -0.151 C  
HETATM    7  C   UNL     1     -10.075  11.052  67.136  1.00  0.00    -0.227 C  
HETATM    8  C   UNL     1     -10.411   9.582  67.114  1.00  0.00    -0.320 C  
HETATM    9  C   UNL     1     -11.034  11.864  67.979  1.00  0.00    -0.271 C  
BRANCH   6  10
HETATM   10  C   UNL     1      -8.023  12.530  67.857  1.00  0.00    -0.157 C  
HETATM   11  O   UNL     1      -7.630  12.363  68.998  1.00  0.00    -0.021 OA 
BRANCH  10  12
HETATM   12  O   UNL     1      -8.008  13.708  67.171  1.00  0.00    -0.141 OA 
BRANCH  12  13
HETATM   13  C   UNL     1      -8.625  14.878  67.773  1.00  0.00    -0.167 C  
HETATM   14  C   UNL     1      -9.612  15.578  66.846  1.00  0.00    -0.241 C  
HETATM   15  C   UNL     1      -8.811  16.771  66.416  1.00  0.00    -0.296 C  
HETATM   16  C   UNL     1      -7.624  16.972  67.287  1.00  0.00    -0.192 C  
HETATM   17  O   UNL     1      -9.130  17.525  65.507  1.00  0.00    -0.235 OA 
HETATM   18  C   UNL     1      -6.644  15.646  69.237  1.00  0.00    -0.152 C  
HETATM   19  C   UNL     1      -7.594  15.918  68.126  1.00  0.00    -0.135 C  
BRANCH  16  20
HETATM   20  C   UNL     1      -6.661  18.072  67.016  1.00  0.00    -0.204 C  
BRANCH  20  21
HETATM   21  C   UNL     1      -6.192  18.086  65.598  1.00  0.00    -0.252 C  
HETATM   22  C   UNL     1      -6.373  19.121  64.764  1.00  0.00    -0.190 C  
ENDBRANCH  20  21
ENDBRANCH  16  20
ENDBRANCH  12  13
ENDBRANCH  10  12
ENDBRANCH   6  10
ENDBRANCH   3   5
TORSDOF 6
ENDMDL
MODEL      239
REMARK 921   NORMALIZED FREE ENERGY PREDICTED BY IDOCK:   -3.09 KCAL/MOL
REMARK 922        TOTAL FREE ENERGY PREDICTED BY IDOCK:   -5.69 KCAL/MOL
REMARK 923 INTER-LIGAND FREE ENERGY PREDICTED BY IDOCK:   -4.74 KCAL/MOL
REMARK 924 INTRA-LIGAND FREE ENERGY PREDICTED BY IDOCK:   -0.95 KCAL/MOL
REMARK 927      BINDING AFFINITY PREDICTED BY RF-SCORE:    0.00 PKD
ROOT
HETATM    1  C   UNL     1     -10.065  11.243  68.883  1.00  0.00    -0.185 C  
HETATM    2  C   UNL     1     -11.277  11.586  69.702  1.00  0.00    -0.276 C  
HETATM    3  C   UNL     1     -11.785  10.747  70.626  1.00  0.00    -0.442 C  
HETATM    4  C   UNL     1     -11.906  12.932  69.485  1.00  0.00    -0.383 C  
ENDROOT
BRANCH   3   5
HETATM    5  C   UNL     1     -11.253   9.438  71.012  1.00  0.00    -0.412 C  
HETATM    6  C   UNL     1     -11.898   8.159  70.505  1.00  0.00    -0.010 C  
HETATM    7  C   UNL     1     -11.996   8.535  71.979  1.00  0.00    -0.427 C  
HETATM    8  C   UNL     1     -13.370   8.896  72.484  1.00  0.00    -0.451 C  
HETATM    9  C   UNL     1     -11.154   7.826  73.017  1.00  0.00    -0.419 C  
BRANCH   6  10
HETATM   10  C   UNL     1     -11.000   7.085  70.025  1.00  0.00    -0.270 C  
HETATM   11  O   UNL     1     -11.364   6.317  69.151  1.00  0.00    -0.395 OA 
BRANCH  10  12
HETATM   12  O   UNL     1      -9.793   7.063  70.658  1.00  0.00    -0.182 OA 
BRANCH  12  13
HETATM   13  C   UNL     1      -8.638   6.538  69.947  1.00  0.00    -0.139 C  
HETATM   14  C   UNL     1      -7.574   5.965  70.876  1.00  0.00    -0.096 C  
HETATM   15  C   UNL     1      -6.542   7.054  70.842  1.00  0.00    -0.048 C  
HETATM   16  C   UNL     1      -6.782   7.995  69.717  1.00  0.00    -0.040 C  
HETATM   17  O   UNL     1      -5.585   7.121  71.600  1.00  0.00    -0.035 OA 
HETATM   18  C   UNL     1      -8.627   8.184  67.961  1.00  0.00    -0.129 C  
HETATM   19  C   UNL     1      -7.947   7.616  69.156  1.00  0.00    -0.120 C  
BRANCH  16  20
HETATM   20  C   UNL     1      -5.906   9.179  69.519  1.00  0.00    -0.033 C  
BRANCH  20  21
HETATM   21  C   UNL     1      -6.511  10.436  70.054  1.00  0.00    -0.126 C  
HETATM   22  C   UNL     1      -6.358  11.638  69.480  1.00  0.00    -0.122 C  
ENDBRANCH  20  21
ENDBRANCH  16  20
ENDBRANCH  12  13
ENDBRANCH  10  12
ENDBRANCH   6  10
ENDBRANCH   3   5
TORSDOF 6
ENDMDL
MODEL      240
REMARK 921   NORMALIZED FREE ENERGY PREDICTED BY IDOCK:   -3.08 KCAL/MOL
REMARK 922        TOTAL FREE ENERGY PREDICTED BY IDOCK:   -5.68 KCAL/MOL
REMARK 923 INTER-LIGAND FREE ENERGY PREDICTED BY IDOCK:   -4.62 KCAL/MOL
REMARK 924 INTRA-LIGAND FREE ENERGY PREDICTED BY IDOCK:   -1.07 KCAL/MOL
REMARK 927      BINDING AFFINITY PREDICTED BY RF-SCORE:    0.00 PKD
ROOT
HETATM    1  C   UNL     1     -11.027  14.117  64.709  1.00  0.00    -0.409 C  
HETATM    2  C   UNL     1     -11.306  12.683  64.354  1.00  0.00    -0.393 C  
HETATM    3  C   UNL     1     -10.644  11.657  64.923  1.00  0.00    -0.349 C  
HETATM    4  C   UNL     1     -12.387  12.412  63.349  1.00  0.00    -0.603 C  
ENDROOT
BRANCH   3   5
HETATM    5  C   UNL     1      -9.620  11.742  65.967  1.00  0.00    -0.248 C  
HETATM    6  C   UNL     1      -9.266  10.526  66.806  1.00  0.00    -0.175 C  
HETATM    7  C   UNL     1      -9.986  11.712  67.439  1.00  0.00    -0.200 C  
HETATM    8  C   UNL     1     -11.405  11.467  67.885  1.00  0.00    -0.372 C  
HETATM    9  C   UNL     1      -9.244  12.679  68.335  1.00  0.00    -0.135 C  
BRANCH   6  10
HETATM   10  C   UNL     1      -7.831  10.256  67.047  1.00  0.00    -0.107 C  
HETATM   11  O   UNL     1      -6.980  10.723  66.310  1.00  0.00    -0.125 OA 
BRANCH  10  12
HETATM   12  O   UNL     1      -7.602   9.456  68.126  1.00  0.00    -0.082 OA 
BRANCH  12  13
HETATM   13  C   UNL     1      -7.326   8.046  67.908  1.00  0.00    -0.093 C  
HETATM   14  C   UNL     1      -6.835   7.743  66.497  1.00  0.00    -0.066 C  
HETATM   15  C   UNL     1      -8.064   7.141  65.884  1.00  0.00    -0.122 C  
HETATM   16  C   UNL     1      -9.060   6.765  66.922  1.00  0.00    -0.148 C  
HETATM   17  O   UNL     1      -8.203   6.922  64.690  1.00  0.00    -0.111 OA 
HETATM   18  C   UNL     1      -9.134   7.054  69.458  1.00  0.00    -0.146 C  
HETATM   19  C   UNL     1      -8.565   7.211  68.093  1.00  0.00    -0.129 C  
BRANCH  16  20
HETATM   20  C   UNL     1     -10.376   6.190  66.537  1.00  0.00    -0.186 C  
BRANCH  20  21
HETATM   21  C   UNL     1     -10.358   4.697  66.498  1.00  0.00    -0.235 C  
HETATM   22  C   UNL     1      -9.987   3.985  65.423  1.00  0.00    -0.182 C  
ENDBRANCH  20  21
ENDBRANCH  16  20
ENDBRANCH  12  13
ENDBRANCH  10  12
ENDBRANCH   6  10
ENDBRANCH   3   5
TORSDOF 6
ENDMDL
MODEL      241
REMARK 921   NORMALIZED FREE ENERGY PREDICTED BY IDOCK:   -3.08 KCAL/MOL
REMARK 922        TOTAL FREE ENERGY PREDICTED BY IDOCK:   -5.68 KCAL/MOL
REMARK 923 INTER-LIGAND FREE ENERGY PREDICTED BY IDOCK:   -5.48 KCAL/MOL
REMARK 924 INTRA-LIGAND FREE ENERGY PREDICTED BY IDOCK:   -0.20 KCAL/MOL
REMARK 927      BINDING AFFINITY PREDICTED BY RF-SCORE:    0.00 PKD
ROOT
HETATM    1  C   UNL     1     -11.230   9.516  71.149  1.00  0.00    -0.446 C  
HETATM    2  C   UNL     1     -11.914  10.660  70.455  1.00  0.00    -0.436 C  
HETATM    3  C   UNL     1     -11.815  10.862  69.126  1.00  0.00    -0.389 C  
HETATM    4  C   UNL     1     -12.758  11.578  71.292  1.00  0.00    -0.469 C  
ENDROOT
BRANCH   3   5
HETATM    5  C   UNL     1     -11.099  10.025  68.161  1.00  0.00    -0.252 C  
HETATM    6  C   UNL     1      -9.643   9.654  68.387  1.00  0.00    -0.154 C  
HETATM    7  C   UNL     1     -10.026  10.602  67.256  1.00  0.00    -0.224 C  
HETATM    8  C   UNL     1      -9.567  12.031  67.402  1.00  0.00    -0.176 C  
HETATM    9  C   UNL     1     -10.035  10.129  65.819  1.00  0.00    -0.339 C  
BRANCH   6  10
HETATM   10  C   UNL     1      -9.250   8.249  68.138  1.00  0.00    -0.134 C  
HETATM   11  O   UNL     1      -8.310   7.753  68.734  1.00  0.00    -0.126 OA 
BRANCH  10  12
HETATM   12  O   UNL     1     -10.022   7.627  67.202  1.00  0.00    -0.185 OA 
BRANCH  12  13
HETATM   13  C   UNL     1     -10.912   6.558  67.625  1.00  0.00    -0.337 C  
HETATM   14  C   UNL     1     -11.053   6.461  69.140  1.00  0.00    -0.428 C  
HETATM   15  C   UNL     1     -10.199   5.264  69.435  1.00  0.00    -0.251 C  
HETATM   16  C   UNL     1      -9.894   4.496  68.201  1.00  0.00    -0.152 C  
HETATM   17  O   UNL     1      -9.853   4.924  70.558  1.00  0.00    -0.191 OA 
HETATM   18  C   UNL     1     -10.421   4.877  65.731  1.00  0.00    -0.227 C  
HETATM   19  C   UNL     1     -10.401   5.214  67.179  1.00  0.00    -0.246 C  
BRANCH  16  20
HETATM   20  C   UNL     1      -9.022   3.293  68.252  1.00  0.00    -0.188 C  
BRANCH  20  21
HETATM   21  C   UNL     1      -7.676   3.536  67.651  1.00  0.00    -0.077 C  
HETATM   22  C   UNL     1      -6.872   4.547  68.011  1.00  0.00    -0.055 C  
ENDBRANCH  20  21
ENDBRANCH  16  20
ENDBRANCH  12  13
ENDBRANCH  10  12
ENDBRANCH   6  10
ENDBRANCH   3   5
TORSDOF 6
ENDMDL
MODEL      242
REMARK 921   NORMALIZED FREE ENERGY PREDICTED BY IDOCK:   -3.07 KCAL/MOL
REMARK 922        TOTAL FREE ENERGY PREDICTED BY IDOCK:   -5.67 KCAL/MOL
REMARK 923 INTER-LIGAND FREE ENERGY PREDICTED BY IDOCK:   -3.80 KCAL/MOL
REMARK 924 INTRA-LIGAND FREE ENERGY PREDICTED BY IDOCK:   -1.87 KCAL/MOL
REMARK 927      BINDING AFFINITY PREDICTED BY RF-SCORE:    0.00 PKD
ROOT
HETATM    1  C   UNL     1      -9.511   3.755  66.742  1.00  0.00    -0.216 C  
HETATM    2  C   UNL     1      -9.235   4.953  65.877  1.00  0.00    -0.155 C  
HETATM    3  C   UNL     1      -9.269   6.211  66.356  1.00  0.00    -0.166 C  
HETATM    4  C   UNL     1      -8.881   4.706  64.439  1.00  0.00    -0.152 C  
ENDROOT
BRANCH   3   5
HETATM    5  C   UNL     1      -9.522   6.619  67.739  1.00  0.00    -0.121 C  
HETATM    6  C   UNL     1     -10.942   6.776  68.253  1.00  0.00    -0.270 C  
HETATM    7  C   UNL     1     -10.052   8.001  68.073  1.00  0.00    -0.238 C  
HETATM    8  C   UNL     1     -10.459   8.964  66.985  1.00  0.00    -0.326 C  
HETATM    9  C   UNL     1      -9.430   8.690  69.268  1.00  0.00    -0.158 C  
BRANCH   6  10
HETATM   10  C   UNL     1     -11.251   6.218  69.588  1.00  0.00    -0.437 C  
HETATM   11  O   UNL     1     -11.963   6.829  70.366  1.00  0.00    -0.373 OA 
BRANCH  10  12
HETATM   12  O   UNL     1     -10.661   5.012  69.823  1.00  0.00    -0.222 OA 
BRANCH  12  13
HETATM   13  C   UNL     1      -9.826   4.858  71.003  1.00  0.00    -0.195 C  
HETATM   14  C   UNL     1      -9.011   6.104  71.327  1.00  0.00    -0.140 C  
HETATM   15  C   UNL     1      -7.648   5.692  70.853  1.00  0.00    -0.091 C  
HETATM   16  C   UNL     1      -7.572   4.225  70.630  1.00  0.00    -0.052 C  
HETATM   17  O   UNL     1      -6.700   6.454  70.733  1.00  0.00    -0.054 OA 
HETATM   18  C   UNL     1      -9.293   2.344  70.770  1.00  0.00    -0.210 C  
HETATM   19  C   UNL     1      -8.820   3.753  70.818  1.00  0.00    -0.137 C  
BRANCH  16  20
HETATM   20  C   UNL     1      -6.324   3.600  70.116  1.00  0.00    -0.028 C  
BRANCH  20  21
HETATM   21  C   UNL     1      -6.371   3.358  68.643  1.00  0.00    -0.032 C  
HETATM   22  C   UNL     1      -5.771   4.148  67.739  1.00  0.00    -0.022 C  
ENDBRANCH  20  21
ENDBRANCH  16  20
ENDBRANCH  12  13
ENDBRANCH  10  12
ENDBRANCH   6  10
ENDBRANCH   3   5
TORSDOF 6
ENDMDL
MODEL      243
REMARK 921   NORMALIZED FREE ENERGY PREDICTED BY IDOCK:   -3.05 KCAL/MOL
REMARK 922        TOTAL FREE ENERGY PREDICTED BY IDOCK:   -5.64 KCAL/MOL
REMARK 923 INTER-LIGAND FREE ENERGY PREDICTED BY IDOCK:   -4.62 KCAL/MOL
REMARK 924 INTRA-LIGAND FREE ENERGY PREDICTED BY IDOCK:   -1.02 KCAL/MOL
REMARK 927      BINDING AFFINITY PREDICTED BY RF-SCORE:    0.00 PKD
ROOT
HETATM    1  C   UNL     1      -7.855   9.103  64.367  1.00  0.00    -0.125 C  
HETATM    2  C   UNL     1      -7.055   8.227  65.290  1.00  0.00    -0.074 C  
HETATM    3  C   UNL     1      -7.541   7.786  66.467  1.00  0.00    -0.096 C  
HETATM    4  C   UNL     1      -5.681   7.819  64.845  1.00  0.00    -0.037 C  
ENDROOT
BRANCH   3   5
HETATM    5  C   UNL     1      -8.878   8.027  67.013  1.00  0.00    -0.143 C  
HETATM    6  C   UNL     1      -9.092   9.053  68.113  1.00  0.00    -0.134 C  
HETATM    7  C   UNL     1      -9.259   7.566  68.407  1.00  0.00    -0.139 C  
HETATM    8  C   UNL     1      -8.238   6.952  69.332  1.00  0.00    -0.131 C  
HETATM    9  C   UNL     1     -10.635   6.956  68.560  1.00  0.00    -0.247 C  
BRANCH   6  10
HETATM   10  C   UNL     1     -10.251   9.964  67.982  1.00  0.00    -0.182 C  
HETATM   11  O   UNL     1     -10.809  10.404  68.972  1.00  0.00    -0.207 OA 
BRANCH  10  12
HETATM   12  O   UNL     1     -10.596  10.220  66.688  1.00  0.00    -0.223 OA 
BRANCH  12  13
HETATM   13  C   UNL     1     -10.072  11.414  66.046  1.00  0.00    -0.234 C  
HETATM   14  C   UNL     1      -8.781  11.918  66.680  1.00  0.00    -0.185 C  
HETATM   15  C   UNL     1      -9.282  13.096  67.461  1.00  0.00    -0.206 C  
HETATM   16  C   UNL     1     -10.649  13.490  67.034  1.00  0.00    -0.269 C  
HETATM   17  O   UNL     1      -8.623  13.701  68.295  1.00  0.00    -0.164 OA 
HETATM   18  C   UNL     1     -12.312  12.500  65.368  1.00  0.00    -0.426 C  
HETATM   19  C   UNL     1     -11.045  12.559  66.144  1.00  0.00    -0.336 C  
BRANCH  16  20
HETATM   20  C   UNL     1     -11.361  14.609  67.707  1.00  0.00    -0.338 C  
BRANCH  20  21
HETATM   21  C   UNL     1     -12.147  14.157  68.893  1.00  0.00    -0.339 C  
HETATM   22  C   UNL     1     -12.116  14.771  70.085  1.00  0.00    -0.382 C  
ENDBRANCH  20  21
ENDBRANCH  16  20
ENDBRANCH  12  13
ENDBRANCH  10  12
ENDBRANCH   6  10
ENDBRANCH   3   5
TORSDOF 6
ENDMDL
MODEL      244
REMARK 921   NORMALIZED FREE ENERGY PREDICTED BY IDOCK:   -3.04 KCAL/MOL
REMARK 922        TOTAL FREE ENERGY PREDICTED BY IDOCK:   -5.63 KCAL/MOL
REMARK 923 INTER-LIGAND FREE ENERGY PREDICTED BY IDOCK:   -4.19 KCAL/MOL
REMARK 924 INTRA-LIGAND FREE ENERGY PREDICTED BY IDOCK:   -1.43 KCAL/MOL
REMARK 927      BINDING AFFINITY PREDICTED BY RF-SCORE:    0.00 PKD
ROOT
HETATM    1  C   UNL     1     -11.979  11.061  69.266  1.00  0.00    -0.410 C  
HETATM    2  C   UNL     1     -10.970  10.235  68.519  1.00  0.00    -0.294 C  
HETATM    3  C   UNL     1     -10.443   9.105  69.029  1.00  0.00    -0.238 C  
HETATM    4  C   UNL     1     -10.577  10.692  67.143  1.00  0.00    -0.312 C  
ENDROOT
BRANCH   3   5
HETATM    5  C   UNL     1     -10.770   8.484  70.313  1.00  0.00    -0.242 C  
HETATM    6  C   UNL     1      -9.843   7.453  70.935  1.00  0.00    -0.177 C  
HETATM    7  C   UNL     1     -11.209   7.033  70.403  1.00  0.00    -0.339 C  
HETATM    8  C   UNL     1     -11.204   6.141  69.188  1.00  0.00    -0.409 C  
HETATM    9  C   UNL     1     -12.350   6.735  71.350  1.00  0.00    -0.403 C  
BRANCH   6  10
HETATM   10  C   UNL     1      -9.564   7.570  72.383  1.00  0.00    -0.159 C  
HETATM   11  O   UNL     1      -9.928   8.551  73.008  1.00  0.00    -0.162 OA 
BRANCH  10  12
HETATM   12  O   UNL     1      -8.878   6.507  72.892  1.00  0.00    -0.124 OA 
BRANCH  12  13
HETATM   13  C   UNL     1      -7.433   6.598  73.014  1.00  0.00    -0.088 C  
HETATM   14  C   UNL     1      -6.956   7.973  73.467  1.00  0.00    -0.145 C  
HETATM   15  C   UNL     1      -6.438   8.540  72.178  1.00  0.00    -0.076 C  
HETATM   16  C   UNL     1      -6.266   7.482  71.149  1.00  0.00    -0.035 C  
HETATM   17  O   UNL     1      -6.131   9.713  72.015  1.00  0.00    -0.290 OA 
HETATM   18  C   UNL     1      -6.784   4.982  71.111  1.00  0.00    -0.039 C  
HETATM   19  C   UNL     1      -6.757   6.351  71.692  1.00  0.00    -0.063 C  
BRANCH  16  20
HETATM   20  C   UNL     1      -5.805   7.826  69.778  1.00  0.00    -0.023 C  
BRANCH  20  21
HETATM   21  C   UNL     1      -6.932   8.194  68.871  1.00  0.00    -0.062 C  
HETATM   22  C   UNL     1      -7.499   7.341  68.004  1.00  0.00    -0.102 C  
ENDBRANCH  20  21
ENDBRANCH  16  20
ENDBRANCH  12  13
ENDBRANCH  10  12
ENDBRANCH   6  10
ENDBRANCH   3   5
TORSDOF 6
ENDMDL
MODEL      245
REMARK 921   NORMALIZED FREE ENERGY PREDICTED BY IDOCK:   -3.02 KCAL/MOL
REMARK 922        TOTAL FREE ENERGY PREDICTED BY IDOCK:   -5.61 KCAL/MOL
REMARK 923 INTER-LIGAND FREE ENERGY PREDICTED BY IDOCK:   -4.27 KCAL/MOL
REMARK 924 INTRA-LIGAND FREE ENERGY PREDICTED BY IDOCK:   -1.33 KCAL/MOL
REMARK 927      BINDING AFFINITY PREDICTED BY RF-SCORE:    0.00 PKD
ROOT
HETATM    1  C   UNL     1     -12.246  10.928  71.270  1.00  0.00    -0.395 C  
HETATM    2  C   UNL     1     -11.537  10.519  70.009  1.00  0.00    -0.392 C  
HETATM    3  C   UNL     1     -10.564   9.587  69.998  1.00  0.00    -0.280 C  
HETATM    4  C   UNL     1     -11.970  11.167  68.726  1.00  0.00    -0.337 C  
ENDROOT
BRANCH   3   5
HETATM    5  C   UNL     1     -10.076   8.812  71.140  1.00  0.00    -0.317 C  
HETATM    6  C   UNL     1      -9.493   7.423  70.941  1.00  0.00    -0.165 C  
HETATM    7  C   UNL     1     -10.830   7.599  71.654  1.00  0.00    -0.260 C  
HETATM    8  C   UNL     1     -12.043   7.071  70.931  1.00  0.00    -0.403 C  
HETATM    9  C   UNL     1     -10.931   7.458  73.157  1.00  0.00    -0.408 C  
BRANCH   6  10
HETATM   10  C   UNL     1      -8.249   7.093  71.672  1.00  0.00    -0.103 C  
HETATM   11  O   UNL     1      -7.935   5.932  71.868  1.00  0.00    -0.105 OA 
BRANCH  10  12
HETATM   12  O   UNL     1      -7.553   8.191  72.082  1.00  0.00    -0.099 OA 
BRANCH  12  13
HETATM   13  C   UNL     1      -6.269   8.478  71.463  1.00  0.00    -0.051 C  
HETATM   14  C   UNL     1      -5.389   9.393  72.307  1.00  0.00    -0.071 C  
HETATM   15  C   UNL     1      -5.533  10.693  71.573  1.00  0.00     0.081 C  
HETATM   16  C   UNL     1      -6.119  10.493  70.222  1.00  0.00    -0.115 C  
HETATM   17  O   UNL     1      -5.154  11.773  72.003  1.00  0.00    -0.335 OA 
HETATM   18  C   UNL     1      -7.017   8.442  68.994  1.00  0.00    -0.061 C  
HETATM   19  C   UNL     1      -6.445   9.188  70.147  1.00  0.00    -0.046 C  
BRANCH  16  20
HETATM   20  C   UNL     1      -6.393  11.654  69.335  1.00  0.00    -0.106 C  
BRANCH  20  21
HETATM   21  C   UNL     1      -7.742  11.580  68.697  1.00  0.00    -0.139 C  
HETATM   22  C   UNL     1      -8.106  12.320  67.639  1.00  0.00    -0.165 C  
ENDBRANCH  20  21
ENDBRANCH  16  20
ENDBRANCH  12  13
ENDBRANCH  10  12
ENDBRANCH   6  10
ENDBRANCH   3   5
TORSDOF 6
ENDMDL
MODEL      246
REMARK 921   NORMALIZED FREE ENERGY PREDICTED BY IDOCK:   -3.02 KCAL/MOL
REMARK 922        TOTAL FREE ENERGY PREDICTED BY IDOCK:   -5.60 KCAL/MOL
REMARK 923 INTER-LIGAND FREE ENERGY PREDICTED BY IDOCK:   -5.38 KCAL/MOL
REMARK 924 INTRA-LIGAND FREE ENERGY PREDICTED BY IDOCK:   -0.22 KCAL/MOL
REMARK 927      BINDING AFFINITY PREDICTED BY RF-SCORE:    0.00 PKD
ROOT
HETATM    1  C   UNL     1     -10.628   5.963  69.069  1.00  0.00    -0.360 C  
HETATM    2  C   UNL     1      -9.500   6.896  68.728  1.00  0.00    -0.135 C  
HETATM    3  C   UNL     1      -9.617   8.235  68.824  1.00  0.00    -0.150 C  
HETATM    4  C   UNL     1      -8.197   6.286  68.298  1.00  0.00    -0.115 C  
ENDROOT
BRANCH   3   5
HETATM    5  C   UNL     1     -10.783   8.984  69.295  1.00  0.00    -0.189 C  
HETATM    6  C   UNL     1     -10.632  10.399  69.828  1.00  0.00    -0.302 C  
HETATM    7  C   UNL     1     -11.005   9.259  70.771  1.00  0.00    -0.349 C  
HETATM    8  C   UNL     1      -9.970   8.881  71.799  1.00  0.00    -0.397 C  
HETATM    9  C   UNL     1     -12.423   9.105  71.276  1.00  0.00    -0.366 C  
BRANCH   6  10
HETATM   10  C   UNL     1     -11.620  11.407  69.382  1.00  0.00    -0.323 C  
HETATM   11  O   UNL     1     -12.060  12.231  70.163  1.00  0.00    -0.327 OA 
BRANCH  10  12
HETATM   12  O   UNL     1     -11.959  11.289  68.067  1.00  0.00    -0.621 OA 
BRANCH  12  13
HETATM   13  C   UNL     1     -11.234  12.075  67.082  1.00  0.00    -0.316 C  
HETATM   14  C   UNL     1     -11.465  11.603  65.652  1.00  0.00    -0.171 C  
HETATM   15  C   UNL     1     -10.179  10.883  65.372  1.00  0.00    -0.277 C  
HETATM   16  C   UNL     1      -9.139  11.217  66.378  1.00  0.00    -0.201 C  
HETATM   17  O   UNL     1      -9.988  10.165  64.400  1.00  0.00    -0.314 OA 
HETATM   18  C   UNL     1      -9.153  12.639  68.499  1.00  0.00    -0.052 C  
HETATM   19  C   UNL     1      -9.747  11.987  67.302  1.00  0.00    -0.190 C  
BRANCH  16  20
HETATM   20  C   UNL     1      -7.796  10.581  66.321  1.00  0.00    -0.141 C  
BRANCH  20  21
HETATM   21  C   UNL     1      -6.688  11.567  66.497  1.00  0.00    -0.019 C  
HETATM   22  C   UNL     1      -5.742  11.462  67.443  1.00  0.00    -0.064 C  
ENDBRANCH  20  21
ENDBRANCH  16  20
ENDBRANCH  12  13
ENDBRANCH  10  12
ENDBRANCH   6  10
ENDBRANCH   3   5
TORSDOF 6
ENDMDL
MODEL      247
REMARK 921   NORMALIZED FREE ENERGY PREDICTED BY IDOCK:   -3.01 KCAL/MOL
REMARK 922        TOTAL FREE ENERGY PREDICTED BY IDOCK:   -5.58 KCAL/MOL
REMARK 923 INTER-LIGAND FREE ENERGY PREDICTED BY IDOCK:   -4.16 KCAL/MOL
REMARK 924 INTRA-LIGAND FREE ENERGY PREDICTED BY IDOCK:   -1.43 KCAL/MOL
REMARK 927      BINDING AFFINITY PREDICTED BY RF-SCORE:    0.00 PKD
ROOT
HETATM    1  C   UNL     1      -8.417   4.451  69.809  1.00  0.00    -0.086 C  
HETATM    2  C   UNL     1      -7.710   5.043  68.622  1.00  0.00    -0.078 C  
HETATM    3  C   UNL     1      -7.024   6.200  68.695  1.00  0.00    -0.076 C  
HETATM    4  C   UNL     1      -7.759   4.279  67.331  1.00  0.00    -0.084 C  
ENDROOT
BRANCH   3   5
HETATM    5  C   UNL     1      -6.816   7.026  69.886  1.00  0.00    -0.053 C  
HETATM    6  C   UNL     1      -7.926   7.920  70.413  1.00  0.00    -0.097 C  
HETATM    7  C   UNL     1      -6.677   8.534  69.790  1.00  0.00    -0.039 C  
HETATM    8  C   UNL     1      -6.873   9.253  68.479  1.00  0.00    -0.062 C  
HETATM    9  C   UNL     1      -5.610   9.167  70.656  1.00  0.00    -0.030 C  
BRANCH   6  10
HETATM   10  C   UNL     1      -8.161   7.927  71.874  1.00  0.00    -0.116 C  
HETATM   11  O   UNL     1      -7.656   7.079  72.588  1.00  0.00    -0.088 OA 
BRANCH  10  12
HETATM   12  O   UNL     1      -8.977   8.939  72.287  1.00  0.00    -0.388 OA 
BRANCH  12  13
HETATM   13  C   UNL     1     -10.397   8.674  72.448  1.00  0.00    -0.247 C  
HETATM   14  C   UNL     1     -10.683   7.403  73.239  1.00  0.00    -0.441 C  
HETATM   15  C   UNL     1     -11.084   6.461  72.142  1.00  0.00    -0.263 C  
HETATM   16  C   UNL     1     -11.381   7.190  70.882  1.00  0.00    -0.319 C  
HETATM   17  O   UNL     1     -11.216   5.254  72.284  1.00  0.00    -0.204 OA 
HETATM   18  C   UNL     1     -11.225   9.648  70.207  1.00  0.00    -0.324 C  
HETATM   19  C   UNL     1     -11.070   8.480  71.115  1.00  0.00    -0.312 C  
BRANCH  16  20
HETATM   20  C   UNL     1     -11.756   6.450  69.648  1.00  0.00    -0.195 C  
BRANCH  20  21
HETATM   21  C   UNL     1     -10.939   6.858  68.466  1.00  0.00    -0.198 C  
HETATM   22  C   UNL     1     -11.027   6.270  67.263  1.00  0.00    -0.455 C  
ENDBRANCH  20  21
ENDBRANCH  16  20
ENDBRANCH  12  13
ENDBRANCH  10  12
ENDBRANCH   6  10
ENDBRANCH   3   5
TORSDOF 6
ENDMDL
MODEL      248
REMARK 921   NORMALIZED FREE ENERGY PREDICTED BY IDOCK:   -3.01 KCAL/MOL
REMARK 922        TOTAL FREE ENERGY PREDICTED BY IDOCK:   -5.58 KCAL/MOL
REMARK 923 INTER-LIGAND FREE ENERGY PREDICTED BY IDOCK:   -3.91 KCAL/MOL
REMARK 924 INTRA-LIGAND FREE ENERGY PREDICTED BY IDOCK:   -1.67 KCAL/MOL
REMARK 927      BINDING AFFINITY PREDICTED BY RF-SCORE:    0.00 PKD
ROOT
HETATM    1  C   UNL     1      -7.715  10.401  65.854  1.00  0.00    -0.145 C  
HETATM    2  C   UNL     1      -8.849   9.620  65.252  1.00  0.00    -0.204 C  
HETATM    3  C   UNL     1      -9.686   8.873  65.997  1.00  0.00    -0.308 C  
HETATM    4  C   UNL     1      -9.051   9.718  63.767  1.00  0.00    -0.270 C  
ENDROOT
BRANCH   3   5
HETATM    5  C   UNL     1      -9.675   8.729  67.454  1.00  0.00    -0.225 C  
HETATM    6  C   UNL     1     -10.903   8.224  68.192  1.00  0.00     0.015 C  
HETATM    7  C   UNL     1     -10.456   9.673  68.350  1.00  0.00    -0.258 C  
HETATM    8  C   UNL     1     -11.374  10.719  67.768  1.00  0.00    -0.354 C  
HETATM    9  C   UNL     1      -9.757  10.136  69.609  1.00  0.00    -0.250 C  
BRANCH   6  10
HETATM   10  C   UNL     1     -10.695   7.216  69.256  1.00  0.00    -0.215 C  
HETATM   11  O   UNL     1     -11.442   7.165  70.217  1.00  0.00    -0.286 OA 
BRANCH  10  12
HETATM   12  O   UNL     1      -9.616   6.411  69.038  1.00  0.00    -0.132 OA 
BRANCH  12  13
HETATM   13  C   UNL     1      -9.836   4.997  68.789  1.00  0.00    -0.168 C  
HETATM   14  C   UNL     1      -8.999   4.093  69.687  1.00  0.00    -0.160 C  
HETATM   15  C   UNL     1      -7.933   3.641  68.732  1.00  0.00    -0.058 C  
HETATM   16  C   UNL     1      -8.308   3.929  67.324  1.00  0.00    -0.099 C  
HETATM   17  O   UNL     1      -6.916   3.049  69.064  1.00  0.00    -0.043 OA 
HETATM   18  C   UNL     1     -10.297   5.120  66.253  1.00  0.00    -0.313 C  
HETATM   19  C   UNL     1      -9.460   4.626  67.379  1.00  0.00    -0.177 C  
BRANCH  16  20
HETATM   20  C   UNL     1      -7.377   3.605  66.210  1.00  0.00    -0.076 C  
BRANCH  20  21
HETATM   21  C   UNL     1      -7.578   2.223  65.680  1.00  0.00    -0.071 C  
HETATM   22  C   UNL     1      -8.717   1.804  65.107  1.00  0.00    -0.114 C  
ENDBRANCH  20  21
ENDBRANCH  16  20
ENDBRANCH  12  13
ENDBRANCH  10  12
ENDBRANCH   6  10
ENDBRANCH   3   5
TORSDOF 6
ENDMDL
MODEL      249
REMARK 921   NORMALIZED FREE ENERGY PREDICTED BY IDOCK:   -3.00 KCAL/MOL
REMARK 922        TOTAL FREE ENERGY PREDICTED BY IDOCK:   -5.57 KCAL/MOL
REMARK 923 INTER-LIGAND FREE ENERGY PREDICTED BY IDOCK:   -4.62 KCAL/MOL
REMARK 924 INTRA-LIGAND FREE ENERGY PREDICTED BY IDOCK:   -0.95 KCAL/MOL
REMARK 927      BINDING AFFINITY PREDICTED BY RF-SCORE:    0.00 PKD
ROOT
HETATM    1  C   UNL     1     -10.892   9.585  66.856  1.00  0.00    -0.085 C  
HETATM    2  C   UNL     1      -9.457   9.515  66.417  1.00  0.00    -0.251 C  
HETATM    3  C   UNL     1      -8.444   9.330  67.286  1.00  0.00    -0.125 C  
HETATM    4  C   UNL     1      -9.173   9.628  64.947  1.00  0.00    -0.306 C  
ENDROOT
BRANCH   3   5
HETATM    5  C   UNL     1      -8.552   9.128  68.732  1.00  0.00    -0.131 C  
HETATM    6  C   UNL     1      -9.399  10.059  69.583  1.00  0.00    -0.242 C  
HETATM    7  C   UNL     1      -7.880  10.069  69.715  1.00  0.00    -0.185 C  
HETATM    8  C   UNL     1      -7.180  11.319  69.245  1.00  0.00    -0.094 C  
HETATM    9  C   UNL     1      -7.202   9.425  70.905  1.00  0.00    -0.097 C  
BRANCH   6  10
HETATM   10  C   UNL     1     -10.274   9.444  70.605  1.00  0.00    -0.288 C  
HETATM   11  O   UNL     1     -11.185  10.079  71.107  1.00  0.00    -0.350 OA 
BRANCH  10  12
HETATM   12  O   UNL     1      -9.940   8.156  70.903  1.00  0.00    -0.185 OA 
BRANCH  12  13
HETATM   13  C   UNL     1     -10.989   7.151  70.945  1.00  0.00    -0.251 C  
HETATM   14  C   UNL     1     -11.133   6.493  72.313  1.00  0.00    -0.297 C  
HETATM   15  C   UNL     1     -10.483   5.164  72.066  1.00  0.00    -0.215 C  
HETATM   16  C   UNL     1     -10.317   4.902  70.613  1.00  0.00    -0.233 C  
HETATM   17  O   UNL     1     -10.189   4.366  72.944  1.00  0.00    -0.158 OA 
HETATM   18  C   UNL     1     -10.794   6.288  68.522  1.00  0.00    -0.394 C  
HETATM   19  C   UNL     1     -10.708   6.027  69.983  1.00  0.00    -0.380 C  
BRANCH  16  20
HETATM   20  C   UNL     1      -9.653   3.659  70.137  1.00  0.00    -0.242 C  
BRANCH  20  21
HETATM   21  C   UNL     1      -8.217   3.877  69.786  1.00  0.00    -0.067 C  
HETATM   22  C   UNL     1      -7.438   2.939  69.226  1.00  0.00    -0.044 C  
ENDBRANCH  20  21
ENDBRANCH  16  20
ENDBRANCH  12  13
ENDBRANCH  10  12
ENDBRANCH   6  10
ENDBRANCH   3   5
TORSDOF 6
ENDMDL
MODEL      250
REMARK 921   NORMALIZED FREE ENERGY PREDICTED BY IDOCK:   -2.98 KCAL/MOL
REMARK 922        TOTAL FREE ENERGY PREDICTED BY IDOCK:   -5.55 KCAL/MOL
REMARK 923 INTER-LIGAND FREE ENERGY PREDICTED BY IDOCK:   -4.90 KCAL/MOL
REMARK 924 INTRA-LIGAND FREE ENERGY PREDICTED BY IDOCK:   -0.65 KCAL/MOL
REMARK 927      BINDING AFFINITY PREDICTED BY RF-SCORE:    0.00 PKD
ROOT
HETATM    1  C   UNL     1     -11.549   6.426  69.713  1.00  0.00    -0.397 C  
HETATM    2  C   UNL     1     -10.314   6.229  68.879  1.00  0.00    -0.246 C  
HETATM    3  C   UNL     1      -9.457   7.232  68.610  1.00  0.00    -0.137 C  
HETATM    4  C   UNL     1     -10.034   4.845  68.367  1.00  0.00    -0.183 C  
ENDROOT
BRANCH   3   5
HETATM    5  C   UNL     1      -9.541   8.613  69.090  1.00  0.00    -0.163 C  
HETATM    6  C   UNL     1     -10.201   9.689  68.244  1.00  0.00    -0.216 C  
HETATM    7  C   UNL     1      -8.695   9.716  68.481  1.00  0.00    -0.120 C  
HETATM    8  C   UNL     1      -7.826   9.458  67.275  1.00  0.00    -0.099 C  
HETATM    9  C   UNL     1      -8.081  10.703  69.449  1.00  0.00    -0.102 C  
BRANCH   6  10
HETATM   10  C   UNL     1     -11.122  10.625  68.925  1.00  0.00    -0.261 C  
HETATM   11  O   UNL     1     -10.976  10.888  70.106  1.00  0.00    -0.230 OA 
BRANCH  10  12
HETATM   12  O   UNL     1     -12.101  11.113  68.112  1.00  0.00    -0.633 OA 
BRANCH  12  13
HETATM   13  C   UNL     1     -11.853  12.343  67.377  1.00  0.00    -0.289 C  
HETATM   14  C   UNL     1     -10.894  12.158  66.207  1.00  0.00    -0.317 C  
HETATM   15  C   UNL     1      -9.638  12.761  66.763  1.00  0.00    -0.244 C  
HETATM   16  C   UNL     1      -9.914  13.566  67.981  1.00  0.00    -0.248 C  
HETATM   17  O   UNL     1      -8.536  12.660  66.243  1.00  0.00     0.139 OA 
HETATM   18  C   UNL     1     -12.030  14.007  69.341  1.00  0.00    -0.390 C  
HETATM   19  C   UNL     1     -11.220  13.387  68.258  1.00  0.00    -0.310 C  
BRANCH  16  20
HETATM   20  C   UNL     1      -8.805  14.220  68.726  1.00  0.00    -0.094 C  
BRANCH  20  21
HETATM   21  C   UNL     1      -8.576  15.630  68.289  1.00  0.00    -0.158 C  
HETATM   22  C   UNL     1      -8.950  16.700  69.005  1.00  0.00    -0.204 C  
ENDBRANCH  20  21
ENDBRANCH  16  20
ENDBRANCH  12  13
ENDBRANCH  10  12
ENDBRANCH   6  10
ENDBRANCH   3   5
TORSDOF 6
ENDMDL
MODEL      251
REMARK 921   NORMALIZED FREE ENERGY PREDICTED BY IDOCK:   -2.98 KCAL/MOL
REMARK 922        TOTAL FREE ENERGY PREDICTED BY IDOCK:   -5.54 KCAL/MOL
REMARK 923 INTER-LIGAND FREE ENERGY PREDICTED BY IDOCK:   -5.11 KCAL/MOL
REMARK 924 INTRA-LIGAND FREE ENERGY PREDICTED BY IDOCK:   -0.43 KCAL/MOL
REMARK 927      BINDING AFFINITY PREDICTED BY RF-SCORE:    0.00 PKD
ROOT
HETATM    1  C   UNL     1      -9.393   2.495  67.941  1.00  0.00    -0.241 C  
HETATM    2  C   UNL     1      -9.245   3.077  69.319  1.00  0.00    -0.218 C  
HETATM    3  C   UNL     1      -9.192   4.405  69.539  1.00  0.00    -0.196 C  
HETATM    4  C   UNL     1      -9.189   2.122  70.476  1.00  0.00    -0.186 C  
ENDROOT
BRANCH   3   5
HETATM    5  C   UNL     1      -9.307   5.468  68.539  1.00  0.00    -0.143 C  
HETATM    6  C   UNL     1      -9.086   6.921  68.923  1.00  0.00    -0.134 C  
HETATM    7  C   UNL     1     -10.479   6.433  68.539  1.00  0.00    -0.265 C  
HETATM    8  C   UNL     1     -11.504   6.414  69.645  1.00  0.00    -0.446 C  
HETATM    9  C   UNL     1     -11.073   6.768  67.189  1.00  0.00    -0.404 C  
BRANCH   6  10
HETATM   10  C   UNL     1      -8.265   7.751  68.013  1.00  0.00    -0.123 C  
HETATM   11  O   UNL     1      -8.234   7.516  66.818  1.00  0.00    -0.119 OA 
BRANCH  10  12
HETATM   12  O   UNL     1      -7.581   8.743  68.651  1.00  0.00    -0.093 OA 
BRANCH  12  13
HETATM   13  C   UNL     1      -8.048  10.113  68.519  1.00  0.00    -0.106 C  
HETATM   14  C   UNL     1      -9.443  10.328  69.094  1.00  0.00    -0.225 C  
HETATM   15  C   UNL     1     -10.266  10.397  67.842  1.00  0.00    -0.179 C  
HETATM   16  C   UNL     1      -9.413  10.591  66.641  1.00  0.00    -0.199 C  
HETATM   17  O   UNL     1     -11.488  10.366  67.817  1.00  0.00    -0.406 OA 
HETATM   18  C   UNL     1      -6.886  10.702  66.292  1.00  0.00    -0.133 C  
HETATM   19  C   UNL     1      -8.139  10.522  67.072  1.00  0.00    -0.118 C  
BRANCH  16  20
HETATM   20  C   UNL     1     -10.016  10.643  65.282  1.00  0.00    -0.356 C  
BRANCH  20  21
HETATM   21  C   UNL     1     -10.421  12.025  64.888  1.00  0.00    -0.325 C  
HETATM   22  C   UNL     1     -11.321  12.292  63.929  1.00  0.00    -0.501 C  
ENDBRANCH  20  21
ENDBRANCH  16  20
ENDBRANCH  12  13
ENDBRANCH  10  12
ENDBRANCH   6  10
ENDBRANCH   3   5
TORSDOF 6
ENDMDL
MODEL      252
REMARK 921   NORMALIZED FREE ENERGY PREDICTED BY IDOCK:   -2.97 KCAL/MOL
REMARK 922        TOTAL FREE ENERGY PREDICTED BY IDOCK:   -5.53 KCAL/MOL
REMARK 923 INTER-LIGAND FREE ENERGY PREDICTED BY IDOCK:   -5.71 KCAL/MOL
REMARK 924 INTRA-LIGAND FREE ENERGY PREDICTED BY IDOCK:    0.18 KCAL/MOL
REMARK 927      BINDING AFFINITY PREDICTED BY RF-SCORE:    0.00 PKD
ROOT
HETATM    1  C   UNL     1     -10.273  13.393  68.497  1.00  0.00    -0.224 C  
HETATM    2  C   UNL     1     -11.277  13.068  67.428  1.00  0.00    -0.325 C  
HETATM    3  C   UNL     1     -11.489  11.810  66.995  1.00  0.00    -0.368 C  
HETATM    4  C   UNL     1     -12.081  14.203  66.861  1.00  0.00    -0.466 C  
ENDROOT
BRANCH   3   5
HETATM    5  C   UNL     1     -10.849  10.590  67.490  1.00  0.00    -0.357 C  
HETATM    6  C   UNL     1      -9.344  10.532  67.691  1.00  0.00    -0.160 C  
HETATM    7  C   UNL     1     -10.003   9.716  66.584  1.00  0.00    -0.301 C  
HETATM    8  C   UNL     1      -9.685  10.135  65.170  1.00  0.00    -0.370 C  
HETATM    9  C   UNL     1     -10.188   8.221  66.728  1.00  0.00    -0.375 C  
BRANCH   6  10
HETATM   10  C   UNL     1      -8.845   9.908  68.937  1.00  0.00    -0.145 C  
HETATM   11  O   UNL     1      -8.009  10.472  69.620  1.00  0.00    -0.143 OA 
BRANCH  10  12
HETATM   12  O   UNL     1      -9.402   8.691  69.196  1.00  0.00    -0.152 OA 
BRANCH  12  13
HETATM   13  C   UNL     1     -10.454   8.599  70.195  1.00  0.00    -0.217 C  
HETATM   14  C   UNL     1     -10.086   9.267  71.514  1.00  0.00    -0.306 C  
HETATM   15  C   UNL     1      -9.781   8.074  72.370  1.00  0.00    -0.240 C  
HETATM   16  C   UNL     1     -10.284   6.819  71.752  1.00  0.00    -0.206 C  
HETATM   17  O   UNL     1      -9.248   8.131  73.469  1.00  0.00    -0.264 OA 
HETATM   18  C   UNL     1     -11.420   6.303  69.525  1.00  0.00    -0.387 C  
HETATM   19  C   UNL     1     -10.756   7.164  70.539  1.00  0.00    -0.259 C  
BRANCH  16  20
HETATM   20  C   UNL     1     -10.052   5.505  72.408  1.00  0.00    -0.218 C  
BRANCH  20  21
HETATM   21  C   UNL     1      -8.899   4.764  71.812  1.00  0.00    -0.139 C  
HETATM   22  C   UNL     1      -7.645   4.835  72.283  1.00  0.00    -0.085 C  
ENDBRANCH  20  21
ENDBRANCH  16  20
ENDBRANCH  12  13
ENDBRANCH  10  12
ENDBRANCH   6  10
ENDBRANCH   3   5
TORSDOF 6
ENDMDL
MODEL      253
REMARK 921   NORMALIZED FREE ENERGY PREDICTED BY IDOCK:   -2.95 KCAL/MOL
REMARK 922        TOTAL FREE ENERGY PREDICTED BY IDOCK:   -5.51 KCAL/MOL
REMARK 923 INTER-LIGAND FREE ENERGY PREDICTED BY IDOCK:   -4.10 KCAL/MOL
REMARK 924 INTRA-LIGAND FREE ENERGY PREDICTED BY IDOCK:   -1.40 KCAL/MOL
REMARK 927      BINDING AFFINITY PREDICTED BY RF-SCORE:    0.00 PKD
ROOT
HETATM    1  C   UNL     1      -9.076   8.277  72.219  1.00  0.00    -0.289 C  
HETATM    2  C   UNL     1     -10.165   7.594  72.998  1.00  0.00    -0.379 C  
HETATM    3  C   UNL     1     -11.470   7.748  72.702  1.00  0.00    -0.430 C  
HETATM    4  C   UNL     1      -9.753   6.689  74.123  1.00  0.00    -0.309 C  
ENDROOT
BRANCH   3   5
HETATM    5  C   UNL     1     -12.034   8.529  71.599  1.00  0.00    -0.372 C  
HETATM    6  C   UNL     1     -12.169  10.039  71.709  1.00  0.00    -0.383 C  
HETATM    7  C   UNL     1     -13.413   9.156  71.698  1.00  0.00    -0.452 C  
HETATM    8  C   UNL     1     -14.203   9.105  72.981  1.00  0.00     0.306 C  
HETATM    9  C   UNL     1     -14.284   9.061  70.465  1.00  0.00     0.804 C  
BRANCH   6  10
HETATM   10  C   UNL     1     -11.768  10.847  70.536  1.00  0.00    -0.342 C  
HETATM   11  O   UNL     1     -12.333  11.897  70.283  1.00  0.00    -0.274 OA 
BRANCH  10  12
HETATM   12  O   UNL     1     -10.754  10.291  69.814  1.00  0.00    -0.249 OA 
BRANCH  12  13
HETATM   13  C   UNL     1     -11.023   9.839  68.459  1.00  0.00    -0.149 C  
HETATM   14  C   UNL     1     -10.597   8.397  68.213  1.00  0.00    -0.163 C  
HETATM   15  C   UNL     1      -9.338   8.597  67.421  1.00  0.00    -0.144 C  
HETATM   16  C   UNL     1      -9.230   9.990  66.915  1.00  0.00    -0.169 C  
HETATM   17  O   UNL     1      -8.536   7.710  67.165  1.00  0.00    -0.119 OA 
HETATM   18  C   UNL     1     -10.665  12.078  67.229  1.00  0.00    -0.269 C  
HETATM   19  C   UNL     1     -10.269  10.662  67.449  1.00  0.00    -0.243 C  
BRANCH  16  20
HETATM   20  C   UNL     1      -8.038  10.425  66.141  1.00  0.00    -0.139 C  
BRANCH  20  21
HETATM   21  C   UNL     1      -8.302  10.493  64.672  1.00  0.00    -0.114 C  
HETATM   22  C   UNL     1      -8.592   9.422  63.918  1.00  0.00    -0.225 C  
ENDBRANCH  20  21
ENDBRANCH  16  20
ENDBRANCH  12  13
ENDBRANCH  10  12
ENDBRANCH   6  10
ENDBRANCH   3   5
TORSDOF 6
ENDMDL
MODEL      254
REMARK 921   NORMALIZED FREE ENERGY PREDICTED BY IDOCK:   -2.94 KCAL/MOL
REMARK 922        TOTAL FREE ENERGY PREDICTED BY IDOCK:   -5.49 KCAL/MOL
REMARK 923 INTER-LIGAND FREE ENERGY PREDICTED BY IDOCK:   -4.57 KCAL/MOL
REMARK 924 INTRA-LIGAND FREE ENERGY PREDICTED BY IDOCK:   -0.92 KCAL/MOL
REMARK 927      BINDING AFFINITY PREDICTED BY RF-SCORE:    0.00 PKD
ROOT
HETATM    1  C   UNL     1      -7.599  18.717  67.566  1.00  0.00    -0.243 C  
HETATM    2  C   UNL     1      -9.086  18.887  67.433  1.00  0.00    -0.303 C  
HETATM    3  C   UNL     1      -9.963  18.032  67.995  1.00  0.00    -0.346 C  
HETATM    4  C   UNL     1      -9.586  20.078  66.668  1.00  0.00    -0.548 C  
ENDROOT
BRANCH   3   5
HETATM    5  C   UNL     1      -9.647  16.870  68.829  1.00  0.00    -0.268 C  
HETATM    6  C   UNL     1      -9.480  15.494  68.209  1.00  0.00    -0.200 C  
HETATM    7  C   UNL     1     -10.677  15.791  69.106  1.00  0.00    -0.246 C  
HETATM    8  C   UNL     1     -12.025  15.808  68.432  1.00  0.00    -0.039 C  
HETATM    9  C   UNL     1     -10.733  15.264  70.523  1.00  0.00    -0.247 C  
BRANCH   6  10
HETATM   10  C   UNL     1      -8.338  14.672  68.668  1.00  0.00    -0.165 C  
HETATM   11  O   UNL     1      -7.198  15.098  68.595  1.00  0.00    -0.109 OA 
BRANCH  10  12
HETATM   12  O   UNL     1      -8.705  13.447  69.142  1.00  0.00     0.318 OA 
BRANCH  12  13
HETATM   13  C   UNL     1      -8.922  12.366  68.196  1.00  0.00    -0.196 C  
HETATM   14  C   UNL     1     -10.352  12.305  67.673  1.00  0.00    -0.214 C  
HETATM   15  C   UNL     1     -10.896  11.142  68.449  1.00  0.00    -0.205 C  
HETATM   16  C   UNL     1      -9.806  10.350  69.076  1.00  0.00    -0.222 C  
HETATM   17  O   UNL     1     -12.080  10.842  68.502  1.00  0.00    -0.493 OA 
HETATM   18  C   UNL     1      -7.273  10.649  69.190  1.00  0.00    -0.102 C  
HETATM   19  C   UNL     1      -8.666  11.025  68.832  1.00  0.00    -0.122 C  
BRANCH  16  20
HETATM   20  C   UNL     1     -10.119   9.174  69.931  1.00  0.00    -0.219 C  
BRANCH  20  21
HETATM   21  C   UNL     1      -9.808   7.878  69.257  1.00  0.00    -0.177 C  
HETATM   22  C   UNL     1     -10.037   7.642  67.956  1.00  0.00    -0.226 C  
ENDBRANCH  20  21
ENDBRANCH  16  20
ENDBRANCH  12  13
ENDBRANCH  10  12
ENDBRANCH   6  10
ENDBRANCH   3   5
TORSDOF 6
ENDMDL
MODEL      255
REMARK 921   NORMALIZED FREE ENERGY PREDICTED BY IDOCK:   -2.93 KCAL/MOL
REMARK 922        TOTAL FREE ENERGY PREDICTED BY IDOCK:   -5.48 KCAL/MOL
REMARK 923 INTER-LIGAND FREE ENERGY PREDICTED BY IDOCK:   -4.03 KCAL/MOL
REMARK 924 INTRA-LIGAND FREE ENERGY PREDICTED BY IDOCK:   -1.45 KCAL/MOL
REMARK 927      BINDING AFFINITY PREDICTED BY RF-SCORE:    0.00 PKD
ROOT
HETATM    1  C   UNL     1      -7.172  11.323  68.634  1.00  0.00    -0.098 C  
HETATM    2  C   UNL     1      -6.822  10.053  67.911  1.00  0.00    -0.075 C  
HETATM    3  C   UNL     1      -7.594   8.950  67.975  1.00  0.00    -0.093 C  
HETATM    4  C   UNL     1      -5.579  10.051  67.070  1.00  0.00    -0.046 C  
ENDROOT
BRANCH   3   5
HETATM    5  C   UNL     1      -8.867   8.807  68.683  1.00  0.00    -0.138 C  
HETATM    6  C   UNL     1      -9.866   7.739  68.274  1.00  0.00    -0.185 C  
HETATM    7  C   UNL     1     -10.181   9.213  68.041  1.00  0.00    -0.258 C  
HETATM    8  C   UNL     1     -10.240   9.660  66.602  1.00  0.00    -0.302 C  
HETATM    9  C   UNL     1     -11.164   9.945  68.927  1.00  0.00    -0.126 C  
BRANCH   6  10
HETATM   10  C   UNL     1     -10.511   6.958  69.353  1.00  0.00    -0.217 C  
HETATM   11  O   UNL     1     -11.656   6.557  69.229  1.00  0.00    -0.309 OA 
BRANCH  10  12
HETATM   12  O   UNL     1      -9.711   6.768  70.440  1.00  0.00    -0.175 OA 
BRANCH  12  13
HETATM   13  C   UNL     1     -10.257   7.011  71.764  1.00  0.00    -0.192 C  
HETATM   14  C   UNL     1      -9.821   8.345  72.357  1.00  0.00    -0.378 C  
HETATM   15  C   UNL     1      -8.789   7.899  73.350  1.00  0.00    -0.263 C  
HETATM   16  C   UNL     1      -8.875   6.437  73.603  1.00  0.00    -0.132 C  
HETATM   17  O   UNL     1      -8.020   8.651  73.931  1.00  0.00    -0.406 OA 
HETATM   18  C   UNL     1     -10.312   4.574  72.610  1.00  0.00    -0.252 C  
HETATM   19  C   UNL     1      -9.799   5.964  72.745  1.00  0.00    -0.181 C  
BRANCH  16  20
HETATM   20  C   UNL     1      -7.916   5.769  74.522  1.00  0.00    -0.103 C  
BRANCH  20  21
HETATM   21  C   UNL     1      -6.648   5.375  73.839  1.00  0.00    -0.074 C  
HETATM   22  C   UNL     1      -5.433   5.509  74.391  1.00  0.00    -0.028 C  
ENDBRANCH  20  21
ENDBRANCH  16  20
ENDBRANCH  12  13
ENDBRANCH  10  12
ENDBRANCH   6  10
ENDBRANCH   3   5
TORSDOF 6
ENDMDL
MODEL      256
REMARK 921   NORMALIZED FREE ENERGY PREDICTED BY IDOCK:   -2.92 KCAL/MOL
REMARK 922        TOTAL FREE ENERGY PREDICTED BY IDOCK:   -5.47 KCAL/MOL
REMARK 923 INTER-LIGAND FREE ENERGY PREDICTED BY IDOCK:   -4.85 KCAL/MOL
REMARK 924 INTRA-LIGAND FREE ENERGY PREDICTED BY IDOCK:   -0.62 KCAL/MOL
REMARK 927      BINDING AFFINITY PREDICTED BY RF-SCORE:    0.00 PKD
ROOT
HETATM    1  C   UNL     1     -10.948  10.926  69.569  1.00  0.00    -0.306 C  
HETATM    2  C   UNL     1     -11.824  10.880  70.789  1.00  0.00    -0.424 C  
HETATM    3  C   UNL     1     -11.851   9.819  71.619  1.00  0.00    -0.429 C  
HETATM    4  C   UNL     1     -12.665  12.088  71.087  1.00  0.00    -0.365 C  
ENDROOT
BRANCH   3   5
HETATM    5  C   UNL     1     -11.045   8.602  71.516  1.00  0.00    -0.358 C  
HETATM    6  C   UNL     1     -11.104   7.737  70.268  1.00  0.00    -0.242 C  
HETATM    7  C   UNL     1     -11.678   7.224  71.585  1.00  0.00    -0.316 C  
HETATM    8  C   UNL     1     -13.176   7.056  71.635  1.00  0.00    -0.368 C  
HETATM    9  C   UNL     1     -10.940   6.185  72.400  1.00  0.00    -0.299 C  
BRANCH   6  10
HETATM   10  C   UNL     1      -9.822   7.238  69.722  1.00  0.00    -0.177 C  
HETATM   11  O   UNL     1      -8.761   7.597  70.202  1.00  0.00    -0.139 OA 
BRANCH  10  12
HETATM   12  O   UNL     1      -9.975   6.385  68.669  1.00  0.00    -0.138 OA 
BRANCH  12  13
HETATM   13  C   UNL     1      -8.792   5.789  68.072  1.00  0.00    -0.109 C  
HETATM   14  C   UNL     1      -8.177   6.650  66.974  1.00  0.00    -0.113 C  
HETATM   15  C   UNL     1      -8.625   5.916  65.744  1.00  0.00    -0.154 C  
HETATM   16  C   UNL     1      -9.120   4.554  66.075  1.00  0.00    -0.130 C  
HETATM   17  O   UNL     1      -8.530   6.354  64.607  1.00  0.00    -0.059 OA 
HETATM   18  C   UNL     1      -9.466   3.308  68.276  1.00  0.00    -0.214 C  
HETATM   19  C   UNL     1      -9.114   4.471  67.419  1.00  0.00    -0.141 C  
BRANCH  16  20
HETATM   20  C   UNL     1      -9.657   3.664  65.012  1.00  0.00    -0.171 C  
BRANCH  20  21
HETATM   21  C   UNL     1      -8.981   2.332  64.986  1.00  0.00    -0.126 C  
HETATM   22  C   UNL     1      -7.680   2.152  65.258  1.00  0.00    -0.072 C  
ENDBRANCH  20  21
ENDBRANCH  16  20
ENDBRANCH  12  13
ENDBRANCH  10  12
ENDBRANCH   6  10
ENDBRANCH   3   5
TORSDOF 6
ENDMDL
MODEL      257
REMARK 921   NORMALIZED FREE ENERGY PREDICTED BY IDOCK:   -2.90 KCAL/MOL
REMARK 922        TOTAL FREE ENERGY PREDICTED BY IDOCK:   -5.44 KCAL/MOL
REMARK 923 INTER-LIGAND FREE ENERGY PREDICTED BY IDOCK:   -5.09 KCAL/MOL
REMARK 924 INTRA-LIGAND FREE ENERGY PREDICTED BY IDOCK:   -0.34 KCAL/MOL
REMARK 927      BINDING AFFINITY PREDICTED BY RF-SCORE:    0.00 PKD
ROOT
HETATM    1  C   UNL     1      -7.730  10.099  65.426  1.00  0.00    -0.143 C  
HETATM    2  C   UNL     1      -9.184   9.991  65.063  1.00  0.00    -0.277 C  
HETATM    3  C   UNL     1     -10.021   9.137  65.684  1.00  0.00    -0.036 C  
HETATM    4  C   UNL     1      -9.703  10.902  63.989  1.00  0.00    -0.351 C  
ENDROOT
BRANCH   3   5
HETATM    5  C   UNL     1      -9.697   8.239  66.794  1.00  0.00    -0.307 C  
HETATM    6  C   UNL     1      -8.257   8.039  67.234  1.00  0.00    -0.122 C  
HETATM    7  C   UNL     1      -9.018   6.902  66.560  1.00  0.00    -0.166 C  
HETATM    8  C   UNL     1      -8.537   6.502  65.188  1.00  0.00     0.004 C  
HETATM    9  C   UNL     1      -9.539   5.733  67.366  1.00  0.00    -0.119 C  
BRANCH   6  10
HETATM   10  C   UNL     1      -7.979   8.046  68.687  1.00  0.00    -0.123 C  
HETATM   11  O   UNL     1      -6.832   8.055  69.100  1.00  0.00    -0.050 OA 
BRANCH  10  12
HETATM   12  O   UNL     1      -9.105   8.030  69.456  1.00  0.00    -0.151 OA 
BRANCH  12  13
HETATM   13  C   UNL     1      -9.270   9.050  70.478  1.00  0.00    -0.220 C  
HETATM   14  C   UNL     1      -8.904   8.562  71.875  1.00  0.00    -0.284 C  
HETATM   15  C   UNL     1     -10.263   8.366  72.480  1.00  0.00    -0.299 C  
HETATM   16  C   UNL     1     -11.318   9.031  71.673  1.00  0.00    -0.430 C  
HETATM   17  O   UNL     1     -10.469   7.791  73.539  1.00  0.00    -0.311 OA 
HETATM   18  C   UNL     1     -11.283  10.297  69.455  1.00  0.00    -0.314 C  
HETATM   19  C   UNL     1     -10.703   9.503  70.571  1.00  0.00    -0.359 C  
BRANCH  16  20
HETATM   20  C   UNL     1     -12.749   8.928  72.063  1.00  0.00    -0.456 C  
BRANCH  20  21
HETATM   21  C   UNL     1     -13.427   7.747  71.448  1.00  0.00    -0.317 C  
HETATM   22  C   UNL     1     -14.318   6.981  72.094  1.00  0.00    -0.262 C  
ENDBRANCH  20  21
ENDBRANCH  16  20
ENDBRANCH  12  13
ENDBRANCH  10  12
ENDBRANCH   6  10
ENDBRANCH   3   5
TORSDOF 6
ENDMDL
MODEL      258
REMARK 921   NORMALIZED FREE ENERGY PREDICTED BY IDOCK:   -2.89 KCAL/MOL
REMARK 922        TOTAL FREE ENERGY PREDICTED BY IDOCK:   -5.43 KCAL/MOL
REMARK 923 INTER-LIGAND FREE ENERGY PREDICTED BY IDOCK:   -4.91 KCAL/MOL
REMARK 924 INTRA-LIGAND FREE ENERGY PREDICTED BY IDOCK:   -0.51 KCAL/MOL
REMARK 927      BINDING AFFINITY PREDICTED BY RF-SCORE:    0.00 PKD
ROOT
HETATM    1  C   UNL     1     -12.628   9.361  71.652  1.00  0.00    -0.460 C  
HETATM    2  C   UNL     1     -13.002   7.938  71.345  1.00  0.00    -0.301 C  
HETATM    3  C   UNL     1     -12.167   7.094  70.710  1.00  0.00    -0.308 C  
HETATM    4  C   UNL     1     -14.350   7.459  71.802  1.00  0.00    -0.586 C  
ENDROOT
BRANCH   3   5
HETATM    5  C   UNL     1     -10.800   7.376  70.267  1.00  0.00    -0.260 C  
HETATM    6  C   UNL     1     -10.271   6.793  68.967  1.00  0.00    -0.191 C  
HETATM    7  C   UNL     1      -9.719   6.311  70.305  1.00  0.00    -0.189 C  
HETATM    8  C   UNL     1     -10.040   4.887  70.683  1.00  0.00    -0.306 C  
HETATM    9  C   UNL     1      -8.355   6.756  70.786  1.00  0.00    -0.128 C  
BRANCH   6  10
HETATM   10  C   UNL     1      -9.504   7.692  68.077  1.00  0.00    -0.143 C  
HETATM   11  O   UNL     1      -8.770   7.236  67.218  1.00  0.00    -0.120 OA 
BRANCH  10  12
HETATM   12  O   UNL     1      -9.704   9.015  68.338  1.00  0.00    -0.151 OA 
BRANCH  12  13
HETATM   13  C   UNL     1      -9.789   9.944  67.223  1.00  0.00    -0.182 C  
HETATM   14  C   UNL     1      -8.595   9.857  66.279  1.00  0.00    -0.137 C  
HETATM   15  C   UNL     1      -7.826  11.084  66.668  1.00  0.00    -0.153 C  
HETATM   16  C   UNL     1      -8.657  12.012  67.479  1.00  0.00    -0.167 C  
HETATM   17  O   UNL     1      -6.683  11.326  66.306  1.00  0.00    -0.106 OA 
HETATM   18  C   UNL     1     -11.027  11.866  68.418  1.00  0.00    -0.273 C  
HETATM   19  C   UNL     1      -9.821  11.371  67.703  1.00  0.00    -0.189 C  
BRANCH  16  20
HETATM   20  C   UNL     1      -8.082  13.275  68.013  1.00  0.00    -0.157 C  
BRANCH  20  21
HETATM   21  C   UNL     1      -8.471  14.468  67.202  1.00  0.00    -0.234 C  
HETATM   22  C   UNL     1      -8.398  15.729  67.652  1.00  0.00    -0.170 C  
ENDBRANCH  20  21
ENDBRANCH  16  20
ENDBRANCH  12  13
ENDBRANCH  10  12
ENDBRANCH   6  10
ENDBRANCH   3   5
TORSDOF 6
ENDMDL
MODEL      259
REMARK 921   NORMALIZED FREE ENERGY PREDICTED BY IDOCK:   -2.88 KCAL/MOL
REMARK 922        TOTAL FREE ENERGY PREDICTED BY IDOCK:   -5.41 KCAL/MOL
REMARK 923 INTER-LIGAND FREE ENERGY PREDICTED BY IDOCK:   -4.99 KCAL/MOL
REMARK 924 INTRA-LIGAND FREE ENERGY PREDICTED BY IDOCK:   -0.42 KCAL/MOL
REMARK 927      BINDING AFFINITY PREDICTED BY RF-SCORE:    0.00 PKD
ROOT
HETATM    1  C   UNL     1     -11.336  12.792  68.921  1.00  0.00    -0.344 C  
HETATM    2  C   UNL     1     -11.302  12.581  67.433  1.00  0.00    -0.371 C  
HETATM    3  C   UNL     1     -11.159  11.361  66.880  1.00  0.00    -0.356 C  
HETATM    4  C   UNL     1     -11.466  13.788  66.555  1.00  0.00    -0.364 C  
ENDROOT
BRANCH   3   5
HETATM    5  C   UNL     1     -11.062  10.082  67.585  1.00  0.00    -0.222 C  
HETATM    6  C   UNL     1      -9.798   9.707  68.340  1.00  0.00    -0.170 C  
HETATM    7  C   UNL     1     -10.183   8.958  67.069  1.00  0.00    -0.345 C  
HETATM    8  C   UNL     1      -9.278   9.158  65.880  1.00  0.00    -0.286 C  
HETATM    9  C   UNL     1     -10.766   7.563  67.139  1.00  0.00    -0.379 C  
BRANCH   6  10
HETATM   10  C   UNL     1      -9.957   9.110  69.685  1.00  0.00    -0.190 C  
HETATM   11  O   UNL     1      -9.921   9.809  70.682  1.00  0.00    -0.262 OA 
BRANCH  10  12
HETATM   12  O   UNL     1     -10.126   7.757  69.662  1.00  0.00    -0.187 OA 
BRANCH  12  13
HETATM   13  C   UNL     1      -9.149   6.917  70.335  1.00  0.00    -0.156 C  
HETATM   14  C   UNL     1      -7.862   6.739  69.538  1.00  0.00    -0.113 C  
HETATM   15  C   UNL     1      -8.037   5.346  69.009  1.00  0.00    -0.094 C  
HETATM   16  C   UNL     1      -9.122   4.626  69.725  1.00  0.00    -0.162 C  
HETATM   17  O   UNL     1      -7.333   4.842  68.146  1.00  0.00    -0.068 OA 
HETATM   18  C   UNL     1     -10.779   5.321  71.539  1.00  0.00    -0.221 C  
HETATM   19  C   UNL     1      -9.684   5.527  70.555  1.00  0.00    -0.241 C  
BRANCH  16  20
HETATM   20  C   UNL     1      -9.500   3.242  69.335  1.00  0.00    -0.203 C  
BRANCH  20  21
HETATM   21  C   UNL     1      -9.098   2.229  70.357  1.00  0.00    -0.173 C  
HETATM   22  C   UNL     1      -8.389   2.523  71.457  1.00  0.00    -0.080 C  
ENDBRANCH  20  21
ENDBRANCH  16  20
ENDBRANCH  12  13
ENDBRANCH  10  12
ENDBRANCH   6  10
ENDBRANCH   3   5
TORSDOF 6
ENDMDL
MODEL      260
REMARK 921   NORMALIZED FREE ENERGY PREDICTED BY IDOCK:   -2.85 KCAL/MOL
REMARK 922        TOTAL FREE ENERGY PREDICTED BY IDOCK:   -5.37 KCAL/MOL
REMARK 923 INTER-LIGAND FREE ENERGY PREDICTED BY IDOCK:   -4.41 KCAL/MOL
REMARK 924 INTRA-LIGAND FREE ENERGY PREDICTED BY IDOCK:   -0.96 KCAL/MOL
REMARK 927      BINDING AFFINITY PREDICTED BY RF-SCORE:    0.00 PKD
ROOT
HETATM    1  C   UNL     1      -7.783  14.647  68.407  1.00  0.00    -0.125 C  
HETATM    2  C   UNL     1      -8.190  15.296  67.114  1.00  0.00    -0.250 C  
HETATM    3  C   UNL     1      -9.197  14.824  66.355  1.00  0.00    -0.301 C  
HETATM    4  C   UNL     1      -7.450  16.533  66.694  1.00  0.00    -0.296 C  
ENDROOT
BRANCH   3   5
HETATM    5  C   UNL     1     -10.063  13.681  66.655  1.00  0.00    -0.277 C  
HETATM    6  C   UNL     1      -9.552  12.259  66.494  1.00  0.00    -0.242 C  
HETATM    7  C   UNL     1     -10.623  12.801  65.553  1.00  0.00    -0.303 C  
HETATM    8  C   UNL     1     -10.208  12.993  64.115  1.00  0.00    -0.263 C  
HETATM    9  C   UNL     1     -12.068  12.379  65.699  1.00  0.00    -0.396 C  
BRANCH   6  10
HETATM   10  C   UNL     1      -9.867  11.294  67.571  1.00  0.00    -0.178 C  
HETATM   11  O   UNL     1     -10.115  11.683  68.699  1.00  0.00    -0.211 OA 
BRANCH  10  12
HETATM   12  O   UNL     1      -9.833   9.994  67.163  1.00  0.00    -0.170 OA 
BRANCH  12  13
HETATM   13  C   UNL     1      -9.603   8.954  68.153  1.00  0.00    -0.145 C  
HETATM   14  C   UNL     1      -8.250   9.075  68.844  1.00  0.00    -0.120 C  
HETATM   15  C   UNL     1      -7.478   7.982  68.166  1.00  0.00    -0.101 C  
HETATM   16  C   UNL     1      -8.379   7.056  67.431  1.00  0.00    -0.122 C  
HETATM   17  O   UNL     1      -6.269   7.829  68.262  1.00  0.00    -0.042 OA 
HETATM   18  C   UNL     1     -10.897   7.040  67.006  1.00  0.00    -0.413 C  
HETATM   19  C   UNL     1      -9.614   7.588  67.521  1.00  0.00    -0.175 C  
BRANCH  16  20
HETATM   20  C   UNL     1      -7.824   5.922  66.646  1.00  0.00    -0.101 C  
BRANCH  20  21
HETATM   21  C   UNL     1      -7.192   6.365  65.367  1.00  0.00    -0.070 C  
HETATM   22  C   UNL     1      -7.860   6.990  64.385  1.00  0.00    -0.111 C  
ENDBRANCH  20  21
ENDBRANCH  16  20
ENDBRANCH  12  13
ENDBRANCH  10  12
ENDBRANCH   6  10
ENDBRANCH   3   5
TORSDOF 6
ENDMDL
MODEL      261
REMARK 921   NORMALIZED FREE ENERGY PREDICTED BY IDOCK:   -2.85 KCAL/MOL
REMARK 922        TOTAL FREE ENERGY PREDICTED BY IDOCK:   -5.37 KCAL/MOL
REMARK 923 INTER-LIGAND FREE ENERGY PREDICTED BY IDOCK:   -4.14 KCAL/MOL
REMARK 924 INTRA-LIGAND FREE ENERGY PREDICTED BY IDOCK:   -1.23 KCAL/MOL
REMARK 927      BINDING AFFINITY PREDICTED BY RF-SCORE:    0.00 PKD
ROOT
HETATM    1  C   UNL     1      -9.676  13.944  66.523  1.00  0.00    -0.303 C  
HETATM    2  C   UNL     1     -11.060  13.397  66.315  1.00  0.00    -0.305 C  
HETATM    3  C   UNL     1     -11.367  12.105  66.541  1.00  0.00    -0.405 C  
HETATM    4  C   UNL     1     -12.128  14.354  65.869  1.00  0.00    -0.358 C  
ENDROOT
BRANCH   3   5
HETATM    5  C   UNL     1     -10.470  11.063  67.046  1.00  0.00    -0.284 C  
HETATM    6  C   UNL     1     -11.027   9.772  67.620  1.00  0.00    -0.226 C  
HETATM    7  C   UNL     1     -10.339  10.782  68.532  1.00  0.00    -0.202 C  
HETATM    8  C   UNL     1     -11.220  11.478  69.538  1.00  0.00    -0.305 C  
HETATM    9  C   UNL     1      -8.938  10.533  69.047  1.00  0.00    -0.183 C  
BRANCH   6  10
HETATM   10  C   UNL     1     -10.375   8.507  67.214  1.00  0.00    -0.302 C  
HETATM   11  O   UNL     1     -10.517   7.495  67.878  1.00  0.00    -0.203 OA 
BRANCH  10  12
HETATM   12  O   UNL     1      -9.631   8.619  66.077  1.00  0.00    -0.236 OA 
BRANCH  12  13
HETATM   13  C   UNL     1      -8.427   7.815  65.943  1.00  0.00    -0.142 C  
HETATM   14  C   UNL     1      -7.971   7.198  67.260  1.00  0.00    -0.111 C  
HETATM   15  C   UNL     1      -6.809   8.080  67.608  1.00  0.00    -0.070 C  
HETATM   16  C   UNL     1      -6.374   8.890  66.441  1.00  0.00    -0.065 C  
HETATM   17  O   UNL     1      -6.246   8.083  68.693  1.00  0.00    -0.042 OA 
HETATM   18  C   UNL     1      -7.274   9.157  64.066  1.00  0.00    -0.096 C  
HETATM   19  C   UNL     1      -7.267   8.645  65.462  1.00  0.00    -0.084 C  
BRANCH  16  20
HETATM   20  C   UNL     1      -5.263   9.871  66.570  1.00  0.00    -0.043 C  
BRANCH  20  21
HETATM   21  C   UNL     1      -5.656  11.080  67.354  1.00  0.00    -0.048 C  
HETATM   22  C   UNL     1      -6.615  11.936  66.970  1.00  0.00    -0.128 C  
ENDBRANCH  20  21
ENDBRANCH  16  20
ENDBRANCH  12  13
ENDBRANCH  10  12
ENDBRANCH   6  10
ENDBRANCH   3   5
TORSDOF 6
ENDMDL
MODEL      262
REMARK 921   NORMALIZED FREE ENERGY PREDICTED BY IDOCK:   -2.84 KCAL/MOL
REMARK 922        TOTAL FREE ENERGY PREDICTED BY IDOCK:   -5.36 KCAL/MOL
REMARK 923 INTER-LIGAND FREE ENERGY PREDICTED BY IDOCK:   -4.53 KCAL/MOL
REMARK 924 INTRA-LIGAND FREE ENERGY PREDICTED BY IDOCK:   -0.83 KCAL/MOL
REMARK 927      BINDING AFFINITY PREDICTED BY RF-SCORE:    0.00 PKD
ROOT
HETATM    1  C   UNL     1      -5.821  20.299  66.883  1.00  0.00    -0.201 C  
HETATM    2  C   UNL     1      -5.962  19.518  65.607  1.00  0.00    -0.210 C  
HETATM    3  C   UNL     1      -6.565  18.313  65.561  1.00  0.00    -0.254 C  
HETATM    4  C   UNL     1      -5.432  20.140  64.348  1.00  0.00    -0.227 C  
ENDROOT
BRANCH   3   5
HETATM    5  C   UNL     1      -7.197  17.603  66.675  1.00  0.00    -0.264 C  
HETATM    6  C   UNL     1      -8.096  16.405  66.419  1.00  0.00    -0.357 C  
HETATM    7  C   UNL     1      -8.688  17.711  66.938  1.00  0.00    -0.262 C  
HETATM    8  C   UNL     1      -9.596  18.453  65.990  1.00  0.00    -0.067 C  
HETATM    9  C   UNL     1      -9.105  17.851  68.386  1.00  0.00    -0.292 C  
BRANCH   6  10
HETATM   10  C   UNL     1      -7.919  15.221  67.289  1.00  0.00    -0.202 C  
HETATM   11  O   UNL     1      -7.274  15.300  68.320  1.00  0.00    -0.109 OA 
BRANCH  10  12
HETATM   12  O   UNL     1      -8.524  14.098  66.808  1.00  0.00    -0.146 OA 
BRANCH  12  13
HETATM   13  C   UNL     1      -8.324  12.839  67.507  1.00  0.00    -0.179 C  
HETATM   14  C   UNL     1      -6.928  12.260  67.309  1.00  0.00    -0.142 C  
HETATM   15  C   UNL     1      -7.207  11.160  66.328  1.00  0.00    -0.048 C  
HETATM   16  C   UNL     1      -8.660  10.861  66.245  1.00  0.00    -0.164 C  
HETATM   17  O   UNL     1      -6.344  10.539  65.724  1.00  0.00    -0.113 OA 
HETATM   18  C   UNL     1     -10.724  11.911  67.322  1.00  0.00    -0.276 C  
HETATM   19  C   UNL     1      -9.275  11.783  67.012  1.00  0.00    -0.187 C  
BRANCH  16  20
HETATM   20  C   UNL     1      -9.171   9.833  65.299  1.00  0.00    -0.294 C  
BRANCH  20  21
HETATM   21  C   UNL     1      -9.766  10.433  64.068  1.00  0.00    -0.373 C  
HETATM   22  C   UNL     1      -9.108  11.278  63.260  1.00  0.00    -0.161 C  
ENDBRANCH  20  21
ENDBRANCH  16  20
ENDBRANCH  12  13
ENDBRANCH  10  12
ENDBRANCH   6  10
ENDBRANCH   3   5
TORSDOF 6
ENDMDL
MODEL      263
REMARK 921   NORMALIZED FREE ENERGY PREDICTED BY IDOCK:   -2.83 KCAL/MOL
REMARK 922        TOTAL FREE ENERGY PREDICTED BY IDOCK:   -5.35 KCAL/MOL
REMARK 923 INTER-LIGAND FREE ENERGY PREDICTED BY IDOCK:   -4.33 KCAL/MOL
REMARK 924 INTRA-LIGAND FREE ENERGY PREDICTED BY IDOCK:   -1.02 KCAL/MOL
REMARK 927      BINDING AFFINITY PREDICTED BY RF-SCORE:    0.00 PKD
ROOT
HETATM    1  C   UNL     1      -6.961  13.810  68.440  1.00  0.00    -0.103 C  
HETATM    2  C   UNL     1      -8.096  14.376  67.633  1.00  0.00    -0.188 C  
HETATM    3  C   UNL     1      -9.292  13.762  67.541  1.00  0.00    -0.222 C  
HETATM    4  C   UNL     1      -7.871  15.689  66.941  1.00  0.00    -0.258 C  
ENDROOT
BRANCH   3   5
HETATM    5  C   UNL     1      -9.699  12.524  68.208  1.00  0.00    -0.220 C  
HETATM    6  C   UNL     1      -9.427  11.173  67.568  1.00  0.00    -0.178 C  
HETATM    7  C   UNL     1     -10.857  11.690  67.692  1.00  0.00    -0.273 C  
HETATM    8  C   UNL     1     -11.553  12.036  66.400  1.00  0.00    -0.381 C  
HETATM    9  C   UNL     1     -11.796  11.127  68.736  1.00  0.00    -0.388 C  
BRANCH   6  10
HETATM   10  C   UNL     1      -8.901  10.098  68.439  1.00  0.00    -0.123 C  
HETATM   11  O   UNL     1      -8.283  10.369  69.453  1.00  0.00    -0.157 OA 
BRANCH  10  12
HETATM   12  O   UNL     1      -9.171   8.844  67.977  1.00  0.00    -0.139 OA 
BRANCH  12  13
HETATM   13  C   UNL     1      -8.774   7.700  68.782  1.00  0.00    -0.128 C  
HETATM   14  C   UNL     1      -7.394   7.164  68.420  1.00  0.00    -0.100 C  
HETATM   15  C   UNL     1      -7.754   5.932  67.645  1.00  0.00    -0.097 C  
HETATM   16  C   UNL     1      -9.178   5.558  67.850  1.00  0.00    -0.112 C  
HETATM   17  O   UNL     1      -6.962   5.277  66.983  1.00  0.00    -0.062 OA 
HETATM   18  C   UNL     1     -11.103   6.646  69.126  1.00  0.00    -0.332 C  
HETATM   19  C   UNL     1      -9.720   6.544  68.591  1.00  0.00    -0.128 C  
BRANCH  16  20
HETATM   20  C   UNL     1      -9.765   4.391  67.140  1.00  0.00    -0.230 C  
BRANCH  20  21
HETATM   21  C   UNL     1     -10.419   4.774  65.853  1.00  0.00    -0.313 C  
HETATM   22  C   UNL     1     -10.485   3.967  64.783  1.00  0.00    -0.194 C  
ENDBRANCH  20  21
ENDBRANCH  16  20
ENDBRANCH  12  13
ENDBRANCH  10  12
ENDBRANCH   6  10
ENDBRANCH   3   5
TORSDOF 6
ENDMDL
MODEL      264
REMARK 921   NORMALIZED FREE ENERGY PREDICTED BY IDOCK:   -2.80 KCAL/MOL
REMARK 922        TOTAL FREE ENERGY PREDICTED BY IDOCK:   -5.31 KCAL/MOL
REMARK 923 INTER-LIGAND FREE ENERGY PREDICTED BY IDOCK:   -4.53 KCAL/MOL
REMARK 924 INTRA-LIGAND FREE ENERGY PREDICTED BY IDOCK:   -0.78 KCAL/MOL
REMARK 927      BINDING AFFINITY PREDICTED BY RF-SCORE:    0.00 PKD
ROOT
HETATM    1  C   UNL     1      -8.435   8.331  67.845  1.00  0.00    -0.132 C  
HETATM    2  C   UNL     1      -8.645   9.176  66.620  1.00  0.00    -0.135 C  
HETATM    3  C   UNL     1      -8.530  10.518  66.640  1.00  0.00    -0.129 C  
HETATM    4  C   UNL     1      -8.962   8.469  65.334  1.00  0.00    -0.150 C  
ENDROOT
BRANCH   3   5
HETATM    5  C   UNL     1      -8.156  11.351  67.785  1.00  0.00    -0.121 C  
HETATM    6  C   UNL     1      -7.458  12.684  67.577  1.00  0.00    -0.155 C  
HETATM    7  C   UNL     1      -6.707  11.515  68.206  1.00  0.00    -0.064 C  
HETATM    8  C   UNL     1      -5.586  10.927  67.387  1.00  0.00    -0.045 C  
HETATM    9  C   UNL     1      -6.433  11.480  69.694  1.00  0.00    -0.129 C  
BRANCH   6  10
HETATM   10  C   UNL     1      -7.932  13.836  68.377  1.00  0.00    -0.144 C  
HETATM   11  O   UNL     1      -7.143  14.659  68.806  1.00  0.00    -0.100 OA 
BRANCH  10  12
HETATM   12  O   UNL     1      -9.282  13.845  68.568  1.00  0.00    -0.198 OA 
BRANCH  12  13
HETATM   13  C   UNL     1     -10.121  14.539  67.605  1.00  0.00    -0.228 C  
HETATM   14  C   UNL     1      -9.438  14.753  66.260  1.00  0.00    -0.332 C  
HETATM   15  C   UNL     1      -9.090  16.210  66.338  1.00  0.00    -0.304 C  
HETATM   16  C   UNL     1      -9.825  16.886  67.438  1.00  0.00    -0.261 C  
HETATM   17  O   UNL     1      -8.349  16.785  65.554  1.00  0.00    -0.145 OA 
HETATM   18  C   UNL     1     -11.422  16.046  69.246  1.00  0.00    -0.350 C  
HETATM   19  C   UNL     1     -10.490  15.915  68.094  1.00  0.00    -0.270 C  
BRANCH  16  20
HETATM   20  C   UNL     1      -9.600  18.326  67.728  1.00  0.00    -0.289 C  
BRANCH  20  21
HETATM   21  C   UNL     1     -10.328  19.222  66.780  1.00  0.00    -0.527 C  
HETATM   22  C   UNL     1     -10.099  20.539  66.676  1.00  0.00    -0.322 C  
ENDBRANCH  20  21
ENDBRANCH  16  20
ENDBRANCH  12  13
ENDBRANCH  10  12
ENDBRANCH   6  10
ENDBRANCH   3   5
TORSDOF 6
ENDMDL
MODEL      265
REMARK 921   NORMALIZED FREE ENERGY PREDICTED BY IDOCK:   -2.80 KCAL/MOL
REMARK 922        TOTAL FREE ENERGY PREDICTED BY IDOCK:   -5.30 KCAL/MOL
REMARK 923 INTER-LIGAND FREE ENERGY PREDICTED BY IDOCK:   -4.29 KCAL/MOL
REMARK 924 INTRA-LIGAND FREE ENERGY PREDICTED BY IDOCK:   -1.01 KCAL/MOL
REMARK 927      BINDING AFFINITY PREDICTED BY RF-SCORE:    0.00 PKD
ROOT
HETATM    1  C   UNL     1      -8.138   8.617  63.951  1.00  0.00    -0.163 C  
HETATM    2  C   UNL     1      -7.290   8.939  65.149  1.00  0.00    -0.092 C  
HETATM    3  C   UNL     1      -7.410   8.279  66.317  1.00  0.00    -0.078 C  
HETATM    4  C   UNL     1      -6.258  10.020  65.002  1.00  0.00    -0.115 C  
ENDROOT
BRANCH   3   5
HETATM    5  C   UNL     1      -8.307   7.158  66.604  1.00  0.00    -0.114 C  
HETATM    6  C   UNL     1      -7.951   6.133  67.669  1.00  0.00    -0.106 C  
HETATM    7  C   UNL     1      -7.958   5.738  66.196  1.00  0.00    -0.102 C  
HETATM    8  C   UNL     1      -6.617   5.409  65.590  1.00  0.00    -0.041 C  
HETATM    9  C   UNL     1      -9.085   4.908  65.621  1.00  0.00    -0.151 C  
BRANCH   6  10
HETATM   10  C   UNL     1      -9.023   5.716  68.600  1.00  0.00    -0.111 C  
HETATM   11  O   UNL     1      -9.092   4.563  68.989  1.00  0.00    -0.106 OA 
BRANCH  10  12
HETATM   12  O   UNL     1      -9.876   6.725  68.935  1.00  0.00    -0.143 OA 
BRANCH  12  13
HETATM   13  C   UNL     1      -9.347   7.890  69.625  1.00  0.00    -0.153 C  
HETATM   14  C   UNL     1      -8.889   7.587  71.046  1.00  0.00    -0.146 C  
HETATM   15  C   UNL     1     -10.013   8.175  71.846  1.00  0.00    -0.212 C  
HETATM   16  C   UNL     1     -10.858   9.073  71.017  1.00  0.00    -0.345 C  
HETATM   17  O   UNL     1     -10.174   7.995  73.045  1.00  0.00    -0.315 OA 
HETATM   18  C   UNL     1     -10.843   9.691  68.539  1.00  0.00    -0.202 C  
HETATM   19  C   UNL     1     -10.392   8.966  69.757  1.00  0.00    -0.213 C  
BRANCH  16  20
HETATM   20  C   UNL     1     -12.059   9.732  71.595  1.00  0.00    -0.475 C  
BRANCH  20  21
HETATM   21  C   UNL     1     -13.022   8.752  72.182  1.00  0.00    -0.457 C  
HETATM   22  C   UNL     1     -14.103   8.291  71.533  1.00  0.00    -0.446 C  
ENDBRANCH  20  21
ENDBRANCH  16  20
ENDBRANCH  12  13
ENDBRANCH  10  12
ENDBRANCH   6  10
ENDBRANCH   3   5
TORSDOF 6
ENDMDL
MODEL      266
REMARK 921   NORMALIZED FREE ENERGY PREDICTED BY IDOCK:   -2.79 KCAL/MOL
REMARK 922        TOTAL FREE ENERGY PREDICTED BY IDOCK:   -5.29 KCAL/MOL
REMARK 923 INTER-LIGAND FREE ENERGY PREDICTED BY IDOCK:   -4.75 KCAL/MOL
REMARK 924 INTRA-LIGAND FREE ENERGY PREDICTED BY IDOCK:   -0.55 KCAL/MOL
REMARK 927      BINDING AFFINITY PREDICTED BY RF-SCORE:    0.00 PKD
ROOT
HETATM    1  C   UNL     1      -8.534   7.136  66.445  1.00  0.00    -0.130 C  
HETATM    2  C   UNL     1      -7.540   8.248  66.265  1.00  0.00    -0.096 C  
HETATM    3  C   UNL     1      -7.900   9.546  66.270  1.00  0.00    -0.100 C  
HETATM    4  C   UNL     1      -6.095   7.871  66.106  1.00  0.00    -0.041 C  
ENDROOT
BRANCH   3   5
HETATM    5  C   UNL     1      -9.245  10.085  66.484  1.00  0.00    -0.182 C  
HETATM    6  C   UNL     1      -9.444  11.540  66.873  1.00  0.00    -0.194 C  
HETATM    7  C   UNL     1      -9.747  10.430  67.875  1.00  0.00    -0.168 C  
HETATM    8  C   UNL     1      -8.837  10.350  69.074  1.00  0.00    -0.176 C  
HETATM    9  C   UNL     1     -11.174  10.039  68.189  1.00  0.00    -0.192 C  
BRANCH   6  10
HETATM   10  C   UNL     1     -10.516  12.291  66.183  1.00  0.00    -0.240 C  
HETATM   11  O   UNL     1     -10.312  12.806  65.098  1.00  0.00    -0.287 OA 
BRANCH  10  12
HETATM   12  O   UNL     1     -11.684  12.337  66.884  1.00  0.00    -0.441 OA 
BRANCH  12  13
HETATM   13  C   UNL     1     -12.112  13.606  67.451  1.00  0.00    -0.337 C  
HETATM   14  C   UNL     1     -11.772  14.801  66.568  1.00  0.00    -0.278 C  
HETATM   15  C   UNL     1     -10.596  15.377  67.300  1.00  0.00    -0.294 C  
HETATM   16  C   UNL     1     -10.486  14.822  68.674  1.00  0.00    -0.250 C  
HETATM   17  O   UNL     1      -9.862  16.245  66.850  1.00  0.00    -0.235 OA 
HETATM   18  C   UNL     1     -11.795  13.038  69.947  1.00  0.00    -0.377 C  
HETATM   19  C   UNL     1     -11.435  13.871  68.769  1.00  0.00    -0.327 C  
BRANCH  16  20
HETATM   20  C   UNL     1      -9.364  15.221  69.565  1.00  0.00    -0.198 C  
BRANCH  20  21
HETATM   21  C   UNL     1      -8.067  14.598  69.165  1.00  0.00    -0.078 C  
HETATM   22  C   UNL     1      -6.962  15.302  68.875  1.00  0.00    -0.125 C  
ENDBRANCH  20  21
ENDBRANCH  16  20
ENDBRANCH  12  13
ENDBRANCH  10  12
ENDBRANCH   6  10
ENDBRANCH   3   5
TORSDOF 6
ENDMDL
MODEL      267
REMARK 921   NORMALIZED FREE ENERGY PREDICTED BY IDOCK:   -2.79 KCAL/MOL
REMARK 922        TOTAL FREE ENERGY PREDICTED BY IDOCK:   -5.28 KCAL/MOL
REMARK 923 INTER-LIGAND FREE ENERGY PREDICTED BY IDOCK:   -4.29 KCAL/MOL
REMARK 924 INTRA-LIGAND FREE ENERGY PREDICTED BY IDOCK:   -1.00 KCAL/MOL
REMARK 927      BINDING AFFINITY PREDICTED BY RF-SCORE:    0.00 PKD
ROOT
HETATM    1  C   UNL     1     -11.827  10.735  70.567  1.00  0.00    -0.453 C  
HETATM    2  C   UNL     1     -12.367   9.775  71.589  1.00  0.00    -0.495 C  
HETATM    3  C   UNL     1     -11.602   8.824  72.161  1.00  0.00    -0.434 C  
HETATM    4  C   UNL     1     -13.805   9.923  71.992  1.00  0.00    -0.188 C  
ENDROOT
BRANCH   3   5
HETATM    5  C   UNL     1     -10.173   8.594  71.938  1.00  0.00    -0.404 C  
HETATM    6  C   UNL     1      -9.676   7.256  71.416  1.00  0.00    -0.170 C  
HETATM    7  C   UNL     1      -9.367   7.684  72.846  1.00  0.00    -0.253 C  
HETATM    8  C   UNL     1     -10.031   6.884  73.938  1.00  0.00    -0.365 C  
HETATM    9  C   UNL     1      -7.985   8.169  73.228  1.00  0.00    -0.234 C  
BRANCH   6  10
HETATM   10  C   UNL     1      -8.651   7.277  70.349  1.00  0.00    -0.144 C  
HETATM   11  O   UNL     1      -7.820   6.390  70.270  1.00  0.00    -0.099 OA 
BRANCH  10  12
HETATM   12  O   UNL     1      -8.747   8.360  69.525  1.00  0.00    -0.134 OA 
BRANCH  12  13
HETATM   13  C   UNL     1      -7.549   8.841  68.858  1.00  0.00    -0.091 C  
HETATM   14  C   UNL     1      -6.353   8.972  69.795  1.00  0.00    -0.038 C  
HETATM   15  C   UNL     1      -6.302  10.458  69.995  1.00  0.00    -0.111 C  
HETATM   16  C   UNL     1      -7.128  11.171  68.986  1.00  0.00    -0.113 C  
HETATM   17  O   UNL     1      -5.615  11.017  70.837  1.00  0.00    -0.172 OA 
HETATM   18  C   UNL     1      -8.670  10.375  67.113  1.00  0.00    -0.130 C  
HETATM   19  C   UNL     1      -7.761  10.214  68.278  1.00  0.00    -0.088 C  
BRANCH  16  20
HETATM   20  C   UNL     1      -7.259  12.651  69.022  1.00  0.00     0.009 C  
BRANCH  20  21
HETATM   21  C   UNL     1      -6.279  13.335  68.126  1.00  0.00    -0.111 C  
HETATM   22  C   UNL     1      -6.522  14.503  67.512  1.00  0.00    -0.070 C  
ENDBRANCH  20  21
ENDBRANCH  16  20
ENDBRANCH  12  13
ENDBRANCH  10  12
ENDBRANCH   6  10
ENDBRANCH   3   5
TORSDOF 6
ENDMDL
MODEL      268
REMARK 921   NORMALIZED FREE ENERGY PREDICTED BY IDOCK:   -2.79 KCAL/MOL
REMARK 922        TOTAL FREE ENERGY PREDICTED BY IDOCK:   -5.28 KCAL/MOL
REMARK 923 INTER-LIGAND FREE ENERGY PREDICTED BY IDOCK:   -4.35 KCAL/MOL
REMARK 924 INTRA-LIGAND FREE ENERGY PREDICTED BY IDOCK:   -0.93 KCAL/MOL
REMARK 927      BINDING AFFINITY PREDICTED BY RF-SCORE:    0.00 PKD
ROOT
HETATM    1  C   UNL     1      -9.378   3.146  68.300  1.00  0.00    -0.246 C  
HETATM    2  C   UNL     1      -9.339   4.338  67.385  1.00  0.00    -0.190 C  
HETATM    3  C   UNL     1      -8.581   5.421  67.643  1.00  0.00    -0.104 C  
HETATM    4  C   UNL     1     -10.158   4.277  66.128  1.00  0.00    -0.210 C  
ENDROOT
BRANCH   3   5
HETATM    5  C   UNL     1      -7.674   5.610  68.777  1.00  0.00    -0.089 C  
HETATM    6  C   UNL     1      -7.768   6.851  69.647  1.00  0.00    -0.110 C  
HETATM    7  C   UNL     1      -6.562   6.642  68.738  1.00  0.00    -0.051 C  
HETATM    8  C   UNL     1      -6.427   7.600  67.581  1.00  0.00    -0.058 C  
HETATM    9  C   UNL     1      -5.227   6.214  69.308  1.00  0.00    -0.005 C  
BRANCH   6  10
HETATM   10  C   UNL     1      -7.690   6.665  71.113  1.00  0.00    -0.097 C  
HETATM   11  O   UNL     1      -7.986   5.597  71.620  1.00  0.00    -0.112 OA 
BRANCH  10  12
HETATM   12  O   UNL     1      -7.280   7.781  71.781  1.00  0.00    -0.061 OA 
BRANCH  12  13
HETATM   13  C   UNL     1      -8.248   8.515  72.580  1.00  0.00    -0.061 C  
HETATM   14  C   UNL     1      -8.587   7.823  73.895  1.00  0.00    -0.313 C  
HETATM   15  C   UNL     1      -9.940   7.254  73.583  1.00  0.00    -0.330 C  
HETATM   16  C   UNL     1     -10.517   7.864  72.358  1.00  0.00    -0.339 C  
HETATM   17  O   UNL     1     -10.525   6.442  74.286  1.00  0.00    -0.322 OA 
HETATM   18  C   UNL     1      -9.625   9.550  70.660  1.00  0.00    -0.292 C  
HETATM   19  C   UNL     1      -9.557   8.663  71.851  1.00  0.00    -0.377 C  
BRANCH  16  20
HETATM   20  C   UNL     1     -11.836   7.417  71.836  1.00  0.00    -0.332 C  
BRANCH  20  21
HETATM   21  C   UNL     1     -11.719   6.685  70.539  1.00  0.00    -0.453 C  
HETATM   22  C   UNL     1     -11.019   5.551  70.385  1.00  0.00    -0.199 C  
ENDBRANCH  20  21
ENDBRANCH  16  20
ENDBRANCH  12  13
ENDBRANCH  10  12
ENDBRANCH   6  10
ENDBRANCH   3   5
TORSDOF 6
ENDMDL
MODEL      269
REMARK 921   NORMALIZED FREE ENERGY PREDICTED BY IDOCK:   -2.77 KCAL/MOL
REMARK 922        TOTAL FREE ENERGY PREDICTED BY IDOCK:   -5.26 KCAL/MOL
REMARK 923 INTER-LIGAND FREE ENERGY PREDICTED BY IDOCK:   -4.58 KCAL/MOL
REMARK 924 INTRA-LIGAND FREE ENERGY PREDICTED BY IDOCK:   -0.68 KCAL/MOL
REMARK 927      BINDING AFFINITY PREDICTED BY RF-SCORE:    0.00 PKD
ROOT
HETATM    1  C   UNL     1     -10.913  17.554  67.472  1.00  0.00    -0.088 C  
HETATM    2  C   UNL     1      -9.755  18.256  68.124  1.00  0.00    -0.341 C  
HETATM    3  C   UNL     1      -8.497  17.778  68.068  1.00  0.00    -0.253 C  
HETATM    4  C   UNL     1     -10.034  19.552  68.829  1.00  0.00    -0.547 C  
ENDROOT
BRANCH   3   5
HETATM    5  C   UNL     1      -8.044  16.577  67.363  1.00  0.00    -0.172 C  
HETATM    6  C   UNL     1      -8.814  15.273  67.479  1.00  0.00    -0.188 C  
HETATM    7  C   UNL     1      -7.432  15.405  68.108  1.00  0.00    -0.120 C  
HETATM    8  C   UNL     1      -7.381  15.380  69.615  1.00  0.00    -0.177 C  
HETATM    9  C   UNL     1      -6.224  14.758  67.467  1.00  0.00    -0.019 C  
BRANCH   6  10
HETATM   10  C   UNL     1      -9.043  14.502  66.237  1.00  0.00    -0.129 C  
HETATM   11  O   UNL     1      -9.599  15.015  65.282  1.00  0.00    -0.206 OA 
BRANCH  10  12
HETATM   12  O   UNL     1      -8.589  13.218  66.303  1.00  0.00     0.202 OA 
BRANCH  12  13
HETATM   13  C   UNL     1      -9.556  12.134  66.354  1.00  0.00    -0.234 C  
HETATM   14  C   UNL     1     -10.766  12.368  65.458  1.00  0.00    -0.315 C  
HETATM   15  C   UNL     1     -11.807  12.751  66.469  1.00  0.00    -0.405 C  
HETATM   16  C   UNL     1     -11.377  12.407  67.849  1.00  0.00    -0.344 C  
HETATM   17  O   UNL     1     -12.900  13.223  66.188  1.00  0.00    -0.262 OA 
HETATM   18  C   UNL     1      -9.222  11.437  68.816  1.00  0.00    -0.108 C  
HETATM   19  C   UNL     1     -10.109  11.961  67.744  1.00  0.00    -0.200 C  
BRANCH  16  20
HETATM   20  C   UNL     1     -12.236  12.739  69.016  1.00  0.00    -0.041 C  
BRANCH  20  21
HETATM   21  C   UNL     1     -12.222  14.197  69.340  1.00  0.00    -0.329 C  
HETATM   22  C   UNL     1     -11.485  14.734  70.325  1.00  0.00    -0.309 C  
ENDBRANCH  20  21
ENDBRANCH  16  20
ENDBRANCH  12  13
ENDBRANCH  10  12
ENDBRANCH   6  10
ENDBRANCH   3   5
TORSDOF 6
ENDMDL
MODEL      270
REMARK 921   NORMALIZED FREE ENERGY PREDICTED BY IDOCK:   -2.75 KCAL/MOL
REMARK 922        TOTAL FREE ENERGY PREDICTED BY IDOCK:   -5.24 KCAL/MOL
REMARK 923 INTER-LIGAND FREE ENERGY PREDICTED BY IDOCK:   -4.47 KCAL/MOL
REMARK 924 INTRA-LIGAND FREE ENERGY PREDICTED BY IDOCK:   -0.77 KCAL/MOL
REMARK 927      BINDING AFFINITY PREDICTED BY RF-SCORE:    0.00 PKD
ROOT
HETATM    1  C   UNL     1      -8.464   7.048  66.032  1.00  0.00    -0.141 C  
HETATM    2  C   UNL     1      -7.457   7.453  67.071  1.00  0.00    -0.098 C  
HETATM    3  C   UNL     1      -7.776   8.237  68.118  1.00  0.00    -0.106 C  
HETATM    4  C   UNL     1      -6.059   6.923  66.929  1.00  0.00    -0.036 C  
ENDROOT
BRANCH   3   5
HETATM    5  C   UNL     1      -9.099   8.774  68.444  1.00  0.00    -0.141 C  
HETATM    6  C   UNL     1      -9.246  10.161  69.046  1.00  0.00    -0.188 C  
HETATM    7  C   UNL     1      -9.560   8.925  69.882  1.00  0.00    -0.185 C  
HETATM    8  C   UNL     1      -8.628   8.647  71.034  1.00  0.00    -0.211 C  
HETATM    9  C   UNL     1     -10.992   8.530  70.173  1.00  0.00    -0.221 C  
BRANCH   6  10
HETATM   10  C   UNL     1     -10.310  11.033  68.500  1.00  0.00    -0.190 C  
HETATM   11  O   UNL     1     -10.879  11.839  69.215  1.00  0.00    -0.215 OA 
BRANCH  10  12
HETATM   12  O   UNL     1     -10.562  10.820  67.177  1.00  0.00    -0.227 OA 
BRANCH  12  13
HETATM   13  C   UNL     1     -10.113  11.807  66.210  1.00  0.00    -0.217 C  
HETATM   14  C   UNL     1      -8.696  12.303  66.475  1.00  0.00    -0.084 C  
HETATM   15  C   UNL     1      -8.967  13.655  67.064  1.00  0.00    -0.236 C  
HETATM   16  C   UNL     1     -10.369  14.083  66.820  1.00  0.00    -0.271 C  
HETATM   17  O   UNL     1      -8.124  14.349  67.614  1.00  0.00    -0.149 OA 
HETATM   18  C   UNL     1     -12.380  12.942  65.737  1.00  0.00    -0.437 C  
HETATM   19  C   UNL     1     -10.983  13.035  66.238  1.00  0.00    -0.303 C  
BRANCH  16  20
HETATM   20  C   UNL     1     -10.872  15.376  67.356  1.00  0.00    -0.309 C  
BRANCH  20  21
HETATM   21  C   UNL     1     -10.468  16.541  66.512  1.00  0.00    -0.270 C  
HETATM   22  C   UNL     1     -10.563  16.558  65.174  1.00  0.00    -0.237 C  
ENDBRANCH  20  21
ENDBRANCH  16  20
ENDBRANCH  12  13
ENDBRANCH  10  12
ENDBRANCH   6  10
ENDBRANCH   3   5
TORSDOF 6
ENDMDL
MODEL      271
REMARK 921   NORMALIZED FREE ENERGY PREDICTED BY IDOCK:   -2.74 KCAL/MOL
REMARK 922        TOTAL FREE ENERGY PREDICTED BY IDOCK:   -5.22 KCAL/MOL
REMARK 923 INTER-LIGAND FREE ENERGY PREDICTED BY IDOCK:   -4.67 KCAL/MOL
REMARK 924 INTRA-LIGAND FREE ENERGY PREDICTED BY IDOCK:   -0.55 KCAL/MOL
REMARK 927      BINDING AFFINITY PREDICTED BY RF-SCORE:    0.00 PKD
ROOT
HETATM    1  C   UNL     1      -8.324  12.747  67.275  1.00  0.00    -0.187 C  
HETATM    2  C   UNL     1      -9.705  13.079  67.766  1.00  0.00    -0.218 C  
HETATM    3  C   UNL     1     -10.450  12.205  68.470  1.00  0.00    -0.248 C  
HETATM    4  C   UNL     1     -10.235  14.452  67.474  1.00  0.00    -0.240 C  
ENDROOT
BRANCH   3   5
HETATM    5  C   UNL     1     -10.057  10.862  68.902  1.00  0.00    -0.211 C  
HETATM    6  C   UNL     1     -10.828   9.640  68.432  1.00  0.00    -0.212 C  
HETATM    7  C   UNL     1     -10.893  10.073  69.893  1.00  0.00    -0.328 C  
HETATM    8  C   UNL     1     -12.225  10.589  70.375  1.00  0.00    -0.415 C  
HETATM    9  C   UNL     1     -10.132   9.315  70.959  1.00  0.00    -0.373 C  
BRANCH   6  10
HETATM   10  C   UNL     1     -10.044   8.465  67.993  1.00  0.00    -0.199 C  
HETATM   11  O   UNL     1      -8.882   8.331  68.335  1.00  0.00    -0.136 OA 
BRANCH  10  12
HETATM   12  O   UNL     1     -10.745   7.611  67.194  1.00  0.00    -0.332 OA 
BRANCH  12  13
HETATM   13  C   UNL     1     -11.351   6.432  67.791  1.00  0.00     0.039 C  
HETATM   14  C   UNL     1     -11.625   6.589  69.282  1.00  0.00    -0.183 C  
HETATM   15  C   UNL     1     -10.515   5.770  69.870  1.00  0.00    -0.290 C  
HETATM   16  C   UNL     1      -9.878   4.902  68.846  1.00  0.00    -0.241 C  
HETATM   17  O   UNL     1     -10.215   5.765  71.055  1.00  0.00    -0.199 OA 
HETATM   18  C   UNL     1     -10.216   4.635  66.329  1.00  0.00    -0.306 C  
HETATM   19  C   UNL     1     -10.447   5.233  67.670  1.00  0.00    -0.176 C  
BRANCH  16  20
HETATM   20  C   UNL     1      -8.722   4.036  69.198  1.00  0.00    -0.127 C  
BRANCH  20  21
HETATM   21  C   UNL     1      -7.410   4.681  68.894  1.00  0.00    -0.056 C  
HETATM   22  C   UNL     1      -6.280   4.422  69.568  1.00  0.00    -0.027 C  
ENDBRANCH  20  21
ENDBRANCH  16  20
ENDBRANCH  12  13
ENDBRANCH  10  12
ENDBRANCH   6  10
ENDBRANCH   3   5
TORSDOF 6
ENDMDL
MODEL      272
REMARK 921   NORMALIZED FREE ENERGY PREDICTED BY IDOCK:   -2.73 KCAL/MOL
REMARK 922        TOTAL FREE ENERGY PREDICTED BY IDOCK:   -5.20 KCAL/MOL
REMARK 923 INTER-LIGAND FREE ENERGY PREDICTED BY IDOCK:   -4.74 KCAL/MOL
REMARK 924 INTRA-LIGAND FREE ENERGY PREDICTED BY IDOCK:   -0.47 KCAL/MOL
REMARK 927      BINDING AFFINITY PREDICTED BY RF-SCORE:    0.00 PKD
ROOT
HETATM    1  C   UNL     1      -5.175   8.833  65.736  1.00  0.00    -0.033 C  
HETATM    2  C   UNL     1      -5.560  10.243  65.385  1.00  0.00    -0.098 C  
HETATM    3  C   UNL     1      -6.183  11.059  66.257  1.00  0.00    -0.126 C  
HETATM    4  C   UNL     1      -5.196  10.744  64.017  1.00  0.00    -0.108 C  
ENDROOT
BRANCH   3   5
HETATM    5  C   UNL     1      -6.541  10.755  67.644  1.00  0.00    -0.061 C  
HETATM    6  C   UNL     1      -7.911  11.123  68.189  1.00  0.00    -0.118 C  
HETATM    7  C   UNL     1      -6.667  11.850  68.687  1.00  0.00    -0.074 C  
HETATM    8  C   UNL     1      -6.551  13.305  68.309  1.00  0.00    -0.099 C  
HETATM    9  C   UNL     1      -6.086  11.548  70.051  1.00  0.00    -0.151 C  
BRANCH   6  10
HETATM   10  C   UNL     1      -8.613  10.112  69.010  1.00  0.00    -0.156 C  
HETATM   11  O   UNL     1      -8.034   9.108  69.387  1.00  0.00    -0.090 OA 
BRANCH  10  12
HETATM   12  O   UNL     1      -9.915  10.426  69.263  1.00  0.00    -0.210 OA 
BRANCH  12  13
HETATM   13  C   UNL     1     -10.915  10.141  68.247  1.00  0.00    -0.248 C  
HETATM   14  C   UNL     1     -10.525   8.988  67.330  1.00  0.00    -0.343 C  
HETATM   15  C   UNL     1     -10.119   9.727  66.090  1.00  0.00    -0.245 C  
HETATM   16  C   UNL     1     -10.582  11.139  66.123  1.00  0.00    -0.305 C  
HETATM   17  O   UNL     1      -9.541   9.217  65.141  1.00  0.00    -0.213 OA 
HETATM   18  C   UNL     1     -11.788  12.541  67.883  1.00  0.00    -0.383 C  
HETATM   19  C   UNL     1     -11.126  11.325  67.341  1.00  0.00    -0.358 C  
BRANCH  16  20
HETATM   20  C   UNL     1     -10.251  12.072  65.013  1.00  0.00    -0.308 C  
BRANCH  20  21
HETATM   21  C   UNL     1     -11.442  12.835  64.533  1.00  0.00    -0.389 C  
HETATM   22  C   UNL     1     -12.106  12.546  63.404  1.00  0.00    -0.621 C  
ENDBRANCH  20  21
ENDBRANCH  16  20
ENDBRANCH  12  13
ENDBRANCH  10  12
ENDBRANCH   6  10
ENDBRANCH   3   5
TORSDOF 6
ENDMDL
MODEL      273
REMARK 921   NORMALIZED FREE ENERGY PREDICTED BY IDOCK:   -2.70 KCAL/MOL
REMARK 922        TOTAL FREE ENERGY PREDICTED BY IDOCK:   -5.16 KCAL/MOL
REMARK 923 INTER-LIGAND FREE ENERGY PREDICTED BY IDOCK:   -3.62 KCAL/MOL
REMARK 924 INTRA-LIGAND FREE ENERGY PREDICTED BY IDOCK:   -1.55 KCAL/MOL
REMARK 927      BINDING AFFINITY PREDICTED BY RF-SCORE:    0.00 PKD
ROOT
HETATM    1  C   UNL     1      -7.381  12.864  68.151  1.00  0.00    -0.119 C  
HETATM    2  C   UNL     1      -6.757  11.811  67.279  1.00  0.00    -0.133 C  
HETATM    3  C   UNL     1      -7.425  10.707  66.892  1.00  0.00    -0.115 C  
HETATM    4  C   UNL     1      -5.349  12.039  66.812  1.00  0.00     0.013 C  
ENDROOT
BRANCH   3   5
HETATM    5  C   UNL     1      -8.818  10.370  67.195  1.00  0.00    -0.141 C  
HETATM    6  C   UNL     1      -9.521   9.245  66.455  1.00  0.00    -0.259 C  
HETATM    7  C   UNL     1      -9.940  10.693  66.225  1.00  0.00    -0.274 C  
HETATM    8  C   UNL     1      -9.650  11.260  64.858  1.00  0.00    -0.266 C  
HETATM    9  C   UNL     1     -11.215  11.236  66.831  1.00  0.00    -0.300 C  
BRANCH   6  10
HETATM   10  C   UNL     1     -10.339   8.307  67.257  1.00  0.00    -0.302 C  
HETATM   11  O   UNL     1     -11.011   7.449  66.712  1.00  0.00    -0.249 OA 
BRANCH  10  12
HETATM   12  O   UNL     1     -10.255   8.525  68.600  1.00  0.00    -0.190 OA 
BRANCH  12  13
HETATM   13  C   UNL     1      -9.813   7.440  69.460  1.00  0.00    -0.165 C  
HETATM   14  C   UNL     1     -10.208   7.633  70.919  1.00  0.00    -0.202 C  
HETATM   15  C   UNL     1      -8.899   8.052  71.522  1.00  0.00    -0.143 C  
HETATM   16  C   UNL     1      -7.764   7.765  70.607  1.00  0.00    -0.091 C  
HETATM   17  O   UNL     1      -8.774   8.507  72.649  1.00  0.00    -0.305 OA 
HETATM   18  C   UNL     1      -7.625   6.843  68.230  1.00  0.00    -0.107 C  
HETATM   19  C   UNL     1      -8.312   7.321  69.459  1.00  0.00    -0.133 C  
BRANCH  16  20
HETATM   20  C   UNL     1      -6.375   8.140  70.983  1.00  0.00    -0.037 C  
BRANCH  20  21
HETATM   21  C   UNL     1      -6.208   9.614  71.161  1.00  0.00    -0.046 C  
HETATM   22  C   UNL     1      -5.250  10.333  70.558  1.00  0.00    -0.053 C  
ENDBRANCH  20  21
ENDBRANCH  16  20
ENDBRANCH  12  13
ENDBRANCH  10  12
ENDBRANCH   6  10
ENDBRANCH   3   5
TORSDOF 6
ENDMDL
MODEL      274
REMARK 921   NORMALIZED FREE ENERGY PREDICTED BY IDOCK:   -2.68 KCAL/MOL
REMARK 922        TOTAL FREE ENERGY PREDICTED BY IDOCK:   -5.14 KCAL/MOL
REMARK 923 INTER-LIGAND FREE ENERGY PREDICTED BY IDOCK:   -5.41 KCAL/MOL
REMARK 924 INTRA-LIGAND FREE ENERGY PREDICTED BY IDOCK:    0.27 KCAL/MOL
REMARK 927      BINDING AFFINITY PREDICTED BY RF-SCORE:    0.00 PKD
ROOT
HETATM    1  C   UNL     1      -7.312   9.682  64.952  1.00  0.00    -0.118 C  
HETATM    2  C   UNL     1      -6.997   8.382  65.638  1.00  0.00    -0.067 C  
HETATM    3  C   UNL     1      -7.667   7.961  66.728  1.00  0.00    -0.099 C  
HETATM    4  C   UNL     1      -5.913   7.528  65.047  1.00  0.00    -0.038 C  
ENDROOT
BRANCH   3   5
HETATM    5  C   UNL     1      -8.792   8.631  67.383  1.00  0.00    -0.140 C  
HETATM    6  C   UNL     1      -8.558   9.583  68.543  1.00  0.00    -0.119 C  
HETATM    7  C   UNL     1      -9.243   8.242  68.778  1.00  0.00    -0.143 C  
HETATM    8  C   UNL     1      -8.473   7.235  69.595  1.00  0.00    -0.133 C  
HETATM    9  C   UNL     1     -10.738   8.164  69.004  1.00  0.00    -0.099 C  
BRANCH   6  10
HETATM   10  C   UNL     1      -9.307  10.860  68.542  1.00  0.00    -0.181 C  
HETATM   11  O   UNL     1      -9.081  11.710  67.698  1.00  0.00    -0.166 OA 
BRANCH  10  12
HETATM   12  O   UNL     1     -10.217  10.958  69.552  1.00  0.00    -0.178 OA 
BRANCH  12  13
HETATM   13  C   UNL     1     -11.568  11.393  69.240  1.00  0.00    -0.317 C  
HETATM   14  C   UNL     1     -11.607  12.654  68.383  1.00  0.00    -0.370 C  
HETATM   15  C   UNL     1     -11.986  13.687  69.403  1.00  0.00    -0.342 C  
HETATM   16  C   UNL     1     -12.497  13.058  70.649  1.00  0.00    -0.347 C  
HETATM   17  O   UNL     1     -11.945  14.893  69.210  1.00  0.00    -0.306 OA 
HETATM   18  C   UNL     1     -12.730  10.633  71.414  1.00  0.00    -0.545 C  
HETATM   19  C   UNL     1     -12.336  11.730  70.490  1.00  0.00    -0.387 C  
BRANCH  16  20
HETATM   20  C   UNL     1     -12.890  13.894  71.814  1.00  0.00    -0.421 C  
BRANCH  20  21
HETATM   21  C   UNL     1     -11.802  14.824  72.244  1.00  0.00    -0.283 C  
HETATM   22  C   UNL     1     -12.026  16.005  72.839  1.00  0.00    -0.611 C  
ENDBRANCH  20  21
ENDBRANCH  16  20
ENDBRANCH  12  13
ENDBRANCH  10  12
ENDBRANCH   6  10
ENDBRANCH   3   5
TORSDOF 6
ENDMDL
MODEL      275
REMARK 921   NORMALIZED FREE ENERGY PREDICTED BY IDOCK:   -2.66 KCAL/MOL
REMARK 922        TOTAL FREE ENERGY PREDICTED BY IDOCK:   -5.12 KCAL/MOL
REMARK 923 INTER-LIGAND FREE ENERGY PREDICTED BY IDOCK:   -4.78 KCAL/MOL
REMARK 924 INTRA-LIGAND FREE ENERGY PREDICTED BY IDOCK:   -0.34 KCAL/MOL
REMARK 927      BINDING AFFINITY PREDICTED BY RF-SCORE:    0.00 PKD
ROOT
HETATM    1  C   UNL     1      -8.822   7.626  65.913  1.00  0.00    -0.163 C  
HETATM    2  C   UNL     1      -8.732   6.396  66.771  1.00  0.00    -0.119 C  
HETATM    3  C   UNL     1      -8.876   6.437  68.110  1.00  0.00    -0.114 C  
HETATM    4  C   UNL     1      -8.503   5.082  66.082  1.00  0.00    -0.114 C  
ENDROOT
BRANCH   3   5
HETATM    5  C   UNL     1      -9.175   7.616  68.926  1.00  0.00    -0.139 C  
HETATM    6  C   UNL     1      -8.927   9.015  68.387  1.00  0.00    -0.133 C  
HETATM    7  C   UNL     1      -8.070   8.467  69.523  1.00  0.00    -0.111 C  
HETATM    8  C   UNL     1      -6.621   8.206  69.196  1.00  0.00    -0.043 C  
HETATM    9  C   UNL     1      -8.278   8.936  70.946  1.00  0.00    -0.207 C  
BRANCH   6  10
HETATM   10  C   UNL     1      -9.979  10.031  68.614  1.00  0.00    -0.165 C  
HETATM   11  O   UNL     1     -11.000   9.743  69.213  1.00  0.00    -0.228 OA 
BRANCH  10  12
HETATM   12  O   UNL     1      -9.678  11.252  68.087  1.00  0.00    -0.172 OA 
BRANCH  12  13
HETATM   13  C   UNL     1     -10.756  12.077  67.569  1.00  0.00    -0.226 C  
HETATM   14  C   UNL     1     -11.067  11.805  66.102  1.00  0.00    -0.358 C  
HETATM   15  C   UNL     1     -10.436  12.996  65.445  1.00  0.00    -0.296 C  
HETATM   16  C   UNL     1     -10.122  14.060  66.434  1.00  0.00    -0.299 C  
HETATM   17  O   UNL     1     -10.264  13.108  64.240  1.00  0.00    -0.400 OA 
HETATM   18  C   UNL     1     -10.327  14.197  68.976  1.00  0.00    -0.159 C  
HETATM   19  C   UNL     1     -10.408  13.540  67.644  1.00  0.00    -0.239 C  
BRANCH  16  20
HETATM   20  C   UNL     1      -9.449  15.316  66.010  1.00  0.00    -0.372 C  
BRANCH  20  21
HETATM   21  C   UNL     1     -10.395  16.468  65.917  1.00  0.00    -0.365 C  
HETATM   22  C   UNL     1     -10.106  17.704  66.352  1.00  0.00    -0.356 C  
ENDBRANCH  20  21
ENDBRANCH  16  20
ENDBRANCH  12  13
ENDBRANCH  10  12
ENDBRANCH   6  10
ENDBRANCH   3   5
TORSDOF 6
ENDMDL
MODEL      276
REMARK 921   NORMALIZED FREE ENERGY PREDICTED BY IDOCK:   -2.65 KCAL/MOL
REMARK 922        TOTAL FREE ENERGY PREDICTED BY IDOCK:   -5.10 KCAL/MOL
REMARK 923 INTER-LIGAND FREE ENERGY PREDICTED BY IDOCK:   -4.16 KCAL/MOL
REMARK 924 INTRA-LIGAND FREE ENERGY PREDICTED BY IDOCK:   -0.95 KCAL/MOL
REMARK 927      BINDING AFFINITY PREDICTED BY RF-SCORE:    0.00 PKD
ROOT
HETATM    1  C   UNL     1      -8.904   8.202  65.872  1.00  0.00    -0.194 C  
HETATM    2  C   UNL     1      -8.530   9.272  64.885  1.00  0.00    -0.182 C  
HETATM    3  C   UNL     1      -8.304  10.548  65.256  1.00  0.00    -0.155 C  
HETATM    4  C   UNL     1      -8.378   8.871  63.447  1.00  0.00    -0.177 C  
ENDROOT
BRANCH   3   5
HETATM    5  C   UNL     1      -8.335  11.087  66.617  1.00  0.00    -0.155 C  
HETATM    6  C   UNL     1      -7.537  12.328  66.977  1.00  0.00    -0.071 C  
HETATM    7  C   UNL     1      -7.139  10.969  67.543  1.00  0.00    -0.091 C  
HETATM    8  C   UNL     1      -5.828  10.404  67.057  1.00  0.00    -0.051 C  
HETATM    9  C   UNL     1      -7.437  10.612  68.983  1.00  0.00    -0.117 C  
BRANCH   6  10
HETATM   10  C   UNL     1      -8.210  13.357  67.801  1.00  0.00    -0.172 C  
HETATM   11  O   UNL     1      -9.339  13.175  68.221  1.00  0.00    -0.212 OA 
BRANCH  10  12
HETATM   12  O   UNL     1      -7.450  14.471  68.005  1.00  0.00    -0.112 OA 
BRANCH  12  13
HETATM   13  C   UNL     1      -8.111  15.711  68.378  1.00  0.00    -0.137 C  
HETATM   14  C   UNL     1      -9.010  16.264  67.278  1.00  0.00    -0.209 C  
HETATM   15  C   UNL     1      -8.168  17.389  66.752  1.00  0.00    -0.249 C  
HETATM   16  C   UNL     1      -7.060  17.721  67.685  1.00  0.00    -0.194 C  
HETATM   17  O   UNL     1      -8.403  18.002  65.720  1.00  0.00    -0.508 OA 
HETATM   18  C   UNL     1      -6.261  16.695  69.883  1.00  0.00    -0.155 C  
HETATM   19  C   UNL     1      -7.109  16.798  68.666  1.00  0.00    -0.195 C  
BRANCH  16  20
HETATM   20  C   UNL     1      -6.072  18.778  67.343  1.00  0.00    -0.171 C  
BRANCH  20  21
HETATM   21  C   UNL     1      -6.393  20.089  67.982  1.00  0.00    -0.282 C  
HETATM   22  C   UNL     1      -6.105  20.386  69.258  1.00  0.00    -0.367 C  
ENDBRANCH  20  21
ENDBRANCH  16  20
ENDBRANCH  12  13
ENDBRANCH  10  12
ENDBRANCH   6  10
ENDBRANCH   3   5
TORSDOF 6
ENDMDL
MODEL      277
REMARK 921   NORMALIZED FREE ENERGY PREDICTED BY IDOCK:   -2.65 KCAL/MOL
REMARK 922        TOTAL FREE ENERGY PREDICTED BY IDOCK:   -5.10 KCAL/MOL
REMARK 923 INTER-LIGAND FREE ENERGY PREDICTED BY IDOCK:   -5.08 KCAL/MOL
REMARK 924 INTRA-LIGAND FREE ENERGY PREDICTED BY IDOCK:   -0.02 KCAL/MOL
REMARK 927      BINDING AFFINITY PREDICTED BY RF-SCORE:    0.00 PKD
ROOT
HETATM    1  C   UNL     1      -9.887  13.764  68.057  1.00  0.00    -0.239 C  
HETATM    2  C   UNL     1     -11.372  13.856  68.264  1.00  0.00    -0.325 C  
HETATM    3  C   UNL     1     -12.257  13.391  67.361  1.00  0.00    -0.262 C  
HETATM    4  C   UNL     1     -11.859  14.465  69.548  1.00  0.00    -0.376 C  
ENDROOT
BRANCH   3   5
HETATM    5  C   UNL     1     -11.953  12.708  66.102  1.00  0.00    -0.458 C  
HETATM    6  C   UNL     1     -10.524  12.625  65.592  1.00  0.00    -0.298 C  
HETATM    7  C   UNL     1     -11.551  13.481  64.859  1.00  0.00    -0.355 C  
HETATM    8  C   UNL     1     -11.329  14.972  64.905  1.00  0.00    -0.419 C  
HETATM    9  C   UNL     1     -12.158  13.015  63.554  1.00  0.00    -0.617 C  
BRANCH   6  10
HETATM   10  C   UNL     1     -10.063  11.322  65.062  1.00  0.00    -0.279 C  
HETATM   11  O   UNL     1      -9.049  11.250  64.390  1.00  0.00    -0.113 OA 
BRANCH  10  12
HETATM   12  O   UNL     1     -10.878  10.281  65.394  1.00  0.00     0.074 OA 
BRANCH  12  13
HETATM   13  C   UNL     1     -10.423   9.323  66.387  1.00  0.00    -0.087 C  
HETATM   14  C   UNL     1     -10.478   9.865  67.811  1.00  0.00    -0.292 C  
HETATM   15  C   UNL     1      -9.028  10.151  68.069  1.00  0.00    -0.125 C  
HETATM   16  C   UNL     1      -8.157   9.492  67.062  1.00  0.00    -0.113 C  
HETATM   17  O   UNL     1      -8.610  10.787  69.026  1.00  0.00    -0.163 OA 
HETATM   18  C   UNL     1      -8.641   8.114  64.967  1.00  0.00    -0.076 C  
HETATM   19  C   UNL     1      -8.986   8.938  66.156  1.00  0.00    -0.218 C  
BRANCH  16  20
HETATM   20  C   UNL     1      -6.682   9.676  67.098  1.00  0.00    -0.075 C  
BRANCH  20  21
HETATM   21  C   UNL     1      -6.249  10.955  66.460  1.00  0.00    -0.122 C  
HETATM   22  C   UNL     1      -5.733  11.989  67.141  1.00  0.00    -0.142 C  
ENDBRANCH  20  21
ENDBRANCH  16  20
ENDBRANCH  12  13
ENDBRANCH  10  12
ENDBRANCH   6  10
ENDBRANCH   3   5
TORSDOF 6
ENDMDL
MODEL      278
REMARK 921   NORMALIZED FREE ENERGY PREDICTED BY IDOCK:   -2.65 KCAL/MOL
REMARK 922        TOTAL FREE ENERGY PREDICTED BY IDOCK:   -5.10 KCAL/MOL
REMARK 923 INTER-LIGAND FREE ENERGY PREDICTED BY IDOCK:   -4.59 KCAL/MOL
REMARK 924 INTRA-LIGAND FREE ENERGY PREDICTED BY IDOCK:   -0.51 KCAL/MOL
REMARK 927      BINDING AFFINITY PREDICTED BY RF-SCORE:    0.00 PKD
ROOT
HETATM    1  C   UNL     1     -12.595   8.993  72.282  1.00  0.00    -0.445 C  
HETATM    2  C   UNL     1     -12.966   7.634  71.757  1.00  0.00    -0.360 C  
HETATM    3  C   UNL     1     -12.079   6.623  71.680  1.00  0.00    -0.404 C  
HETATM    4  C   UNL     1     -14.391   7.415  71.338  1.00  0.00    -0.522 C  
ENDROOT
BRANCH   3   5
HETATM    5  C   UNL     1     -10.680   6.646  72.112  1.00  0.00    -0.246 C  
HETATM    6  C   UNL     1      -9.712   5.566  71.661  1.00  0.00    -0.203 C  
HETATM    7  C   UNL     1     -10.146   5.645  73.120  1.00  0.00    -0.200 C  
HETATM    8  C   UNL     1     -11.003   4.510  73.621  1.00  0.00    -0.382 C  
HETATM    9  C   UNL     1      -9.212   6.191  74.178  1.00  0.00    -0.146 C  
BRANCH   6  10
HETATM   10  C   UNL     1      -8.368   5.997  71.215  1.00  0.00    -0.124 C  
HETATM   11  O   UNL     1      -7.365   5.508  71.706  1.00  0.00    -0.086 OA 
BRANCH  10  12
HETATM   12  O   UNL     1      -8.398   6.961  70.252  1.00  0.00    -0.130 OA 
BRANCH  12  13
HETATM   13  C   UNL     1      -7.672   6.738  69.013  1.00  0.00    -0.110 C  
HETATM   14  C   UNL     1      -7.691   7.944  68.081  1.00  0.00    -0.125 C  
HETATM   15  C   UNL     1      -8.693   7.504  67.056  1.00  0.00    -0.127 C  
HETATM   16  C   UNL     1      -8.955   6.044  67.144  1.00  0.00    -0.114 C  
HETATM   17  O   UNL     1      -9.181   8.238  66.208  1.00  0.00    -0.181 OA 
HETATM   18  C   UNL     1      -8.150   4.218  68.737  1.00  0.00    -0.073 C  
HETATM   19  C   UNL     1      -8.276   5.607  68.223  1.00  0.00    -0.103 C  
BRANCH  16  20
HETATM   20  C   UNL     1      -9.951   5.397  66.249  1.00  0.00    -0.199 C  
BRANCH  20  21
HETATM   21  C   UNL     1      -9.321   4.783  65.041  1.00  0.00    -0.113 C  
HETATM   22  C   UNL     1      -9.947   3.907  64.240  1.00  0.00    -0.196 C  
ENDBRANCH  20  21
ENDBRANCH  16  20
ENDBRANCH  12  13
ENDBRANCH  10  12
ENDBRANCH   6  10
ENDBRANCH   3   5
TORSDOF 6
ENDMDL
MODEL      279
REMARK 921   NORMALIZED FREE ENERGY PREDICTED BY IDOCK:   -2.63 KCAL/MOL
REMARK 922        TOTAL FREE ENERGY PREDICTED BY IDOCK:   -5.07 KCAL/MOL
REMARK 923 INTER-LIGAND FREE ENERGY PREDICTED BY IDOCK:   -5.38 KCAL/MOL
REMARK 924 INTRA-LIGAND FREE ENERGY PREDICTED BY IDOCK:    0.30 KCAL/MOL
REMARK 927      BINDING AFFINITY PREDICTED BY RF-SCORE:    0.00 PKD
ROOT
HETATM    1  C   UNL     1     -10.568   9.276  68.832  1.00  0.00    -0.222 C  
HETATM    2  C   UNL     1      -9.602   8.652  67.865  1.00  0.00    -0.173 C  
HETATM    3  C   UNL     1      -8.367   8.258  68.232  1.00  0.00    -0.132 C  
HETATM    4  C   UNL     1     -10.067   8.444  66.453  1.00  0.00    -0.242 C  
ENDROOT
BRANCH   3   5
HETATM    5  C   UNL     1      -7.787   8.320  69.575  1.00  0.00    -0.103 C  
HETATM    6  C   UNL     1      -8.557   8.950  70.723  1.00  0.00    -0.236 C  
HETATM    7  C   UNL     1      -7.309   9.631  70.172  1.00  0.00    -0.141 C  
HETATM    8  C   UNL     1      -7.527  10.940  69.455  1.00  0.00    -0.105 C  
HETATM    9  C   UNL     1      -6.002   9.586  70.932  1.00  0.00    -0.073 C  
BRANCH   6  10
HETATM   10  C   UNL     1      -8.556   8.236  72.020  1.00  0.00    -0.178 C  
HETATM   11  O   UNL     1      -8.902   8.804  73.040  1.00  0.00    -0.340 OA 
BRANCH  10  12
HETATM   12  O   UNL     1      -8.132   6.944  71.928  1.00  0.00    -0.100 OA 
BRANCH  12  13
HETATM   13  C   UNL     1      -9.121   5.879  71.935  1.00  0.00    -0.138 C  
HETATM   14  C   UNL     1      -9.527   5.430  70.536  1.00  0.00    -0.215 C  
HETATM   15  C   UNL     1     -10.874   6.076  70.403  1.00  0.00    -0.318 C  
HETATM   16  C   UNL     1     -11.388   6.537  71.719  1.00  0.00    -0.325 C  
HETATM   17  O   UNL     1     -11.501   6.153  69.357  1.00  0.00    -0.423 OA 
HETATM   18  C   UNL     1     -10.398   6.554  74.072  1.00  0.00    -0.362 C  
HETATM   19  C   UNL     1     -10.395   6.322  72.604  1.00  0.00    -0.219 C  
BRANCH  16  20
HETATM   20  C   UNL     1     -12.690   7.248  71.818  1.00  0.00    -0.370 C  
BRANCH  20  21
HETATM   21  C   UNL     1     -12.541   8.649  72.312  1.00  0.00    -0.457 C  
HETATM   22  C   UNL     1     -12.722   9.733  71.542  1.00  0.00    -0.504 C  
ENDBRANCH  20  21
ENDBRANCH  16  20
ENDBRANCH  12  13
ENDBRANCH  10  12
ENDBRANCH   6  10
ENDBRANCH   3   5
TORSDOF 6
ENDMDL
MODEL      280
REMARK 921   NORMALIZED FREE ENERGY PREDICTED BY IDOCK:   -2.60 KCAL/MOL
REMARK 922        TOTAL FREE ENERGY PREDICTED BY IDOCK:   -5.03 KCAL/MOL
REMARK 923 INTER-LIGAND FREE ENERGY PREDICTED BY IDOCK:   -4.29 KCAL/MOL
REMARK 924 INTRA-LIGAND FREE ENERGY PREDICTED BY IDOCK:   -0.74 KCAL/MOL
REMARK 927      BINDING AFFINITY PREDICTED BY RF-SCORE:    0.00 PKD
ROOT
HETATM    1  C   UNL     1     -11.796  14.004  64.277  1.00  0.00    -0.435 C  
HETATM    2  C   UNL     1     -11.863  12.508  64.150  1.00  0.00    -0.487 C  
HETATM    3  C   UNL     1     -11.058  11.687  64.853  1.00  0.00    -0.317 C  
HETATM    4  C   UNL     1     -12.895  11.934  63.223  1.00  0.00    -0.303 C  
ENDROOT
BRANCH   3   5
HETATM    5  C   UNL     1     -10.057  12.078  65.847  1.00  0.00    -0.264 C  
HETATM    6  C   UNL     1      -9.721  11.160  67.010  1.00  0.00    -0.210 C  
HETATM    7  C   UNL     1     -10.454  12.474  67.257  1.00  0.00    -0.232 C  
HETATM    8  C   UNL     1     -11.883  12.361  67.726  1.00  0.00    -0.362 C  
HETATM    9  C   UNL     1      -9.731  13.664  67.849  1.00  0.00    -0.234 C  
BRANCH   6  10
HETATM   10  C   UNL     1      -8.292  10.980  67.349  1.00  0.00    -0.126 C  
HETATM   11  O   UNL     1      -7.425  11.217  66.525  1.00  0.00    -0.144 OA 
BRANCH  10  12
HETATM   12  O   UNL     1      -8.086  10.530  68.619  1.00  0.00    -0.112 OA 
BRANCH  12  13
HETATM   13  C   UNL     1      -7.404   9.261  68.812  1.00  0.00    -0.075 C  
HETATM   14  C   UNL     1      -8.289   8.055  68.519  1.00  0.00    -0.127 C  
HETATM   15  C   UNL     1      -8.609   7.586  69.908  1.00  0.00    -0.139 C  
HETATM   16  C   UNL     1      -7.705   8.204  70.912  1.00  0.00    -0.085 C  
HETATM   17  O   UNL     1      -9.461   6.750  70.174  1.00  0.00    -0.158 OA 
HETATM   18  C   UNL     1      -5.850   9.951  70.752  1.00  0.00    -0.086 C  
HETATM   19  C   UNL     1      -6.952   9.095  70.239  1.00  0.00    -0.059 C  
BRANCH  16  20
HETATM   20  C   UNL     1      -7.872   7.916  72.361  1.00  0.00    -0.144 C  
BRANCH  20  21
HETATM   21  C   UNL     1      -6.570   7.663  73.048  1.00  0.00    -0.068 C  
HETATM   22  C   UNL     1      -5.934   8.576  73.798  1.00  0.00    -0.124 C  
ENDBRANCH  20  21
ENDBRANCH  16  20
ENDBRANCH  12  13
ENDBRANCH  10  12
ENDBRANCH   6  10
ENDBRANCH   3   5
TORSDOF 6
ENDMDL
MODEL      281
REMARK 921   NORMALIZED FREE ENERGY PREDICTED BY IDOCK:   -2.58 KCAL/MOL
REMARK 922        TOTAL FREE ENERGY PREDICTED BY IDOCK:   -5.01 KCAL/MOL
REMARK 923 INTER-LIGAND FREE ENERGY PREDICTED BY IDOCK:   -3.81 KCAL/MOL
REMARK 924 INTRA-LIGAND FREE ENERGY PREDICTED BY IDOCK:   -1.20 KCAL/MOL
REMARK 927      BINDING AFFINITY PREDICTED BY RF-SCORE:    0.00 PKD
ROOT
HETATM    1  C   UNL     1      -8.653   8.608  63.577  1.00  0.00    -0.009 C  
HETATM    2  C   UNL     1      -7.958   8.657  64.909  1.00  0.00    -0.138 C  
HETATM    3  C   UNL     1      -7.882   7.587  65.723  1.00  0.00    -0.107 C  
HETATM    4  C   UNL     1      -7.307   9.950  65.307  1.00  0.00    -0.131 C  
ENDROOT
BRANCH   3   5
HETATM    5  C   UNL     1      -8.394   6.241  65.456  1.00  0.00    -0.147 C  
HETATM    6  C   UNL     1      -7.828   5.037  66.190  1.00  0.00    -0.099 C  
HETATM    7  C   UNL     1      -7.570   5.216  64.698  1.00  0.00    -0.079 C  
HETATM    8  C   UNL     1      -6.144   5.502  64.299  1.00  0.00    -0.022 C  
HETATM    9  C   UNL     1      -8.312   4.381  63.678  1.00  0.00    -0.105 C  
BRANCH   6  10
HETATM   10  C   UNL     1      -8.790   4.039  66.708  1.00  0.00    -0.122 C  
HETATM   11  O   UNL     1      -8.710   2.869  66.376  1.00  0.00    -0.120 OA 
BRANCH  10  12
HETATM   12  O   UNL     1      -9.728   4.570  67.544  1.00  0.00    -0.170 OA 
BRANCH  12  13
HETATM   13  C   UNL     1      -9.306   5.530  68.551  1.00  0.00    -0.121 C  
HETATM   14  C   UNL     1      -8.995   4.886  69.897  1.00  0.00    -0.138 C  
HETATM   15  C   UNL     1     -10.214   5.262  70.687  1.00  0.00    -0.257 C  
HETATM   16  C   UNL     1     -10.987   6.338  70.015  1.00  0.00    -0.422 C  
HETATM   17  O   UNL     1     -10.499   4.794  71.780  1.00  0.00    -0.186 OA 
HETATM   18  C   UNL     1     -10.721   7.544  67.780  1.00  0.00    -0.233 C  
HETATM   19  C   UNL     1     -10.386   6.542  68.826  1.00  0.00    -0.220 C  
BRANCH  16  20
HETATM   20  C   UNL     1     -12.260   6.836  70.600  1.00  0.00    -0.312 C  
BRANCH  20  21
HETATM   21  C   UNL     1     -12.108   8.176  71.242  1.00  0.00    -0.313 C  
HETATM   22  C   UNL     1     -10.930   8.802  71.389  1.00  0.00    -0.360 C  
ENDBRANCH  20  21
ENDBRANCH  16  20
ENDBRANCH  12  13
ENDBRANCH  10  12
ENDBRANCH   6  10
ENDBRANCH   3   5
TORSDOF 6
ENDMDL
MODEL      282
REMARK 921   NORMALIZED FREE ENERGY PREDICTED BY IDOCK:   -2.58 KCAL/MOL
REMARK 922        TOTAL FREE ENERGY PREDICTED BY IDOCK:   -5.00 KCAL/MOL
REMARK 923 INTER-LIGAND FREE ENERGY PREDICTED BY IDOCK:   -4.56 KCAL/MOL
REMARK 924 INTRA-LIGAND FREE ENERGY PREDICTED BY IDOCK:   -0.44 KCAL/MOL
REMARK 927      BINDING AFFINITY PREDICTED BY RF-SCORE:    0.00 PKD
ROOT
HETATM    1  C   UNL     1     -11.432   9.191  71.033  1.00  0.00    -0.372 C  
HETATM    2  C   UNL     1     -12.333  10.392  70.963  1.00  0.00    -0.490 C  
HETATM    3  C   UNL     1     -12.450  11.141  69.849  1.00  0.00    -0.257 C  
HETATM    4  C   UNL     1     -13.144  10.726  72.181  1.00  0.00    -0.350 C  
ENDROOT
BRANCH   3   5
HETATM    5  C   UNL     1     -11.793  10.912  68.561  1.00  0.00    -0.236 C  
HETATM    6  C   UNL     1     -10.279  10.963  68.444  1.00  0.00    -0.193 C  
HETATM    7  C   UNL     1     -11.136  12.044  67.794  1.00  0.00    -0.303 C  
HETATM    8  C   UNL     1     -11.025  13.426  68.387  1.00  0.00    -0.291 C  
HETATM    9  C   UNL     1     -11.360  12.060  66.298  1.00  0.00    -0.415 C  
BRANCH   6  10
HETATM   10  C   UNL     1      -9.618   9.901  67.652  1.00  0.00    -0.148 C  
HETATM   11  O   UNL     1      -8.581  10.128  67.054  1.00  0.00    -0.128 OA 
BRANCH  10  12
HETATM   12  O   UNL     1     -10.289   8.714  67.670  1.00  0.00    -0.226 OA 
BRANCH  12  13
HETATM   13  C   UNL     1      -9.894   7.700  68.633  1.00  0.00    -0.171 C  
HETATM   14  C   UNL     1      -8.773   8.158  69.559  1.00  0.00    -0.142 C  
HETATM   15  C   UNL     1      -7.598   7.429  68.977  1.00  0.00    -0.102 C  
HETATM   16  C   UNL     1      -8.032   6.353  68.049  1.00  0.00    -0.109 C  
HETATM   17  O   UNL     1      -6.434   7.646  69.279  1.00  0.00    -0.038 OA 
HETATM   18  C   UNL     1     -10.316   5.608  67.183  1.00  0.00    -0.301 C  
HETATM   19  C   UNL     1      -9.370   6.468  67.944  1.00  0.00    -0.111 C  
BRANCH  16  20
HETATM   20  C   UNL     1      -7.030   5.529  67.322  1.00  0.00    -0.065 C  
BRANCH  20  21
HETATM   21  C   UNL     1      -6.927   5.897  65.878  1.00  0.00    -0.062 C  
HETATM   22  C   UNL     1      -6.576   7.117  65.444  1.00  0.00    -0.047 C  
ENDBRANCH  20  21
ENDBRANCH  16  20
ENDBRANCH  12  13
ENDBRANCH  10  12
ENDBRANCH   6  10
ENDBRANCH   3   5
TORSDOF 6
ENDMDL
MODEL      283
REMARK 921   NORMALIZED FREE ENERGY PREDICTED BY IDOCK:   -2.58 KCAL/MOL
REMARK 922        TOTAL FREE ENERGY PREDICTED BY IDOCK:   -5.00 KCAL/MOL
REMARK 923 INTER-LIGAND FREE ENERGY PREDICTED BY IDOCK:   -4.01 KCAL/MOL
REMARK 924 INTRA-LIGAND FREE ENERGY PREDICTED BY IDOCK:   -0.99 KCAL/MOL
REMARK 927      BINDING AFFINITY PREDICTED BY RF-SCORE:    0.00 PKD
ROOT
HETATM    1  C   UNL     1     -12.253  12.900  69.953  1.00  0.00    -0.258 C  
HETATM    2  C   UNL     1     -11.355  12.913  68.748  1.00  0.00    -0.333 C  
HETATM    3  C   UNL     1     -10.859  11.784  68.205  1.00  0.00    -0.259 C  
HETATM    4  C   UNL     1     -11.043  14.244  68.127  1.00  0.00    -0.275 C  
ENDROOT
BRANCH   3   5
HETATM    5  C   UNL     1     -11.123  10.410  68.638  1.00  0.00    -0.313 C  
HETATM    6  C   UNL     1     -10.257   9.752  69.698  1.00  0.00    -0.254 C  
HETATM    7  C   UNL     1     -10.202   9.267  68.253  1.00  0.00    -0.236 C  
HETATM    8  C   UNL     1      -8.912   9.521  67.516  1.00  0.00    -0.133 C  
HETATM    9  C   UNL     1     -10.872   7.974  67.844  1.00  0.00    -0.045 C  
BRANCH   6  10
HETATM   10  C   UNL     1     -10.943   8.983  70.761  1.00  0.00    -0.258 C  
HETATM   11  O   UNL     1     -11.978   9.394  71.254  1.00  0.00    -0.306 OA 
BRANCH  10  12
HETATM   12  O   UNL     1     -10.297   7.831  71.101  1.00  0.00    -0.200 OA 
BRANCH  12  13
HETATM   13  C   UNL     1      -9.424   7.833  72.263  1.00  0.00    -0.170 C  
HETATM   14  C   UNL     1      -8.030   8.372  71.964  1.00  0.00    -0.184 C  
HETATM   15  C   UNL     1      -7.231   7.103  71.920  1.00  0.00    -0.080 C  
HETATM   16  C   UNL     1      -7.984   5.966  72.511  1.00  0.00    -0.102 C  
HETATM   17  O   UNL     1      -6.081   7.026  71.513  1.00  0.00    -0.037 OA 
HETATM   18  C   UNL     1     -10.350   5.735  73.443  1.00  0.00    -0.242 C  
HETATM   19  C   UNL     1      -9.214   6.439  72.791  1.00  0.00    -0.139 C  
BRANCH  16  20
HETATM   20  C   UNL     1      -7.400   4.599  72.532  1.00  0.00    -0.083 C  
BRANCH  20  21
HETATM   21  C   UNL     1      -6.803   4.253  73.857  1.00  0.00    -0.060 C  
HETATM   22  C   UNL     1      -6.015   5.082  74.557  1.00  0.00    -0.047 C  
ENDBRANCH  20  21
ENDBRANCH  16  20
ENDBRANCH  12  13
ENDBRANCH  10  12
ENDBRANCH   6  10
ENDBRANCH   3   5
TORSDOF 6
ENDMDL
MODEL      284
REMARK 921   NORMALIZED FREE ENERGY PREDICTED BY IDOCK:   -2.54 KCAL/MOL
REMARK 922        TOTAL FREE ENERGY PREDICTED BY IDOCK:   -4.95 KCAL/MOL
REMARK 923 INTER-LIGAND FREE ENERGY PREDICTED BY IDOCK:   -5.01 KCAL/MOL
REMARK 924 INTRA-LIGAND FREE ENERGY PREDICTED BY IDOCK:    0.06 KCAL/MOL
REMARK 927      BINDING AFFINITY PREDICTED BY RF-SCORE:    0.00 PKD
ROOT
HETATM    1  C   UNL     1      -9.753  15.263  65.630  1.00  0.00    -0.360 C  
HETATM    2  C   UNL     1      -8.923  15.821  66.752  1.00  0.00    -0.289 C  
HETATM    3  C   UNL     1      -9.009  15.357  68.014  1.00  0.00    -0.171 C  
HETATM    4  C   UNL     1      -7.948  16.914  66.419  1.00  0.00    -0.352 C  
ENDROOT
BRANCH   3   5
HETATM    5  C   UNL     1      -9.848  14.255  68.490  1.00  0.00    -0.231 C  
HETATM    6  C   UNL     1     -11.003  13.741  67.648  1.00  0.00    -0.278 C  
HETATM    7  C   UNL     1     -11.275  14.488  68.950  1.00  0.00    -0.283 C  
HETATM    8  C   UNL     1     -11.927  15.841  68.817  1.00  0.00    -0.226 C  
HETATM    9  C   UNL     1     -11.710  13.744  70.194  1.00  0.00    -0.303 C  
BRANCH   6  10
HETATM   10  C   UNL     1     -11.166  12.275  67.534  1.00  0.00    -0.297 C  
HETATM   11  O   UNL     1     -12.276  11.776  67.476  1.00  0.00    -0.526 OA 
BRANCH  10  12
HETATM   12  O   UNL     1      -9.983  11.597  67.515  1.00  0.00    -0.185 OA 
BRANCH  12  13
HETATM   13  C   UNL     1      -9.205  11.510  68.741  1.00  0.00    -0.067 C  
HETATM   14  C   UNL     1      -7.704  11.418  68.492  1.00  0.00    -0.133 C  
HETATM   15  C   UNL     1      -7.454   9.963  68.754  1.00  0.00    -0.079 C  
HETATM   16  C   UNL     1      -8.601   9.333  69.459  1.00  0.00    -0.147 C  
HETATM   17  O   UNL     1      -6.412   9.383  68.485  1.00  0.00    -0.052 OA 
HETATM   18  C   UNL     1     -10.896  10.191  70.175  1.00  0.00    -0.368 C  
HETATM   19  C   UNL     1      -9.561  10.275  69.526  1.00  0.00    -0.225 C  
BRANCH  16  20
HETATM   20  C   UNL     1      -8.588   7.881  69.781  1.00  0.00    -0.133 C  
BRANCH  20  21
HETATM   21  C   UNL     1      -8.652   7.620  71.250  1.00  0.00    -0.124 C  
HETATM   22  C   UNL     1      -8.018   8.367  72.167  1.00  0.00    -0.181 C  
ENDBRANCH  20  21
ENDBRANCH  16  20
ENDBRANCH  12  13
ENDBRANCH  10  12
ENDBRANCH   6  10
ENDBRANCH   3   5
TORSDOF 6
ENDMDL
MODEL      285
REMARK 921   NORMALIZED FREE ENERGY PREDICTED BY IDOCK:   -2.53 KCAL/MOL
REMARK 922        TOTAL FREE ENERGY PREDICTED BY IDOCK:   -4.93 KCAL/MOL
REMARK 923 INTER-LIGAND FREE ENERGY PREDICTED BY IDOCK:   -4.21 KCAL/MOL
REMARK 924 INTRA-LIGAND FREE ENERGY PREDICTED BY IDOCK:   -0.72 KCAL/MOL
REMARK 927      BINDING AFFINITY PREDICTED BY RF-SCORE:    0.00 PKD
ROOT
HETATM    1  C   UNL     1     -11.082  13.933  64.409  1.00  0.00    -0.332 C  
HETATM    2  C   UNL     1     -11.459  12.478  64.392  1.00  0.00    -0.406 C  
HETATM    3  C   UNL     1     -10.899  11.577  65.223  1.00  0.00    -0.319 C  
HETATM    4  C   UNL     1     -12.525  12.046  63.426  1.00  0.00    -0.625 C  
ENDROOT
BRANCH   3   5
HETATM    5  C   UNL     1      -9.907  11.842  66.267  1.00  0.00    -0.246 C  
HETATM    6  C   UNL     1      -9.820  10.954  67.497  1.00  0.00    -0.192 C  
HETATM    7  C   UNL     1     -10.312  12.392  67.622  1.00  0.00    -0.223 C  
HETATM    8  C   UNL     1     -11.763  12.570  67.990  1.00  0.00    -0.410 C  
HETATM    9  C   UNL     1      -9.420  13.468  68.204  1.00  0.00    -0.214 C  
BRANCH   6  10
HETATM   10  C   UNL     1      -8.473  10.541  67.947  1.00  0.00    -0.119 C  
HETATM   11  O   UNL     1      -7.799  11.278  68.645  1.00  0.00    -0.126 OA 
BRANCH  10  12
HETATM   12  O   UNL     1      -8.104   9.308  67.497  1.00  0.00    -0.106 OA 
BRANCH  12  13
HETATM   13  C   UNL     1      -6.949   9.198  66.621  1.00  0.00    -0.081 C  
HETATM   14  C   UNL     1      -6.846  10.342  65.620  1.00  0.00    -0.133 C  
HETATM   15  C   UNL     1      -7.308   9.669  64.361  1.00  0.00    -0.125 C  
HETATM   16  C   UNL     1      -7.315   8.191  64.507  1.00  0.00    -0.088 C  
HETATM   17  O   UNL     1      -7.579  10.258  63.324  1.00  0.00    -0.149 OA 
HETATM   18  C   UNL     1      -6.828   6.626  66.465  1.00  0.00    -0.061 C  
HETATM   19  C   UNL     1      -7.008   7.941  65.795  1.00  0.00    -0.056 C  
BRANCH  16  20
HETATM   20  C   UNL     1      -7.781   7.321  63.394  1.00  0.00    -0.124 C  
BRANCH  20  21
HETATM   21  C   UNL     1      -6.696   7.012  62.416  1.00  0.00    -0.052 C  
HETATM   22  C   UNL     1      -5.922   5.919  62.484  1.00  0.00    -0.025 C  
ENDBRANCH  20  21
ENDBRANCH  16  20
ENDBRANCH  12  13
ENDBRANCH  10  12
ENDBRANCH   6  10
ENDBRANCH   3   5
TORSDOF 6
ENDMDL
MODEL      286
REMARK 921   NORMALIZED FREE ENERGY PREDICTED BY IDOCK:   -2.48 KCAL/MOL
REMARK 922        TOTAL FREE ENERGY PREDICTED BY IDOCK:   -4.87 KCAL/MOL
REMARK 923 INTER-LIGAND FREE ENERGY PREDICTED BY IDOCK:   -4.12 KCAL/MOL
REMARK 924 INTRA-LIGAND FREE ENERGY PREDICTED BY IDOCK:   -0.76 KCAL/MOL
REMARK 927      BINDING AFFINITY PREDICTED BY RF-SCORE:    0.00 PKD
ROOT
HETATM    1  C   UNL     1     -11.415  11.410  64.029  1.00  0.00    -0.217 C  
HETATM    2  C   UNL     1      -9.928  11.205  63.952  1.00  0.00    -0.381 C  
HETATM    3  C   UNL     1      -9.092  11.616  64.926  1.00  0.00     0.160 C  
HETATM    4  C   UNL     1      -9.385  10.488  62.750  1.00  0.00    -0.342 C  
ENDROOT
BRANCH   3   5
HETATM    5  C   UNL     1      -9.461  12.260  66.188  1.00  0.00    -0.221 C  
HETATM    6  C   UNL     1     -10.912  12.591  66.494  1.00  0.00    -0.303 C  
HETATM    7  C   UNL     1      -9.908  13.709  66.236  1.00  0.00    -0.310 C  
HETATM    8  C   UNL     1     -10.109  14.506  64.972  1.00  0.00    -0.325 C  
HETATM    9  C   UNL     1      -9.365  14.541  67.378  1.00  0.00    -0.197 C  
BRANCH   6  10
HETATM   10  C   UNL     1     -11.412  12.280  67.851  1.00  0.00    -0.330 C  
HETATM   11  O   UNL     1     -12.384  12.859  68.302  1.00  0.00    -0.073 OA 
BRANCH  10  12
HETATM   12  O   UNL     1     -10.680  11.327  68.495  1.00  0.00    -0.180 OA 
BRANCH  12  13
HETATM   13  C   UNL     1     -11.335  10.095  68.903  1.00  0.00    -0.120 C  
HETATM   14  C   UNL     1     -11.279   9.857  70.407  1.00  0.00    -0.379 C  
HETATM   15  C   UNL     1     -10.219   8.799  70.494  1.00  0.00    -0.202 C  
HETATM   16  C   UNL     1      -9.947   8.192  69.166  1.00  0.00    -0.192 C  
HETATM   17  O   UNL     1      -9.693   8.434  71.536  1.00  0.00    -0.174 OA 
HETATM   18  C   UNL     1     -10.817   8.673  66.814  1.00  0.00     0.113 C  
HETATM   19  C   UNL     1     -10.678   8.893  68.278  1.00  0.00    -0.135 C  
BRANCH  16  20
HETATM   20  C   UNL     1      -8.897   7.150  69.009  1.00  0.00    -0.131 C  
BRANCH  20  21
HETATM   21  C   UNL     1      -7.531   7.733  68.855  1.00  0.00    -0.095 C  
HETATM   22  C   UNL     1      -7.163   8.504  67.821  1.00  0.00    -0.084 C  
ENDBRANCH  20  21
ENDBRANCH  16  20
ENDBRANCH  12  13
ENDBRANCH  10  12
ENDBRANCH   6  10
ENDBRANCH   3   5
TORSDOF 6
ENDMDL
MODEL      287
REMARK 921   NORMALIZED FREE ENERGY PREDICTED BY IDOCK:   -2.47 KCAL/MOL
REMARK 922        TOTAL FREE ENERGY PREDICTED BY IDOCK:   -4.85 KCAL/MOL
REMARK 923 INTER-LIGAND FREE ENERGY PREDICTED BY IDOCK:   -3.94 KCAL/MOL
REMARK 924 INTRA-LIGAND FREE ENERGY PREDICTED BY IDOCK:   -0.91 KCAL/MOL
REMARK 927      BINDING AFFINITY PREDICTED BY RF-SCORE:    0.00 PKD
ROOT
HETATM    1  C   UNL     1     -10.504  10.565  69.473  1.00  0.00    -0.265 C  
HETATM    2  C   UNL     1      -9.621  10.517  68.258  1.00  0.00    -0.164 C  
HETATM    3  C   UNL     1      -8.443   9.863  68.247  1.00  0.00    -0.111 C  
HETATM    4  C   UNL     1     -10.109  11.204  67.016  1.00  0.00    -0.235 C  
ENDROOT
BRANCH   3   5
HETATM    5  C   UNL     1      -7.859   9.085  69.342  1.00  0.00    -0.094 C  
HETATM    6  C   UNL     1      -8.182   9.419  70.788  1.00  0.00    -0.173 C  
HETATM    7  C   UNL     1      -6.781   9.665  70.239  1.00  0.00    -0.099 C  
HETATM    8  C   UNL     1      -6.359  11.108  70.117  1.00  0.00    -0.137 C  
HETATM    9  C   UNL     1      -5.636   8.743  70.595  1.00  0.00    -0.027 C  
BRANCH   6  10
HETATM   10  C   UNL     1      -8.483   8.291  71.698  1.00  0.00    -0.149 C  
HETATM   11  O   UNL     1      -8.828   8.498  72.849  1.00  0.00    -0.320 OA 
BRANCH  10  12
HETATM   12  O   UNL     1      -8.322   7.068  71.120  1.00  0.00    -0.116 OA 
BRANCH  12  13
HETATM   13  C   UNL     1      -9.437   6.135  71.129  1.00  0.00    -0.167 C  
HETATM   14  C   UNL     1      -9.044   4.728  70.694  1.00  0.00    -0.177 C  
HETATM   15  C   UNL     1      -9.599   4.689  69.301  1.00  0.00    -0.181 C  
HETATM   16  C   UNL     1     -10.556   5.801  69.066  1.00  0.00    -0.351 C  
HETATM   17  O   UNL     1      -9.351   3.814  68.484  1.00  0.00    -0.148 OA 
HETATM   18  C   UNL     1     -11.319   7.779  70.489  1.00  0.00    -0.253 C  
HETATM   19  C   UNL     1     -10.518   6.567  70.174  1.00  0.00    -0.259 C  
BRANCH  16  20
HETATM   20  C   UNL     1     -11.196   5.983  67.736  1.00  0.00    -0.014 C  
BRANCH  20  21
HETATM   21  C   UNL     1     -10.535   7.050  66.925  1.00  0.00    -0.356 C  
HETATM   22  C   UNL     1      -9.358   6.889  66.302  1.00  0.00    -0.144 C  
ENDBRANCH  20  21
ENDBRANCH  16  20
ENDBRANCH  12  13
ENDBRANCH  10  12
ENDBRANCH   6  10
ENDBRANCH   3   5
TORSDOF 6
ENDMDL
MODEL      288
REMARK 921   NORMALIZED FREE ENERGY PREDICTED BY IDOCK:   -2.46 KCAL/MOL
REMARK 922        TOTAL FREE ENERGY PREDICTED BY IDOCK:   -4.85 KCAL/MOL
REMARK 923 INTER-LIGAND FREE ENERGY PREDICTED BY IDOCK:   -3.85 KCAL/MOL
REMARK 924 INTRA-LIGAND FREE ENERGY PREDICTED BY IDOCK:   -0.99 KCAL/MOL
REMARK 927      BINDING AFFINITY PREDICTED BY RF-SCORE:    0.00 PKD
ROOT
HETATM    1  C   UNL     1      -7.543   9.718  64.707  1.00  0.00    -0.129 C  
HETATM    2  C   UNL     1      -6.967   8.976  65.880  1.00  0.00    -0.088 C  
HETATM    3  C   UNL     1      -7.484   9.073  67.120  1.00  0.00    -0.087 C  
HETATM    4  C   UNL     1      -5.792   8.076  65.626  1.00  0.00    -0.037 C  
ENDROOT
BRANCH   3   5
HETATM    5  C   UNL     1      -8.664   9.842  67.523  1.00  0.00    -0.125 C  
HETATM    6  C   UNL     1      -8.562  11.334  67.790  1.00  0.00    -0.126 C  
HETATM    7  C   UNL     1      -8.822  10.365  68.939  1.00  0.00    -0.161 C  
HETATM    8  C   UNL     1      -7.714  10.222  69.952  1.00  0.00    -0.139 C  
HETATM    9  C   UNL     1     -10.200  10.240  69.550  1.00  0.00    -0.261 C  
BRANCH   6  10
HETATM   10  C   UNL     1      -9.626  12.201  67.236  1.00  0.00    -0.185 C  
HETATM   11  O   UNL     1     -10.625  11.714  66.737  1.00  0.00    -0.225 OA 
BRANCH  10  12
HETATM   12  O   UNL     1      -9.351  13.532  67.341  1.00  0.00    -0.211 OA 
BRANCH  12  13
HETATM   13  C   UNL     1      -9.534  14.187  68.626  1.00  0.00    -0.163 C  
HETATM   14  C   UNL     1     -10.957  14.684  68.847  1.00  0.00    -0.264 C  
HETATM   15  C   UNL     1     -10.789  16.158  68.620  1.00  0.00    -0.311 C  
HETATM   16  C   UNL     1      -9.357  16.551  68.645  1.00  0.00    -0.241 C  
HETATM   17  O   UNL     1     -11.715  16.947  68.499  1.00  0.00     0.112 OA 
HETATM   18  C   UNL     1      -7.185  15.227  68.865  1.00  0.00    -0.137 C  
HETATM   19  C   UNL     1      -8.656  15.405  68.747  1.00  0.00    -0.190 C  
BRANCH  16  20
HETATM   20  C   UNL     1      -8.953  17.961  68.397  1.00  0.00    -0.285 C  
BRANCH  20  21
HETATM   21  C   UNL     1      -8.916  18.298  66.942  1.00  0.00    -0.281 C  
HETATM   22  C   UNL     1      -8.087  19.210  66.411  1.00  0.00    -0.319 C  
ENDBRANCH  20  21
ENDBRANCH  16  20
ENDBRANCH  12  13
ENDBRANCH  10  12
ENDBRANCH   6  10
ENDBRANCH   3   5
TORSDOF 6
ENDMDL
MODEL      289
REMARK 921   NORMALIZED FREE ENERGY PREDICTED BY IDOCK:   -2.46 KCAL/MOL
REMARK 922        TOTAL FREE ENERGY PREDICTED BY IDOCK:   -4.85 KCAL/MOL
REMARK 923 INTER-LIGAND FREE ENERGY PREDICTED BY IDOCK:   -4.64 KCAL/MOL
REMARK 924 INTRA-LIGAND FREE ENERGY PREDICTED BY IDOCK:   -0.21 KCAL/MOL
REMARK 927      BINDING AFFINITY PREDICTED BY RF-SCORE:    0.00 PKD
ROOT
HETATM    1  C   UNL     1     -10.701  19.246  66.638  1.00  0.00    -0.504 C  
HETATM    2  C   UNL     1      -9.905  19.461  67.894  1.00  0.00    -0.460 C  
HETATM    3  C   UNL     1      -8.943  18.607  68.294  1.00  0.00    -0.344 C  
HETATM    4  C   UNL     1     -10.190  20.698  68.696  1.00  0.00     0.167 C  
ENDROOT
BRANCH   3   5
HETATM    5  C   UNL     1      -8.491  17.402  67.595  1.00  0.00    -0.213 C  
HETATM    6  C   UNL     1      -8.796  16.022  68.152  1.00  0.00    -0.178 C  
HETATM    7  C   UNL     1      -7.364  16.545  68.141  1.00  0.00    -0.163 C  
HETATM    8  C   UNL     1      -6.750  16.831  69.489  1.00  0.00    -0.181 C  
HETATM    9  C   UNL     1      -6.360  16.033  67.132  1.00  0.00    -0.114 C  
BRANCH   6  10
HETATM   10  C   UNL     1      -9.264  14.989  67.201  1.00  0.00    -0.216 C  
HETATM   11  O   UNL     1      -8.937  15.033  66.028  1.00  0.00    -0.223 OA 
BRANCH  10  12
HETATM   12  O   UNL     1     -10.069  14.049  67.772  1.00  0.00    -0.233 OA 
BRANCH  12  13
HETATM   13  C   UNL     1      -9.457  12.900  68.417  1.00  0.00    -0.162 C  
HETATM   14  C   UNL     1      -7.943  12.854  68.246  1.00  0.00    -0.151 C  
HETATM   15  C   UNL     1      -7.800  11.785  67.204  1.00  0.00    -0.166 C  
HETATM   16  C   UNL     1      -9.056  11.005  67.049  1.00  0.00    -0.154 C  
HETATM   17  O   UNL     1      -6.763  11.540  66.605  1.00  0.00    -0.133 OA 
HETATM   18  C   UNL     1     -11.377  11.208  68.093  1.00  0.00    -0.377 C  
HETATM   19  C   UNL     1      -9.969  11.609  67.834  1.00  0.00    -0.190 C  
BRANCH  16  20
HETATM   20  C   UNL     1      -9.156   9.922  66.036  1.00  0.00    -0.195 C  
BRANCH  20  21
HETATM   21  C   UNL     1      -8.841  10.398  64.656  1.00  0.00    -0.216 C  
HETATM   22  C   UNL     1      -9.400   9.888  63.547  1.00  0.00    -0.231 C  
ENDBRANCH  20  21
ENDBRANCH  16  20
ENDBRANCH  12  13
ENDBRANCH  10  12
ENDBRANCH   6  10
ENDBRANCH   3   5
TORSDOF 6
ENDMDL
MODEL      290
REMARK 921   NORMALIZED FREE ENERGY PREDICTED BY IDOCK:   -2.45 KCAL/MOL
REMARK 922        TOTAL FREE ENERGY PREDICTED BY IDOCK:   -4.83 KCAL/MOL
REMARK 923 INTER-LIGAND FREE ENERGY PREDICTED BY IDOCK:   -3.90 KCAL/MOL
REMARK 924 INTRA-LIGAND FREE ENERGY PREDICTED BY IDOCK:   -0.94 KCAL/MOL
REMARK 927      BINDING AFFINITY PREDICTED BY RF-SCORE:    0.00 PKD
ROOT
HETATM    1  C   UNL     1     -10.777   8.947  69.511  1.00  0.00    -0.206 C  
HETATM    2  C   UNL     1      -9.924   8.363  68.419  1.00  0.00    -0.208 C  
HETATM    3  C   UNL     1      -8.666   7.935  68.638  1.00  0.00    -0.128 C  
HETATM    4  C   UNL     1     -10.534   8.236  67.053  1.00  0.00    -0.384 C  
ENDROOT
BRANCH   3   5
HETATM    5  C   UNL     1      -7.952   7.919  69.916  1.00  0.00    -0.109 C  
HETATM    6  C   UNL     1      -8.473   8.709  71.105  1.00  0.00    -0.211 C  
HETATM    7  C   UNL     1      -7.183   9.131  70.409  1.00  0.00    -0.084 C  
HETATM    8  C   UNL     1      -7.227  10.440  69.662  1.00  0.00    -0.148 C  
HETATM    9  C   UNL     1      -5.836   8.859  71.044  1.00  0.00    -0.042 C  
BRANCH   6  10
HETATM   10  C   UNL     1      -8.473   8.039  72.424  1.00  0.00    -0.156 C  
HETATM   11  O   UNL     1      -8.612   8.685  73.448  1.00  0.00    -0.361 OA 
BRANCH  10  12
HETATM   12  O   UNL     1      -8.295   6.689  72.348  1.00  0.00    -0.107 OA 
BRANCH  12  13
HETATM   13  C   UNL     1      -9.305   5.815  72.919  1.00  0.00    -0.144 C  
HETATM   14  C   UNL     1      -8.741   4.834  73.940  1.00  0.00    -0.105 C  
HETATM   15  C   UNL     1      -8.727   3.563  73.145  1.00  0.00    -0.089 C  
HETATM   16  C   UNL     1      -9.552   3.682  71.915  1.00  0.00    -0.216 C  
HETATM   17  O   UNL     1      -8.165   2.535  73.496  1.00  0.00    -0.061 OA 
HETATM   18  C   UNL     1     -10.848   5.614  70.861  1.00  0.00    -0.294 C  
HETATM   19  C   UNL     1      -9.956   4.966  71.859  1.00  0.00    -0.250 C  
BRANCH  16  20
HETATM   20  C   UNL     1      -9.646   2.553  70.952  1.00  0.00    -0.192 C  
BRANCH  20  21
HETATM   21  C   UNL     1      -8.888   2.812  69.691  1.00  0.00    -0.147 C  
HETATM   22  C   UNL     1      -9.300   2.410  68.479  1.00  0.00    -0.252 C  
ENDBRANCH  20  21
ENDBRANCH  16  20
ENDBRANCH  12  13
ENDBRANCH  10  12
ENDBRANCH   6  10
ENDBRANCH   3   5
TORSDOF 6
ENDMDL
MODEL      291
REMARK 921   NORMALIZED FREE ENERGY PREDICTED BY IDOCK:   -2.45 KCAL/MOL
REMARK 922        TOTAL FREE ENERGY PREDICTED BY IDOCK:   -4.83 KCAL/MOL
REMARK 923 INTER-LIGAND FREE ENERGY PREDICTED BY IDOCK:   -5.21 KCAL/MOL
REMARK 924 INTRA-LIGAND FREE ENERGY PREDICTED BY IDOCK:    0.38 KCAL/MOL
REMARK 927      BINDING AFFINITY PREDICTED BY RF-SCORE:    0.00 PKD
ROOT
HETATM    1  C   UNL     1     -10.335  11.917  63.696  1.00  0.00    -0.477 C  
HETATM    2  C   UNL     1     -11.768  11.984  64.143  1.00  0.00    -0.457 C  
HETATM    3  C   UNL     1     -12.118  12.352  65.390  1.00  0.00    -0.428 C  
HETATM    4  C   UNL     1     -12.828  11.652  63.133  1.00  0.00     0.066 C  
ENDROOT
BRANCH   3   5
HETATM    5  C   UNL     1     -11.221  12.776  66.467  1.00  0.00    -0.349 C  
HETATM    6  C   UNL     1      -9.745  12.417  66.432  1.00  0.00    -0.246 C  
HETATM    7  C   UNL     1     -10.664  11.783  67.471  1.00  0.00    -0.262 C  
HETATM    8  C   UNL     1     -10.912  10.303  67.323  1.00  0.00    -0.277 C  
HETATM    9  C   UNL     1     -10.630  12.234  68.914  1.00  0.00    -0.170 C  
BRANCH   6  10
HETATM   10  C   UNL     1      -8.776  13.478  66.783  1.00  0.00    -0.083 C  
HETATM   11  O   UNL     1      -7.775  13.216  67.428  1.00  0.00    -0.161 OA 
BRANCH  10  12
HETATM   12  O   UNL     1      -9.133  14.713  66.328  1.00  0.00    -0.251 OA 
BRANCH  12  13
HETATM   13  C   UNL     1      -9.002  15.854  67.219  1.00  0.00    -0.195 C  
HETATM   14  C   UNL     1      -7.718  15.828  68.040  1.00  0.00    -0.136 C  
HETATM   15  C   UNL     1      -8.238  15.403  69.381  1.00  0.00    -0.250 C  
HETATM   16  C   UNL     1      -9.716  15.537  69.458  1.00  0.00    -0.282 C  
HETATM   17  O   UNL     1      -7.532  15.057  70.317  1.00  0.00     0.065 OA 
HETATM   18  C   UNL     1     -11.500  16.209  67.759  1.00  0.00    -0.033 C  
HETATM   19  C   UNL     1     -10.123  15.893  68.224  1.00  0.00    -0.224 C  
BRANCH  16  20
HETATM   20  C   UNL     1     -10.452  15.129  70.684  1.00  0.00     0.025 C  
BRANCH  20  21
HETATM   21  C   UNL     1     -11.412  16.175  71.150  1.00  0.00    -0.433 C  
HETATM   22  C   UNL     1     -11.991  16.167  72.360  1.00  0.00    -0.649 C  
ENDBRANCH  20  21
ENDBRANCH  16  20
ENDBRANCH  12  13
ENDBRANCH  10  12
ENDBRANCH   6  10
ENDBRANCH   3   5
TORSDOF 6
ENDMDL
MODEL      292
REMARK 921   NORMALIZED FREE ENERGY PREDICTED BY IDOCK:   -2.41 KCAL/MOL
REMARK 922        TOTAL FREE ENERGY PREDICTED BY IDOCK:   -4.77 KCAL/MOL
REMARK 923 INTER-LIGAND FREE ENERGY PREDICTED BY IDOCK:   -3.16 KCAL/MOL
REMARK 924 INTRA-LIGAND FREE ENERGY PREDICTED BY IDOCK:   -1.61 KCAL/MOL
REMARK 927      BINDING AFFINITY PREDICTED BY RF-SCORE:    0.00 PKD
ROOT
HETATM    1  C   UNL     1      -7.676  10.866  68.753  1.00  0.00    -0.129 C  
HETATM    2  C   UNL     1      -6.752  10.216  67.762  1.00  0.00    -0.071 C  
HETATM    3  C   UNL     1      -7.061   9.065  67.134  1.00  0.00    -0.079 C  
HETATM    4  C   UNL     1      -5.457  10.913  67.457  1.00  0.00    -0.044 C  
ENDROOT
BRANCH   3   5
HETATM    5  C   UNL     1      -8.303   8.301  67.260  1.00  0.00    -0.124 C  
HETATM    6  C   UNL     1      -8.708   7.297  66.193  1.00  0.00    -0.170 C  
HETATM    7  C   UNL     1      -9.502   8.587  66.374  1.00  0.00    -0.297 C  
HETATM    8  C   UNL     1      -9.418   9.583  65.245  1.00  0.00    -0.326 C  
HETATM    9  C   UNL     1     -10.855   8.574  67.050  1.00  0.00    -0.030 C  
BRANCH   6  10
HETATM   10  C   UNL     1      -9.221   5.986  66.649  1.00  0.00    -0.142 C  
HETATM   11  O   UNL     1      -9.909   5.300  65.913  1.00  0.00    -0.152 OA 
BRANCH  10  12
HETATM   12  O   UNL     1      -8.856   5.673  67.924  1.00  0.00    -0.108 OA 
BRANCH  12  13
HETATM   13  C   UNL     1      -9.850   5.100  68.817  1.00  0.00    -0.168 C  
HETATM   14  C   UNL     1     -10.419   6.110  69.806  1.00  0.00    -0.299 C  
HETATM   15  C   UNL     1      -9.707   5.716  71.066  1.00  0.00    -0.173 C  
HETATM   16  C   UNL     1      -9.077   4.377  70.939  1.00  0.00    -0.186 C  
HETATM   17  O   UNL     1      -9.703   6.381  72.093  1.00  0.00    -0.154 OA 
HETATM   18  C   UNL     1      -8.870   2.721  69.006  1.00  0.00    -0.152 C  
HETATM   19  C   UNL     1      -9.258   3.999  69.658  1.00  0.00    -0.217 C  
BRANCH  16  20
HETATM   20  C   UNL     1      -8.278   3.804  72.055  1.00  0.00    -0.076 C  
BRANCH  20  21
HETATM   21  C   UNL     1      -6.810   4.018  71.876  1.00  0.00    -0.030 C  
HETATM   22  C   UNL     1      -6.216   5.217  71.971  1.00  0.00    -0.031 C  
ENDBRANCH  20  21
ENDBRANCH  16  20
ENDBRANCH  12  13
ENDBRANCH  10  12
ENDBRANCH   6  10
ENDBRANCH   3   5
TORSDOF 6
ENDMDL
MODEL      293
REMARK 921   NORMALIZED FREE ENERGY PREDICTED BY IDOCK:   -2.38 KCAL/MOL
REMARK 922        TOTAL FREE ENERGY PREDICTED BY IDOCK:   -4.73 KCAL/MOL
REMARK 923 INTER-LIGAND FREE ENERGY PREDICTED BY IDOCK:   -5.26 KCAL/MOL
REMARK 924 INTRA-LIGAND FREE ENERGY PREDICTED BY IDOCK:    0.53 KCAL/MOL
REMARK 927      BINDING AFFINITY PREDICTED BY RF-SCORE:    0.00 PKD
ROOT
HETATM    1  C   UNL     1     -11.482  12.325  69.524  1.00  0.00    -0.318 C  
HETATM    2  C   UNL     1     -11.155  12.318  68.057  1.00  0.00    -0.285 C  
HETATM    3  C   UNL     1     -10.835  11.189  67.395  1.00  0.00    -0.317 C  
HETATM    4  C   UNL     1     -11.225  13.625  67.322  1.00  0.00    -0.329 C  
ENDROOT
BRANCH   3   5
HETATM    5  C   UNL     1     -10.793   9.831  67.940  1.00  0.00    -0.298 C  
HETATM    6  C   UNL     1      -9.518   9.283  68.559  1.00  0.00    -0.150 C  
HETATM    7  C   UNL     1     -10.035   8.719  67.239  1.00  0.00    -0.281 C  
HETATM    8  C   UNL     1      -9.191   8.998  66.021  1.00  0.00    -0.284 C  
HETATM    9  C   UNL     1     -10.717   7.370  67.188  1.00  0.00    -0.400 C  
BRANCH   6  10
HETATM   10  C   UNL     1      -9.641   8.542  69.833  1.00  0.00    -0.171 C  
HETATM   11  O   UNL     1      -9.904   9.128  70.869  1.00  0.00    -0.243 OA 
BRANCH  10  12
HETATM   12  O   UNL     1      -9.422   7.202  69.706  1.00  0.00    -0.151 OA 
BRANCH  12  13
HETATM   13  C   UNL     1     -10.483   6.280  70.077  1.00  0.00    -0.218 C  
HETATM   14  C   UNL     1     -11.359   6.800  71.210  1.00  0.00    -0.333 C  
HETATM   15  C   UNL     1     -10.854   5.987  72.365  1.00  0.00    -0.247 C  
HETATM   16  C   UNL     1     -10.039   4.833  71.902  1.00  0.00    -0.264 C  
HETATM   17  O   UNL     1     -11.133   6.203  73.536  1.00  0.00    -0.173 OA 
HETATM   18  C   UNL     1      -9.251   4.064  69.598  1.00  0.00    -0.217 C  
HETATM   19  C   UNL     1      -9.922   4.971  70.567  1.00  0.00    -0.312 C  
BRANCH  16  20
HETATM   20  C   UNL     1      -9.399   3.915  72.881  1.00  0.00    -0.142 C  
BRANCH  20  21
HETATM   21  C   UNL     1     -10.367   2.941  73.469  1.00  0.00    -0.219 C  
HETATM   22  C   UNL     1     -11.693   2.998  73.272  1.00  0.00     0.089 C  
ENDBRANCH  20  21
ENDBRANCH  16  20
ENDBRANCH  12  13
ENDBRANCH  10  12
ENDBRANCH   6  10
ENDBRANCH   3   5
TORSDOF 6
ENDMDL
MODEL      294
REMARK 921   NORMALIZED FREE ENERGY PREDICTED BY IDOCK:   -2.37 KCAL/MOL
REMARK 922        TOTAL FREE ENERGY PREDICTED BY IDOCK:   -4.72 KCAL/MOL
REMARK 923 INTER-LIGAND FREE ENERGY PREDICTED BY IDOCK:   -3.73 KCAL/MOL
REMARK 924 INTRA-LIGAND FREE ENERGY PREDICTED BY IDOCK:   -0.99 KCAL/MOL
REMARK 927      BINDING AFFINITY PREDICTED BY RF-SCORE:    0.00 PKD
ROOT
HETATM    1  C   UNL     1      -8.399   3.202  65.843  1.00  0.00    -0.097 C  
HETATM    2  C   UNL     1      -9.404   4.169  65.283  1.00  0.00    -0.164 C  
HETATM    3  C   UNL     1      -9.418   5.473  65.622  1.00  0.00    -0.018 C  
HETATM    4  C   UNL     1     -10.397   3.642  64.287  1.00  0.00    -0.231 C  
ENDROOT
BRANCH   3   5
HETATM    5  C   UNL     1      -8.481   6.159  66.514  1.00  0.00    -0.119 C  
HETATM    6  C   UNL     1      -8.771   6.276  68.000  1.00  0.00    -0.114 C  
HETATM    7  C   UNL     1      -8.807   7.515  67.112  1.00  0.00    -0.127 C  
HETATM    8  C   UNL     1     -10.159   8.151  66.912  1.00  0.00    -0.367 C  
HETATM    9  C   UNL     1      -7.680   8.524  67.144  1.00  0.00    -0.097 C  
BRANCH   6  10
HETATM   10  C   UNL     1      -7.656   6.011  68.937  1.00  0.00    -0.091 C  
HETATM   11  O   UNL     1      -6.797   5.192  68.662  1.00  0.00    -0.049 OA 
BRANCH  10  12
HETATM   12  O   UNL     1      -7.721   6.749  70.081  1.00  0.00    -0.097 OA 
BRANCH  12  13
HETATM   13  C   UNL     1      -7.799   6.058  71.358  1.00  0.00    -0.112 C  
HETATM   14  C   UNL     1      -8.024   4.558  71.213  1.00  0.00    -0.086 C  
HETATM   15  C   UNL     1      -9.477   4.446  71.568  1.00  0.00    -0.152 C  
HETATM   16  C   UNL     1      -9.972   5.682  72.228  1.00  0.00    -0.204 C  
HETATM   17  O   UNL     1     -10.153   3.441  71.399  1.00  0.00    -0.122 OA 
HETATM   18  C   UNL     1      -8.893   7.938  72.746  1.00  0.00    -0.247 C  
HETATM   19  C   UNL     1      -8.954   6.563  72.182  1.00  0.00    -0.139 C  
BRANCH  16  20
HETATM   20  C   UNL     1     -11.399   5.810  72.626  1.00  0.00    -0.349 C  
BRANCH  20  21
HETATM   21  C   UNL     1     -12.184   6.656  71.678  1.00  0.00    -0.401 C  
HETATM   22  C   UNL     1     -12.023   6.627  70.346  1.00  0.00    -0.342 C  
ENDBRANCH  20  21
ENDBRANCH  16  20
ENDBRANCH  12  13
ENDBRANCH  10  12
ENDBRANCH   6  10
ENDBRANCH   3   5
TORSDOF 6
ENDMDL
MODEL      295
REMARK 921   NORMALIZED FREE ENERGY PREDICTED BY IDOCK:   -2.35 KCAL/MOL
REMARK 922        TOTAL FREE ENERGY PREDICTED BY IDOCK:   -4.70 KCAL/MOL
REMARK 923 INTER-LIGAND FREE ENERGY PREDICTED BY IDOCK:   -4.49 KCAL/MOL
REMARK 924 INTRA-LIGAND FREE ENERGY PREDICTED BY IDOCK:   -0.20 KCAL/MOL
REMARK 927      BINDING AFFINITY PREDICTED BY RF-SCORE:    0.00 PKD
ROOT
HETATM    1  C   UNL     1      -8.885   7.618  65.506  1.00  0.00    -0.029 C  
HETATM    2  C   UNL     1      -7.713   6.985  66.203  1.00  0.00    -0.095 C  
HETATM    3  C   UNL     1      -7.194   7.485  67.341  1.00  0.00    -0.087 C  
HETATM    4  C   UNL     1      -7.140   5.734  65.603  1.00  0.00    -0.069 C  
ENDROOT
BRANCH   3   5
HETATM    5  C   UNL     1      -7.677   8.646  68.091  1.00  0.00    -0.102 C  
HETATM    6  C   UNL     1      -7.179  10.043  67.763  1.00  0.00    -0.087 C  
HETATM    7  C   UNL     1      -6.785   9.378  69.077  1.00  0.00    -0.050 C  
HETATM    8  C   UNL     1      -5.329   9.017  69.230  1.00  0.00    -0.036 C  
HETATM    9  C   UNL     1      -7.428   9.798  70.381  1.00  0.00    -0.161 C  
BRANCH   6  10
HETATM   10  C   UNL     1      -8.182  11.129  67.700  1.00  0.00    -0.118 C  
HETATM   11  O   UNL     1      -8.045  12.056  66.921  1.00  0.00    -0.166 OA 
BRANCH  10  12
HETATM   12  O   UNL     1      -9.210  10.971  68.581  1.00  0.00    -0.176 OA 
BRANCH  12  13
HETATM   13  C   UNL     1     -10.542  10.702  68.065  1.00  0.00    -0.211 C  
HETATM   14  C   UNL     1     -10.548  10.340  66.584  1.00  0.00    -0.232 C  
HETATM   15  C   UNL     1     -11.052  11.615  65.975  1.00  0.00    -0.270 C  
HETATM   16  C   UNL     1     -11.650  12.508  67.001  1.00  0.00    -0.437 C  
HETATM   17  O   UNL     1     -11.035  11.861  64.778  1.00  0.00    -0.295 OA 
HETATM   18  C   UNL     1     -11.867  12.352  69.541  1.00  0.00    -0.368 C  
HETATM   19  C   UNL     1     -11.430  11.912  68.189  1.00  0.00    -0.384 C  
BRANCH  16  20
HETATM   20  C   UNL     1     -12.174  13.849  66.627  1.00  0.00    -0.465 C  
BRANCH  20  21
HETATM   21  C   UNL     1     -11.181  14.938  66.866  1.00  0.00    -0.343 C  
HETATM   22  C   UNL     1     -10.079  15.117  66.123  1.00  0.00    -0.314 C  
ENDBRANCH  20  21
ENDBRANCH  16  20
ENDBRANCH  12  13
ENDBRANCH  10  12
ENDBRANCH   6  10
ENDBRANCH   3   5
TORSDOF 6
ENDMDL
MODEL      296
REMARK 921   NORMALIZED FREE ENERGY PREDICTED BY IDOCK:   -2.33 KCAL/MOL
REMARK 922        TOTAL FREE ENERGY PREDICTED BY IDOCK:   -4.67 KCAL/MOL
REMARK 923 INTER-LIGAND FREE ENERGY PREDICTED BY IDOCK:   -4.08 KCAL/MOL
REMARK 924 INTRA-LIGAND FREE ENERGY PREDICTED BY IDOCK:   -0.59 KCAL/MOL
REMARK 927      BINDING AFFINITY PREDICTED BY RF-SCORE:    0.00 PKD
ROOT
HETATM    1  C   UNL     1      -7.938   6.960  64.937  1.00  0.00    -0.124 C  
HETATM    2  C   UNL     1      -7.054   7.072  66.148  1.00  0.00    -0.073 C  
HETATM    3  C   UNL     1      -7.538   7.374  67.369  1.00  0.00    -0.112 C  
HETATM    4  C   UNL     1      -5.588   6.803  65.968  1.00  0.00    -0.025 C  
ENDROOT
BRANCH   3   5
HETATM    5  C   UNL     1      -8.941   7.591  67.730  1.00  0.00    -0.131 C  
HETATM    6  C   UNL     1      -9.333   8.715  68.674  1.00  0.00    -0.142 C  
HETATM    7  C   UNL     1      -9.462   7.261  69.117  1.00  0.00    -0.148 C  
HETATM    8  C   UNL     1      -8.529   6.816  70.215  1.00  0.00    -0.135 C  
HETATM    9  C   UNL     1     -10.815   6.588  69.183  1.00  0.00    -0.354 C  
BRANCH   6  10
HETATM   10  C   UNL     1     -10.511   9.533  68.309  1.00  0.00    -0.223 C  
HETATM   11  O   UNL     1     -11.147  10.121  69.166  1.00  0.00    -0.222 OA 
BRANCH  10  12
HETATM   12  O   UNL     1     -10.779   9.533  66.972  1.00  0.00    -0.231 OA 
BRANCH  12  13
HETATM   13  C   UNL     1     -10.320  10.651  66.164  1.00  0.00    -0.227 C  
HETATM   14  C   UNL     1      -8.891  10.480  65.664  1.00  0.00    -0.197 C  
HETATM   15  C   UNL     1      -8.150  11.411  66.577  1.00  0.00    -0.141 C  
HETATM   16  C   UNL     1      -9.077  12.329  67.287  1.00  0.00    -0.184 C  
HETATM   17  O   UNL     1      -6.932  11.457  66.675  1.00  0.00    -0.138 OA 
HETATM   18  C   UNL     1     -11.622  12.539  67.346  1.00  0.00    -0.434 C  
HETATM   19  C   UNL     1     -10.322  11.933  66.955  1.00  0.00    -0.238 C  
BRANCH  16  20
HETATM   20  C   UNL     1      -8.563  13.310  68.279  1.00  0.00    -0.169 C  
BRANCH  20  21
HETATM   21  C   UNL     1      -8.331  14.660  67.682  1.00  0.00    -0.186 C  
HETATM   22  C   UNL     1      -8.766  15.020  66.465  1.00  0.00    -0.244 C  
ENDBRANCH  20  21
ENDBRANCH  16  20
ENDBRANCH  12  13
ENDBRANCH  10  12
ENDBRANCH   6  10
ENDBRANCH   3   5
TORSDOF 6
ENDMDL
MODEL      297
REMARK 921   NORMALIZED FREE ENERGY PREDICTED BY IDOCK:   -2.33 KCAL/MOL
REMARK 922        TOTAL FREE ENERGY PREDICTED BY IDOCK:   -4.66 KCAL/MOL
REMARK 923 INTER-LIGAND FREE ENERGY PREDICTED BY IDOCK:   -3.74 KCAL/MOL
REMARK 924 INTRA-LIGAND FREE ENERGY PREDICTED BY IDOCK:   -0.92 KCAL/MOL
REMARK 927      BINDING AFFINITY PREDICTED BY RF-SCORE:    0.00 PKD
ROOT
HETATM    1  C   UNL     1     -12.236  12.268  70.392  1.00  0.00    -0.371 C  
HETATM    2  C   UNL     1     -11.418  12.277  69.132  1.00  0.00    -0.352 C  
HETATM    3  C   UNL     1     -10.718  11.204  68.718  1.00  0.00    -0.236 C  
HETATM    4  C   UNL     1     -11.425  13.532  68.307  1.00  0.00    -0.345 C  
ENDROOT
BRANCH   3   5
HETATM    5  C   UNL     1     -10.663   9.889  69.360  1.00  0.00    -0.255 C  
HETATM    6  C   UNL     1      -9.333   9.190  69.583  1.00  0.00    -0.177 C  
HETATM    7  C   UNL     1     -10.331   8.635  68.571  1.00  0.00    -0.228 C  
HETATM    8  C   UNL     1      -9.921   8.712  67.122  1.00  0.00    -0.297 C  
HETATM    9  C   UNL     1     -11.152   7.405  68.888  1.00  0.00     0.081 C  
BRANCH   6  10
HETATM   10  C   UNL     1      -9.109   8.550  70.898  1.00  0.00    -0.172 C  
HETATM   11  O   UNL     1      -9.459   9.105  71.925  1.00  0.00    -0.332 OA 
BRANCH  10  12
HETATM   12  O   UNL     1      -8.486   7.340  70.815  1.00  0.00    -0.129 OA 
BRANCH  12  13
HETATM   13  C   UNL     1      -9.127   6.180  71.412  1.00  0.00    -0.143 C  
HETATM   14  C   UNL     1      -8.888   6.069  72.913  1.00  0.00    -0.122 C  
HETATM   15  C   UNL     1      -7.863   4.975  72.964  1.00  0.00    -0.097 C  
HETATM   16  C   UNL     1      -7.784   4.244  71.673  1.00  0.00    -0.074 C  
HETATM   17  O   UNL     1      -7.223   4.677  73.962  1.00  0.00    -0.074 OA 
HETATM   18  C   UNL     1      -8.929   4.561  69.413  1.00  0.00    -0.142 C  
HETATM   19  C   UNL     1      -8.597   4.900  70.822  1.00  0.00    -0.127 C  
BRANCH  16  20
HETATM   20  C   UNL     1      -6.800   3.145  71.483  1.00  0.00    -0.031 C  
BRANCH  20  21
HETATM   21  C   UNL     1      -7.416   1.793  71.638  1.00  0.00    -0.036 C  
HETATM   22  C   UNL     1      -8.698   1.594  71.978  1.00  0.00    -0.081 C  
ENDBRANCH  20  21
ENDBRANCH  16  20
ENDBRANCH  12  13
ENDBRANCH  10  12
ENDBRANCH   6  10
ENDBRANCH   3   5
TORSDOF 6
ENDMDL
MODEL      298
REMARK 921   NORMALIZED FREE ENERGY PREDICTED BY IDOCK:   -2.32 KCAL/MOL
REMARK 922        TOTAL FREE ENERGY PREDICTED BY IDOCK:   -4.65 KCAL/MOL
REMARK 923 INTER-LIGAND FREE ENERGY PREDICTED BY IDOCK:   -4.34 KCAL/MOL
REMARK 924 INTRA-LIGAND FREE ENERGY PREDICTED BY IDOCK:   -0.32 KCAL/MOL
REMARK 927      BINDING AFFINITY PREDICTED BY RF-SCORE:    0.00 PKD
ROOT
HETATM    1  C   UNL     1     -11.763  11.953  67.956  1.00  0.00    -0.382 C  
HETATM    2  C   UNL     1     -11.392  11.121  69.151  1.00  0.00    -0.340 C  
HETATM    3  C   UNL     1     -10.451  10.159  69.096  1.00  0.00    -0.242 C  
HETATM    4  C   UNL     1     -12.090  11.415  70.447  1.00  0.00    -0.473 C  
ENDROOT
BRANCH   3   5
HETATM    5  C   UNL     1      -9.629   9.797  67.939  1.00  0.00    -0.158 C  
HETATM    6  C   UNL     1      -8.269   9.147  68.127  1.00  0.00    -0.116 C  
HETATM    7  C   UNL     1      -8.371  10.570  67.589  1.00  0.00    -0.114 C  
HETATM    8  C   UNL     1      -7.849  11.661  68.490  1.00  0.00    -0.140 C  
HETATM    9  C   UNL     1      -8.148  10.861  66.121  1.00  0.00    -0.160 C  
BRANCH   6  10
HETATM   10  C   UNL     1      -7.935   7.998  67.256  1.00  0.00    -0.121 C  
HETATM   11  O   UNL     1      -8.276   7.987  66.087  1.00  0.00    -0.105 OA 
BRANCH  10  12
HETATM   12  O   UNL     1      -7.249   7.011  67.899  1.00  0.00    -0.086 OA 
BRANCH  12  13
HETATM   13  C   UNL     1      -7.917   5.745  68.155  1.00  0.00    -0.104 C  
HETATM   14  C   UNL     1      -8.569   5.150  66.912  1.00  0.00    -0.105 C  
HETATM   15  C   UNL     1     -10.015   5.457  67.166  1.00  0.00    -0.174 C  
HETATM   16  C   UNL     1     -10.247   5.843  68.582  1.00  0.00    -0.243 C  
HETATM   17  O   UNL     1     -10.902   5.337  66.334  1.00  0.00    -0.292 OA 
HETATM   18  C   UNL     1      -8.689   6.199  70.574  1.00  0.00    -0.142 C  
HETATM   19  C   UNL     1      -9.030   5.907  69.156  1.00  0.00    -0.119 C  
BRANCH  16  20
HETATM   20  C   UNL     1     -11.604   6.234  69.049  1.00  0.00     0.059 C  
BRANCH  20  21
HETATM   21  C   UNL     1     -11.574   6.942  70.364  1.00  0.00    -0.385 C  
HETATM   22  C   UNL     1     -12.582   6.910  71.249  1.00  0.00    -0.394 C  
ENDBRANCH  20  21
ENDBRANCH  16  20
ENDBRANCH  12  13
ENDBRANCH  10  12
ENDBRANCH   6  10
ENDBRANCH   3   5
TORSDOF 6
ENDMDL
MODEL      299
REMARK 921   NORMALIZED FREE ENERGY PREDICTED BY IDOCK:   -2.31 KCAL/MOL
REMARK 922        TOTAL FREE ENERGY PREDICTED BY IDOCK:   -4.63 KCAL/MOL
REMARK 923 INTER-LIGAND FREE ENERGY PREDICTED BY IDOCK:   -4.36 KCAL/MOL
REMARK 924 INTRA-LIGAND FREE ENERGY PREDICTED BY IDOCK:   -0.28 KCAL/MOL
REMARK 927      BINDING AFFINITY PREDICTED BY RF-SCORE:    0.00 PKD
ROOT
HETATM    1  C   UNL     1      -8.383   2.142  68.736  1.00  0.00    -0.079 C  
HETATM    2  C   UNL     1      -8.737   2.577  70.130  1.00  0.00    -0.125 C  
HETATM    3  C   UNL     1      -9.161   3.825  70.410  1.00  0.00    -0.213 C  
HETATM    4  C   UNL     1      -8.635   1.555  71.225  1.00  0.00    -0.078 C  
ENDROOT
BRANCH   3   5
HETATM    5  C   UNL     1      -9.386   4.912  69.456  1.00  0.00    -0.190 C  
HETATM    6  C   UNL     1      -8.928   6.326  69.771  1.00  0.00    -0.140 C  
HETATM    7  C   UNL     1     -10.416   5.996  69.719  1.00  0.00    -0.320 C  
HETATM    8  C   UNL     1     -11.159   6.065  71.029  1.00  0.00    -0.348 C  
HETATM    9  C   UNL     1     -11.262   6.418  68.538  1.00  0.00    -0.321 C  
BRANCH   6  10
HETATM   10  C   UNL     1      -8.251   7.081  68.693  1.00  0.00    -0.122 C  
HETATM   11  O   UNL     1      -8.582   6.932  67.530  1.00  0.00    -0.121 OA 
BRANCH  10  12
HETATM   12  O   UNL     1      -7.263   7.904  69.144  1.00  0.00    -0.077 OA 
BRANCH  12  13
HETATM   13  C   UNL     1      -7.624   9.206  69.680  1.00  0.00    -0.080 C  
HETATM   14  C   UNL     1      -8.404   9.120  70.987  1.00  0.00    -0.205 C  
HETATM   15  C   UNL     1      -9.796   9.421  70.515  1.00  0.00    -0.270 C  
HETATM   16  C   UNL     1      -9.792  10.006  69.149  1.00  0.00    -0.213 C  
HETATM   17  O   UNL     1     -10.802   9.270  71.193  1.00  0.00    -0.280 OA 
HETATM   18  C   UNL     1      -7.941  10.466  67.451  1.00  0.00    -0.107 C  
HETATM   19  C   UNL     1      -8.513   9.961  68.728  1.00  0.00    -0.122 C  
BRANCH  16  20
HETATM   20  C   UNL     1     -11.068  10.342  68.464  1.00  0.00    -0.294 C  
BRANCH  20  21
HETATM   21  C   UNL     1     -11.354  11.808  68.473  1.00  0.00    -0.328 C  
HETATM   22  C   UNL     1     -11.959  12.442  69.489  1.00  0.00    -0.324 C  
ENDBRANCH  20  21
ENDBRANCH  16  20
ENDBRANCH  12  13
ENDBRANCH  10  12
ENDBRANCH   6  10
ENDBRANCH   3   5
TORSDOF 6
ENDMDL
MODEL      300
REMARK 921   NORMALIZED FREE ENERGY PREDICTED BY IDOCK:   -2.30 KCAL/MOL
REMARK 922        TOTAL FREE ENERGY PREDICTED BY IDOCK:   -4.63 KCAL/MOL
REMARK 923 INTER-LIGAND FREE ENERGY PREDICTED BY IDOCK:   -5.20 KCAL/MOL
REMARK 924 INTRA-LIGAND FREE ENERGY PREDICTED BY IDOCK:    0.57 KCAL/MOL
REMARK 927      BINDING AFFINITY PREDICTED BY RF-SCORE:    0.00 PKD
ROOT
HETATM    1  C   UNL     1     -11.551  10.877  68.430  1.00  0.00    -0.346 C  
HETATM    2  C   UNL     1     -10.361  10.011  68.732  1.00  0.00    -0.216 C  
HETATM    3  C   UNL     1      -9.095  10.455  68.606  1.00  0.00    -0.157 C  
HETATM    4  C   UNL     1     -10.621   8.615  69.218  1.00  0.00    -0.204 C  
ENDROOT
BRANCH   3   5
HETATM    5  C   UNL     1      -8.670  11.801  68.218  1.00  0.00    -0.167 C  
HETATM    6  C   UNL     1      -9.110  12.401  66.893  1.00  0.00    -0.211 C  
HETATM    7  C   UNL     1      -7.650  12.023  67.117  1.00  0.00    -0.146 C  
HETATM    8  C   UNL     1      -7.128  10.872  66.294  1.00  0.00    -0.119 C  
HETATM    9  C   UNL     1      -6.605  13.086  67.373  1.00  0.00    -0.115 C  
BRANCH   6  10
HETATM   10  C   UNL     1      -9.568  13.808  66.899  1.00  0.00    -0.262 C  
HETATM   11  O   UNL     1      -9.435  14.508  65.911  1.00  0.00    -0.274 OA 
BRANCH  10  12
HETATM   12  O   UNL     1     -10.113  14.197  68.087  1.00  0.00    -0.226 OA 
BRANCH  12  13
HETATM   13  C   UNL     1      -9.959  15.579  68.510  1.00  0.00    -0.208 C  
HETATM   14  C   UNL     1     -10.819  16.550  67.709  1.00  0.00    -0.304 C  
HETATM   15  C   UNL     1      -9.793  17.175  66.811  1.00  0.00    -0.285 C  
HETATM   16  C   UNL     1      -8.413  16.896  67.287  1.00  0.00    -0.213 C  
HETATM   17  O   UNL     1     -10.056  17.883  65.850  1.00  0.00    -0.533 OA 
HETATM   18  C   UNL     1      -7.476  15.495  69.205  1.00  0.00    -0.212 C  
HETATM   19  C   UNL     1      -8.541  16.051  68.329  1.00  0.00    -0.179 C  
BRANCH  16  20
HETATM   20  C   UNL     1      -7.234  17.383  66.523  1.00  0.00    -0.305 C  
BRANCH  20  21
HETATM   21  C   UNL     1      -6.844  18.775  66.898  1.00  0.00    -0.211 C  
HETATM   22  C   UNL     1      -7.307  19.410  67.986  1.00  0.00    -0.309 C  
ENDBRANCH  20  21
ENDBRANCH  16  20
ENDBRANCH  12  13
ENDBRANCH  10  12
ENDBRANCH   6  10
ENDBRANCH   3   5
TORSDOF 6
ENDMDL
MODEL      301
REMARK 921   NORMALIZED FREE ENERGY PREDICTED BY IDOCK:   -2.28 KCAL/MOL
REMARK 922        TOTAL FREE ENERGY PREDICTED BY IDOCK:   -4.60 KCAL/MOL
REMARK 923 INTER-LIGAND FREE ENERGY PREDICTED BY IDOCK:   -4.16 KCAL/MOL
REMARK 924 INTRA-LIGAND FREE ENERGY PREDICTED BY IDOCK:   -0.44 KCAL/MOL
REMARK 927      BINDING AFFINITY PREDICTED BY RF-SCORE:    0.00 PKD
ROOT
HETATM    1  C   UNL     1     -11.529  10.902  68.070  1.00  0.00    -0.356 C  
HETATM    2  C   UNL     1     -11.286  10.662  69.534  1.00  0.00    -0.342 C  
HETATM    3  C   UNL     1     -10.312   9.845  69.979  1.00  0.00    -0.320 C  
HETATM    4  C   UNL     1     -12.154  11.398  70.513  1.00  0.00    -0.487 C  
ENDROOT
BRANCH   3   5
HETATM    5  C   UNL     1      -9.337   9.115  69.167  1.00  0.00    -0.152 C  
HETATM    6  C   UNL     1      -7.933   8.857  69.687  1.00  0.00    -0.092 C  
HETATM    7  C   UNL     1      -8.155   9.820  68.525  1.00  0.00    -0.104 C  
HETATM    8  C   UNL     1      -7.870  11.274  68.803  1.00  0.00    -0.139 C  
HETATM    9  C   UNL     1      -7.820   9.413  67.107  1.00  0.00    -0.098 C  
BRANCH   6  10
HETATM   10  C   UNL     1      -7.370   7.503  69.491  1.00  0.00    -0.084 C  
HETATM   11  O   UNL     1      -7.609   6.873  68.475  1.00  0.00    -0.106 OA 
BRANCH  10  12
HETATM   12  O   UNL     1      -6.606   7.075  70.536  1.00  0.00    -0.049 OA 
BRANCH  12  13
HETATM   13  C   UNL     1      -7.049   5.923  71.303  1.00  0.00    -0.073 C  
HETATM   14  C   UNL     1      -7.578   4.790  70.431  1.00  0.00    -0.054 C  
HETATM   15  C   UNL     1      -9.058   4.935  70.631  1.00  0.00    -0.128 C  
HETATM   16  C   UNL     1      -9.365   5.805  71.796  1.00  0.00    -0.163 C  
HETATM   17  O   UNL     1      -9.904   4.356  69.965  1.00  0.00    -0.211 OA 
HETATM   18  C   UNL     1      -7.909   7.162  73.396  1.00  0.00    -0.112 C  
HETATM   19  C   UNL     1      -8.182   6.285  72.226  1.00  0.00    -0.108 C  
BRANCH  16  20
HETATM   20  C   UNL     1     -10.773   6.124  72.154  1.00  0.00    -0.277 C  
BRANCH  20  21
HETATM   21  C   UNL     1     -11.273   5.303  73.297  1.00  0.00    -0.359 C  
HETATM   22  C   UNL     1     -11.155   3.968  73.362  1.00  0.00    -0.341 C  
ENDBRANCH  20  21
ENDBRANCH  16  20
ENDBRANCH  12  13
ENDBRANCH  10  12
ENDBRANCH   6  10
ENDBRANCH   3   5
TORSDOF 6
ENDMDL
MODEL      302
REMARK 921   NORMALIZED FREE ENERGY PREDICTED BY IDOCK:   -2.24 KCAL/MOL
REMARK 922        TOTAL FREE ENERGY PREDICTED BY IDOCK:   -4.55 KCAL/MOL
REMARK 923 INTER-LIGAND FREE ENERGY PREDICTED BY IDOCK:   -4.03 KCAL/MOL
REMARK 924 INTRA-LIGAND FREE ENERGY PREDICTED BY IDOCK:   -0.52 KCAL/MOL
REMARK 927      BINDING AFFINITY PREDICTED BY RF-SCORE:    0.00 PKD
ROOT
HETATM    1  C   UNL     1     -11.199  11.629  65.974  1.00  0.00    -0.299 C  
HETATM    2  C   UNL     1     -10.923  11.376  64.518  1.00  0.00    -0.346 C  
HETATM    3  C   UNL     1      -9.893  10.615  64.101  1.00  0.00    -0.396 C  
HETATM    4  C   UNL     1     -11.864  11.981  63.516  1.00  0.00    -0.587 C  
ENDROOT
BRANCH   3   5
HETATM    5  C   UNL     1      -8.934   9.896  64.941  1.00  0.00    -0.246 C  
HETATM    6  C   UNL     1      -7.956  10.654  65.824  1.00  0.00    -0.152 C  
HETATM    7  C   UNL     1      -7.452   9.877  64.613  1.00  0.00    -0.140 C  
HETATM    8  C   UNL     1      -6.894  10.700  63.479  1.00  0.00     0.177 C  
HETATM    9  C   UNL     1      -6.744   8.551  64.784  1.00  0.00    -0.068 C  
BRANCH   6  10
HETATM   10  C   UNL     1      -7.765  10.166  67.208  1.00  0.00    -0.095 C  
HETATM   11  O   UNL     1      -7.330  10.907  68.072  1.00  0.00    -0.085 OA 
BRANCH  10  12
HETATM   12  O   UNL     1      -8.107   8.857  67.374  1.00  0.00    -0.107 OA 
BRANCH  12  13
HETATM   13  C   UNL     1      -7.271   8.015  68.213  1.00  0.00    -0.093 C  
HETATM   14  C   UNL     1      -6.926   6.679  67.565  1.00  0.00    -0.082 C  
HETATM   15  C   UNL     1      -7.839   5.751  68.310  1.00  0.00    -0.100 C  
HETATM   16  C   UNL     1      -8.386   6.392  69.533  1.00  0.00    -0.126 C  
HETATM   17  O   UNL     1      -8.052   4.590  67.990  1.00  0.00    -0.090 OA 
HETATM   18  C   UNL     1      -8.181   8.740  70.515  1.00  0.00    -0.140 C  
HETATM   19  C   UNL     1      -7.963   7.671  69.505  1.00  0.00    -0.125 C  
BRANCH  16  20
HETATM   20  C   UNL     1      -9.351   5.668  70.402  1.00  0.00    -0.193 C  
BRANCH  20  21
HETATM   21  C   UNL     1     -10.694   5.518  69.765  1.00  0.00    -0.355 C  
HETATM   22  C   UNL     1     -11.496   6.551  69.468  1.00  0.00    -0.384 C  
ENDBRANCH  20  21
ENDBRANCH  16  20
ENDBRANCH  12  13
ENDBRANCH  10  12
ENDBRANCH   6  10
ENDBRANCH   3   5
TORSDOF 6
ENDMDL
MODEL      303
REMARK 921   NORMALIZED FREE ENERGY PREDICTED BY IDOCK:   -2.18 KCAL/MOL
REMARK 922        TOTAL FREE ENERGY PREDICTED BY IDOCK:   -4.47 KCAL/MOL
REMARK 923 INTER-LIGAND FREE ENERGY PREDICTED BY IDOCK:   -3.07 KCAL/MOL
REMARK 924 INTRA-LIGAND FREE ENERGY PREDICTED BY IDOCK:   -1.40 KCAL/MOL
REMARK 927      BINDING AFFINITY PREDICTED BY RF-SCORE:    0.00 PKD
ROOT
HETATM    1  C   UNL     1      -9.374   7.828  67.024  1.00  0.00    -0.196 C  
HETATM    2  C   UNL     1      -8.491   7.593  65.831  1.00  0.00    -0.150 C  
HETATM    3  C   UNL     1      -8.369   6.383  65.251  1.00  0.00    -0.131 C  
HETATM    4  C   UNL     1      -7.755   8.774  65.267  1.00  0.00    -0.098 C  
ENDROOT
BRANCH   3   5
HETATM    5  C   UNL     1      -9.068   5.153  65.626  1.00  0.00    -0.161 C  
HETATM    6  C   UNL     1      -8.305   3.973  66.203  1.00  0.00    -0.108 C  
HETATM    7  C   UNL     1      -8.924   3.880  64.813  1.00  0.00    -0.131 C  
HETATM    8  C   UNL     1      -7.957   3.797  63.659  1.00  0.00    -0.087 C  
HETATM    9  C   UNL     1     -10.190   3.085  64.580  1.00  0.00     0.061 C  
BRANCH   6  10
HETATM   10  C   UNL     1      -8.893   3.285  67.374  1.00  0.00    -0.134 C  
HETATM   11  O   UNL     1      -8.918   2.068  67.431  1.00  0.00    -0.126 OA 
BRANCH  10  12
HETATM   12  O   UNL     1      -9.384   4.140  68.316  1.00  0.00    -0.137 OA 
BRANCH  12  13
HETATM   13  C   UNL     1      -8.699   4.244  69.594  1.00  0.00    -0.074 C  
HETATM   14  C   UNL     1      -9.588   3.892  70.780  1.00  0.00    -0.259 C  
HETATM   15  C   UNL     1      -9.888   5.254  71.333  1.00  0.00    -0.174 C  
HETATM   16  C   UNL     1      -8.969   6.280  70.778  1.00  0.00    -0.144 C  
HETATM   17  O   UNL     1     -10.735   5.481  72.185  1.00  0.00    -0.219 OA 
HETATM   18  C   UNL     1      -7.116   6.199  69.022  1.00  0.00    -0.081 C  
HETATM   19  C   UNL     1      -8.226   5.651  69.846  1.00  0.00    -0.109 C  
BRANCH  16  20
HETATM   20  C   UNL     1      -9.114   7.711  71.154  1.00  0.00    -0.152 C  
BRANCH  20  21
HETATM   21  C   UNL     1     -10.331   8.340  70.558  1.00  0.00    -0.217 C  
HETATM   22  C   UNL     1     -10.298   9.430  69.777  1.00  0.00    -0.240 C  
ENDBRANCH  20  21
ENDBRANCH  16  20
ENDBRANCH  12  13
ENDBRANCH  10  12
ENDBRANCH   6  10
ENDBRANCH   3   5
TORSDOF 6
ENDMDL
MODEL      304
REMARK 921   NORMALIZED FREE ENERGY PREDICTED BY IDOCK:   -2.17 KCAL/MOL
REMARK 922        TOTAL FREE ENERGY PREDICTED BY IDOCK:   -4.46 KCAL/MOL
REMARK 923 INTER-LIGAND FREE ENERGY PREDICTED BY IDOCK:   -3.91 KCAL/MOL
REMARK 924 INTRA-LIGAND FREE ENERGY PREDICTED BY IDOCK:   -0.54 KCAL/MOL
REMARK 927      BINDING AFFINITY PREDICTED BY RF-SCORE:    0.00 PKD
ROOT
HETATM    1  C   UNL     1     -10.892  13.612  68.115  1.00  0.00    -0.262 C  
HETATM    2  C   UNL     1     -11.536  13.189  66.825  1.00  0.00    -0.386 C  
HETATM    3  C   UNL     1     -11.345  11.967  66.289  1.00  0.00    -0.415 C  
HETATM    4  C   UNL     1     -12.445  14.172  66.145  1.00  0.00    -0.426 C  
ENDROOT
BRANCH   3   5
HETATM    5  C   UNL     1     -10.555  10.872  66.856  1.00  0.00    -0.312 C  
HETATM    6  C   UNL     1      -9.038  10.946  66.887  1.00  0.00    -0.164 C  
HETATM    7  C   UNL     1      -9.738   9.946  65.974  1.00  0.00    -0.310 C  
HETATM    8  C   UNL     1      -9.608  10.193  64.492  1.00  0.00    -0.376 C  
HETATM    9  C   UNL     1      -9.781   8.475  66.325  1.00  0.00    -0.300 C  
BRANCH   6  10
HETATM   10  C   UNL     1      -8.359  10.532  68.135  1.00  0.00    -0.119 C  
HETATM   11  O   UNL     1      -8.031  11.359  68.967  1.00  0.00    -0.115 OA 
BRANCH  10  12
HETATM   12  O   UNL     1      -8.152   9.187  68.220  1.00  0.00    -0.103 OA 
BRANCH  12  13
HETATM   13  C   UNL     1      -6.786   8.688  68.241  1.00  0.00    -0.066 C  
HETATM   14  C   UNL     1      -6.167   8.581  66.852  1.00  0.00    -0.055 C  
HETATM   15  C   UNL     1      -6.233   7.101  66.617  1.00  0.00    -0.039 C  
HETATM   16  C   UNL     1      -6.502   6.363  67.878  1.00  0.00    -0.049 C  
HETATM   17  O   UNL     1      -6.024   6.564  65.539  1.00  0.00    -0.031 OA 
HETATM   18  C   UNL     1      -6.984   7.110  70.272  1.00  0.00    -0.061 C  
HETATM   19  C   UNL     1      -6.721   7.300  68.821  1.00  0.00    -0.067 C  
BRANCH  16  20
HETATM   20  C   UNL     1      -6.653   4.884  67.873  1.00  0.00    -0.050 C  
BRANCH  20  21
HETATM   21  C   UNL     1      -8.084   4.455  67.889  1.00  0.00    -0.094 C  
HETATM   22  C   UNL     1      -8.781   4.148  66.784  1.00  0.00    -0.114 C  
ENDBRANCH  20  21
ENDBRANCH  16  20
ENDBRANCH  12  13
ENDBRANCH  10  12
ENDBRANCH   6  10
ENDBRANCH   3   5
TORSDOF 6
ENDMDL
MODEL      305
REMARK 921   NORMALIZED FREE ENERGY PREDICTED BY IDOCK:   -2.17 KCAL/MOL
REMARK 922        TOTAL FREE ENERGY PREDICTED BY IDOCK:   -4.45 KCAL/MOL
REMARK 923 INTER-LIGAND FREE ENERGY PREDICTED BY IDOCK:   -3.67 KCAL/MOL
REMARK 924 INTRA-LIGAND FREE ENERGY PREDICTED BY IDOCK:   -0.78 KCAL/MOL
REMARK 927      BINDING AFFINITY PREDICTED BY RF-SCORE:    0.00 PKD
ROOT
HETATM    1  C   UNL     1     -11.431  16.100  69.586  1.00  0.00    -0.290 C  
HETATM    2  C   UNL     1     -12.463  15.034  69.823  1.00  0.00    -0.216 C  
HETATM    3  C   UNL     1     -12.389  13.817  69.250  1.00  0.00    -0.185 C  
HETATM    4  C   UNL     1     -13.591  15.354  70.760  1.00  0.00    -0.263 C  
ENDROOT
BRANCH   3   5
HETATM    5  C   UNL     1     -11.324  13.321  68.376  1.00  0.00    -0.326 C  
HETATM    6  C   UNL     1     -10.664  14.238  67.360  1.00  0.00    -0.282 C  
HETATM    7  C   UNL     1     -11.557  13.094  66.893  1.00  0.00    -0.417 C  
HETATM    8  C   UNL     1     -12.857  13.489  66.239  1.00  0.00     0.045 C  
HETATM    9  C   UNL     1     -10.959  11.835  66.304  1.00  0.00    -0.346 C  
BRANCH   6  10
HETATM   10  C   UNL     1      -9.190  14.183  67.246  1.00  0.00    -0.219 C  
HETATM   11  O   UNL     1      -8.616  14.755  66.336  1.00  0.00    -0.144 OA 
BRANCH  10  12
HETATM   12  O   UNL     1      -8.596  13.442  68.225  1.00  0.00    -0.169 OA 
BRANCH  12  13
HETATM   13  C   UNL     1      -7.409  12.670  67.898  1.00  0.00    -0.116 C  
HETATM   14  C   UNL     1      -7.683  11.540  66.912  1.00  0.00    -0.157 C  
HETATM   15  C   UNL     1      -7.665  10.349  67.823  1.00  0.00    -0.089 C  
HETATM   16  C   UNL     1      -7.063  10.681  69.140  1.00  0.00    -0.095 C  
HETATM   17  O   UNL     1      -8.035   9.229  67.500  1.00  0.00    -0.099 OA 
HETATM   18  C   UNL     1      -6.195  12.852  70.167  1.00  0.00    -0.026 C  
HETATM   19  C   UNL     1      -6.834  12.008  69.122  1.00  0.00    -0.090 C  
BRANCH  16  20
HETATM   20  C   UNL     1      -6.984   9.659  70.217  1.00  0.00    -0.119 C  
BRANCH  20  21
HETATM   21  C   UNL     1      -5.631   9.032  70.313  1.00  0.00    -0.030 C  
HETATM   22  C   UNL     1      -5.161   8.138  69.431  1.00  0.00    -0.030 C  
ENDBRANCH  20  21
ENDBRANCH  16  20
ENDBRANCH  12  13
ENDBRANCH  10  12
ENDBRANCH   6  10
ENDBRANCH   3   5
TORSDOF 6
ENDMDL
MODEL      306
REMARK 921   NORMALIZED FREE ENERGY PREDICTED BY IDOCK:   -2.16 KCAL/MOL
REMARK 922        TOTAL FREE ENERGY PREDICTED BY IDOCK:   -4.43 KCAL/MOL
REMARK 923 INTER-LIGAND FREE ENERGY PREDICTED BY IDOCK:   -5.18 KCAL/MOL
REMARK 924 INTRA-LIGAND FREE ENERGY PREDICTED BY IDOCK:    0.75 KCAL/MOL
REMARK 927      BINDING AFFINITY PREDICTED BY RF-SCORE:    0.00 PKD
ROOT
HETATM    1  C   UNL     1     -14.143  13.444  72.249  1.00  0.00    -0.515 C  
HETATM    2  C   UNL     1     -13.247  14.648  72.158  1.00  0.00    -0.450 C  
HETATM    3  C   UNL     1     -12.480  14.896  71.079  1.00  0.00    -0.396 C  
HETATM    4  C   UNL     1     -13.251  15.607  73.313  1.00  0.00    -0.666 C  
ENDROOT
BRANCH   3   5
HETATM    5  C   UNL     1     -12.414  14.109  69.846  1.00  0.00    -0.313 C  
HETATM    6  C   UNL     1     -11.078  13.636  69.299  1.00  0.00    -0.241 C  
HETATM    7  C   UNL     1     -11.878  14.701  68.556  1.00  0.00    -0.346 C  
HETATM    8  C   UNL     1     -11.276  16.083  68.523  1.00  0.00    -0.374 C  
HETATM    9  C   UNL     1     -12.638  14.359  67.293  1.00  0.00     0.390 C  
BRANCH   6  10
HETATM   10  C   UNL     1     -10.992  12.239  68.819  1.00  0.00    -0.236 C  
HETATM   11  O   UNL     1     -11.887  11.758  68.146  1.00  0.00    -0.451 OA 
BRANCH  10  12
HETATM   12  O   UNL     1      -9.856  11.597  69.215  1.00  0.00     0.079 OA 
BRANCH  12  13
HETATM   13  C   UNL     1      -8.709  11.587  68.322  1.00  0.00    -0.162 C  
HETATM   14  C   UNL     1      -7.377  11.647  69.059  1.00  0.00    -0.074 C  
HETATM   15  C   UNL     1      -6.981  13.076  68.831  1.00  0.00    -0.088 C  
HETATM   16  C   UNL     1      -7.792  13.698  67.752  1.00  0.00    -0.172 C  
HETATM   17  O   UNL     1      -6.063  13.638  69.410  1.00  0.00    -0.093 OA 
HETATM   18  C   UNL     1      -9.752  12.869  66.341  1.00  0.00    -0.263 C  
HETATM   19  C   UNL     1      -8.719  12.783  67.407  1.00  0.00    -0.196 C  
BRANCH  16  20
HETATM   20  C   UNL     1      -7.600  15.126  67.387  1.00  0.00    -0.232 C  
BRANCH  20  21
HETATM   21  C   UNL     1      -7.672  16.034  68.571  1.00  0.00    -0.158 C  
HETATM   22  C   UNL     1      -7.070  17.232  68.628  1.00  0.00    -0.227 C  
ENDBRANCH  20  21
ENDBRANCH  16  20
ENDBRANCH  12  13
ENDBRANCH  10  12
ENDBRANCH   6  10
ENDBRANCH   3   5
TORSDOF 6
ENDMDL
MODEL      307
REMARK 921   NORMALIZED FREE ENERGY PREDICTED BY IDOCK:   -2.14 KCAL/MOL
REMARK 922        TOTAL FREE ENERGY PREDICTED BY IDOCK:   -4.41 KCAL/MOL
REMARK 923 INTER-LIGAND FREE ENERGY PREDICTED BY IDOCK:   -2.90 KCAL/MOL
REMARK 924 INTRA-LIGAND FREE ENERGY PREDICTED BY IDOCK:   -1.51 KCAL/MOL
REMARK 927      BINDING AFFINITY PREDICTED BY RF-SCORE:    0.00 PKD
ROOT
HETATM    1  C   UNL     1      -8.436   8.361  66.584  1.00  0.00    -0.113 C  
HETATM    2  C   UNL     1      -7.857   8.071  65.228  1.00  0.00    -0.113 C  
HETATM    3  C   UNL     1      -7.686   6.816  64.770  1.00  0.00    -0.111 C  
HETATM    4  C   UNL     1      -7.495   9.243  64.361  1.00  0.00    -0.106 C  
ENDROOT
BRANCH   3   5
HETATM    5  C   UNL     1      -8.053   5.573  65.451  1.00  0.00    -0.123 C  
HETATM    6  C   UNL     1      -6.986   4.584  65.887  1.00  0.00    -0.063 C  
HETATM    7  C   UNL     1      -7.946   4.228  64.757  1.00  0.00    -0.090 C  
HETATM    8  C   UNL     1      -7.339   4.106  63.383  1.00  0.00    -0.050 C  
HETATM    9  C   UNL     1      -9.087   3.261  64.986  1.00  0.00    -0.143 C  
BRANCH   6  10
HETATM   10  C   UNL     1      -7.110   3.997  67.240  1.00  0.00    -0.063 C  
HETATM   11  O   UNL     1      -6.578   2.934  67.506  1.00  0.00    -0.036 OA 
BRANCH  10  12
HETATM   12  O   UNL     1      -7.862   4.750  68.092  1.00  0.00    -0.081 OA 
BRANCH  12  13
HETATM   13  C   UNL     1      -9.064   4.169  68.667  1.00  0.00    -0.133 C  
HETATM   14  C   UNL     1     -10.343   4.852  68.196  1.00  0.00    -0.035 C  
HETATM   15  C   UNL     1     -10.697   5.670  69.402  1.00  0.00    -0.295 C  
HETATM   16  C   UNL     1      -9.935   5.231  70.600  1.00  0.00    -0.287 C  
HETATM   17  O   UNL     1     -11.554   6.543  69.416  1.00  0.00    -0.339 OA 
HETATM   18  C   UNL     1      -8.103   3.489  70.962  1.00  0.00    -0.070 C  
HETATM   19  C   UNL     1      -9.068   4.295  70.167  1.00  0.00    -0.174 C  
BRANCH  16  20
HETATM   20  C   UNL     1     -10.095   5.933  71.900  1.00  0.00    -0.222 C  
BRANCH  20  21
HETATM   21  C   UNL     1      -9.050   6.979  72.118  1.00  0.00    -0.141 C  
HETATM   22  C   UNL     1      -8.069   6.872  73.026  1.00  0.00    -0.115 C  
ENDBRANCH  20  21
ENDBRANCH  16  20
ENDBRANCH  12  13
ENDBRANCH  10  12
ENDBRANCH   6  10
ENDBRANCH   3   5
TORSDOF 6
ENDMDL
MODEL      308
REMARK 921   NORMALIZED FREE ENERGY PREDICTED BY IDOCK:   -2.12 KCAL/MOL
REMARK 922        TOTAL FREE ENERGY PREDICTED BY IDOCK:   -4.39 KCAL/MOL
REMARK 923 INTER-LIGAND FREE ENERGY PREDICTED BY IDOCK:   -5.29 KCAL/MOL
REMARK 924 INTRA-LIGAND FREE ENERGY PREDICTED BY IDOCK:    0.91 KCAL/MOL
REMARK 927      BINDING AFFINITY PREDICTED BY RF-SCORE:    0.00 PKD
ROOT
HETATM    1  C   UNL     1     -13.080  12.870  71.503  1.00  0.00    -0.390 C  
HETATM    2  C   UNL     1     -12.646  14.031  70.653  1.00  0.00    -0.414 C  
HETATM    3  C   UNL     1     -12.101  13.867  69.432  1.00  0.00    -0.384 C  
HETATM    4  C   UNL     1     -12.867  15.413  71.196  1.00  0.00    -0.520 C  
ENDROOT
BRANCH   3   5
HETATM    5  C   UNL     1     -11.886  12.601  68.728  1.00  0.00    -0.341 C  
HETATM    6  C   UNL     1     -10.515  11.946  68.712  1.00  0.00    -0.207 C  
HETATM    7  C   UNL     1     -11.097  12.539  67.433  1.00  0.00    -0.317 C  
HETATM    8  C   UNL     1     -10.398  13.758  66.887  1.00  0.00    -0.266 C  
HETATM    9  C   UNL     1     -11.655  11.644  66.349  1.00  0.00    -0.140 C  
BRANCH   6  10
HETATM   10  C   UNL     1     -10.452  10.486  68.945  1.00  0.00    -0.206 C  
HETATM   11  O   UNL     1     -11.178   9.728  68.327  1.00  0.00    -0.155 OA 
BRANCH  10  12
HETATM   12  O   UNL     1      -9.541  10.126  69.893  1.00  0.00    -0.213 OA 
BRANCH  12  13
HETATM   13  C   UNL     1      -8.751   8.924  69.685  1.00  0.00    -0.140 C  
HETATM   14  C   UNL     1      -7.919   8.967  68.410  1.00  0.00    -0.104 C  
HETATM   15  C   UNL     1      -8.714   8.065  67.513  1.00  0.00    -0.125 C  
HETATM   16  C   UNL     1      -9.698   7.263  68.283  1.00  0.00    -0.152 C  
HETATM   17  O   UNL     1      -8.529   7.953  66.309  1.00  0.00    -0.121 OA 
HETATM   18  C   UNL     1     -10.366   7.215  70.748  1.00  0.00    -0.219 C  
HETATM   19  C   UNL     1      -9.631   7.709  69.553  1.00  0.00    -0.163 C  
BRANCH  16  20
HETATM   20  C   UNL     1     -10.627   6.331  67.590  1.00  0.00    -0.339 C  
BRANCH  20  21
HETATM   21  C   UNL     1      -9.991   5.016  67.279  1.00  0.00    -0.220 C  
HETATM   22  C   UNL     1      -9.100   4.412  68.080  1.00  0.00    -0.158 C  
ENDBRANCH  20  21
ENDBRANCH  16  20
ENDBRANCH  12  13
ENDBRANCH  10  12
ENDBRANCH   6  10
ENDBRANCH   3   5
TORSDOF 6
ENDMDL
MODEL      309
REMARK 921   NORMALIZED FREE ENERGY PREDICTED BY IDOCK:   -2.03 KCAL/MOL
REMARK 922        TOTAL FREE ENERGY PREDICTED BY IDOCK:   -4.27 KCAL/MOL
REMARK 923 INTER-LIGAND FREE ENERGY PREDICTED BY IDOCK:   -3.80 KCAL/MOL
REMARK 924 INTRA-LIGAND FREE ENERGY PREDICTED BY IDOCK:   -0.47 KCAL/MOL
REMARK 927      BINDING AFFINITY PREDICTED BY RF-SCORE:    0.00 PKD
ROOT
HETATM    1  C   UNL     1      -7.833  12.713  68.647  1.00  0.00    -0.043 C  
HETATM    2  C   UNL     1      -7.144  11.831  67.644  1.00  0.00    -0.107 C  
HETATM    3  C   UNL     1      -7.700  10.696  67.179  1.00  0.00    -0.110 C  
HETATM    4  C   UNL     1      -5.802  12.272  67.135  1.00  0.00    -0.111 C  
ENDROOT
BRANCH   3   5
HETATM    5  C   UNL     1      -9.024  10.165  67.512  1.00  0.00    -0.136 C  
HETATM    6  C   UNL     1      -9.657   9.075  66.664  1.00  0.00    -0.274 C  
HETATM    7  C   UNL     1     -10.241  10.484  66.665  1.00  0.00    -0.289 C  
HETATM    8  C   UNL     1     -10.114  11.258  65.376  1.00  0.00    -0.314 C  
HETATM    9  C   UNL     1     -11.519  10.793  67.414  1.00  0.00    -0.113 C  
BRANCH   6  10
HETATM   10  C   UNL     1     -10.311   7.952  67.371  1.00  0.00    -0.279 C  
HETATM   11  O   UNL     1     -11.029   7.174  66.769  1.00  0.00    -0.305 OA 
BRANCH  10  12
HETATM   12  O   UNL     1     -10.031   7.913  68.705  1.00  0.00    -0.179 OA 
BRANCH  12  13
HETATM   13  C   UNL     1      -8.775   7.326  69.141  1.00  0.00    -0.136 C  
HETATM   14  C   UNL     1      -8.765   5.804  69.060  1.00  0.00    -0.112 C  
HETATM   15  C   UNL     1      -8.927   5.435  70.505  1.00  0.00    -0.134 C  
HETATM   16  C   UNL     1      -8.671   6.597  71.394  1.00  0.00    -0.129 C  
HETATM   17  O   UNL     1      -9.171   4.306  70.905  1.00  0.00    -0.118 OA 
HETATM   18  C   UNL     1      -8.148   9.056  70.949  1.00  0.00    -0.203 C  
HETATM   19  C   UNL     1      -8.489   7.656  70.582  1.00  0.00    -0.127 C  
BRANCH  16  20
HETATM   20  C   UNL     1      -8.819   6.471  72.868  1.00  0.00    -0.127 C  
BRANCH  20  21
HETATM   21  C   UNL     1      -9.634   5.282  73.262  1.00  0.00    -0.151 C  
HETATM   22  C   UNL     1     -10.658   5.336  74.126  1.00  0.00    -0.301 C  
ENDBRANCH  20  21
ENDBRANCH  16  20
ENDBRANCH  12  13
ENDBRANCH  10  12
ENDBRANCH   6  10
ENDBRANCH   3   5
TORSDOF 6
ENDMDL
MODEL      310
REMARK 921   NORMALIZED FREE ENERGY PREDICTED BY IDOCK:   -1.92 KCAL/MOL
REMARK 922        TOTAL FREE ENERGY PREDICTED BY IDOCK:   -4.11 KCAL/MOL
REMARK 923 INTER-LIGAND FREE ENERGY PREDICTED BY IDOCK:   -3.40 KCAL/MOL
REMARK 924 INTRA-LIGAND FREE ENERGY PREDICTED BY IDOCK:   -0.72 KCAL/MOL
REMARK 927      BINDING AFFINITY PREDICTED BY RF-SCORE:    0.00 PKD
ROOT
HETATM    1  C   UNL     1      -9.223  17.177  66.206  1.00  0.00    -0.260 C  
HETATM    2  C   UNL     1      -8.971  18.249  67.229  1.00  0.00    -0.259 C  
HETATM    3  C   UNL     1      -8.156  18.061  68.286  1.00  0.00    -0.296 C  
HETATM    4  C   UNL     1      -9.639  19.578  67.025  1.00  0.00    -0.433 C  
ENDROOT
BRANCH   3   5
HETATM    5  C   UNL     1      -7.375  16.860  68.591  1.00  0.00    -0.222 C  
HETATM    6  C   UNL     1      -7.607  15.569  67.825  1.00  0.00    -0.162 C  
HETATM    7  C   UNL     1      -7.997  15.669  69.296  1.00  0.00    -0.237 C  
HETATM    8  C   UNL     1      -9.474  15.624  69.597  1.00  0.00    -0.243 C  
HETATM    9  C   UNL     1      -7.156  15.008  70.366  1.00  0.00     0.296 C  
BRANCH   6  10
HETATM   10  C   UNL     1      -6.414  14.817  67.376  1.00  0.00     0.066 C  
HETATM   11  O   UNL     1      -5.314  15.341  67.377  1.00  0.00    -0.336 OA 
BRANCH  10  12
HETATM   12  O   UNL     1      -6.694  13.544  66.974  1.00  0.00    -0.048 OA 
BRANCH  12  13
HETATM   13  C   UNL     1      -6.793  12.498  67.978  1.00  0.00    -0.094 C  
HETATM   14  C   UNL     1      -5.638  11.505  67.925  1.00  0.00    -0.045 C  
HETATM   15  C   UNL     1      -6.297  10.327  67.272  1.00  0.00    -0.066 C  
HETATM   16  C   UNL     1      -7.778  10.455  67.287  1.00  0.00    -0.099 C  
HETATM   17  O   UNL     1      -5.698   9.351  66.844  1.00  0.00    -0.049 OA 
HETATM   18  C   UNL     1      -9.363  12.297  68.071  1.00  0.00    -0.195 C  
HETATM   19  C   UNL     1      -8.041  11.677  67.790  1.00  0.00    -0.139 C  
BRANCH  16  20
HETATM   20  C   UNL     1      -8.635   9.420  66.652  1.00  0.00    -0.138 C  
BRANCH  20  21
HETATM   21  C   UNL     1      -9.004   9.766  65.246  1.00  0.00    -0.233 C  
HETATM   22  C   UNL     1      -8.412   9.229  64.168  1.00  0.00    -0.203 C  
ENDBRANCH  20  21
ENDBRANCH  16  20
ENDBRANCH  12  13
ENDBRANCH  10  12
ENDBRANCH   6  10
ENDBRANCH   3   5
TORSDOF 6
ENDMDL
MODEL      311
REMARK 921   NORMALIZED FREE ENERGY PREDICTED BY IDOCK:   -1.90 KCAL/MOL
REMARK 922        TOTAL FREE ENERGY PREDICTED BY IDOCK:   -4.09 KCAL/MOL
REMARK 923 INTER-LIGAND FREE ENERGY PREDICTED BY IDOCK:   -4.55 KCAL/MOL
REMARK 924 INTRA-LIGAND FREE ENERGY PREDICTED BY IDOCK:    0.47 KCAL/MOL
REMARK 927      BINDING AFFINITY PREDICTED BY RF-SCORE:    0.00 PKD
ROOT
HETATM    1  C   UNL     1      -9.530   3.485  70.257  1.00  0.00    -0.254 C  
HETATM    2  C   UNL     1      -9.859   3.218  71.699  1.00  0.00    -0.220 C  
HETATM    3  C   UNL     1     -10.332   4.175  72.520  1.00  0.00    -0.228 C  
HETATM    4  C   UNL     1      -9.674   1.818  72.208  1.00  0.00    -0.178 C  
ENDROOT
BRANCH   3   5
HETATM    5  C   UNL     1     -10.639   5.563  72.168  1.00  0.00    -0.280 C  
HETATM    6  C   UNL     1     -10.161   6.152  70.852  1.00  0.00    -0.250 C  
HETATM    7  C   UNL     1      -9.566   6.636  72.170  1.00  0.00    -0.149 C  
HETATM    8  C   UNL     1      -8.118   6.291  72.412  1.00  0.00    -0.104 C  
HETATM    9  C   UNL     1      -9.957   7.977  72.751  1.00  0.00    -0.364 C  
BRANCH   6  10
HETATM   10  C   UNL     1     -11.125   6.966  70.078  1.00  0.00    -0.299 C  
HETATM   11  O   UNL     1     -11.439   8.081  70.456  1.00  0.00    -0.264 OA 
BRANCH  10  12
HETATM   12  O   UNL     1     -11.595   6.338  68.963  1.00  0.00    -0.278 OA 
BRANCH  12  13
HETATM   13  C   UNL     1     -10.901   6.536  67.701  1.00  0.00    -0.337 C  
HETATM   14  C   UNL     1      -9.927   5.411  67.371  1.00  0.00    -0.198 C  
HETATM   15  C   UNL     1      -8.613   6.062  67.686  1.00  0.00    -0.106 C  
HETATM   16  C   UNL     1      -8.755   7.536  67.818  1.00  0.00    -0.123 C  
HETATM   17  O   UNL     1      -7.548   5.467  67.757  1.00  0.00    -0.086 OA 
HETATM   18  C   UNL     1     -10.762   9.112  67.739  1.00  0.00    -0.243 C  
HETATM   19  C   UNL     1     -10.074   7.794  67.725  1.00  0.00    -0.242 C  
BRANCH  16  20
HETATM   20  C   UNL     1      -7.584   8.381  68.173  1.00  0.00    -0.098 C  
BRANCH  20  21
HETATM   21  C   UNL     1      -7.479   8.624  69.643  1.00  0.00    -0.068 C  
HETATM   22  C   UNL     1      -7.718   9.812  70.220  1.00  0.00    -0.187 C  
ENDBRANCH  20  21
ENDBRANCH  16  20
ENDBRANCH  12  13
ENDBRANCH  10  12
ENDBRANCH   6  10
ENDBRANCH   3   5
TORSDOF 6
ENDMDL
MODEL      312
REMARK 921   NORMALIZED FREE ENERGY PREDICTED BY IDOCK:   -1.88 KCAL/MOL
REMARK 922        TOTAL FREE ENERGY PREDICTED BY IDOCK:   -4.05 KCAL/MOL
REMARK 923 INTER-LIGAND FREE ENERGY PREDICTED BY IDOCK:   -3.02 KCAL/MOL
REMARK 924 INTRA-LIGAND FREE ENERGY PREDICTED BY IDOCK:   -1.03 KCAL/MOL
REMARK 927      BINDING AFFINITY PREDICTED BY RF-SCORE:    0.00 PKD
ROOT
HETATM    1  C   UNL     1      -7.839   1.756  66.941  1.00  0.00    -0.066 C  
HETATM    2  C   UNL     1      -8.345   2.500  65.737  1.00  0.00    -0.092 C  
HETATM    3  C   UNL     1      -8.049   3.795  65.512  1.00  0.00    -0.097 C  
HETATM    4  C   UNL     1      -9.184   1.740  64.751  1.00  0.00    -0.124 C  
ENDROOT
BRANCH   3   5
HETATM    5  C   UNL     1      -7.191   4.656  66.328  1.00  0.00    -0.076 C  
HETATM    6  C   UNL     1      -7.788   5.556  67.397  1.00  0.00    -0.101 C  
HETATM    7  C   UNL     1      -7.171   6.161  66.140  1.00  0.00    -0.076 C  
HETATM    8  C   UNL     1      -8.126   6.842  65.192  1.00  0.00    -0.132 C  
HETATM    9  C   UNL     1      -5.813   6.826  66.187  1.00  0.00    -0.030 C  
BRANCH   6  10
HETATM   10  C   UNL     1      -7.106   5.603  68.709  1.00  0.00    -0.072 C  
HETATM   11  O   UNL     1      -6.675   4.584  69.221  1.00  0.00    -0.043 OA 
BRANCH  10  12
HETATM   12  O   UNL     1      -7.039   6.856  69.242  1.00  0.00    -0.078 OA 
BRANCH  12  13
HETATM   13  C   UNL     1      -8.145   7.331  70.057  1.00  0.00    -0.130 C  
HETATM   14  C   UNL     1      -9.243   6.290  70.243  1.00  0.00    -0.163 C  
HETATM   15  C   UNL     1     -10.294   6.806  69.305  1.00  0.00    -0.200 C  
HETATM   16  C   UNL     1     -10.017   8.207  68.896  1.00  0.00    -0.198 C  
HETATM   17  O   UNL     1     -11.289   6.178  68.972  1.00  0.00    -0.390 OA 
HETATM   18  C   UNL     1      -8.091   9.816  69.366  1.00  0.00    -0.129 C  
HETATM   19  C   UNL     1      -8.818   8.520  69.424  1.00  0.00    -0.141 C  
BRANCH  16  20
HETATM   20  C   UNL     1     -10.908   8.905  67.931  1.00  0.00    -0.096 C  
BRANCH  20  21
HETATM   21  C   UNL     1     -10.228   9.197  66.633  1.00  0.00    -0.328 C  
HETATM   22  C   UNL     1     -10.295  10.383  66.009  1.00  0.00    -0.262 C  
ENDBRANCH  20  21
ENDBRANCH  16  20
ENDBRANCH  12  13
ENDBRANCH  10  12
ENDBRANCH   6  10
ENDBRANCH   3   5
TORSDOF 6
ENDMDL
MODEL      313
REMARK 921   NORMALIZED FREE ENERGY PREDICTED BY IDOCK:   -1.76 KCAL/MOL
REMARK 922        TOTAL FREE ENERGY PREDICTED BY IDOCK:   -3.90 KCAL/MOL
REMARK 923 INTER-LIGAND FREE ENERGY PREDICTED BY IDOCK:   -3.98 KCAL/MOL
REMARK 924 INTRA-LIGAND FREE ENERGY PREDICTED BY IDOCK:    0.08 KCAL/MOL
REMARK 927      BINDING AFFINITY PREDICTED BY RF-SCORE:    0.00 PKD
ROOT
HETATM    1  C   UNL     1     -10.215  14.725  69.972  1.00  0.00     0.147 C  
HETATM    2  C   UNL     1     -11.661  14.663  69.568  1.00  0.00    -0.350 C  
HETATM    3  C   UNL     1     -12.115  13.798  68.640  1.00  0.00    -0.333 C  
HETATM    4  C   UNL     1     -12.618  15.587  70.264  1.00  0.00    -0.362 C  
ENDROOT
BRANCH   3   5
HETATM    5  C   UNL     1     -11.334  12.786  67.926  1.00  0.00    -0.339 C  
HETATM    6  C   UNL     1      -9.979  13.129  67.331  1.00  0.00    -0.229 C  
HETATM    7  C   UNL     1     -11.165  12.835  66.418  1.00  0.00    -0.339 C  
HETATM    8  C   UNL     1     -11.687  13.997  65.612  1.00  0.00    -0.356 C  
HETATM    9  C   UNL     1     -11.271  11.515  65.687  1.00  0.00    -0.212 C  
BRANCH   6  10
HETATM   10  C   UNL     1      -8.880  12.158  67.531  1.00  0.00    -0.175 C  
HETATM   11  O   UNL     1      -7.782  12.355  67.041  1.00  0.00    -0.144 OA 
BRANCH  10  12
HETATM   12  O   UNL     1      -9.240  11.076  68.278  1.00  0.00    -0.152 OA 
BRANCH  12  13
HETATM   13  C   UNL     1      -9.407   9.792  67.618  1.00  0.00    -0.140 C  
HETATM   14  C   UNL     1     -10.351   8.855  68.362  1.00  0.00    -0.237 C  
HETATM   15  C   UNL     1      -9.378   7.903  68.993  1.00  0.00    -0.151 C  
HETATM   16  C   UNL     1      -8.029   8.020  68.382  1.00  0.00    -0.120 C  
HETATM   17  O   UNL     1      -9.672   7.085  69.853  1.00  0.00    -0.163 OA 
HETATM   18  C   UNL     1      -7.044   9.569  66.607  1.00  0.00    -0.086 C  
HETATM   19  C   UNL     1      -8.098   9.054  67.520  1.00  0.00    -0.108 C  
BRANCH  16  20
HETATM   20  C   UNL     1      -6.894   7.201  68.884  1.00  0.00    -0.069 C  
BRANCH  20  21
HETATM   21  C   UNL     1      -6.626   6.008  68.026  1.00  0.00    -0.055 C  
HETATM   22  C   UNL     1      -5.397   5.528  67.783  1.00  0.00    -0.004 C  
ENDBRANCH  20  21
ENDBRANCH  16  20
ENDBRANCH  12  13
ENDBRANCH  10  12
ENDBRANCH   6  10
ENDBRANCH   3   5
TORSDOF 6
ENDMDL
MODEL      314
REMARK 921   NORMALIZED FREE ENERGY PREDICTED BY IDOCK:   -1.68 KCAL/MOL
REMARK 922        TOTAL FREE ENERGY PREDICTED BY IDOCK:   -3.79 KCAL/MOL
REMARK 923 INTER-LIGAND FREE ENERGY PREDICTED BY IDOCK:   -3.39 KCAL/MOL
REMARK 924 INTRA-LIGAND FREE ENERGY PREDICTED BY IDOCK:   -0.40 KCAL/MOL
REMARK 927      BINDING AFFINITY PREDICTED BY RF-SCORE:    0.00 PKD
ROOT
HETATM    1  C   UNL     1      -8.138  15.827  66.466  1.00  0.00    -0.231 C  
HETATM    2  C   UNL     1      -7.825  16.685  67.659  1.00  0.00    -0.189 C  
HETATM    3  C   UNL     1      -8.305  16.414  68.888  1.00  0.00    -0.234 C  
HETATM    4  C   UNL     1      -6.915  17.861  67.451  1.00  0.00    -0.200 C  
ENDROOT
BRANCH   3   5
HETATM    5  C   UNL     1      -9.138  15.274  69.276  1.00  0.00    -0.240 C  
HETATM    6  C   UNL     1     -10.019  14.575  68.254  1.00  0.00    -0.229 C  
HETATM    7  C   UNL     1     -10.647  15.393  69.377  1.00  0.00    -0.251 C  
HETATM    8  C   UNL     1     -11.359  16.656  68.961  1.00  0.00    -0.090 C  
HETATM    9  C   UNL     1     -11.297  14.712  70.561  1.00  0.00    -0.209 C  
BRANCH   6  10
HETATM   10  C   UNL     1     -10.028  13.095  68.258  1.00  0.00    -0.236 C  
HETATM   11  O   UNL     1     -11.061  12.481  68.056  1.00  0.00    -0.220 OA 
BRANCH  10  12
HETATM   12  O   UNL     1      -8.807  12.545  68.516  1.00  0.00    -0.146 OA 
BRANCH  12  13
HETATM   13  C   UNL     1      -7.947  12.195  67.398  1.00  0.00    -0.168 C  
HETATM   14  C   UNL     1      -8.653  11.360  66.336  1.00  0.00    -0.174 C  
HETATM   15  C   UNL     1      -8.094   9.997  66.619  1.00  0.00    -0.118 C  
HETATM   16  C   UNL     1      -6.896  10.071  67.494  1.00  0.00    -0.081 C  
HETATM   17  O   UNL     1      -8.527   8.960  66.135  1.00  0.00    -0.116 OA 
HETATM   18  C   UNL     1      -5.715  12.001  68.677  1.00  0.00    -0.052 C  
HETATM   19  C   UNL     1      -6.774  11.365  67.851  1.00  0.00    -0.064 C  
BRANCH  16  20
HETATM   20  C   UNL     1      -6.204   8.833  67.940  1.00  0.00    -0.052 C  
BRANCH  20  21
HETATM   21  C   UNL     1      -6.272   8.641  69.419  1.00  0.00    -0.041 C  
HETATM   22  C   UNL     1      -6.899   7.612  70.008  1.00  0.00    -0.050 C  
ENDBRANCH  20  21
ENDBRANCH  16  20
ENDBRANCH  12  13
ENDBRANCH  10  12
ENDBRANCH   6  10
ENDBRANCH   3   5
TORSDOF 6
ENDMDL
MODEL      315
REMARK 921   NORMALIZED FREE ENERGY PREDICTED BY IDOCK:   -1.64 KCAL/MOL
REMARK 922        TOTAL FREE ENERGY PREDICTED BY IDOCK:   -3.73 KCAL/MOL
REMARK 923 INTER-LIGAND FREE ENERGY PREDICTED BY IDOCK:   -3.82 KCAL/MOL
REMARK 924 INTRA-LIGAND FREE ENERGY PREDICTED BY IDOCK:    0.08 KCAL/MOL
REMARK 927      BINDING AFFINITY PREDICTED BY RF-SCORE:    0.00 PKD
ROOT
HETATM    1  C   UNL     1      -5.777  13.076  69.762  1.00  0.00    -0.114 C  
HETATM    2  C   UNL     1      -7.037  13.233  68.959  1.00  0.00    -0.044 C  
HETATM    3  C   UNL     1      -7.497  12.266  68.141  1.00  0.00    -0.112 C  
HETATM    4  C   UNL     1      -7.809  14.511  69.117  1.00  0.00    -0.071 C  
ENDROOT
BRANCH   3   5
HETATM    5  C   UNL     1      -6.911  10.941  67.929  1.00  0.00    -0.068 C  
HETATM    6  C   UNL     1      -7.798   9.727  67.714  1.00  0.00    -0.094 C  
HETATM    7  C   UNL     1      -6.983   9.864  68.996  1.00  0.00    -0.059 C  
HETATM    8  C   UNL     1      -7.769  10.074  70.265  1.00  0.00    -0.093 C  
HETATM    9  C   UNL     1      -5.729   9.044  69.207  1.00  0.00    -0.035 C  
BRANCH   6  10
HETATM   10  C   UNL     1      -7.419   8.786  66.637  1.00  0.00    -0.085 C  
HETATM   11  O   UNL     1      -7.078   7.646  66.901  1.00  0.00    -0.079 OA 
BRANCH  10  12
HETATM   12  O   UNL     1      -7.484   9.333  65.390  1.00  0.00    -0.095 OA 
BRANCH  12  13
HETATM   13  C   UNL     1      -8.720   9.211  64.635  1.00  0.00    -0.166 C  
HETATM   14  C   UNL     1      -8.694   9.974  63.315  1.00  0.00    -0.223 C  
HETATM   15  C   UNL     1      -9.537  11.167  63.653  1.00  0.00    -0.288 C  
HETATM   16  C   UNL     1     -10.305  10.953  64.907  1.00  0.00    -0.371 C  
HETATM   17  O   UNL     1      -9.636  12.163  62.950  1.00  0.00    -0.247 OA 
HETATM   18  C   UNL     1     -10.367   9.056  66.615  1.00  0.00    -0.289 C  
HETATM   19  C   UNL     1      -9.887   9.772  65.403  1.00  0.00    -0.365 C  
BRANCH  16  20
HETATM   20  C   UNL     1     -11.175  12.026  65.456  1.00  0.00    -0.372 C  
BRANCH  20  21
HETATM   21  C   UNL     1     -10.644  12.598  66.730  1.00  0.00    -0.254 C  
HETATM   22  C   UNL     1     -10.850  13.866  67.119  1.00  0.00    -0.288 C  
ENDBRANCH  20  21
ENDBRANCH  16  20
ENDBRANCH  12  13
ENDBRANCH  10  12
ENDBRANCH   6  10
ENDBRANCH   3   5
TORSDOF 6
ENDMDL
MODEL      316
REMARK 921   NORMALIZED FREE ENERGY PREDICTED BY IDOCK:   -1.47 KCAL/MOL
REMARK 922        TOTAL FREE ENERGY PREDICTED BY IDOCK:   -3.51 KCAL/MOL
REMARK 923 INTER-LIGAND FREE ENERGY PREDICTED BY IDOCK:   -3.27 KCAL/MOL
REMARK 924 INTRA-LIGAND FREE ENERGY PREDICTED BY IDOCK:   -0.24 KCAL/MOL
REMARK 927      BINDING AFFINITY PREDICTED BY RF-SCORE:    0.00 PKD
ROOT
HETATM    1  C   UNL     1     -11.809  14.181  64.260  1.00  0.00    -0.420 C  
HETATM    2  C   UNL     1     -11.965  12.692  64.394  1.00  0.00    -0.469 C  
HETATM    3  C   UNL     1     -11.069  11.929  65.050  1.00  0.00    -0.360 C  
HETATM    4  C   UNL     1     -13.189  12.064  63.794  1.00  0.00    -0.001 C  
ENDROOT
BRANCH   3   5
HETATM    5  C   UNL     1      -9.869  12.389  65.752  1.00  0.00    -0.253 C  
HETATM    6  C   UNL     1      -9.326  11.620  66.944  1.00  0.00    -0.195 C  
HETATM    7  C   UNL     1      -9.948  12.999  67.139  1.00  0.00    -0.235 C  
HETATM    8  C   UNL     1     -11.249  13.040  67.901  1.00  0.00    -0.304 C  
HETATM    9  C   UNL     1      -9.079  14.212  67.390  1.00  0.00    -0.199 C  
BRANCH   6  10
HETATM   10  C   UNL     1      -7.864  11.400  67.007  1.00  0.00    -0.158 C  
HETATM   11  O   UNL     1      -7.250  11.028  66.022  1.00  0.00    -0.109 OA 
BRANCH  10  12
HETATM   12  O   UNL     1      -7.330  11.641  68.238  1.00  0.00    -0.081 OA 
BRANCH  12  13
HETATM   13  C   UNL     1      -5.945  11.279  68.485  1.00  0.00    -0.042 C  
HETATM   14  C   UNL     1      -5.505  10.036  67.721  1.00  0.00    -0.038 C  
HETATM   15  C   UNL     1      -5.504   9.008  68.815  1.00  0.00    -0.040 C  
HETATM   16  C   UNL     1      -5.557   9.644  70.157  1.00  0.00    -0.041 C  
HETATM   17  O   UNL     1      -5.402   7.804  68.630  1.00  0.00    -0.025 OA 
HETATM   18  C   UNL     1      -5.772  12.066  70.936  1.00  0.00    -0.009 C  
HETATM   19  C   UNL     1      -5.713  10.964  69.939  1.00  0.00    -0.067 C  
BRANCH  16  20
HETATM   20  C   UNL     1      -5.611   8.812  71.388  1.00  0.00    -0.042 C  
BRANCH  20  21
HETATM   21  C   UNL     1      -7.008   8.455  71.778  1.00  0.00    -0.093 C  
HETATM   22  C   UNL     1      -7.468   7.196  71.825  1.00  0.00    -0.086 C  
ENDBRANCH  20  21
ENDBRANCH  16  20
ENDBRANCH  12  13
ENDBRANCH  10  12
ENDBRANCH   6  10
ENDBRANCH   3   5
TORSDOF 6
ENDMDL
MODEL      317
REMARK 921   NORMALIZED FREE ENERGY PREDICTED BY IDOCK:   -1.39 KCAL/MOL
REMARK 922        TOTAL FREE ENERGY PREDICTED BY IDOCK:   -3.39 KCAL/MOL
REMARK 923 INTER-LIGAND FREE ENERGY PREDICTED BY IDOCK:   -3.77 KCAL/MOL
REMARK 924 INTRA-LIGAND FREE ENERGY PREDICTED BY IDOCK:    0.37 KCAL/MOL
REMARK 927      BINDING AFFINITY PREDICTED BY RF-SCORE:    0.00 PKD
ROOT
HETATM    1  C   UNL     1      -8.183   2.496  68.843  1.00  0.00    -0.071 C  
HETATM    2  C   UNL     1      -9.173   3.033  69.838  1.00  0.00    -0.225 C  
HETATM    3  C   UNL     1      -9.846   4.183  69.636  1.00  0.00    -0.208 C  
HETATM    4  C   UNL     1      -9.425   2.224  71.077  1.00  0.00    -0.217 C  
ENDROOT
BRANCH   3   5
HETATM    5  C   UNL     1      -9.775   5.049  68.457  1.00  0.00    -0.215 C  
HETATM    6  C   UNL     1      -8.869   6.268  68.446  1.00  0.00    -0.114 C  
HETATM    7  C   UNL     1     -10.384   6.439  68.458  1.00  0.00    -0.227 C  
HETATM    8  C   UNL     1     -10.977   7.031  69.712  1.00  0.00    -0.283 C  
HETATM    9  C   UNL     1     -11.128   6.846  67.205  1.00  0.00    -0.362 C  
BRANCH   6  10
HETATM   10  C   UNL     1      -8.060   6.506  67.229  1.00  0.00    -0.113 C  
HETATM   11  O   UNL     1      -8.421   6.072  66.150  1.00  0.00    -0.123 OA 
BRANCH  10  12
HETATM   12  O   UNL     1      -6.922   7.220  67.465  1.00  0.00    -0.070 OA 
BRANCH  12  13
HETATM   13  C   UNL     1      -6.901   8.635  67.132  1.00  0.00    -0.067 C  
HETATM   14  C   UNL     1      -6.429   9.514  68.285  1.00  0.00    -0.053 C  
HETATM   15  C   UNL     1      -7.728  10.098  68.756  1.00  0.00    -0.088 C  
HETATM   16  C   UNL     1      -8.808   9.899  67.755  1.00  0.00    -0.129 C  
HETATM   17  O   UNL     1      -7.866  10.721  69.799  1.00  0.00    -0.057 OA 
HETATM   18  C   UNL     1      -8.909   8.680  65.514  1.00  0.00    -0.220 C  
HETATM   19  C   UNL     1      -8.277   9.134  66.781  1.00  0.00    -0.119 C  
BRANCH  16  20
HETATM   20  C   UNL     1     -10.194  10.360  68.033  1.00  0.00    -0.199 C  
BRANCH  20  21
HETATM   21  C   UNL     1     -10.807  11.063  66.866  1.00  0.00    -0.324 C  
HETATM   22  C   UNL     1     -10.851  12.398  66.741  1.00  0.00    -0.283 C  
ENDBRANCH  20  21
ENDBRANCH  16  20
ENDBRANCH  12  13
ENDBRANCH  10  12
ENDBRANCH   6  10
ENDBRANCH   3   5
TORSDOF 6
ENDMDL
MODEL      318
REMARK 921   NORMALIZED FREE ENERGY PREDICTED BY IDOCK:   -1.07 KCAL/MOL
REMARK 922        TOTAL FREE ENERGY PREDICTED BY IDOCK:   -2.96 KCAL/MOL
REMARK 923 INTER-LIGAND FREE ENERGY PREDICTED BY IDOCK:   -3.00 KCAL/MOL
REMARK 924 INTRA-LIGAND FREE ENERGY PREDICTED BY IDOCK:    0.04 KCAL/MOL
REMARK 927      BINDING AFFINITY PREDICTED BY RF-SCORE:    0.00 PKD
ROOT
HETATM    1  C   UNL     1     -13.270  15.304  70.662  1.00  0.00    -0.370 C  
HETATM    2  C   UNL     1     -12.434  14.057  70.724  1.00  0.00    -0.442 C  
HETATM    3  C   UNL     1     -11.197  13.990  70.194  1.00  0.00    -0.008 C  
HETATM    4  C   UNL     1     -13.010  12.868  71.436  1.00  0.00    -0.362 C  
ENDROOT
BRANCH   3   5
HETATM    5  C   UNL     1     -10.463  15.073  69.536  1.00  0.00    -0.245 C  
HETATM    6  C   UNL     1     -10.148  15.005  68.051  1.00  0.00    -0.223 C  
HETATM    7  C   UNL     1      -9.027  14.892  69.079  1.00  0.00    -0.174 C  
HETATM    8  C   UNL     1      -8.341  13.552  69.172  1.00  0.00     0.459 C  
HETATM    9  C   UNL     1      -8.090  16.053  69.334  1.00  0.00    -0.139 C  
BRANCH   6  10
HETATM   10  C   UNL     1     -10.361  16.231  67.251  1.00  0.00    -0.285 C  
HETATM   11  O   UNL     1     -11.238  17.022  67.550  1.00  0.00    -0.090 OA 
BRANCH  10  12
HETATM   12  O   UNL     1      -9.508  16.344  66.193  1.00  0.00    -0.295 OA 
BRANCH  12  13
HETATM   13  C   UNL     1      -9.794  15.597  64.979  1.00  0.00     0.191 C  
HETATM   14  C   UNL     1     -11.023  16.108  64.237  1.00  0.00     0.279 C  
HETATM   15  C   UNL     1     -12.034  15.059  64.590  1.00  0.00    -0.358 C  
HETATM   16  C   UNL     1     -11.385  13.849  65.160  1.00  0.00    -0.319 C  
HETATM   17  O   UNL     1     -13.233  15.156  64.375  1.00  0.00    -0.011 OA 
HETATM   18  C   UNL     1      -8.967  13.279  65.751  1.00  0.00     0.639 C  
HETATM   19  C   UNL     1     -10.077  14.150  65.283  1.00  0.00    -0.364 C  
BRANCH  16  20
HETATM   20  C   UNL     1     -12.202  12.697  65.623  1.00  0.00    -0.474 C  
BRANCH  20  21
HETATM   21  C   UNL     1     -12.576  11.775  64.509  1.00  0.00     0.149 C  
HETATM   22  C   UNL     1     -12.407  12.070  63.211  1.00  0.00    -0.553 C  
ENDBRANCH  20  21
ENDBRANCH  16  20
ENDBRANCH  12  13
ENDBRANCH  10  12
ENDBRANCH   6  10
ENDBRANCH   3   5
TORSDOF 6
ENDMDL
MODEL      319
REMARK 921   NORMALIZED FREE ENERGY PREDICTED BY IDOCK:    0.42 KCAL/MOL
REMARK 922        TOTAL FREE ENERGY PREDICTED BY IDOCK:   -0.95 KCAL/MOL
REMARK 923 INTER-LIGAND FREE ENERGY PREDICTED BY IDOCK:   -3.59 KCAL/MOL
REMARK 924 INTRA-LIGAND FREE ENERGY PREDICTED BY IDOCK:    2.64 KCAL/MOL
REMARK 927      BINDING AFFINITY PREDICTED BY RF-SCORE:    0.00 PKD
ROOT
HETATM    1  C   UNL     1      -6.793  10.336  63.747  1.00  0.00    -0.061 C  
HETATM    2  C   UNL     1      -7.614   9.079  63.697  1.00  0.00    -0.115 C  
HETATM    3  C   UNL     1      -8.386   8.680  64.726  1.00  0.00    -0.167 C  
HETATM    4  C   UNL     1      -7.577   8.274  62.430  1.00  0.00    -0.114 C  
ENDROOT
BRANCH   3   5
HETATM    5  C   UNL     1      -8.592   9.381  65.995  1.00  0.00    -0.154 C  
HETATM    6  C   UNL     1      -7.900  10.706  66.269  1.00  0.00    -0.150 C  
HETATM    7  C   UNL     1      -7.499   9.456  67.045  1.00  0.00    -0.091 C  
HETATM    8  C   UNL     1      -6.117   8.918  66.772  1.00  0.00    -0.057 C  
HETATM    9  C   UNL     1      -7.934   9.263  68.481  1.00  0.00    -0.101 C  
BRANCH   6  10
HETATM   10  C   UNL     1      -8.708  11.785  66.879  1.00  0.00    -0.189 C  
HETATM   11  O   UNL     1      -8.919  11.800  68.079  1.00  0.00    -0.162 OA 
BRANCH  10  12
HETATM   12  O   UNL     1      -9.167  12.697  65.975  1.00  0.00    -0.128 OA 
BRANCH  12  13
HETATM   13  C   UNL     1      -9.755  13.933  66.464  1.00  0.00    -0.294 C  
HETATM   14  C   UNL     1      -8.805  14.745  67.337  1.00  0.00    -0.203 C  
HETATM   15  C   UNL     1      -9.354  14.463  68.704  1.00  0.00    -0.188 C  
HETATM   16  C   UNL     1     -10.713  13.867  68.631  1.00  0.00    -0.272 C  
HETATM   17  O   UNL     1      -8.786  14.751  69.748  1.00  0.00     0.115 OA 
HETATM   18  C   UNL     1     -12.198  13.135  66.687  1.00  0.00    -0.331 C  
HETATM   19  C   UNL     1     -10.961  13.662  67.323  1.00  0.00    -0.299 C  
BRANCH  16  20
HETATM   20  C   UNL     1     -11.432  13.466  69.869  1.00  0.00    -0.181 C  
BRANCH  20  21
HETATM   21  C   UNL     1     -12.585  14.364  70.178  1.00  0.00    -0.340 C  
HETATM   22  C   UNL     1     -12.581  15.686  69.951  1.00  0.00    -0.107 C  
ENDBRANCH  20  21
ENDBRANCH  16  20
ENDBRANCH  12  13
ENDBRANCH  10  12
ENDBRANCH   6  10
ENDBRANCH   3   5
TORSDOF 6
ENDMDL
MODEL      320
REMARK 921   NORMALIZED FREE ENERGY PREDICTED BY IDOCK:    0.85 KCAL/MOL
REMARK 922        TOTAL FREE ENERGY PREDICTED BY IDOCK:   -0.37 KCAL/MOL
REMARK 923 INTER-LIGAND FREE ENERGY PREDICTED BY IDOCK:   -5.33 KCAL/MOL
REMARK 924 INTRA-LIGAND FREE ENERGY PREDICTED BY IDOCK:    4.96 KCAL/MOL
REMARK 927      BINDING AFFINITY PREDICTED BY RF-SCORE:    0.00 PKD
ROOT
HETATM    1  C   UNL     1     -10.592   6.047  72.630  1.00  0.00    -0.251 C  
HETATM    2  C   UNL     1     -10.049   6.056  71.229  1.00  0.00    -0.237 C  
HETATM    3  C   UNL     1     -10.462   6.940  70.300  1.00  0.00    -0.227 C  
HETATM    4  C   UNL     1      -8.986   5.052  70.888  1.00  0.00    -0.165 C  
ENDROOT
BRANCH   3   5
HETATM    5  C   UNL     1     -11.429   8.024  70.486  1.00  0.00    -0.192 C  
HETATM    6  C   UNL     1     -11.030   9.305  71.199  1.00  0.00    -0.409 C  
HETATM    7  C   UNL     1     -12.012   8.339  71.852  1.00  0.00    -0.383 C  
HETATM    8  C   UNL     1     -11.525   7.630  73.090  1.00  0.00    -0.132 C  
HETATM    9  C   UNL     1     -13.493   8.650  71.894  1.00  0.00    -0.433 C  
BRANCH   6  10
HETATM   10  C   UNL     1     -11.467  10.585  70.598  1.00  0.00    -0.327 C  
HETATM   11  O   UNL     1     -12.418  11.193  71.057  1.00  0.00    -0.367 OA 
BRANCH  10  12
HETATM   12  O   UNL     1     -10.718  10.965  69.524  1.00  0.00    -0.234 OA 
BRANCH  12  13
HETATM   13  C   UNL     1     -11.267  11.940  68.596  1.00  0.00    -0.257 C  
HETATM   14  C   UNL     1     -10.611  11.893  67.221  1.00  0.00    -0.261 C  
HETATM   15  C   UNL     1      -9.728  13.104  67.279  1.00  0.00    -0.230 C  
HETATM   16  C   UNL     1     -10.101  13.996  68.407  1.00  0.00    -0.236 C  
HETATM   17  O   UNL     1      -8.856  13.361  66.461  1.00  0.00    -0.126 OA 
HETATM   18  C   UNL     1     -11.820  13.809  70.286  1.00  0.00    -0.342 C  
HETATM   19  C   UNL     1     -11.059  13.345  69.095  1.00  0.00    -0.261 C  
BRANCH  16  20
HETATM   20  C   UNL     1      -9.328  15.236  68.681  1.00  0.00    -0.201 C  
BRANCH  20  21
HETATM   21  C   UNL     1      -8.384  15.080  69.828  1.00  0.00     0.095 C  
HETATM   22  C   UNL     1      -7.069  15.332  69.748  1.00  0.00    -0.154 C  
ENDBRANCH  20  21
ENDBRANCH  16  20
ENDBRANCH  12  13
ENDBRANCH  10  12
ENDBRANCH   6  10
ENDBRANCH   3   5
TORSDOF 6
ENDMDL
MODEL      321
REMARK 921   NORMALIZED FREE ENERGY PREDICTED BY IDOCK:    0.93 KCAL/MOL
REMARK 922        TOTAL FREE ENERGY PREDICTED BY IDOCK:   -0.26 KCAL/MOL
REMARK 923 INTER-LIGAND FREE ENERGY PREDICTED BY IDOCK:   -3.69 KCAL/MOL
REMARK 924 INTRA-LIGAND FREE ENERGY PREDICTED BY IDOCK:    3.43 KCAL/MOL
REMARK 927      BINDING AFFINITY PREDICTED BY RF-SCORE:    0.00 PKD
ROOT
HETATM    1  C   UNL     1      -8.140   8.888  67.336  1.00  0.00    -0.108 C  
HETATM    2  C   UNL     1      -9.191   9.943  67.134  1.00  0.00    -0.158 C  
HETATM    3  C   UNL     1      -9.161  11.126  67.779  1.00  0.00    -0.149 C  
HETATM    4  C   UNL     1     -10.287   9.654  66.148  1.00  0.00    -0.202 C  
ENDROOT
BRANCH   3   5
HETATM    5  C   UNL     1      -8.131  11.593  68.709  1.00  0.00    -0.072 C  
HETATM    6  C   UNL     1      -6.799  12.112  68.194  1.00  0.00    -0.075 C  
HETATM    7  C   UNL     1      -6.866  10.793  68.957  1.00  0.00    -0.075 C  
HETATM    8  C   UNL     1      -6.561   9.549  68.162  1.00  0.00    -0.062 C  
HETATM    9  C   UNL     1      -6.398  10.705  70.393  1.00  0.00    -0.117 C  
BRANCH   6  10
HETATM   10  C   UNL     1      -6.265  13.349  68.806  1.00  0.00    -0.090 C  
HETATM   11  O   UNL     1      -5.127  13.385  69.239  1.00  0.00    -0.074 OA 
BRANCH  10  12
HETATM   12  O   UNL     1      -7.163  14.374  68.831  1.00  0.00    -0.114 OA 
BRANCH  12  13
HETATM   13  C   UNL     1      -7.290  15.224  67.658  1.00  0.00    -0.178 C  
HETATM   14  C   UNL     1      -6.222  16.310  67.588  1.00  0.00    -0.172 C  
HETATM   15  C   UNL     1      -7.009  17.518  68.000  1.00  0.00    -0.195 C  
HETATM   16  C   UNL     1      -8.471  17.259  67.947  1.00  0.00    -0.218 C  
HETATM   17  O   UNL     1      -6.515  18.601  68.279  1.00  0.00    -0.208 OA 
HETATM   18  C   UNL     1      -9.859  15.179  67.427  1.00  0.00    -0.224 C  
HETATM   19  C   UNL     1      -8.608  15.952  67.651  1.00  0.00    -0.172 C  
BRANCH  16  20
HETATM   20  C   UNL     1      -9.443  18.307  68.358  1.00  0.00    -0.336 C  
BRANCH  20  21
HETATM   21  C   UNL     1      -9.954  19.100  67.200  1.00  0.00    -0.435 C  
HETATM   22  C   UNL     1     -10.902  20.044  67.305  1.00  0.00    -0.254 C  
ENDBRANCH  20  21
ENDBRANCH  16  20
ENDBRANCH  12  13
ENDBRANCH  10  12
ENDBRANCH   6  10
ENDBRANCH   3   5
TORSDOF 6
ENDMDL
MODEL      322
REMARK 921   NORMALIZED FREE ENERGY PREDICTED BY IDOCK:    1.78 KCAL/MOL
REMARK 922        TOTAL FREE ENERGY PREDICTED BY IDOCK:    0.89 KCAL/MOL
REMARK 923 INTER-LIGAND FREE ENERGY PREDICTED BY IDOCK:    0.12 KCAL/MOL
REMARK 924 INTRA-LIGAND FREE ENERGY PREDICTED BY IDOCK:    0.76 KCAL/MOL
REMARK 927      BINDING AFFINITY PREDICTED BY RF-SCORE:    0.00 PKD
ROOT
HETATM    1  C   UNL     1     -11.040  10.914  69.150  1.00  0.00    -0.301 C  
HETATM    2  C   UNL     1     -12.363  11.548  68.823  1.00  0.00     0.148 C  
HETATM    3  C   UNL     1     -12.524  12.388  67.782  1.00  0.00     0.929 C  
HETATM    4  C   UNL     1     -13.538  11.188  69.685  1.00  0.00     2.579 C  
ENDROOT
BRANCH   3   5
HETATM    5  C   UNL     1     -11.507  12.782  66.806  1.00  0.00    -0.399 C  
HETATM    6  C   UNL     1     -11.594  14.122  66.094  1.00  0.00    -0.377 C  
HETATM    7  C   UNL     1     -11.811  12.826  65.319  1.00  0.00    -0.442 C  
HETATM    8  C   UNL     1     -13.206  12.586  64.801  1.00  0.00     0.382 C  
HETATM    9  C   UNL     1     -10.739  12.285  64.398  1.00  0.00    -0.369 C  
BRANCH   6  10
HETATM   10  C   UNL     1     -10.349  14.912  65.971  1.00  0.00    -0.299 C  
HETATM   11  O   UNL     1     -10.385  16.072  65.598  1.00  0.00    -0.352 OA 
BRANCH  10  12
HETATM   12  O   UNL     1      -9.226  14.212  66.299  1.00  0.00    -0.227 OA 
BRANCH  12  13
HETATM   13  C   UNL     1      -9.183  13.511  67.571  1.00  0.00    -0.219 C  
HETATM   14  C   UNL     1      -8.730  14.395  68.727  1.00  0.00    -0.129 C  
HETATM   15  C   UNL     1      -7.321  13.918  68.923  1.00  0.00    -0.088 C  
HETATM   16  C   UNL     1      -7.082  12.628  68.225  1.00  0.00    -0.105 C  
HETATM   17  O   UNL     1      -6.493  14.482  69.623  1.00  0.00    -0.127 OA 
HETATM   18  C   UNL     1      -8.525  11.174  66.700  1.00  0.00    -0.164 C  
HETATM   19  C   UNL     1      -8.207  12.365  67.531  1.00  0.00    -0.173 C  
BRANCH  16  20
HETATM   20  C   UNL     1      -5.739  11.992  68.246  1.00  0.00    -0.051 C  
BRANCH  20  21
HETATM   21  C   UNL     1      -5.189  11.860  69.629  1.00  0.00    -0.068 C  
HETATM   22  C   UNL     1      -5.924  11.493  70.690  1.00  0.00    -0.023 C  
ENDBRANCH  20  21
ENDBRANCH  16  20
ENDBRANCH  12  13
ENDBRANCH  10  12
ENDBRANCH   6  10
ENDBRANCH   3   5
TORSDOF 6
ENDMDL
MODEL      323
REMARK 921   NORMALIZED FREE ENERGY PREDICTED BY IDOCK:    2.31 KCAL/MOL
REMARK 922        TOTAL FREE ENERGY PREDICTED BY IDOCK:    1.60 KCAL/MOL
REMARK 923 INTER-LIGAND FREE ENERGY PREDICTED BY IDOCK:    0.29 KCAL/MOL
REMARK 924 INTRA-LIGAND FREE ENERGY PREDICTED BY IDOCK:    1.31 KCAL/MOL
REMARK 927      BINDING AFFINITY PREDICTED BY RF-SCORE:    0.00 PKD
ROOT
HETATM    1  C   UNL     1     -11.391  15.705  66.115  1.00  0.00     0.069 C  
HETATM    2  C   UNL     1     -12.123  14.493  66.620  1.00  0.00    -0.319 C  
HETATM    3  C   UNL     1     -11.892  13.967  67.838  1.00  0.00    -0.413 C  
HETATM    4  C   UNL     1     -13.166  13.888  65.726  1.00  0.00     0.130 C  
ENDROOT
BRANCH   3   5
HETATM    5  C   UNL     1     -10.969  14.475  68.855  1.00  0.00    -0.268 C  
HETATM    6  C   UNL     1      -9.915  13.569  69.468  1.00  0.00     0.770 C  
HETATM    7  C   UNL     1     -11.087  14.060  70.310  1.00  0.00     0.191 C  
HETATM    8  C   UNL     1     -12.080  13.011  70.744  1.00  0.00    -0.268 C  
HETATM    9  C   UNL     1     -10.897  15.154  71.338  1.00  0.00     0.023 C  
BRANCH   6  10
HETATM   10  C   UNL     1      -8.549  14.117  69.624  1.00  0.00     0.834 C  
HETATM   11  O   UNL     1      -7.651  13.427  70.072  1.00  0.00     0.970 OA 
BRANCH  10  12
HETATM   12  O   UNL     1      -8.439  15.419  69.235  1.00  0.00    -0.229 OA 
BRANCH  12  13
HETATM   13  C   UNL     1      -9.077  15.838  67.997  1.00  0.00    -0.187 C  
HETATM   14  C   UNL     1      -8.186  15.658  66.774  1.00  0.00    -0.300 C  
HETATM   15  C   UNL     1      -7.760  17.072  66.513  1.00  0.00    -0.292 C  
HETATM   16  C   UNL     1      -8.608  18.040  67.256  1.00  0.00    -0.240 C  
HETATM   17  O   UNL     1      -6.873  17.393  65.735  1.00  0.00    -0.180 OA 
HETATM   18  C   UNL     1     -10.510  17.766  68.937  1.00  0.00    -0.213 C  
HETATM   19  C   UNL     1      -9.426  17.302  68.031  1.00  0.00    -0.271 C  
BRANCH  16  20
HETATM   20  C   UNL     1      -8.336  19.500  67.181  1.00  0.00    -0.321 C  
BRANCH  20  21
HETATM   21  C   UNL     1      -7.977  20.085  68.507  1.00  0.00    -0.139 C  
HETATM   22  C   UNL     1      -7.140  21.122  68.662  1.00  0.00     0.943 C  
ENDBRANCH  20  21
ENDBRANCH  16  20
ENDBRANCH  12  13
ENDBRANCH  10  12
ENDBRANCH   6  10
ENDBRANCH   3   5
TORSDOF 6
ENDMDL
MODEL      324
REMARK 921   NORMALIZED FREE ENERGY PREDICTED BY IDOCK:    2.41 KCAL/MOL
REMARK 922        TOTAL FREE ENERGY PREDICTED BY IDOCK:    1.73 KCAL/MOL
REMARK 923 INTER-LIGAND FREE ENERGY PREDICTED BY IDOCK:    0.83 KCAL/MOL
REMARK 924 INTRA-LIGAND FREE ENERGY PREDICTED BY IDOCK:    0.90 KCAL/MOL
REMARK 927      BINDING AFFINITY PREDICTED BY RF-SCORE:    0.00 PKD
ROOT
HETATM    1  C   UNL     1     -12.321   7.771  70.202  1.00  0.00     0.688 C  
HETATM    2  C   UNL     1     -11.992   9.193  69.844  1.00  0.00     0.456 C  
HETATM    3  C   UNL     1     -10.724   9.626  69.702  1.00  0.00    -0.260 C  
HETATM    4  C   UNL     1     -13.137  10.135  69.611  1.00  0.00     1.070 C  
ENDROOT
BRANCH   3   5
HETATM    5  C   UNL     1      -9.503   8.826  69.819  1.00  0.00    -0.168 C  
HETATM    6  C   UNL     1      -8.499   9.103  70.925  1.00  0.00    -0.251 C  
HETATM    7  C   UNL     1      -8.143   9.402  69.473  1.00  0.00    -0.114 C  
HETATM    8  C   UNL     1      -7.980  10.858  69.114  1.00  0.00    -0.114 C  
HETATM    9  C   UNL     1      -7.207   8.497  68.702  1.00  0.00    -0.080 C  
BRANCH   6  10
HETATM   10  C   UNL     1      -7.941   7.938  71.648  1.00  0.00    -0.101 C  
HETATM   11  O   UNL     1      -6.992   8.072  72.400  1.00  0.00    -0.069 OA 
BRANCH  10  12
HETATM   12  O   UNL     1      -8.582   6.768  71.369  1.00  0.00    -0.123 OA 
BRANCH  12  13
HETATM   13  C   UNL     1      -7.792   5.558  71.206  1.00  0.00    -0.110 C  
HETATM   14  C   UNL     1      -6.374   5.830  70.718  1.00  0.00    -0.035 C  
HETATM   15  C   UNL     1      -6.478   5.425  69.278  1.00  0.00    -0.038 C  
HETATM   16  C   UNL     1      -7.710   4.633  69.024  1.00  0.00    -0.071 C  
HETATM   17  O   UNL     1      -5.626   5.656  68.433  1.00  0.00    -0.007 OA 
HETATM   18  C   UNL     1      -9.685   3.957  70.494  1.00  0.00    -0.247 C  
HETATM   19  C   UNL     1      -8.404   4.642  70.179  1.00  0.00    -0.078 C  
BRANCH  16  20
HETATM   20  C   UNL     1      -8.041   4.163  67.653  1.00  0.00    -0.094 C  
BRANCH  20  21
HETATM   21  C   UNL     1      -8.749   2.848  67.654  1.00  0.00    -0.138 C  
HETATM   22  C   UNL     1      -9.992   2.673  68.126  1.00  0.00     0.715 C  
ENDBRANCH  20  21
ENDBRANCH  16  20
ENDBRANCH  12  13
ENDBRANCH  10  12
ENDBRANCH   6  10
ENDBRANCH   3   5
TORSDOF 6
ENDMDL
MODEL      325
REMARK 921   NORMALIZED FREE ENERGY PREDICTED BY IDOCK:    3.59 KCAL/MOL
REMARK 922        TOTAL FREE ENERGY PREDICTED BY IDOCK:    3.33 KCAL/MOL
REMARK 923 INTER-LIGAND FREE ENERGY PREDICTED BY IDOCK:    3.61 KCAL/MOL
REMARK 924 INTRA-LIGAND FREE ENERGY PREDICTED BY IDOCK:   -0.29 KCAL/MOL
REMARK 927      BINDING AFFINITY PREDICTED BY RF-SCORE:    0.00 PKD
ROOT
HETATM    1  C   UNL     1     -10.074  16.667  65.332  1.00  0.00    -0.049 C  
HETATM    2  C   UNL     1     -10.716  15.330  65.090  1.00  0.00    -0.455 C  
HETATM    3  C   UNL     1     -10.831  14.399  66.057  1.00  0.00    -0.309 C  
HETATM    4  C   UNL     1     -11.268  15.061  63.720  1.00  0.00     1.062 C  
ENDROOT
BRANCH   3   5
HETATM    5  C   UNL     1     -10.417  14.528  67.455  1.00  0.00    -0.253 C  
HETATM    6  C   UNL     1     -10.745  13.440  68.464  1.00  0.00    -0.278 C  
HETATM    7  C   UNL     1     -11.423  14.803  68.557  1.00  0.00    -0.330 C  
HETATM    8  C   UNL     1     -12.904  14.829  68.273  1.00  0.00     1.354 C  
HETATM    9  C   UNL     1     -11.007  15.804  69.612  1.00  0.00    -0.306 C  
BRANCH   6  10
HETATM   10  C   UNL     1      -9.673  13.029  69.398  1.00  0.00     0.978 C  
HETATM   11  O   UNL     1      -9.525  13.602  70.463  1.00  0.00     3.337 OA 
BRANCH  10  12
HETATM   12  O   UNL     1      -8.913  11.997  68.932  1.00  0.00     0.023 OA 
BRANCH  12  13
HETATM   13  C   UNL     1      -9.068  10.684  69.535  1.00  0.00     0.040 C  
HETATM   14  C   UNL     1      -7.788   9.857  69.507  1.00  0.00    -0.140 C  
HETATM   15  C   UNL     1      -8.089   8.893  68.397  1.00  0.00    -0.109 C  
HETATM   16  C   UNL     1      -9.536   8.889  68.059  1.00  0.00    -0.167 C  
HETATM   17  O   UNL     1      -7.263   8.155  67.882  1.00  0.00    -0.087 OA 
HETATM   18  C   UNL     1     -11.529  10.253  68.890  1.00  0.00    -0.190 C  
HETATM   19  C   UNL     1     -10.096   9.864  68.801  1.00  0.00    -0.186 C  
BRANCH  16  20
HETATM   20  C   UNL     1     -10.055   8.039  66.955  1.00  0.00    -0.362 C  
BRANCH  20  21
HETATM   21  C   UNL     1     -10.003   8.727  65.630  1.00  0.00     0.282 C  
HETATM   22  C   UNL     1      -8.995   9.526  65.246  1.00  0.00    -0.244 C  
ENDBRANCH  20  21
ENDBRANCH  16  20
ENDBRANCH  12  13
ENDBRANCH  10  12
ENDBRANCH   6  10
ENDBRANCH   3   5
TORSDOF 6
ENDMDL
MODEL      326
REMARK 921   NORMALIZED FREE ENERGY PREDICTED BY IDOCK:    8.31 KCAL/MOL
REMARK 922        TOTAL FREE ENERGY PREDICTED BY IDOCK:    9.71 KCAL/MOL
REMARK 923 INTER-LIGAND FREE ENERGY PREDICTED BY IDOCK:    2.77 KCAL/MOL
REMARK 924 INTRA-LIGAND FREE ENERGY PREDICTED BY IDOCK:    6.94 KCAL/MOL
REMARK 927      BINDING AFFINITY PREDICTED BY RF-SCORE:    0.00 PKD
ROOT
HETATM    1  C   UNL     1     -12.467  12.115  65.960  1.00  0.00     0.726 C  
HETATM    2  C   UNL     1     -11.594  12.868  64.996  1.00  0.00    -0.367 C  
HETATM    3  C   UNL     1     -10.646  13.734  65.406  1.00  0.00    -0.330 C  
HETATM    4  C   UNL     1     -11.785  12.603  63.530  1.00  0.00    -0.604 C  
ENDROOT
BRANCH   3   5
HETATM    5  C   UNL     1     -10.282  14.050  66.788  1.00  0.00    -0.264 C  
HETATM    6  C   UNL     1      -9.887  15.463  67.182  1.00  0.00    -0.221 C  
HETATM    7  C   UNL     1      -8.847  14.347  67.181  1.00  0.00    -0.244 C  
HETATM    8  C   UNL     1      -7.760  14.453  66.142  1.00  0.00     2.458 C  
HETATM    9  C   UNL     1      -8.365  13.736  68.479  1.00  0.00    -0.120 C  
BRANCH   6  10
HETATM   10  C   UNL     1     -10.456  16.007  68.436  1.00  0.00    -0.263 C  
HETATM   11  O   UNL     1     -11.630  16.326  68.496  1.00  0.00    -0.346 OA 
BRANCH  10  12
HETATM   12  O   UNL     1      -9.546  16.108  69.446  1.00  0.00    -0.249 OA 
BRANCH  12  13
HETATM   13  C   UNL     1      -9.615  15.164  70.549  1.00  0.00     0.841 C  
HETATM   14  C   UNL     1      -9.452  13.715  70.107  1.00  0.00     2.801 C  
HETATM   15  C   UNL     1     -10.869  13.226  70.184  1.00  0.00     0.968 C  
HETATM   16  C   UNL     1     -11.725  14.163  70.957  1.00  0.00    -0.145 C  
HETATM   17  O   UNL     1     -11.256  12.160  69.728  1.00  0.00    -0.145 OA 
HETATM   18  C   UNL     1     -11.295  16.435  72.038  1.00  0.00     0.034 C  
HETATM   19  C   UNL     1     -10.951  15.229  71.240  1.00  0.00    -0.210 C  
BRANCH  16  20
HETATM   20  C   UNL     1     -13.179  13.900  71.122  1.00  0.00    -0.308 C  
BRANCH  20  21
HETATM   21  C   UNL     1     -13.713  14.429  72.413  1.00  0.00    -0.590 C  
HETATM   22  C   UNL     1     -13.347  15.606  72.943  1.00  0.00    -0.651 C  
ENDBRANCH  20  21
ENDBRANCH  16  20
ENDBRANCH  12  13
ENDBRANCH  10  12
ENDBRANCH   6  10
ENDBRANCH   3   5
TORSDOF 6
ENDMDL
MODEL      327
REMARK 921   NORMALIZED FREE ENERGY PREDICTED BY IDOCK:   10.49 KCAL/MOL
REMARK 922        TOTAL FREE ENERGY PREDICTED BY IDOCK:   12.65 KCAL/MOL
REMARK 923 INTER-LIGAND FREE ENERGY PREDICTED BY IDOCK:    9.29 KCAL/MOL
REMARK 924 INTRA-LIGAND FREE ENERGY PREDICTED BY IDOCK:    3.35 KCAL/MOL
REMARK 927      BINDING AFFINITY PREDICTED BY RF-SCORE:    0.00 PKD
ROOT
HETATM    1  C   UNL     1     -11.693  14.228  64.477  1.00  0.00    -0.431 C  
HETATM    2  C   UNL     1     -12.234  13.157  65.381  1.00  0.00    -0.510 C  
HETATM    3  C   UNL     1     -11.551  12.703  66.450  1.00  0.00    -0.441 C  
HETATM    4  C   UNL     1     -13.600  12.614  65.078  1.00  0.00     1.783 C  
ENDROOT
BRANCH   3   5
HETATM    5  C   UNL     1     -10.249  13.174  66.927  1.00  0.00    -0.245 C  
HETATM    6  C   UNL     1      -9.981  13.336  68.414  1.00  0.00    -0.226 C  
HETATM    7  C   UNL     1     -10.076  14.563  67.513  1.00  0.00    -0.228 C  
HETATM    8  C   UNL     1     -11.261  15.466  67.742  1.00  0.00    -0.321 C  
HETATM    9  C   UNL     1      -8.831  15.316  67.097  1.00  0.00    -0.232 C  
BRANCH   6  10
HETATM   10  C   UNL     1      -8.688  12.839  68.933  1.00  0.00     0.335 C  
HETATM   11  O   UNL     1      -8.320  11.702  68.695  1.00  0.00    -0.151 OA 
BRANCH  10  12
HETATM   12  O   UNL     1      -8.010  13.760  69.676  1.00  0.00     0.525 OA 
BRANCH  12  13
HETATM   13  C   UNL     1      -6.606  13.527  69.970  1.00  0.00     0.112 C  
HETATM   14  C   UNL     1      -6.052  12.278  69.295  1.00  0.00    -0.094 C  
HETATM   15  C   UNL     1      -5.994  11.324  70.451  1.00  0.00    -0.140 C  
HETATM   16  C   UNL     1      -6.128  12.035  71.749  1.00  0.00     1.953 C  
HETATM   17  O   UNL     1      -5.792  10.123  70.345  1.00  0.00    -0.061 OA 
HETATM   18  C   UNL     1      -6.554  14.475  72.369  1.00  0.00     1.643 C  
HETATM   19  C   UNL     1      -6.384  13.322  71.445  1.00  0.00     1.303 C  
BRANCH  16  20
HETATM   20  C   UNL     1      -6.144  11.279  73.030  1.00  0.00     2.977 C  
BRANCH  20  21
HETATM   21  C   UNL     1      -6.687   9.897  72.872  1.00  0.00     1.811 C  
HETATM   22  C   UNL     1      -6.001   8.886  72.317  1.00  0.00    -0.066 C  
ENDBRANCH  20  21
ENDBRANCH  16  20
ENDBRANCH  12  13
ENDBRANCH  10  12
ENDBRANCH   6  10
ENDBRANCH   3   5
TORSDOF 6
ENDMDL
MODEL      328
REMARK 921   NORMALIZED FREE ENERGY PREDICTED BY IDOCK:   14.11 KCAL/MOL
REMARK 922        TOTAL FREE ENERGY PREDICTED BY IDOCK:   17.53 KCAL/MOL
REMARK 923 INTER-LIGAND FREE ENERGY PREDICTED BY IDOCK:   13.58 KCAL/MOL
REMARK 924 INTRA-LIGAND FREE ENERGY PREDICTED BY IDOCK:    3.95 KCAL/MOL
REMARK 927      BINDING AFFINITY PREDICTED BY RF-SCORE:    0.00 PKD
ROOT
HETATM    1  C   UNL     1     -13.133  16.650  70.452  1.00  0.00     4.110 C  
HETATM    2  C   UNL     1     -12.856  15.191  70.226  1.00  0.00    -0.284 C  
HETATM    3  C   UNL     1     -11.741  14.755  69.607  1.00  0.00    -0.354 C  
HETATM    4  C   UNL     1     -13.859  14.203  70.748  1.00  0.00     0.300 C  
ENDROOT
BRANCH   3   5
HETATM    5  C   UNL     1     -10.635  15.575  69.108  1.00  0.00    -0.234 C  
HETATM    6  C   UNL     1      -9.195  15.200  69.413  1.00  0.00    -0.175 C  
HETATM    7  C   UNL     1      -9.812  16.446  70.039  1.00  0.00     0.425 C  
HETATM    8  C   UNL     1     -10.021  16.406  71.532  1.00  0.00     3.739 C  
HETATM    9  C   UNL     1      -9.458  17.826  69.530  1.00  0.00     0.458 C  
BRANCH   6  10
HETATM   10  C   UNL     1      -8.219  15.279  68.303  1.00  0.00    -0.142 C  
HETATM   11  O   UNL     1      -8.598  15.421  67.153  1.00  0.00    -0.179 OA 
BRANCH  10  12
HETATM   12  O   UNL     1      -6.923  15.166  68.710  1.00  0.00    -0.102 OA 
BRANCH  12  13
HETATM   13  C   UNL     1      -6.293  13.856  68.688  1.00  0.00    -0.090 C  
HETATM   14  C   UNL     1      -5.660  13.518  67.343  1.00  0.00     0.184 C  
HETATM   15  C   UNL     1      -6.664  12.554  66.784  1.00  0.00     0.465 C  
HETATM   16  C   UNL     1      -7.595  12.068  67.835  1.00  0.00    -0.124 C  
HETATM   17  O   UNL     1      -6.673  12.163  65.625  1.00  0.00     1.451 OA 
HETATM   18  C   UNL     1      -7.888  12.635  70.307  1.00  0.00     3.396 C  
HETATM   19  C   UNL     1      -7.296  12.764  68.949  1.00  0.00    -0.008 C  
BRANCH  16  20
HETATM   20  C   UNL     1      -8.702  11.135  67.495  1.00  0.00    -0.129 C  
BRANCH  20  21
HETATM   21  C   UNL     1      -9.327  10.524  68.706  1.00  0.00    -0.181 C  
HETATM   22  C   UNL     1      -9.057  10.916  69.961  1.00  0.00     1.059 C  
ENDBRANCH  20  21
ENDBRANCH  16  20
ENDBRANCH  12  13
ENDBRANCH  10  12
ENDBRANCH   6  10
ENDBRANCH   3   5
TORSDOF 6
ENDMDL
MODEL      329
REMARK 921   NORMALIZED FREE ENERGY PREDICTED BY IDOCK:   15.40 KCAL/MOL
REMARK 922        TOTAL FREE ENERGY PREDICTED BY IDOCK:   19.29 KCAL/MOL
REMARK 923 INTER-LIGAND FREE ENERGY PREDICTED BY IDOCK:   14.36 KCAL/MOL
REMARK 924 INTRA-LIGAND FREE ENERGY PREDICTED BY IDOCK:    4.93 KCAL/MOL
REMARK 927      BINDING AFFINITY PREDICTED BY RF-SCORE:    0.00 PKD
ROOT
HETATM    1  C   UNL     1      -9.339  14.816  64.914  1.00  0.00     1.331 C  
HETATM    2  C   UNL     1     -10.401  13.844  64.483  1.00  0.00    -0.260 C  
HETATM    3  C   UNL     1     -11.155  13.161  65.365  1.00  0.00    -0.299 C  
HETATM    4  C   UNL     1     -10.629  13.672  63.009  1.00  0.00     3.494 C  
ENDROOT
BRANCH   3   5
HETATM    5  C   UNL     1     -11.113  13.266  66.825  1.00  0.00    -0.313 C  
HETATM    6  C   UNL     1     -12.308  12.853  67.667  1.00  0.00     0.188 C  
HETATM    7  C   UNL     1     -11.912  14.322  67.567  1.00  0.00    -0.411 C  
HETATM    8  C   UNL     1     -12.877  15.223  66.839  1.00  0.00     2.059 C  
HETATM    9  C   UNL     1     -11.208  15.015  68.713  1.00  0.00    -0.288 C  
BRANCH   6  10
HETATM   10  C   UNL     1     -12.044  12.048  68.880  1.00  0.00    -0.145 C  
HETATM   11  O   UNL     1     -10.905  11.736  69.182  1.00  0.00    -0.224 OA 
BRANCH  10  12
HETATM   12  O   UNL     1     -13.174  11.712  69.566  1.00  0.00     0.810 OA 
BRANCH  12  13
HETATM   13  C   UNL     1     -13.355  12.225  70.913  1.00  0.00     0.583 C  
HETATM   14  C   UNL     1     -14.406  13.326  70.998  1.00  0.00     2.068 C  
HETATM   15  C   UNL     1     -13.542  14.545  71.127  1.00  0.00    -0.307 C  
HETATM   16  C   UNL     1     -12.142  14.184  71.473  1.00  0.00    -0.252 C  
HETATM   17  O   UNL     1     -13.950  15.693  71.028  1.00  0.00    -0.534 OA 
HETATM   18  C   UNL     1     -10.932  11.954  71.758  1.00  0.00     6.265 C  
HETATM   19  C   UNL     1     -12.084  12.839  71.439  1.00  0.00     0.412 C  
BRANCH  16  20
HETATM   20  C   UNL     1     -11.099  15.236  71.606  1.00  0.00    -0.251 C  
BRANCH  20  21
HETATM   21  C   UNL     1     -11.123  16.212  70.476  1.00  0.00    -0.338 C  
HETATM   22  C   UNL     1     -10.082  16.990  70.143  1.00  0.00     0.772 C  
ENDBRANCH  20  21
ENDBRANCH  16  20
ENDBRANCH  12  13
ENDBRANCH  10  12
ENDBRANCH   6  10
ENDBRANCH   3   5
TORSDOF 6
ENDMDL
MODEL      330
REMARK 921   NORMALIZED FREE ENERGY PREDICTED BY IDOCK:   19.72 KCAL/MOL
REMARK 922        TOTAL FREE ENERGY PREDICTED BY IDOCK:   25.12 KCAL/MOL
REMARK 923 INTER-LIGAND FREE ENERGY PREDICTED BY IDOCK:   14.27 KCAL/MOL
REMARK 924 INTRA-LIGAND FREE ENERGY PREDICTED BY IDOCK:   10.85 KCAL/MOL
REMARK 927      BINDING AFFINITY PREDICTED BY RF-SCORE:    0.00 PKD
ROOT
HETATM    1  C   UNL     1      -8.256  16.228  65.084  1.00  0.00     3.571 C  
HETATM    2  C   UNL     1      -9.555  16.028  65.813  1.00  0.00    -0.311 C  
HETATM    3  C   UNL     1      -9.875  16.724  66.922  1.00  0.00    -0.269 C  
HETATM    4  C   UNL     1     -10.526  15.034  65.245  1.00  0.00    -0.428 C  
ENDROOT
BRANCH   3   5
HETATM    5  C   UNL     1      -9.080  17.775  67.559  1.00  0.00    -0.244 C  
HETATM    6  C   UNL     1      -9.742  18.815  68.448  1.00  0.00    -0.421 C  
HETATM    7  C   UNL     1      -9.160  19.219  67.097  1.00  0.00    -0.346 C  
HETATM    8  C   UNL     1     -10.154  19.648  66.047  1.00  0.00    -0.553 C  
HETATM    9  C   UNL     1      -7.850  19.970  67.011  1.00  0.00    -0.345 C  
BRANCH   6  10
HETATM   10  C   UNL     1      -9.071  19.149  69.725  1.00  0.00     0.672 C  
HETATM   11  O   UNL     1      -7.955  19.638  69.730  1.00  0.00     0.095 OA 
BRANCH  10  12
HETATM   12  O   UNL     1      -9.816  18.844  70.825  1.00  0.00     1.764 OA 
BRANCH  12  13
HETATM   13  C   UNL     1     -11.063  18.119  70.649  1.00  0.00     2.998 C  
HETATM   14  C   UNL     1     -11.743  17.768  71.967  1.00  0.00     3.212 C  
HETATM   15  C   UNL     1     -11.425  16.306  72.078  1.00  0.00    -0.175 C  
HETATM   16  C   UNL     1     -10.944  15.755  70.785  1.00  0.00    -0.311 C  
HETATM   17  O   UNL     1     -11.604  15.636  73.085  1.00  0.00    -0.384 OA 
HETATM   18  C   UNL     1     -10.449  16.810  68.513  1.00  0.00    -0.335 C  
HETATM   19  C   UNL     1     -10.838  16.806  69.948  1.00  0.00    -0.106 C  
BRANCH  16  20
HETATM   20  C   UNL     1     -10.528  14.332  70.674  1.00  0.00     1.247 C  
BRANCH  20  21
HETATM   21  C   UNL     1      -9.055  14.181  70.474  1.00  0.00     3.064 C  
HETATM   22  C   UNL     1      -8.157  15.114  70.824  1.00  0.00     1.875 C  
ENDBRANCH  20  21
ENDBRANCH  16  20
ENDBRANCH  12  13
ENDBRANCH  10  12
ENDBRANCH   6  10
ENDBRANCH   3   5
TORSDOF 6
ENDMDL
MODEL      331
REMARK 921   NORMALIZED FREE ENERGY PREDICTED BY IDOCK:   22.65 KCAL/MOL
REMARK 922        TOTAL FREE ENERGY PREDICTED BY IDOCK:   29.08 KCAL/MOL
REMARK 923 INTER-LIGAND FREE ENERGY PREDICTED BY IDOCK:   28.18 KCAL/MOL
REMARK 924 INTRA-LIGAND FREE ENERGY PREDICTED BY IDOCK:    0.89 KCAL/MOL
REMARK 927      BINDING AFFINITY PREDICTED BY RF-SCORE:    0.00 PKD
ROOT
HETATM    1  C   UNL     1      -9.881  13.217  71.395  1.00  0.00     9.767 C  
HETATM    2  C   UNL     1     -10.852  14.151  72.062  1.00  0.00     3.097 C  
HETATM    3  C   UNL     1     -11.794  14.824  71.374  1.00  0.00    -0.394 C  
HETATM    4  C   UNL     1     -10.764  14.296  73.554  1.00  0.00     4.227 C  
ENDROOT
BRANCH   3   5
HETATM    5  C   UNL     1     -12.062  14.741  69.937  1.00  0.00    -0.381 C  
HETATM    6  C   UNL     1     -11.965  15.975  69.057  1.00  0.00    -0.159 C  
HETATM    7  C   UNL     1     -13.321  15.333  69.330  1.00  0.00     1.426 C  
HETATM    8  C   UNL     1     -14.283  16.140  70.164  1.00  0.00     3.739 C  
HETATM    9  C   UNL     1     -14.011  14.502  68.271  1.00  0.00     8.866 C  
BRANCH   6  10
HETATM   10  C   UNL     1     -11.275  15.834  67.756  1.00  0.00    -0.286 C  
HETATM   11  O   UNL     1     -10.475  16.675  67.383  1.00  0.00    -0.309 OA 
BRANCH  10  12
HETATM   12  O   UNL     1     -11.639  14.716  67.066  1.00  0.00    -0.362 OA 
BRANCH  12  13
HETATM   13  C   UNL     1     -11.578  14.736  65.614  1.00  0.00    -0.290 C  
HETATM   14  C   UNL     1     -12.557  13.768  64.960  1.00  0.00    -0.427 C  
HETATM   15  C   UNL     1     -11.635  12.662  64.541  1.00  0.00    -0.345 C  
HETATM   16  C   UNL     1     -10.213  13.092  64.588  1.00  0.00    -0.324 C  
HETATM   17  O   UNL     1     -12.007  11.567  64.144  1.00  0.00    -0.185 OA 
HETATM   18  C   UNL     1      -9.063  15.243  65.342  1.00  0.00     0.678 C  
HETATM   19  C   UNL     1     -10.215  14.330  65.119  1.00  0.00    -0.414 C  
BRANCH  16  20
HETATM   20  C   UNL     1      -9.121  12.139  64.254  1.00  0.00     0.681 C  
BRANCH  20  21
HETATM   21  C   UNL     1      -9.333  10.791  64.861  1.00  0.00    -0.261 C  
HETATM   22  C   UNL     1      -8.394  10.132  65.557  1.00  0.00    -0.160 C  
ENDBRANCH  20  21
ENDBRANCH  16  20
ENDBRANCH  12  13
ENDBRANCH  10  12
ENDBRANCH   6  10
ENDBRANCH   3   5
TORSDOF 6
ENDMDL
MODEL      332
REMARK 921   NORMALIZED FREE ENERGY PREDICTED BY IDOCK:   24.88 KCAL/MOL
REMARK 922        TOTAL FREE ENERGY PREDICTED BY IDOCK:   32.09 KCAL/MOL
REMARK 923 INTER-LIGAND FREE ENERGY PREDICTED BY IDOCK:   28.55 KCAL/MOL
REMARK 924 INTRA-LIGAND FREE ENERGY PREDICTED BY IDOCK:    3.54 KCAL/MOL
REMARK 927      BINDING AFFINITY PREDICTED BY RF-SCORE:    0.00 PKD
ROOT
HETATM    1  C   UNL     1     -11.668  10.926  68.987  1.00  0.00    -0.391 C  
HETATM    2  C   UNL     1     -12.918  11.178  68.192  1.00  0.00     3.907 C  
HETATM    3  C   UNL     1     -12.962  12.064  67.178  1.00  0.00     4.004 C  
HETATM    4  C   UNL     1     -14.139  10.377  68.542  1.00  0.00    10.458 C  
ENDROOT
BRANCH   3   5
HETATM    5  C   UNL     1     -11.851  12.867  66.663  1.00  0.00    -0.461 C  
HETATM    6  C   UNL     1     -12.053  13.804  65.484  1.00  0.00    -0.434 C  
HETATM    7  C   UNL     1     -11.196  12.551  65.331  1.00  0.00    -0.343 C  
HETATM    8  C   UNL     1     -11.746  11.476  64.427  1.00  0.00    -0.131 C  
HETATM    9  C   UNL     1      -9.687  12.645  65.285  1.00  0.00    -0.044 C  
BRANCH   6  10
HETATM   10  C   UNL     1     -11.459  15.156  65.576  1.00  0.00    -0.213 C  
HETATM   11  O   UNL     1     -11.752  16.019  64.767  1.00  0.00    -0.147 OA 
BRANCH  10  12
HETATM   12  O   UNL     1     -10.586  15.297  66.614  1.00  0.00    -0.292 OA 
BRANCH  12  13
HETATM   13  C   UNL     1     -10.855  14.591  67.857  1.00  0.00    -0.256 C  
HETATM   14  C   UNL     1     -11.541  15.462  68.903  1.00  0.00    -0.369 C  
HETATM   15  C   UNL     1     -10.401  15.753  69.832  1.00  0.00    -0.309 C  
HETATM   16  C   UNL     1      -9.252  14.843  69.586  1.00  0.00     0.090 C  
HETATM   17  O   UNL     1     -10.435  16.587  70.726  1.00  0.00     0.428 OA 
HETATM   18  C   UNL     1      -8.810  13.018  67.855  1.00  0.00    -0.193 C  
HETATM   19  C   UNL     1      -9.580  14.115  68.500  1.00  0.00    -0.214 C  
BRANCH  16  20
HETATM   20  C   UNL     1      -7.993  14.982  70.364  1.00  0.00     0.917 C  
BRANCH  20  21
HETATM   21  C   UNL     1      -8.243  15.248  71.813  1.00  0.00     5.211 C  
HETATM   22  C   UNL     1      -9.259  14.710  72.504  1.00  0.00     7.335 C  
ENDBRANCH  20  21
ENDBRANCH  16  20
ENDBRANCH  12  13
ENDBRANCH  10  12
ENDBRANCH   6  10
ENDBRANCH   3   5
TORSDOF 6
ENDMDL
MODEL      333
REMARK 921   NORMALIZED FREE ENERGY PREDICTED BY IDOCK:   36.65 KCAL/MOL
REMARK 922        TOTAL FREE ENERGY PREDICTED BY IDOCK:   47.98 KCAL/MOL
REMARK 923 INTER-LIGAND FREE ENERGY PREDICTED BY IDOCK:   38.05 KCAL/MOL
REMARK 924 INTRA-LIGAND FREE ENERGY PREDICTED BY IDOCK:    9.93 KCAL/MOL
REMARK 927      BINDING AFFINITY PREDICTED BY RF-SCORE:    0.00 PKD
ROOT
HETATM    1  C   UNL     1     -12.916   7.681  70.098  1.00  0.00     1.340 C  
HETATM    2  C   UNL     1     -12.249   8.707  69.226  1.00  0.00     2.242 C  
HETATM    3  C   UNL     1     -11.098   9.314  69.577  1.00  0.00    -0.099 C  
HETATM    4  C   UNL     1     -12.894   9.025  67.908  1.00  0.00    10.233 C  
ENDROOT
BRANCH   3   5
HETATM    5  C   UNL     1     -10.306   9.067  70.783  1.00  0.00    -0.305 C  
HETATM    6  C   UNL     1     -10.460   9.954  72.006  1.00  0.00     1.825 C  
HETATM    7  C   UNL     1      -9.173   9.991  71.189  1.00  0.00     1.404 C  
HETATM    8  C   UNL     1      -8.900  11.268  70.436  1.00  0.00     3.287 C  
HETATM    9  C   UNL     1      -7.913   9.325  71.698  1.00  0.00     0.336 C  
BRANCH   6  10
HETATM   10  C   UNL     1     -10.535   9.290  73.327  1.00  0.00     3.654 C  
HETATM   11  O   UNL     1     -10.410   9.935  74.353  1.00  0.00    10.660 OA 
BRANCH  10  12
HETATM   12  O   UNL     1     -10.738   7.944  73.248  1.00  0.00    -0.341 OA 
BRANCH  12  13
HETATM   13  C   UNL     1      -9.595   7.076  73.017  1.00  0.00    -0.154 C  
HETATM   14  C   UNL     1      -8.619   7.632  71.986  1.00  0.00    -0.136 C  
HETATM   15  C   UNL     1      -8.943   6.783  70.792  1.00  0.00    -0.151 C  
HETATM   16  C   UNL     1      -9.747   5.593  71.173  1.00  0.00    -0.218 C  
HETATM   17  O   UNL     1      -8.539   7.004  69.660  1.00  0.00    -0.132 OA 
HETATM   18  C   UNL     1     -10.761   4.803  73.379  1.00  0.00    -0.322 C  
HETATM   19  C   UNL     1     -10.027   5.736  72.483  1.00  0.00    -0.194 C  
BRANCH  16  20
HETATM   20  C   UNL     1     -10.220   4.635  70.139  1.00  0.00    -0.197 C  
BRANCH  20  21
HETATM   21  C   UNL     1     -10.583   3.305  70.715  1.00  0.00     1.608 C  
HETATM   22  C   UNL     1     -11.566   3.126  71.609  1.00  0.00     3.710 C  
ENDBRANCH  20  21
ENDBRANCH  16  20
ENDBRANCH  12  13
ENDBRANCH  10  12
ENDBRANCH   6  10
ENDBRANCH   3   5
TORSDOF 6
ENDMDL
MODEL      334
REMARK 921   NORMALIZED FREE ENERGY PREDICTED BY IDOCK:   48.49 KCAL/MOL
REMARK 922        TOTAL FREE ENERGY PREDICTED BY IDOCK:   63.98 KCAL/MOL
REMARK 923 INTER-LIGAND FREE ENERGY PREDICTED BY IDOCK:   28.20 KCAL/MOL
REMARK 924 INTRA-LIGAND FREE ENERGY PREDICTED BY IDOCK:   35.78 KCAL/MOL
REMARK 927      BINDING AFFINITY PREDICTED BY RF-SCORE:    0.00 PKD
ROOT
HETATM    1  C   UNL     1     -10.986  14.306  73.394  1.00  0.00     3.092 C  
HETATM    2  C   UNL     1     -11.336  15.403  72.429  1.00  0.00    -0.373 C  
HETATM    3  C   UNL     1     -11.566  15.169  71.122  1.00  0.00    -0.405 C  
HETATM    4  C   UNL     1     -11.459  16.797  72.974  1.00  0.00     0.505 C  
ENDROOT
BRANCH   3   5
HETATM    5  C   UNL     1     -11.561  13.869  70.448  1.00  0.00    -0.177 C  
HETATM    6  C   UNL     1     -12.150  12.643  71.125  1.00  0.00     0.125 C  
HETATM    7  C   UNL     1     -10.646  12.746  70.900  1.00  0.00     4.487 C  
HETATM    8  C   UNL     1      -9.796  12.882  72.138  1.00  0.00    16.066 C  
HETATM    9  C   UNL     1      -9.970  11.949  69.805  1.00  0.00     1.326 C  
BRANCH   6  10
HETATM   10  C   UNL     1     -13.009  11.758  70.307  1.00  0.00     0.369 C  
HETATM   11  O   UNL     1     -13.963  11.186  70.805  1.00  0.00     1.362 OA 
BRANCH  10  12
HETATM   12  O   UNL     1     -12.610  11.663  69.007  1.00  0.00    -0.120 OA 
BRANCH  12  13
HETATM   13  C   UNL     1     -11.836  12.750  68.430  1.00  0.00    -0.310 C  
HETATM   14  C   UNL     1     -12.091  12.941  66.939  1.00  0.00    -0.313 C  
HETATM   15  C   UNL     1     -10.849  12.337  66.353  1.00  0.00    -0.264 C  
HETATM   16  C   UNL     1      -9.793  12.158  67.383  1.00  0.00    -0.193 C  
HETATM   17  O   UNL     1     -10.697  12.088  65.165  1.00  0.00    -0.270 OA 
HETATM   18  C   UNL     1      -9.730  12.548  69.906  1.00  0.00     2.464 C  
HETATM   19  C   UNL     1     -10.358  12.496  68.559  1.00  0.00    -0.233 C  
BRANCH  16  20
HETATM   20  C   UNL     1      -8.490  11.533  67.033  1.00  0.00    -0.164 C  
BRANCH  20  21
HETATM   21  C   UNL     1      -8.289  11.417  65.558  1.00  0.00     0.234 C  
HETATM   22  C   UNL     1      -7.085  11.301  64.978  1.00  0.00     0.990 C  
ENDBRANCH  20  21
ENDBRANCH  16  20
ENDBRANCH  12  13
ENDBRANCH  10  12
ENDBRANCH   6  10
ENDBRANCH   3   5
TORSDOF 6
ENDMDL
