MODEL        1
REMARK 921   NORMALIZED FREE ENERGY PREDICTED BY IDOCK:   -5.79 KCAL/MOL
REMARK 922        TOTAL FREE ENERGY PREDICTED BY IDOCK:   -7.33 KCAL/MOL
REMARK 923 INTER-LIGAND FREE ENERGY PREDICTED BY IDOCK:   -7.15 KCAL/MOL
REMARK 924 INTRA-LIGAND FREE ENERGY PREDICTED BY IDOCK:   -0.18 KCAL/MOL
REMARK 927      BINDING AFFINITY PREDICTED BY RF-SCORE:    0.00 PKD
ROOT
HETATM    1  C   UNL     1     -10.994  12.723  64.823  1.00  0.00    -0.305 C  
HETATM    2  C   UNL     1      -9.881  12.026  65.571  1.00  0.00    -0.229 C  
HETATM    3  S   UNL     1     -10.185  12.275  67.336  1.00  0.00    -0.204 SA 
HETATM    4  C   UNL     1     -11.877  12.965  67.152  1.00  0.00    -0.362 C  
HETATM    5  C   UNL     1     -12.271  12.741  65.667  1.00  0.00    -0.444 C  
HETATM    6  O   UNL     1     -12.322  15.842  64.064  1.00  0.00    -0.724 OA 
HETATM    7  C   UNL     1     -12.069  14.734  64.491  1.00  0.00    -0.446 C  
HETATM    8  N   UNL     1     -12.975  13.843  65.054  1.00  0.00    -0.752 NA 
HETATM    9  N   UNL     1     -10.819  14.125  64.517  1.00  0.00    -0.372 NA 
ENDROOT
BRANCH   4  10
HETATM   10  C   UNL     1     -11.856  14.403  67.716  1.00  0.00    -0.402 C  
BRANCH  10  11
HETATM   11  C   UNL     1     -11.470  14.546  69.199  1.00  0.00    -0.324 C  
BRANCH  11  12
HETATM   12  C   UNL     1     -12.588  14.230  70.192  1.00  0.00    -0.338 C  
BRANCH  12  13
HETATM   13  C   UNL     1     -12.865  15.406  71.125  1.00  0.00    -0.520 C  
HETATM   14  C   UNL     1     -13.560  14.986  72.398  1.00  0.00    -0.460 C  
HETATM   15  O   UNL     1     -13.844  13.841  72.702  1.00  0.00    -0.691 OA 
HETATM   16  O   UNL     1     -13.831  16.046  73.196  1.00  0.00    -0.576 OA 
ENDBRANCH  12  13
ENDBRANCH  11  12
ENDBRANCH  10  11
ENDBRANCH   4  10
TORSDOF 4
ENDMDL
MODEL        2
REMARK 921   NORMALIZED FREE ENERGY PREDICTED BY IDOCK:   -5.61 KCAL/MOL
REMARK 922        TOTAL FREE ENERGY PREDICTED BY IDOCK:   -7.10 KCAL/MOL
REMARK 923 INTER-LIGAND FREE ENERGY PREDICTED BY IDOCK:   -6.90 KCAL/MOL
REMARK 924 INTRA-LIGAND FREE ENERGY PREDICTED BY IDOCK:   -0.19 KCAL/MOL
REMARK 927      BINDING AFFINITY PREDICTED BY RF-SCORE:    0.00 PKD
ROOT
HETATM    1  C   UNL     1     -10.683  14.850  65.053  1.00  0.00    -0.431 C  
HETATM    2  C   UNL     1     -10.346  16.250  65.516  1.00  0.00    -0.338 C  
HETATM    3  S   UNL     1     -10.471  16.261  67.320  1.00  0.00    -0.288 SA 
HETATM    4  C   UNL     1     -10.619  14.441  67.521  1.00  0.00    -0.265 C  
HETATM    5  C   UNL     1     -10.303  13.830  66.130  1.00  0.00    -0.301 C  
HETATM    6  O   UNL     1     -13.262  12.536  64.801  1.00  0.00    -0.839 OA 
HETATM    7  C   UNL     1     -12.278  13.188  65.087  1.00  0.00    -0.450 C  
HETATM    8  N   UNL     1     -11.148  12.722  65.749  1.00  0.00    -0.279 NA 
HETATM    9  N   UNL     1     -12.075  14.538  64.824  1.00  0.00    -0.437 NA 
ENDROOT
BRANCH   4  10
HETATM   10  C   UNL     1     -11.989  14.155  68.175  1.00  0.00    -0.367 C  
BRANCH  10  11
HETATM   11  C   UNL     1     -11.987  13.974  69.704  1.00  0.00    -0.393 C  
BRANCH  11  12
HETATM   12  C   UNL     1     -12.253  15.248  70.507  1.00  0.00    -0.415 C  
BRANCH  12  13
HETATM   13  C   UNL     1     -11.793  15.108  71.956  1.00  0.00    -0.495 C  
HETATM   14  C   UNL     1     -12.893  15.409  72.945  1.00  0.00    -0.445 C  
HETATM   15  O   UNL     1     -14.044  15.689  72.658  1.00  0.00    -0.564 OA 
HETATM   16  O   UNL     1     -12.458  15.316  74.224  1.00  0.00    -0.595 OA 
ENDBRANCH  12  13
ENDBRANCH  11  12
ENDBRANCH  10  11
ENDBRANCH   4  10
TORSDOF 4
ENDMDL
MODEL        3
REMARK 921   NORMALIZED FREE ENERGY PREDICTED BY IDOCK:   -5.54 KCAL/MOL
REMARK 922        TOTAL FREE ENERGY PREDICTED BY IDOCK:   -7.01 KCAL/MOL
REMARK 923 INTER-LIGAND FREE ENERGY PREDICTED BY IDOCK:   -6.79 KCAL/MOL
REMARK 924 INTRA-LIGAND FREE ENERGY PREDICTED BY IDOCK:   -0.22 KCAL/MOL
REMARK 927      BINDING AFFINITY PREDICTED BY RF-SCORE:    0.00 PKD
ROOT
HETATM    1  C   UNL     1     -11.279  12.480  64.368  1.00  0.00    -0.339 C  
HETATM    2  C   UNL     1     -10.112  11.651  64.855  1.00  0.00    -0.260 C  
HETATM    3  S   UNL     1     -10.048  11.823  66.653  1.00  0.00    -0.208 SA 
HETATM    4  C   UNL     1     -11.673  12.659  66.832  1.00  0.00    -0.383 C  
HETATM    5  C   UNL     1     -12.363  12.554  65.446  1.00  0.00    -0.359 C  
HETATM    6  O   UNL     1     -12.436  15.736  64.010  1.00  0.00    -0.698 OA 
HETATM    7  C   UNL     1     -12.208  14.587  64.334  1.00  0.00    -0.458 C  
HETATM    8  N   UNL     1     -13.067  13.743  65.028  1.00  0.00    -0.737 NA 
HETATM    9  N   UNL     1     -11.038  13.877  64.090  1.00  0.00    -0.217 NA 
ENDROOT
BRANCH   4  10
HETATM   10  C   UNL     1     -11.413  14.056  67.439  1.00  0.00    -0.373 C  
BRANCH  10  11
HETATM   11  C   UNL     1     -11.030  14.089  68.929  1.00  0.00    -0.283 C  
BRANCH  11  12
HETATM   12  C   UNL     1     -11.866  13.182  69.833  1.00  0.00    -0.378 C  
BRANCH  12  13
HETATM   13  C   UNL     1     -12.644  13.982  70.874  1.00  0.00    -0.431 C  
HETATM   14  C   UNL     1     -13.301  13.102  71.910  1.00  0.00    -0.455 C  
HETATM   15  O   UNL     1     -13.206  11.888  71.968  1.00  0.00    -0.495 OA 
HETATM   16  O   UNL     1     -14.016  13.825  72.803  1.00  0.00    -0.714 OA 
ENDBRANCH  12  13
ENDBRANCH  11  12
ENDBRANCH  10  11
ENDBRANCH   4  10
TORSDOF 4
ENDMDL
MODEL        4
REMARK 921   NORMALIZED FREE ENERGY PREDICTED BY IDOCK:   -5.51 KCAL/MOL
REMARK 922        TOTAL FREE ENERGY PREDICTED BY IDOCK:   -6.97 KCAL/MOL
REMARK 923 INTER-LIGAND FREE ENERGY PREDICTED BY IDOCK:   -6.73 KCAL/MOL
REMARK 924 INTRA-LIGAND FREE ENERGY PREDICTED BY IDOCK:   -0.24 KCAL/MOL
REMARK 927      BINDING AFFINITY PREDICTED BY RF-SCORE:    0.00 PKD
ROOT
HETATM    1  C   UNL     1     -10.627  12.729  65.820  1.00  0.00    -0.273 C  
HETATM    2  C   UNL     1     -10.775  13.784  64.747  1.00  0.00    -0.416 C  
HETATM    3  S   UNL     1     -10.896  15.382  65.583  1.00  0.00    -0.351 SA 
HETATM    4  C   UNL     1     -10.432  14.771  67.252  1.00  0.00    -0.264 C  
HETATM    5  C   UNL     1      -9.931  13.316  67.050  1.00  0.00    -0.238 C  
HETATM    6  O   UNL     1     -12.292  11.141  68.424  1.00  0.00    -0.556 OA 
HETATM    7  C   UNL     1     -11.580  11.819  67.710  1.00  0.00    -0.304 C  
HETATM    8  N   UNL     1     -10.359  12.382  68.065  1.00  0.00    -0.210 NA 
HETATM    9  N   UNL     1     -11.837  12.184  66.394  1.00  0.00    -0.607 NA 
ENDROOT
BRANCH   4  10
HETATM   10  C   UNL     1     -11.629  15.032  68.192  1.00  0.00    -0.360 C  
BRANCH  10  11
HETATM   11  C   UNL     1     -11.286  15.530  69.607  1.00  0.00    -0.319 C  
BRANCH  11  12
HETATM   12  C   UNL     1     -12.433  15.456  70.616  1.00  0.00    -0.478 C  
BRANCH  12  13
HETATM   13  C   UNL     1     -11.966  15.795  72.029  1.00  0.00    -0.570 C  
HETATM   14  C   UNL     1     -12.696  15.003  73.087  1.00  0.00    -0.486 C  
HETATM   15  O   UNL     1     -13.537  14.148  72.874  1.00  0.00    -0.651 OA 
HETATM   16  O   UNL     1     -12.296  15.343  74.335  1.00  0.00    -0.641 OA 
ENDBRANCH  12  13
ENDBRANCH  11  12
ENDBRANCH  10  11
ENDBRANCH   4  10
TORSDOF 4
ENDMDL
MODEL        5
REMARK 921   NORMALIZED FREE ENERGY PREDICTED BY IDOCK:   -5.47 KCAL/MOL
REMARK 922        TOTAL FREE ENERGY PREDICTED BY IDOCK:   -6.92 KCAL/MOL
REMARK 923 INTER-LIGAND FREE ENERGY PREDICTED BY IDOCK:   -6.72 KCAL/MOL
REMARK 924 INTRA-LIGAND FREE ENERGY PREDICTED BY IDOCK:   -0.21 KCAL/MOL
REMARK 927      BINDING AFFINITY PREDICTED BY RF-SCORE:    0.00 PKD
ROOT
HETATM    1  C   UNL     1     -11.087  14.535  64.595  1.00  0.00    -0.346 C  
HETATM    2  C   UNL     1     -10.965  15.705  65.545  1.00  0.00    -0.300 C  
HETATM    3  S   UNL     1     -10.878  15.028  67.219  1.00  0.00    -0.316 SA 
HETATM    4  C   UNL     1     -10.659  13.275  66.714  1.00  0.00    -0.276 C  
HETATM    5  C   UNL     1     -10.401  13.300  65.184  1.00  0.00    -0.323 C  
HETATM    6  O   UNL     1     -13.202  11.974  63.576  1.00  0.00    -0.724 OA 
HETATM    7  C   UNL     1     -12.330  12.672  64.051  1.00  0.00    -0.443 C  
HETATM    8  N   UNL     1     -11.063  12.253  64.441  1.00  0.00    -0.311 NA 
HETATM    9  N   UNL     1     -12.414  14.034  64.317  1.00  0.00    -0.684 NA 
ENDROOT
BRANCH   4  10
HETATM   10  C   UNL     1     -11.865  12.480  67.261  1.00  0.00    -0.381 C  
BRANCH  10  11
HETATM   11  C   UNL     1     -11.536  11.311  68.207  1.00  0.00    -0.370 C  
BRANCH  11  12
HETATM   12  C   UNL     1     -11.698  11.617  69.696  1.00  0.00    -0.418 C  
BRANCH  12  13
HETATM   13  C   UNL     1     -12.036  10.363  70.497  1.00  0.00    -0.427 C  
HETATM   14  C   UNL     1     -12.917  10.656  71.688  1.00  0.00    -0.477 C  
HETATM   15  O   UNL     1     -13.366  11.750  71.982  1.00  0.00    -0.487 OA 
HETATM   16  O   UNL     1     -13.176   9.539  72.408  1.00  0.00    -0.431 OA 
ENDBRANCH  12  13
ENDBRANCH  11  12
ENDBRANCH  10  11
ENDBRANCH   4  10
TORSDOF 4
ENDMDL
MODEL        6
REMARK 921   NORMALIZED FREE ENERGY PREDICTED BY IDOCK:   -5.45 KCAL/MOL
REMARK 922        TOTAL FREE ENERGY PREDICTED BY IDOCK:   -6.91 KCAL/MOL
REMARK 923 INTER-LIGAND FREE ENERGY PREDICTED BY IDOCK:   -6.43 KCAL/MOL
REMARK 924 INTRA-LIGAND FREE ENERGY PREDICTED BY IDOCK:   -0.47 KCAL/MOL
REMARK 927      BINDING AFFINITY PREDICTED BY RF-SCORE:    0.00 PKD
ROOT
HETATM    1  C   UNL     1     -10.925  12.992  64.788  1.00  0.00    -0.327 C  
HETATM    2  C   UNL     1      -9.949  12.194  65.622  1.00  0.00    -0.249 C  
HETATM    3  S   UNL     1     -10.417  12.418  67.354  1.00  0.00    -0.216 SA 
HETATM    4  C   UNL     1     -12.028  13.236  67.021  1.00  0.00    -0.365 C  
HETATM    5  C   UNL     1     -12.279  13.081  65.497  1.00  0.00    -0.469 C  
HETATM    6  O   UNL     1     -11.942  16.220  64.003  1.00  0.00    -0.955 OA 
HETATM    7  C   UNL     1     -11.814  15.085  64.416  1.00  0.00    -0.339 C  
HETATM    8  N   UNL     1     -12.835  14.249  64.853  1.00  0.00    -0.673 NA 
HETATM    9  N   UNL     1     -10.620  14.384  64.549  1.00  0.00    -0.292 NA 
ENDROOT
BRANCH   4  10
HETATM   10  C   UNL     1     -11.965  14.653  67.633  1.00  0.00    -0.307 C  
BRANCH  10  11
HETATM   11  C   UNL     1     -10.739  14.959  68.512  1.00  0.00    -0.245 C  
BRANCH  11  12
HETATM   12  C   UNL     1      -9.830  16.072  67.991  1.00  0.00    -0.222 C  
BRANCH  12  13
HETATM   13  C   UNL     1     -10.502  17.440  68.082  1.00  0.00    -0.389 C  
HETATM   14  C   UNL     1     -10.254  18.290  66.859  1.00  0.00    -0.375 C  
HETATM   15  O   UNL     1      -9.631  17.942  65.871  1.00  0.00    -0.525 OA 
HETATM   16  O   UNL     1     -10.826  19.512  66.971  1.00  0.00    -0.487 OA 
ENDBRANCH  12  13
ENDBRANCH  11  12
ENDBRANCH  10  11
ENDBRANCH   4  10
TORSDOF 4
ENDMDL
MODEL        7
REMARK 921   NORMALIZED FREE ENERGY PREDICTED BY IDOCK:   -5.42 KCAL/MOL
REMARK 922        TOTAL FREE ENERGY PREDICTED BY IDOCK:   -6.86 KCAL/MOL
REMARK 923 INTER-LIGAND FREE ENERGY PREDICTED BY IDOCK:   -6.39 KCAL/MOL
REMARK 924 INTRA-LIGAND FREE ENERGY PREDICTED BY IDOCK:   -0.47 KCAL/MOL
REMARK 927      BINDING AFFINITY PREDICTED BY RF-SCORE:    0.00 PKD
ROOT
HETATM    1  C   UNL     1      -8.194  19.573  66.343  1.00  0.00    -0.333 C  
HETATM    2  C   UNL     1      -9.623  19.928  66.000  1.00  0.00    -0.346 C  
HETATM    3  S   UNL     1     -10.685  19.088  67.197  1.00  0.00    -0.399 SA 
HETATM    4  C   UNL     1      -9.336  18.561  68.326  1.00  0.00    -0.327 C  
HETATM    5  C   UNL     1      -8.061  19.303  67.844  1.00  0.00    -0.290 C  
HETATM    6  O   UNL     1      -5.904  16.961  66.409  1.00  0.00    -0.320 OA 
HETATM    7  C   UNL     1      -6.706  17.841  66.650  1.00  0.00    -0.205 C  
HETATM    8  N   UNL     1      -6.855  18.508  67.861  1.00  0.00    -0.216 NA 
HETATM    9  N   UNL     1      -7.649  18.362  65.772  1.00  0.00    -0.526 NA 
ENDROOT
BRANCH   4  10
HETATM   10  C   UNL     1      -9.339  17.017  68.365  1.00  0.00    -0.266 C  
BRANCH  10  11
HETATM   11  C   UNL     1     -10.418  16.318  67.519  1.00  0.00    -0.302 C  
BRANCH  11  12
HETATM   12  C   UNL     1      -9.887  15.470  66.364  1.00  0.00    -0.298 C  
BRANCH  12  13
HETATM   13  C   UNL     1     -11.018  14.802  65.586  1.00  0.00    -0.345 C  
HETATM   14  C   UNL     1     -11.618  15.711  64.540  1.00  0.00    -0.262 C  
HETATM   15  O   UNL     1     -11.238  16.841  64.285  1.00  0.00    -1.163 OA 
HETATM   16  O   UNL     1     -12.642  15.116  63.885  1.00  0.00    -0.794 OA 
ENDBRANCH  12  13
ENDBRANCH  11  12
ENDBRANCH  10  11
ENDBRANCH   4  10
TORSDOF 4
ENDMDL
MODEL        8
REMARK 921   NORMALIZED FREE ENERGY PREDICTED BY IDOCK:   -5.38 KCAL/MOL
REMARK 922        TOTAL FREE ENERGY PREDICTED BY IDOCK:   -6.81 KCAL/MOL
REMARK 923 INTER-LIGAND FREE ENERGY PREDICTED BY IDOCK:   -6.49 KCAL/MOL
REMARK 924 INTRA-LIGAND FREE ENERGY PREDICTED BY IDOCK:   -0.32 KCAL/MOL
REMARK 927      BINDING AFFINITY PREDICTED BY RF-SCORE:    0.00 PKD
ROOT
HETATM    1  C   UNL     1      -9.567  17.548  66.387  1.00  0.00    -0.269 C  
HETATM    2  C   UNL     1      -9.550  18.157  67.771  1.00  0.00    -0.286 C  
HETATM    3  S   UNL     1     -10.221  16.922  68.907  1.00  0.00    -0.328 SA 
HETATM    4  C   UNL     1     -10.214  15.527  67.712  1.00  0.00    -0.243 C  
HETATM    5  C   UNL     1      -9.421  16.027  66.476  1.00  0.00    -0.271 C  
HETATM    6  O   UNL     1     -11.665  16.468  63.837  1.00  0.00    -1.148 OA 
HETATM    7  C   UNL     1     -10.896  16.585  64.770  1.00  0.00    -0.127 C  
HETATM    8  N   UNL     1      -9.977  15.636  65.201  1.00  0.00    -0.370 NA 
HETATM    9  N   UNL     1     -10.778  17.687  65.609  1.00  0.00    -0.487 NA 
ENDROOT
BRANCH   4  10
HETATM   10  C   UNL     1     -11.677  15.063  67.531  1.00  0.00    -0.270 C  
BRANCH  10  11
HETATM   11  C   UNL     1     -11.897  13.546  67.396  1.00  0.00    -0.423 C  
BRANCH  11  12
HETATM   12  C   UNL     1     -12.349  13.078  66.012  1.00  0.00    -0.387 C  
BRANCH  12  13
HETATM   13  C   UNL     1     -11.193  12.487  65.209  1.00  0.00    -0.341 C  
HETATM   14  C   UNL     1     -11.603  12.083  63.813  1.00  0.00    -0.476 C  
HETATM   15  O   UNL     1     -12.711  12.238  63.330  1.00  0.00    -0.727 OA 
HETATM   16  O   UNL     1     -10.576  11.528  63.128  1.00  0.00    -0.335 OA 
ENDBRANCH  12  13
ENDBRANCH  11  12
ENDBRANCH  10  11
ENDBRANCH   4  10
TORSDOF 4
ENDMDL
MODEL        9
REMARK 921   NORMALIZED FREE ENERGY PREDICTED BY IDOCK:   -5.36 KCAL/MOL
REMARK 922        TOTAL FREE ENERGY PREDICTED BY IDOCK:   -6.79 KCAL/MOL
REMARK 923 INTER-LIGAND FREE ENERGY PREDICTED BY IDOCK:   -6.47 KCAL/MOL
REMARK 924 INTRA-LIGAND FREE ENERGY PREDICTED BY IDOCK:   -0.31 KCAL/MOL
REMARK 927      BINDING AFFINITY PREDICTED BY RF-SCORE:    0.00 PKD
ROOT
HETATM    1  C   UNL     1     -10.579  12.035  65.137  1.00  0.00    -0.288 C  
HETATM    2  C   UNL     1      -9.296  11.942  65.931  1.00  0.00    -0.184 C  
HETATM    3  S   UNL     1      -9.498  12.978  67.399  1.00  0.00    -0.218 SA 
HETATM    4  C   UNL     1     -11.301  13.265  67.193  1.00  0.00    -0.317 C  
HETATM    5  C   UNL     1     -11.763  12.297  66.071  1.00  0.00    -0.388 C  
HETATM    6  O   UNL     1     -12.538  14.187  63.239  1.00  0.00    -0.766 OA 
HETATM    7  C   UNL     1     -12.042  13.471  64.086  1.00  0.00    -0.435 C  
HETATM    8  N   UNL     1     -12.712  12.859  65.139  1.00  0.00    -0.722 NA 
HETATM    9  N   UNL     1     -10.701  13.119  64.188  1.00  0.00    -0.407 NA 
ENDROOT
BRANCH   4  10
HETATM   10  C   UNL     1     -11.511  14.785  67.009  1.00  0.00    -0.362 C  
BRANCH  10  11
HETATM   11  C   UNL     1     -11.320  15.653  68.265  1.00  0.00    -0.357 C  
BRANCH  11  12
HETATM   12  C   UNL     1     -10.218  16.708  68.162  1.00  0.00    -0.280 C  
BRANCH  12  13
HETATM   13  C   UNL     1     -10.746  18.025  67.599  1.00  0.00    -0.360 C  
HETATM   14  C   UNL     1     -10.041  18.436  66.328  1.00  0.00    -0.392 C  
HETATM   15  O   UNL     1      -9.176  17.793  65.761  1.00  0.00    -0.505 OA 
HETATM   16  O   UNL     1     -10.496  19.623  65.863  1.00  0.00    -0.494 OA 
ENDBRANCH  12  13
ENDBRANCH  11  12
ENDBRANCH  10  11
ENDBRANCH   4  10
TORSDOF 4
ENDMDL
MODEL       10
REMARK 921   NORMALIZED FREE ENERGY PREDICTED BY IDOCK:   -5.20 KCAL/MOL
REMARK 922        TOTAL FREE ENERGY PREDICTED BY IDOCK:   -6.59 KCAL/MOL
REMARK 923 INTER-LIGAND FREE ENERGY PREDICTED BY IDOCK:   -6.44 KCAL/MOL
REMARK 924 INTRA-LIGAND FREE ENERGY PREDICTED BY IDOCK:   -0.15 KCAL/MOL
REMARK 927      BINDING AFFINITY PREDICTED BY RF-SCORE:    0.00 PKD
ROOT
HETATM    1  C   UNL     1     -12.151  16.014  71.135  1.00  0.00    -0.360 C  
HETATM    2  C   UNL     1     -11.326  15.382  70.037  1.00  0.00    -0.306 C  
HETATM    3  S   UNL     1     -11.874  13.667  69.876  1.00  0.00    -0.307 SA 
HETATM    4  C   UNL     1     -13.356  13.829  70.949  1.00  0.00    -0.015 C  
HETATM    5  C   UNL     1     -13.527  15.348  71.214  1.00  0.00    -0.519 C  
HETATM    6  O   UNL     1     -12.741  15.975  74.558  1.00  0.00    -0.683 OA 
HETATM    7  C   UNL     1     -12.769  15.863  73.349  1.00  0.00    -0.562 C  
HETATM    8  N   UNL     1     -13.905  15.688  72.567  1.00  0.00    -0.566 NA 
HETATM    9  N   UNL     1     -11.674  15.877  72.493  1.00  0.00    -0.471 NA 
ENDROOT
BRANCH   4  10
HETATM   10  C   UNL     1     -13.170  12.872  72.147  1.00  0.00    -0.552 C  
BRANCH  10  11
HETATM   11  C   UNL     1     -13.643  11.422  71.938  1.00  0.00    -0.099 C  
BRANCH  11  12
HETATM   12  C   UNL     1     -12.582  10.468  71.389  1.00  0.00    -0.539 C  
BRANCH  12  13
HETATM   13  C   UNL     1     -12.552   9.151  72.161  1.00  0.00    -0.451 C  
HETATM   14  C   UNL     1     -11.168   8.552  72.232  1.00  0.00    -0.362 C  
HETATM   15  O   UNL     1     -10.156   9.055  71.776  1.00  0.00    -0.326 OA 
HETATM   16  O   UNL     1     -11.166   7.368  72.888  1.00  0.00    -0.327 OA 
ENDBRANCH  12  13
ENDBRANCH  11  12
ENDBRANCH  10  11
ENDBRANCH   4  10
TORSDOF 4
ENDMDL
MODEL       11
REMARK 921   NORMALIZED FREE ENERGY PREDICTED BY IDOCK:   -5.16 KCAL/MOL
REMARK 922        TOTAL FREE ENERGY PREDICTED BY IDOCK:   -6.55 KCAL/MOL
REMARK 923 INTER-LIGAND FREE ENERGY PREDICTED BY IDOCK:   -6.31 KCAL/MOL
REMARK 924 INTRA-LIGAND FREE ENERGY PREDICTED BY IDOCK:   -0.24 KCAL/MOL
REMARK 927      BINDING AFFINITY PREDICTED BY RF-SCORE:    0.00 PKD
ROOT
HETATM    1  C   UNL     1     -10.938  14.350  64.717  1.00  0.00    -0.397 C  
HETATM    2  C   UNL     1     -10.737  15.528  65.643  1.00  0.00    -0.366 C  
HETATM    3  S   UNL     1     -10.785  14.893  67.335  1.00  0.00    -0.299 SA 
HETATM    4  C   UNL     1     -10.725  13.114  66.882  1.00  0.00    -0.263 C  
HETATM    5  C   UNL     1     -10.404  13.070  65.364  1.00  0.00    -0.300 C  
HETATM    6  O   UNL     1     -13.258  11.986  63.669  1.00  0.00    -0.737 OA 
HETATM    7  C   UNL     1     -12.339  12.607  64.165  1.00  0.00    -0.436 C  
HETATM    8  N   UNL     1     -11.138  12.074  64.619  1.00  0.00    -0.312 NA 
HETATM    9  N   UNL     1     -12.297  13.977  64.394  1.00  0.00    -0.627 NA 
ENDROOT
BRANCH   4  10
HETATM   10  C   UNL     1     -12.026  12.459  67.396  1.00  0.00    -0.246 C  
BRANCH  10  11
HETATM   11  C   UNL     1     -11.855  11.250  68.332  1.00  0.00    -0.331 C  
BRANCH  11  12
HETATM   12  C   UNL     1     -11.602  11.598  69.799  1.00  0.00    -0.389 C  
BRANCH  12  13
HETATM   13  C   UNL     1     -12.669  11.000  70.714  1.00  0.00    -0.414 C  
HETATM   14  C   UNL     1     -12.139   9.867  71.559  1.00  0.00    -0.410 C  
HETATM   15  O   UNL     1     -10.985   9.475  71.572  1.00  0.00    -0.364 OA 
HETATM   16  O   UNL     1     -13.105   9.325  72.337  1.00  0.00    -0.419 OA 
ENDBRANCH  12  13
ENDBRANCH  11  12
ENDBRANCH  10  11
ENDBRANCH   4  10
TORSDOF 4
ENDMDL
MODEL       12
REMARK 921   NORMALIZED FREE ENERGY PREDICTED BY IDOCK:   -5.15 KCAL/MOL
REMARK 922        TOTAL FREE ENERGY PREDICTED BY IDOCK:   -6.53 KCAL/MOL
REMARK 923 INTER-LIGAND FREE ENERGY PREDICTED BY IDOCK:   -6.31 KCAL/MOL
REMARK 924 INTRA-LIGAND FREE ENERGY PREDICTED BY IDOCK:   -0.22 KCAL/MOL
REMARK 927      BINDING AFFINITY PREDICTED BY RF-SCORE:    0.00 PKD
ROOT
HETATM    1  C   UNL     1      -9.507  16.210  65.841  1.00  0.00    -0.302 C  
HETATM    2  C   UNL     1      -9.231  17.366  66.776  1.00  0.00    -0.260 C  
HETATM    3  S   UNL     1      -9.706  16.836  68.437  1.00  0.00    -0.258 SA 
HETATM    4  C   UNL     1      -9.938  15.062  68.022  1.00  0.00    -0.219 C  
HETATM    5  C   UNL     1      -9.372  14.881  66.588  1.00  0.00    -0.268 C  
HETATM    6  O   UNL     1     -12.047  14.316  64.416  1.00  0.00    -0.450 OA 
HETATM    7  C   UNL     1     -11.121  14.761  65.063  1.00  0.00    -0.405 C  
HETATM    8  N   UNL     1     -10.155  14.019  65.733  1.00  0.00    -0.321 NA 
HETATM    9  N   UNL     1     -10.836  16.105  65.281  1.00  0.00    -0.410 NA 
ENDROOT
BRANCH   4  10
HETATM   10  C   UNL     1     -11.416  14.709  68.299  1.00  0.00    -0.337 C  
BRANCH  10  11
HETATM   11  C   UNL     1     -12.070  15.415  69.500  1.00  0.00    -0.332 C  
BRANCH  11  12
HETATM   12  C   UNL     1     -11.755  14.797  70.863  1.00  0.00    -0.360 C  
BRANCH  12  13
HETATM   13  C   UNL     1     -11.957  15.799  71.997  1.00  0.00    -0.570 C  
HETATM   14  C   UNL     1     -12.963  15.323  73.018  1.00  0.00    -0.493 C  
HETATM   15  O   UNL     1     -13.536  14.248  72.997  1.00  0.00    -0.644 OA 
HETATM   16  O   UNL     1     -13.157  16.238  73.997  1.00  0.00    -0.687 OA 
ENDBRANCH  12  13
ENDBRANCH  11  12
ENDBRANCH  10  11
ENDBRANCH   4  10
TORSDOF 4
ENDMDL
MODEL       13
REMARK 921   NORMALIZED FREE ENERGY PREDICTED BY IDOCK:   -5.12 KCAL/MOL
REMARK 922        TOTAL FREE ENERGY PREDICTED BY IDOCK:   -6.49 KCAL/MOL
REMARK 923 INTER-LIGAND FREE ENERGY PREDICTED BY IDOCK:   -5.92 KCAL/MOL
REMARK 924 INTRA-LIGAND FREE ENERGY PREDICTED BY IDOCK:   -0.58 KCAL/MOL
REMARK 927      BINDING AFFINITY PREDICTED BY RF-SCORE:    0.00 PKD
ROOT
HETATM    1  C   UNL     1     -11.268  11.810  68.848  1.00  0.00    -0.253 C  
HETATM    2  C   UNL     1     -11.027  10.323  68.976  1.00  0.00    -0.232 C  
HETATM    3  S   UNL     1      -9.656   9.906  67.874  1.00  0.00    -0.139 SA 
HETATM    4  C   UNL     1      -9.165  11.637  67.502  1.00  0.00    -0.172 C  
HETATM    5  C   UNL     1      -9.965  12.529  68.489  1.00  0.00    -0.165 C  
HETATM    6  O   UNL     1     -12.379  14.282  66.675  1.00  0.00    -0.446 OA 
HETATM    7  C   UNL     1     -11.750  13.520  67.381  1.00  0.00    -0.380 C  
HETATM    8  N   UNL     1     -10.487  13.747  67.916  1.00  0.00    -0.242 NA 
HETATM    9  N   UNL     1     -12.155  12.256  67.798  1.00  0.00    -0.446 NA 
ENDROOT
BRANCH   4  10
HETATM   10  C   UNL     1      -9.339  11.852  65.982  1.00  0.00    -0.215 C  
BRANCH  10  11
HETATM   11  C   UNL     1      -9.989  10.696  65.202  1.00  0.00    -0.366 C  
BRANCH  11  12
HETATM   12  C   UNL     1     -10.505  11.064  63.810  1.00  0.00    -0.408 C  
BRANCH  12  13
HETATM   13  C   UNL     1     -10.858  12.545  63.711  1.00  0.00    -0.489 C  
HETATM   14  C   UNL     1     -12.334  12.775  63.487  1.00  0.00    -0.467 C  
HETATM   15  O   UNL     1     -13.184  11.904  63.432  1.00  0.00    -0.649 OA 
HETATM   16  O   UNL     1     -12.624  14.092  63.365  1.00  0.00    -0.845 OA 
ENDBRANCH  12  13
ENDBRANCH  11  12
ENDBRANCH  10  11
ENDBRANCH   4  10
TORSDOF 4
ENDMDL
MODEL       14
REMARK 921   NORMALIZED FREE ENERGY PREDICTED BY IDOCK:   -5.11 KCAL/MOL
REMARK 922        TOTAL FREE ENERGY PREDICTED BY IDOCK:   -6.48 KCAL/MOL
REMARK 923 INTER-LIGAND FREE ENERGY PREDICTED BY IDOCK:   -6.17 KCAL/MOL
REMARK 924 INTRA-LIGAND FREE ENERGY PREDICTED BY IDOCK:   -0.31 KCAL/MOL
REMARK 927      BINDING AFFINITY PREDICTED BY RF-SCORE:    0.00 PKD
ROOT
HETATM    1  C   UNL     1      -8.105  18.028  67.955  1.00  0.00    -0.243 C  
HETATM    2  C   UNL     1      -7.511  16.800  68.607  1.00  0.00    -0.219 C  
HETATM    3  S   UNL     1      -7.858  15.397  67.521  1.00  0.00    -0.188 SA 
HETATM    4  C   UNL     1      -8.454  16.391  66.095  1.00  0.00    -0.294 C  
HETATM    5  C   UNL     1      -8.116  17.867  66.432  1.00  0.00    -0.261 C  
HETATM    6  O   UNL     1     -11.102  19.556  67.086  1.00  0.00    -0.446 OA 
HETATM    7  C   UNL     1     -10.037  18.974  67.129  1.00  0.00    -0.364 C  
HETATM    8  N   UNL     1      -9.142  18.820  66.076  1.00  0.00    -0.471 NA 
HETATM    9  N   UNL     1      -9.491  18.330  68.234  1.00  0.00    -0.297 NA 
ENDROOT
BRANCH   4  10
HETATM   10  C   UNL     1      -9.924  15.995  65.835  1.00  0.00    -0.380 C  
BRANCH  10  11
HETATM   11  C   UNL     1     -10.342  14.589  66.301  1.00  0.00    -0.300 C  
BRANCH  11  12
HETATM   12  C   UNL     1     -11.851  14.342  66.343  1.00  0.00    -0.402 C  
BRANCH  12  13
HETATM   13  C   UNL     1     -12.226  13.023  65.672  1.00  0.00    -0.521 C  
HETATM   14  C   UNL     1     -12.594  13.196  64.218  1.00  0.00    -0.209 C  
HETATM   15  O   UNL     1     -12.563  14.247  63.602  1.00  0.00    -0.831 OA 
HETATM   16  O   UNL     1     -12.959  12.023  63.649  1.00  0.00    -0.747 OA 
ENDBRANCH  12  13
ENDBRANCH  11  12
ENDBRANCH  10  11
ENDBRANCH   4  10
TORSDOF 4
ENDMDL
MODEL       15
REMARK 921   NORMALIZED FREE ENERGY PREDICTED BY IDOCK:   -5.09 KCAL/MOL
REMARK 922        TOTAL FREE ENERGY PREDICTED BY IDOCK:   -6.46 KCAL/MOL
REMARK 923 INTER-LIGAND FREE ENERGY PREDICTED BY IDOCK:   -6.11 KCAL/MOL
REMARK 924 INTRA-LIGAND FREE ENERGY PREDICTED BY IDOCK:   -0.35 KCAL/MOL
REMARK 927      BINDING AFFINITY PREDICTED BY RF-SCORE:    0.00 PKD
ROOT
HETATM    1  C   UNL     1     -11.531  11.879  65.737  1.00  0.00    -0.265 C  
HETATM    2  C   UNL     1     -11.646  12.364  67.165  1.00  0.00    -0.365 C  
HETATM    3  S   UNL     1     -12.032  14.129  67.100  1.00  0.00    -0.395 SA 
HETATM    4  C   UNL     1     -12.377  14.192  65.297  1.00  0.00    -0.460 C  
HETATM    5  C   UNL     1     -12.424  12.716  64.819  1.00  0.00    -0.484 C  
HETATM    6  O   UNL     1      -9.601  12.104  62.858  1.00  0.00    -0.247 OA 
HETATM    7  C   UNL     1     -10.445  12.179  63.728  1.00  0.00    -0.437 C  
HETATM    8  N   UNL     1     -11.791  12.472  63.544  1.00  0.00    -0.510 NA 
HETATM    9  N   UNL     1     -10.243  11.998  65.092  1.00  0.00    -0.269 NA 
ENDROOT
BRANCH   4  10
HETATM   10  C   UNL     1     -11.351  15.156  64.661  1.00  0.00    -0.362 C  
BRANCH  10  11
HETATM   11  C   UNL     1     -10.336  15.799  65.623  1.00  0.00    -0.411 C  
BRANCH  11  12
HETATM   12  C   UNL     1     -10.406  17.324  65.714  1.00  0.00    -0.245 C  
BRANCH  12  13
HETATM   13  C   UNL     1     -10.441  17.803  67.163  1.00  0.00    -0.338 C  
HETATM   14  C   UNL     1     -10.337  19.305  67.279  1.00  0.00    -0.436 C  
HETATM   15  O   UNL     1     -10.277  20.084  66.344  1.00  0.00    -0.453 OA 
HETATM   16  O   UNL     1     -10.333  19.710  68.571  1.00  0.00    -0.431 OA 
ENDBRANCH  12  13
ENDBRANCH  11  12
ENDBRANCH  10  11
ENDBRANCH   4  10
TORSDOF 4
ENDMDL
MODEL       16
REMARK 921   NORMALIZED FREE ENERGY PREDICTED BY IDOCK:   -5.08 KCAL/MOL
REMARK 922        TOTAL FREE ENERGY PREDICTED BY IDOCK:   -6.44 KCAL/MOL
REMARK 923 INTER-LIGAND FREE ENERGY PREDICTED BY IDOCK:   -6.13 KCAL/MOL
REMARK 924 INTRA-LIGAND FREE ENERGY PREDICTED BY IDOCK:   -0.31 KCAL/MOL
REMARK 927      BINDING AFFINITY PREDICTED BY RF-SCORE:    0.00 PKD
ROOT
HETATM    1  C   UNL     1      -8.893  19.417  67.346  1.00  0.00    -0.301 C  
HETATM    2  C   UNL     1     -10.346  19.286  67.746  1.00  0.00    -0.429 C  
HETATM    3  S   UNL     1     -10.650  17.538  68.091  1.00  0.00    -0.329 SA 
HETATM    4  C   UNL     1      -8.888  17.018  68.059  1.00  0.00    -0.223 C  
HETATM    5  C   UNL     1      -8.057  18.329  68.024  1.00  0.00    -0.270 C  
HETATM    6  O   UNL     1      -6.597  18.618  64.865  1.00  0.00    -0.514 OA 
HETATM    7  C   UNL     1      -7.276  18.705  65.869  1.00  0.00    -0.232 C  
HETATM    8  N   UNL     1      -6.911  18.295  67.145  1.00  0.00    -0.191 NA 
HETATM    9  N   UNL     1      -8.563  19.224  65.952  1.00  0.00    -0.428 NA 
ENDROOT
BRANCH   4  10
HETATM   10  C   UNL     1      -8.727  15.993  66.915  1.00  0.00    -0.259 C  
BRANCH  10  11
HETATM   11  C   UNL     1     -10.017  15.586  66.181  1.00  0.00    -0.332 C  
BRANCH  11  12
HETATM   12  C   UNL     1     -10.127  14.099  65.843  1.00  0.00    -0.337 C  
BRANCH  12  13
HETATM   13  C   UNL     1     -11.293  13.819  64.898  1.00  0.00    -0.353 C  
HETATM   14  C   UNL     1     -12.228  12.758  65.429  1.00  0.00    -0.478 C  
HETATM   15  O   UNL     1     -12.121  12.198  66.506  1.00  0.00    -0.627 OA 
HETATM   16  O   UNL     1     -13.235  12.497  64.563  1.00  0.00    -0.832 OA 
ENDBRANCH  12  13
ENDBRANCH  11  12
ENDBRANCH  10  11
ENDBRANCH   4  10
TORSDOF 4
ENDMDL
MODEL       17
REMARK 921   NORMALIZED FREE ENERGY PREDICTED BY IDOCK:   -5.05 KCAL/MOL
REMARK 922        TOTAL FREE ENERGY PREDICTED BY IDOCK:   -6.40 KCAL/MOL
REMARK 923 INTER-LIGAND FREE ENERGY PREDICTED BY IDOCK:   -6.09 KCAL/MOL
REMARK 924 INTRA-LIGAND FREE ENERGY PREDICTED BY IDOCK:   -0.32 KCAL/MOL
REMARK 927      BINDING AFFINITY PREDICTED BY RF-SCORE:    0.00 PKD
ROOT
HETATM    1  C   UNL     1      -9.250   9.897  67.015  1.00  0.00    -0.142 C  
HETATM    2  C   UNL     1      -8.649   8.904  66.046  1.00  0.00    -0.145 C  
HETATM    3  S   UNL     1      -8.942   9.539  64.379  1.00  0.00    -0.175 SA 
HETATM    4  C   UNL     1      -9.521  11.204  64.898  1.00  0.00    -0.219 C  
HETATM    5  C   UNL     1      -9.220  11.306  66.417  1.00  0.00    -0.192 C  
HETATM    6  O   UNL     1     -12.253  11.230  68.145  1.00  0.00    -0.622 OA 
HETATM    7  C   UNL     1     -11.178  10.999  67.628  1.00  0.00    -0.305 C  
HETATM    8  N   UNL     1     -10.254  11.944  67.197  1.00  0.00    -0.207 NA 
HETATM    9  N   UNL     1     -10.648   9.745  67.349  1.00  0.00    -0.267 NA 
ENDROOT
BRANCH   4  10
HETATM   10  C   UNL     1     -10.976  11.364  64.406  1.00  0.00    -0.371 C  
BRANCH  10  11
HETATM   11  C   UNL     1     -11.283  12.635  63.595  1.00  0.00    -0.525 C  
BRANCH  11  12
HETATM   12  C   UNL     1     -12.004  13.739  64.370  1.00  0.00    -0.480 C  
BRANCH  12  13
HETATM   13  C   UNL     1     -11.033  14.569  65.205  1.00  0.00    -0.366 C  
HETATM   14  C   UNL     1     -10.994  16.018  64.780  1.00  0.00    -0.356 C  
HETATM   15  O   UNL     1     -11.679  16.515  63.904  1.00  0.00    -1.148 OA 
HETATM   16  O   UNL     1     -10.102  16.731  65.506  1.00  0.00    -0.566 OA 
ENDBRANCH  12  13
ENDBRANCH  11  12
ENDBRANCH  10  11
ENDBRANCH   4  10
TORSDOF 4
ENDMDL
MODEL       18
REMARK 921   NORMALIZED FREE ENERGY PREDICTED BY IDOCK:   -5.03 KCAL/MOL
REMARK 922        TOTAL FREE ENERGY PREDICTED BY IDOCK:   -6.38 KCAL/MOL
REMARK 923 INTER-LIGAND FREE ENERGY PREDICTED BY IDOCK:   -6.16 KCAL/MOL
REMARK 924 INTRA-LIGAND FREE ENERGY PREDICTED BY IDOCK:   -0.22 KCAL/MOL
REMARK 927      BINDING AFFINITY PREDICTED BY RF-SCORE:    0.00 PKD
ROOT
HETATM    1  C   UNL     1      -8.252  17.068  66.263  1.00  0.00    -0.287 C  
HETATM    2  C   UNL     1      -7.404  16.157  67.121  1.00  0.00    -0.215 C  
HETATM    3  S   UNL     1      -8.529  15.215  68.176  1.00  0.00    -0.157 SA 
HETATM    4  C   UNL     1     -10.074  15.715  67.317  1.00  0.00    -0.255 C  
HETATM    5  C   UNL     1      -9.626  16.439  66.019  1.00  0.00    -0.319 C  
HETATM    6  O   UNL     1     -10.345  19.840  66.354  1.00  0.00    -0.438 OA 
HETATM    7  C   UNL     1      -9.840  18.737  66.287  1.00  0.00    -0.353 C  
HETATM    8  N   UNL     1     -10.396  17.614  65.685  1.00  0.00    -0.635 NA 
HETATM    9  N   UNL     1      -8.607  18.360  66.806  1.00  0.00    -0.268 NA 
ENDROOT
BRANCH   4  10
HETATM   10  C   UNL     1     -10.949  16.475  68.339  1.00  0.00    -0.348 C  
BRANCH  10  11
HETATM   11  C   UNL     1     -10.681  16.168  69.823  1.00  0.00    -0.336 C  
BRANCH  11  12
HETATM   12  C   UNL     1     -11.910  15.747  70.629  1.00  0.00    -0.415 C  
BRANCH  12  13
HETATM   13  C   UNL     1     -11.563  15.480  72.092  1.00  0.00    -0.552 C  
HETATM   14  C   UNL     1     -12.732  15.719  73.018  1.00  0.00    -0.491 C  
HETATM   15  O   UNL     1     -13.854  16.043  72.670  1.00  0.00    -0.477 OA 
HETATM   16  O   UNL     1     -12.396  15.513  74.313  1.00  0.00    -0.612 OA 
ENDBRANCH  12  13
ENDBRANCH  11  12
ENDBRANCH  10  11
ENDBRANCH   4  10
TORSDOF 4
ENDMDL
MODEL       19
REMARK 921   NORMALIZED FREE ENERGY PREDICTED BY IDOCK:   -5.02 KCAL/MOL
REMARK 922        TOTAL FREE ENERGY PREDICTED BY IDOCK:   -6.37 KCAL/MOL
REMARK 923 INTER-LIGAND FREE ENERGY PREDICTED BY IDOCK:   -6.11 KCAL/MOL
REMARK 924 INTRA-LIGAND FREE ENERGY PREDICTED BY IDOCK:   -0.26 KCAL/MOL
REMARK 927      BINDING AFFINITY PREDICTED BY RF-SCORE:    0.00 PKD
ROOT
HETATM    1  C   UNL     1      -7.347  17.615  67.846  1.00  0.00    -0.202 C  
HETATM    2  C   UNL     1      -7.338  16.358  68.687  1.00  0.00    -0.186 C  
HETATM    3  S   UNL     1      -8.438  15.170  67.883  1.00  0.00    -0.155 SA 
HETATM    4  C   UNL     1      -8.651  16.118  66.324  1.00  0.00    -0.338 C  
HETATM    5  C   UNL     1      -7.613  17.270  66.379  1.00  0.00    -0.314 C  
HETATM    6  O   UNL     1      -9.331  20.277  66.823  1.00  0.00    -0.369 OA 
HETATM    7  C   UNL     1      -8.676  19.260  66.932  1.00  0.00    -0.299 C  
HETATM    8  N   UNL     1      -8.094  18.543  65.894  1.00  0.00    -0.496 NA 
HETATM    9  N   UNL     1      -8.377  18.593  68.115  1.00  0.00    -0.298 NA 
ENDROOT
BRANCH   4  10
HETATM   10  C   UNL     1     -10.151  16.462  66.191  1.00  0.00    -0.364 C  
BRANCH  10  11
HETATM   11  C   UNL     1     -10.883  15.857  64.979  1.00  0.00    -0.444 C  
BRANCH  11  12
HETATM   12  C   UNL     1     -10.655  14.360  64.767  1.00  0.00    -0.417 C  
BRANCH  12  13
HETATM   13  C   UNL     1     -11.829  13.706  64.043  1.00  0.00    -0.444 C  
HETATM   14  C   UNL     1     -12.459  12.594  64.846  1.00  0.00    -0.494 C  
HETATM   15  O   UNL     1     -12.126  12.257  65.969  1.00  0.00    -0.623 OA 
HETATM   16  O   UNL     1     -13.474  12.002  64.174  1.00  0.00    -0.672 OA 
ENDBRANCH  12  13
ENDBRANCH  11  12
ENDBRANCH  10  11
ENDBRANCH   4  10
TORSDOF 4
ENDMDL
MODEL       20
REMARK 921   NORMALIZED FREE ENERGY PREDICTED BY IDOCK:   -5.00 KCAL/MOL
REMARK 922        TOTAL FREE ENERGY PREDICTED BY IDOCK:   -6.34 KCAL/MOL
REMARK 923 INTER-LIGAND FREE ENERGY PREDICTED BY IDOCK:   -6.15 KCAL/MOL
REMARK 924 INTRA-LIGAND FREE ENERGY PREDICTED BY IDOCK:   -0.19 KCAL/MOL
REMARK 927      BINDING AFFINITY PREDICTED BY RF-SCORE:    0.00 PKD
ROOT
HETATM    1  C   UNL     1     -11.290  14.561  66.275  1.00  0.00    -0.352 C  
HETATM    2  C   UNL     1     -11.210  15.313  67.585  1.00  0.00    -0.320 C  
HETATM    3  S   UNL     1     -10.982  14.086  68.892  1.00  0.00    -0.261 SA 
HETATM    4  C   UNL     1     -10.654  12.664  67.778  1.00  0.00    -0.220 C  
HETATM    5  C   UNL     1     -10.479  13.265  66.358  1.00  0.00    -0.284 C  
HETATM    6  O   UNL     1     -13.249  12.362  64.433  1.00  0.00    -0.816 OA 
HETATM    7  C   UNL     1     -12.410  12.917  65.113  1.00  0.00    -0.493 C  
HETATM    8  N   UNL     1     -11.095  12.503  65.297  1.00  0.00    -0.289 NA 
HETATM    9  N   UNL     1     -12.586  14.076  65.860  1.00  0.00    -0.487 NA 
ENDROOT
BRANCH   4  10
HETATM   10  C   UNL     1     -11.764  11.618  68.020  1.00  0.00    -0.351 C  
BRANCH  10  11
HETATM   11  C   UNL     1     -11.993  11.196  69.483  1.00  0.00    -0.425 C  
BRANCH  11  12
HETATM   12  C   UNL     1     -11.025  10.136  70.010  1.00  0.00    -0.364 C  
BRANCH  12  13
HETATM   13  C   UNL     1     -11.668   9.272  71.092  1.00  0.00    -0.394 C  
HETATM   14  C   UNL     1     -10.659   8.731  72.076  1.00  0.00    -0.344 C  
HETATM   15  O   UNL     1      -9.465   8.972  72.068  1.00  0.00    -0.339 OA 
HETATM   16  O   UNL     1     -11.241   7.938  73.007  1.00  0.00    -0.411 OA 
ENDBRANCH  12  13
ENDBRANCH  11  12
ENDBRANCH  10  11
ENDBRANCH   4  10
TORSDOF 4
ENDMDL
MODEL       21
REMARK 921   NORMALIZED FREE ENERGY PREDICTED BY IDOCK:   -5.00 KCAL/MOL
REMARK 922        TOTAL FREE ENERGY PREDICTED BY IDOCK:   -6.34 KCAL/MOL
REMARK 923 INTER-LIGAND FREE ENERGY PREDICTED BY IDOCK:   -5.87 KCAL/MOL
REMARK 924 INTRA-LIGAND FREE ENERGY PREDICTED BY IDOCK:   -0.48 KCAL/MOL
REMARK 927      BINDING AFFINITY PREDICTED BY RF-SCORE:    0.00 PKD
ROOT
HETATM    1  C   UNL     1     -10.768  10.571  69.043  1.00  0.00    -0.225 C  
HETATM    2  C   UNL     1     -10.646   9.089  69.315  1.00  0.00    -0.213 C  
HETATM    3  S   UNL     1      -9.883   8.338  67.859  1.00  0.00    -0.178 SA 
HETATM    4  C   UNL     1      -9.412   9.916  67.044  1.00  0.00    -0.160 C  
HETATM    5  C   UNL     1      -9.655  11.030  68.098  1.00  0.00    -0.171 C  
HETATM    6  O   UNL     1     -12.406  12.924  67.081  1.00  0.00    -0.339 OA 
HETATM    7  C   UNL     1     -11.626  12.158  67.610  1.00  0.00    -0.343 C  
HETATM    8  N   UNL     1     -10.239  12.242  67.574  1.00  0.00    -0.202 NA 
HETATM    9  N   UNL     1     -11.953  11.029  68.353  1.00  0.00    -0.581 NA 
ENDROOT
BRANCH   4  10
HETATM   10  C   UNL     1     -10.159   9.983  65.693  1.00  0.00    -0.321 C  
BRANCH  10  11
HETATM   11  C   UNL     1      -9.366  10.556  64.506  1.00  0.00    -0.299 C  
BRANCH  11  12
HETATM   12  C   UNL     1     -10.217  11.183  63.401  1.00  0.00    -0.435 C  
BRANCH  12  13
HETATM   13  C   UNL     1     -10.688  12.585  63.777  1.00  0.00    -0.483 C  
HETATM   14  C   UNL     1     -12.183  12.751  63.642  1.00  0.00    -0.512 C  
HETATM   15  O   UNL     1     -12.963  11.873  63.316  1.00  0.00    -0.707 OA 
HETATM   16  O   UNL     1     -12.578  14.009  63.944  1.00  0.00    -0.698 OA 
ENDBRANCH  12  13
ENDBRANCH  11  12
ENDBRANCH  10  11
ENDBRANCH   4  10
TORSDOF 4
ENDMDL
MODEL       22
REMARK 921   NORMALIZED FREE ENERGY PREDICTED BY IDOCK:   -4.98 KCAL/MOL
REMARK 922        TOTAL FREE ENERGY PREDICTED BY IDOCK:   -6.33 KCAL/MOL
REMARK 923 INTER-LIGAND FREE ENERGY PREDICTED BY IDOCK:   -6.10 KCAL/MOL
REMARK 924 INTRA-LIGAND FREE ENERGY PREDICTED BY IDOCK:   -0.23 KCAL/MOL
REMARK 927      BINDING AFFINITY PREDICTED BY RF-SCORE:    0.00 PKD
ROOT
HETATM    1  C   UNL     1     -11.586  12.120  66.080  1.00  0.00    -0.354 C  
HETATM    2  C   UNL     1     -10.425  11.579  66.884  1.00  0.00    -0.235 C  
HETATM    3  S   UNL     1      -9.471  13.000  67.467  1.00  0.00    -0.206 SA 
HETATM    4  C   UNL     1     -10.703  14.277  66.990  1.00  0.00    -0.290 C  
HETATM    5  C   UNL     1     -11.989  13.503  66.596  1.00  0.00    -0.404 C  
HETATM    6  O   UNL     1     -12.420  13.774  63.141  1.00  0.00    -0.786 OA 
HETATM    7  C   UNL     1     -12.185  13.429  64.282  1.00  0.00    -0.392 C  
HETATM    8  N   UNL     1     -12.678  14.023  65.438  1.00  0.00    -0.651 NA 
HETATM    9  N   UNL     1     -11.366  12.377  64.675  1.00  0.00    -0.304 NA 
ENDROOT
BRANCH   4  10
HETATM   10  C   UNL     1     -10.033  15.203  65.950  1.00  0.00    -0.355 C  
BRANCH  10  11
HETATM   11  C   UNL     1     -10.331  16.706  66.088  1.00  0.00    -0.340 C  
BRANCH  11  12
HETATM   12  C   UNL     1      -9.416  17.462  67.052  1.00  0.00    -0.268 C  
BRANCH  12  13
HETATM   13  C   UNL     1      -9.349  18.950  66.719  1.00  0.00    -0.343 C  
HETATM   14  C   UNL     1      -9.807  19.822  67.864  1.00  0.00    -0.404 C  
HETATM   15  O   UNL     1     -10.154  19.421  68.962  1.00  0.00    -0.430 OA 
HETATM   16  O   UNL     1      -9.776  21.135  67.539  1.00  0.00    -0.333 OA 
ENDBRANCH  12  13
ENDBRANCH  11  12
ENDBRANCH  10  11
ENDBRANCH   4  10
TORSDOF 4
ENDMDL
MODEL       23
REMARK 921   NORMALIZED FREE ENERGY PREDICTED BY IDOCK:   -4.90 KCAL/MOL
REMARK 922        TOTAL FREE ENERGY PREDICTED BY IDOCK:   -6.23 KCAL/MOL
REMARK 923 INTER-LIGAND FREE ENERGY PREDICTED BY IDOCK:   -5.80 KCAL/MOL
REMARK 924 INTRA-LIGAND FREE ENERGY PREDICTED BY IDOCK:   -0.42 KCAL/MOL
REMARK 927      BINDING AFFINITY PREDICTED BY RF-SCORE:    0.00 PKD
ROOT
HETATM    1  C   UNL     1      -9.546  17.295  68.048  1.00  0.00    -0.274 C  
HETATM    2  C   UNL     1      -9.874  16.241  69.081  1.00  0.00    -0.258 C  
HETATM    3  S   UNL     1     -10.019  14.664  68.208  1.00  0.00    -0.227 SA 
HETATM    4  C   UNL     1      -9.345  15.260  66.606  1.00  0.00    -0.260 C  
HETATM    5  C   UNL     1      -8.769  16.674  66.884  1.00  0.00    -0.214 C  
HETATM    6  O   UNL     1     -10.823  19.024  65.319  1.00  0.00    -0.540 OA 
HETATM    7  C   UNL     1     -10.235  18.291  66.088  1.00  0.00    -0.381 C  
HETATM    8  N   UNL     1      -9.026  17.647  65.848  1.00  0.00    -0.518 NA 
HETATM    9  N   UNL     1     -10.650  17.930  67.365  1.00  0.00    -0.383 NA 
ENDROOT
BRANCH   4  10
HETATM   10  C   UNL     1     -10.455  15.095  65.545  1.00  0.00    -0.400 C  
BRANCH  10  11
HETATM   11  C   UNL     1     -11.757  14.426  66.022  1.00  0.00    -0.378 C  
BRANCH  11  12
HETATM   12  C   UNL     1     -12.121  13.129  65.298  1.00  0.00    -0.471 C  
BRANCH  12  13
HETATM   13  C   UNL     1     -11.305  12.945  64.022  1.00  0.00    -0.466 C  
HETATM   14  C   UNL     1     -10.454  11.698  64.053  1.00  0.00    -0.367 C  
HETATM   15  O   UNL     1     -10.430  10.882  64.958  1.00  0.00    -0.295 OA 
HETATM   16  O   UNL     1      -9.709  11.569  62.930  1.00  0.00    -0.372 OA 
ENDBRANCH  12  13
ENDBRANCH  11  12
ENDBRANCH  10  11
ENDBRANCH   4  10
TORSDOF 4
ENDMDL
MODEL       24
REMARK 921   NORMALIZED FREE ENERGY PREDICTED BY IDOCK:   -4.90 KCAL/MOL
REMARK 922        TOTAL FREE ENERGY PREDICTED BY IDOCK:   -6.23 KCAL/MOL
REMARK 923 INTER-LIGAND FREE ENERGY PREDICTED BY IDOCK:   -5.96 KCAL/MOL
REMARK 924 INTRA-LIGAND FREE ENERGY PREDICTED BY IDOCK:   -0.27 KCAL/MOL
REMARK 927      BINDING AFFINITY PREDICTED BY RF-SCORE:    0.00 PKD
ROOT
HETATM    1  C   UNL     1     -12.976  15.541  72.367  1.00  0.00    -0.421 C  
HETATM    2  C   UNL     1     -11.789  16.462  72.197  1.00  0.00    -0.418 C  
HETATM    3  S   UNL     1     -11.048  16.088  70.591  1.00  0.00    -0.273 SA 
HETATM    4  C   UNL     1     -12.411  15.015  69.987  1.00  0.00    -0.275 C  
HETATM    5  C   UNL     1     -13.572  15.187  71.002  1.00  0.00    -0.409 C  
HETATM    6  O   UNL     1     -13.894  12.221  72.816  1.00  0.00    -0.019 OA 
HETATM    7  C   UNL     1     -13.663  13.343  72.411  1.00  0.00    -0.597 C  
HETATM    8  N   UNL     1     -14.274  13.969  71.331  1.00  0.00    -0.146 NA 
HETATM    9  N   UNL     1     -12.734  14.235  72.935  1.00  0.00    -0.349 NA 
ENDROOT
BRANCH   4  10
HETATM   10  C   UNL     1     -11.823  13.607  69.747  1.00  0.00    -0.392 C  
BRANCH  10  11
HETATM   11  C   UNL     1     -11.954  13.050  68.318  1.00  0.00    -0.306 C  
BRANCH  11  12
HETATM   12  C   UNL     1     -11.809  14.087  67.203  1.00  0.00    -0.444 C  
BRANCH  12  13
HETATM   13  C   UNL     1     -12.672  13.739  65.993  1.00  0.00    -0.407 C  
HETATM   14  C   UNL     1     -11.906  13.814  64.694  1.00  0.00    -0.402 C  
HETATM   15  O   UNL     1     -10.720  14.073  64.588  1.00  0.00    -0.407 OA 
HETATM   16  O   UNL     1     -12.694  13.539  63.629  1.00  0.00    -0.695 OA 
ENDBRANCH  12  13
ENDBRANCH  11  12
ENDBRANCH  10  11
ENDBRANCH   4  10
TORSDOF 4
ENDMDL
MODEL       25
REMARK 921   NORMALIZED FREE ENERGY PREDICTED BY IDOCK:   -4.86 KCAL/MOL
REMARK 922        TOTAL FREE ENERGY PREDICTED BY IDOCK:   -6.18 KCAL/MOL
REMARK 923 INTER-LIGAND FREE ENERGY PREDICTED BY IDOCK:   -5.80 KCAL/MOL
REMARK 924 INTRA-LIGAND FREE ENERGY PREDICTED BY IDOCK:   -0.37 KCAL/MOL
REMARK 927      BINDING AFFINITY PREDICTED BY RF-SCORE:    0.00 PKD
ROOT
HETATM    1  C   UNL     1      -8.269  17.451  67.856  1.00  0.00    -0.225 C  
HETATM    2  C   UNL     1      -7.959  16.133  68.530  1.00  0.00    -0.175 C  
HETATM    3  S   UNL     1      -8.735  14.833  67.542  1.00  0.00    -0.198 SA 
HETATM    4  C   UNL     1      -9.165  15.899  66.110  1.00  0.00    -0.349 C  
HETATM    5  C   UNL     1      -8.437  17.249  66.348  1.00  0.00    -0.269 C  
HETATM    6  O   UNL     1     -10.834  19.671  67.109  1.00  0.00    -0.484 OA 
HETATM    7  C   UNL     1      -9.953  18.836  67.111  1.00  0.00    -0.336 C  
HETATM    8  N   UNL     1      -9.210  18.422  66.012  1.00  0.00    -0.503 NA 
HETATM    9  N   UNL     1      -9.506  18.109  68.209  1.00  0.00    -0.295 NA 
ENDROOT
BRANCH   4  10
HETATM   10  C   UNL     1     -10.703  15.889  65.967  1.00  0.00    -0.289 C  
BRANCH  10  11
HETATM   11  C   UNL     1     -11.252  15.711  64.541  1.00  0.00    -0.337 C  
BRANCH  11  12
HETATM   12  C   UNL     1     -12.144  14.485  64.338  1.00  0.00    -0.492 C  
BRANCH  12  13
HETATM   13  C   UNL     1     -12.484  13.808  65.663  1.00  0.00    -0.541 C  
HETATM   14  C   UNL     1     -11.724  12.519  65.868  1.00  0.00    -0.426 C  
HETATM   15  O   UNL     1     -10.891  12.062  65.105  1.00  0.00    -0.283 OA 
HETATM   16  O   UNL     1     -12.064  11.914  67.030  1.00  0.00    -0.600 OA 
ENDBRANCH  12  13
ENDBRANCH  11  12
ENDBRANCH  10  11
ENDBRANCH   4  10
TORSDOF 4
ENDMDL
MODEL       26
REMARK 921   NORMALIZED FREE ENERGY PREDICTED BY IDOCK:   -4.82 KCAL/MOL
REMARK 922        TOTAL FREE ENERGY PREDICTED BY IDOCK:   -6.13 KCAL/MOL
REMARK 923 INTER-LIGAND FREE ENERGY PREDICTED BY IDOCK:   -5.77 KCAL/MOL
REMARK 924 INTRA-LIGAND FREE ENERGY PREDICTED BY IDOCK:   -0.36 KCAL/MOL
REMARK 927      BINDING AFFINITY PREDICTED BY RF-SCORE:    0.00 PKD
ROOT
HETATM    1  C   UNL     1     -11.331  14.579  64.615  1.00  0.00    -0.370 C  
HETATM    2  C   UNL     1     -11.147  15.519  65.785  1.00  0.00    -0.217 C  
HETATM    3  S   UNL     1     -10.469  14.546  67.150  1.00  0.00    -0.269 SA 
HETATM    4  C   UNL     1     -10.105  13.041  66.161  1.00  0.00    -0.285 C  
HETATM    5  C   UNL     1     -10.302  13.447  64.676  1.00  0.00    -0.381 C  
HETATM    6  O   UNL     1     -13.173  11.862  63.477  1.00  0.00    -0.676 OA 
HETATM    7  C   UNL     1     -12.335  12.632  63.903  1.00  0.00    -0.459 C  
HETATM    8  N   UNL     1     -10.958  12.453  63.859  1.00  0.00    -0.378 NA 
HETATM    9  N   UNL     1     -12.575  13.848  64.532  1.00  0.00    -0.663 NA 
ENDROOT
BRANCH   4  10
HETATM   10  C   UNL     1     -10.948  11.886  66.745  1.00  0.00    -0.337 C  
BRANCH  10  11
HETATM   11  C   UNL     1     -11.783  12.219  67.994  1.00  0.00    -0.417 C  
BRANCH  11  12
HETATM   12  C   UNL     1     -11.594  11.263  69.172  1.00  0.00    -0.387 C  
BRANCH  12  13
HETATM   13  C   UNL     1     -10.756  10.047  68.785  1.00  0.00    -0.250 C  
HETATM   14  C   UNL     1     -10.206   9.316  69.986  1.00  0.00    -0.215 C  
HETATM   15  O   UNL     1     -10.422   9.606  71.150  1.00  0.00    -0.307 OA 
HETATM   16  O   UNL     1      -9.436   8.263  69.624  1.00  0.00    -0.162 OA 
ENDBRANCH  12  13
ENDBRANCH  11  12
ENDBRANCH  10  11
ENDBRANCH   4  10
TORSDOF 4
ENDMDL
MODEL       27
REMARK 921   NORMALIZED FREE ENERGY PREDICTED BY IDOCK:   -4.82 KCAL/MOL
REMARK 922        TOTAL FREE ENERGY PREDICTED BY IDOCK:   -6.12 KCAL/MOL
REMARK 923 INTER-LIGAND FREE ENERGY PREDICTED BY IDOCK:   -5.96 KCAL/MOL
REMARK 924 INTRA-LIGAND FREE ENERGY PREDICTED BY IDOCK:   -0.16 KCAL/MOL
REMARK 927      BINDING AFFINITY PREDICTED BY RF-SCORE:    0.00 PKD
ROOT
HETATM    1  C   UNL     1     -10.934   7.207  71.039  1.00  0.00    -0.252 C  
HETATM    2  C   UNL     1      -9.984   7.530  69.908  1.00  0.00    -0.189 C  
HETATM    3  S   UNL     1     -10.023   9.322  69.672  1.00  0.00    -0.203 SA 
HETATM    4  C   UNL     1     -10.970   9.704  71.200  1.00  0.00    -0.360 C  
HETATM    5  C   UNL     1     -11.016   8.384  72.014  1.00  0.00    -0.323 C  
HETATM    6  O   UNL     1     -14.288   7.164  71.944  1.00  0.00    -0.390 OA 
HETATM    7  C   UNL     1     -13.105   7.392  71.786  1.00  0.00    -0.317 C  
HETATM    8  N   UNL     1     -12.284   8.108  72.649  1.00  0.00    -0.291 NA 
HETATM    9  N   UNL     1     -12.324   6.996  70.706  1.00  0.00    -0.322 NA 
ENDROOT
BRANCH   4  10
HETATM   10  C   UNL     1     -12.296  10.370  70.770  1.00  0.00    -0.463 C  
BRANCH  10  11
HETATM   11  C   UNL     1     -12.934  11.331  71.789  1.00  0.00    -0.519 C  
BRANCH  11  12
HETATM   12  C   UNL     1     -13.023  12.789  71.337  1.00  0.00    -0.359 C  
BRANCH  12  13
HETATM   13  C   UNL     1     -13.568  13.691  72.442  1.00  0.00    -0.703 C  
HETATM   14  C   UNL     1     -12.646  14.844  72.757  1.00  0.00    -0.385 C  
HETATM   15  O   UNL     1     -11.598  15.086  72.184  1.00  0.00    -0.388 OA 
HETATM   16  O   UNL     1     -13.127  15.612  73.762  1.00  0.00    -0.495 OA 
ENDBRANCH  12  13
ENDBRANCH  11  12
ENDBRANCH  10  11
ENDBRANCH   4  10
TORSDOF 4
ENDMDL
MODEL       28
REMARK 921   NORMALIZED FREE ENERGY PREDICTED BY IDOCK:   -4.81 KCAL/MOL
REMARK 922        TOTAL FREE ENERGY PREDICTED BY IDOCK:   -6.12 KCAL/MOL
REMARK 923 INTER-LIGAND FREE ENERGY PREDICTED BY IDOCK:   -5.69 KCAL/MOL
REMARK 924 INTRA-LIGAND FREE ENERGY PREDICTED BY IDOCK:   -0.43 KCAL/MOL
REMARK 927      BINDING AFFINITY PREDICTED BY RF-SCORE:    0.00 PKD
ROOT
HETATM    1  C   UNL     1      -8.254  19.520  66.431  1.00  0.00    -0.333 C  
HETATM    2  C   UNL     1      -9.666  19.962  66.117  1.00  0.00    -0.427 C  
HETATM    3  S   UNL     1     -10.758  19.149  67.306  1.00  0.00    -0.442 SA 
HETATM    4  C   UNL     1      -9.425  18.518  68.402  1.00  0.00    -0.341 C  
HETATM    5  C   UNL     1      -8.118  19.202  67.922  1.00  0.00    -0.289 C  
HETATM    6  O   UNL     1      -6.111  16.785  66.396  1.00  0.00    -0.297 OA 
HETATM    7  C   UNL     1      -6.860  17.701  66.671  1.00  0.00    -0.217 C  
HETATM    8  N   UNL     1      -6.957  18.342  67.901  1.00  0.00    -0.208 NA 
HETATM    9  N   UNL     1      -7.785  18.297  65.820  1.00  0.00    -0.532 NA 
ENDROOT
BRANCH   4  10
HETATM   10  C   UNL     1      -9.513  16.976  68.400  1.00  0.00    -0.269 C  
BRANCH  10  11
HETATM   11  C   UNL     1     -10.658  16.361  67.575  1.00  0.00    -0.309 C  
BRANCH  11  12
HETATM   12  C   UNL     1     -10.217  15.420  66.455  1.00  0.00    -0.296 C  
BRANCH  12  13
HETATM   13  C   UNL     1     -10.408  13.955  66.839  1.00  0.00    -0.266 C  
HETATM   14  C   UNL     1     -11.761  13.421  66.431  1.00  0.00    -0.368 C  
HETATM   15  O   UNL     1     -12.612  14.046  65.823  1.00  0.00    -0.491 OA 
HETATM   16  O   UNL     1     -11.928  12.133  66.811  1.00  0.00    -0.606 OA 
ENDBRANCH  12  13
ENDBRANCH  11  12
ENDBRANCH  10  11
ENDBRANCH   4  10
TORSDOF 4
ENDMDL
MODEL       29
REMARK 921   NORMALIZED FREE ENERGY PREDICTED BY IDOCK:   -4.80 KCAL/MOL
REMARK 922        TOTAL FREE ENERGY PREDICTED BY IDOCK:   -6.11 KCAL/MOL
REMARK 923 INTER-LIGAND FREE ENERGY PREDICTED BY IDOCK:   -5.87 KCAL/MOL
REMARK 924 INTRA-LIGAND FREE ENERGY PREDICTED BY IDOCK:   -0.23 KCAL/MOL
REMARK 927      BINDING AFFINITY PREDICTED BY RF-SCORE:    0.00 PKD
ROOT
HETATM    1  C   UNL     1     -10.272   8.653  69.632  1.00  0.00    -0.208 C  
HETATM    2  C   UNL     1     -10.378   9.376  68.308  1.00  0.00    -0.212 C  
HETATM    3  S   UNL     1     -11.348  10.874  68.594  1.00  0.00    -0.316 SA 
HETATM    4  C   UNL     1     -11.342  10.770  70.428  1.00  0.00    -0.255 C  
HETATM    5  C   UNL     1     -10.326   9.653  70.789  1.00  0.00    -0.286 C  
HETATM    6  O   UNL     1     -12.101   6.907  72.015  1.00  0.00    -0.304 OA 
HETATM    7  C   UNL     1     -11.464   7.711  71.364  1.00  0.00    -0.264 C  
HETATM    8  N   UNL     1     -10.738   8.785  71.867  1.00  0.00    -0.339 NA 
HETATM    9  N   UNL     1     -11.333   7.735  69.980  1.00  0.00    -0.124 NA 
ENDROOT
BRANCH   4  10
HETATM   10  C   UNL     1     -12.810  10.630  70.891  1.00  0.00    -0.473 C  
BRANCH  10  11
HETATM   11  C   UNL     1     -13.278  11.621  71.971  1.00  0.00    -0.443 C  
BRANCH  11  12
HETATM   12  C   UNL     1     -13.170  13.097  71.588  1.00  0.00    -0.435 C  
BRANCH  12  13
HETATM   13  C   UNL     1     -13.297  14.008  72.805  1.00  0.00    -0.603 C  
HETATM   14  C   UNL     1     -13.563  15.446  72.428  1.00  0.00    -0.515 C  
HETATM   15  O   UNL     1     -13.712  15.862  71.292  1.00  0.00    -0.455 OA 
HETATM   16  O   UNL     1     -13.637  16.246  73.517  1.00  0.00    -0.642 OA 
ENDBRANCH  12  13
ENDBRANCH  11  12
ENDBRANCH  10  11
ENDBRANCH   4  10
TORSDOF 4
ENDMDL
MODEL       30
REMARK 921   NORMALIZED FREE ENERGY PREDICTED BY IDOCK:   -4.80 KCAL/MOL
REMARK 922        TOTAL FREE ENERGY PREDICTED BY IDOCK:   -6.10 KCAL/MOL
REMARK 923 INTER-LIGAND FREE ENERGY PREDICTED BY IDOCK:   -5.93 KCAL/MOL
REMARK 924 INTRA-LIGAND FREE ENERGY PREDICTED BY IDOCK:   -0.17 KCAL/MOL
REMARK 927      BINDING AFFINITY PREDICTED BY RF-SCORE:    0.00 PKD
ROOT
HETATM    1  C   UNL     1     -11.120  13.536  64.458  1.00  0.00    -0.381 C  
HETATM    2  C   UNL     1     -10.411  12.365  63.814  1.00  0.00    -0.443 C  
HETATM    3  S   UNL     1     -10.283  11.065  65.064  1.00  0.00    -0.307 SA 
HETATM    4  C   UNL     1     -11.405  11.852  66.287  1.00  0.00    -0.334 C  
HETATM    5  C   UNL     1     -12.073  13.043  65.549  1.00  0.00    -0.452 C  
HETATM    6  O   UNL     1     -10.797  16.011  66.873  1.00  0.00    -0.296 OA 
HETATM    7  C   UNL     1     -11.074  15.035  66.206  1.00  0.00    -0.334 C  
HETATM    8  N   UNL     1     -12.210  14.245  66.339  1.00  0.00    -0.432 NA 
HETATM    9  N   UNL     1     -10.312  14.495  65.177  1.00  0.00    -0.399 NA 
ENDROOT
BRANCH   4  10
HETATM   10  C   UNL     1     -10.581  12.125  67.565  1.00  0.00    -0.240 C  
BRANCH  10  11
HETATM   11  C   UNL     1     -11.352  12.070  68.895  1.00  0.00    -0.333 C  
BRANCH  11  12
HETATM   12  C   UNL     1     -11.270  10.735  69.637  1.00  0.00    -0.355 C  
BRANCH  12  13
HETATM   13  C   UNL     1     -12.449  10.543  70.587  1.00  0.00    -0.456 C  
HETATM   14  C   UNL     1     -12.139   9.577  71.706  1.00  0.00    -0.384 C  
HETATM   15  O   UNL     1     -11.067   9.028  71.889  1.00  0.00    -0.355 OA 
HETATM   16  O   UNL     1     -13.206   9.390  72.518  1.00  0.00    -0.426 OA 
ENDBRANCH  12  13
ENDBRANCH  11  12
ENDBRANCH  10  11
ENDBRANCH   4  10
TORSDOF 4
ENDMDL
MODEL       31
REMARK 921   NORMALIZED FREE ENERGY PREDICTED BY IDOCK:   -4.80 KCAL/MOL
REMARK 922        TOTAL FREE ENERGY PREDICTED BY IDOCK:   -6.10 KCAL/MOL
REMARK 923 INTER-LIGAND FREE ENERGY PREDICTED BY IDOCK:   -5.75 KCAL/MOL
REMARK 924 INTRA-LIGAND FREE ENERGY PREDICTED BY IDOCK:   -0.34 KCAL/MOL
REMARK 927      BINDING AFFINITY PREDICTED BY RF-SCORE:    0.00 PKD
ROOT
HETATM    1  C   UNL     1     -11.852  13.906  66.069  1.00  0.00    -0.393 C  
HETATM    2  C   UNL     1     -11.821  13.922  67.581  1.00  0.00    -0.386 C  
HETATM    3  S   UNL     1     -10.654  12.645  68.105  1.00  0.00    -0.234 SA 
HETATM    4  C   UNL     1      -9.957  12.315  66.438  1.00  0.00    -0.228 C  
HETATM    5  C   UNL     1     -10.504  13.437  65.516  1.00  0.00    -0.291 C  
HETATM    6  O   UNL     1     -12.816  12.020  63.315  1.00  0.00    -0.732 OA 
HETATM    7  C   UNL     1     -12.234  12.605  64.207  1.00  0.00    -0.445 C  
HETATM    8  N   UNL     1     -10.901  12.998  64.198  1.00  0.00    -0.399 NA 
HETATM    9  N   UNL     1     -12.772  12.994  65.428  1.00  0.00    -0.610 NA 
ENDROOT
BRANCH   4  10
HETATM   10  C   UNL     1     -10.260  10.840  66.090  1.00  0.00    -0.308 C  
BRANCH  10  11
HETATM   11  C   UNL     1     -10.907   9.999  67.205  1.00  0.00    -0.284 C  
BRANCH  11  12
HETATM   12  C   UNL     1     -10.019   8.898  67.784  1.00  0.00    -0.241 C  
BRANCH  12  13
HETATM   13  C   UNL     1     -10.080   7.624  66.946  1.00  0.00    -0.348 C  
HETATM   14  C   UNL     1     -10.794   6.497  67.655  1.00  0.00    -0.337 C  
HETATM   15  O   UNL     1     -11.315   6.573  68.753  1.00  0.00    -0.278 OA 
HETATM   16  O   UNL     1     -10.807   5.365  66.913  1.00  0.00    -0.237 OA 
ENDBRANCH  12  13
ENDBRANCH  11  12
ENDBRANCH  10  11
ENDBRANCH   4  10
TORSDOF 4
ENDMDL
MODEL       32
REMARK 921   NORMALIZED FREE ENERGY PREDICTED BY IDOCK:   -4.80 KCAL/MOL
REMARK 922        TOTAL FREE ENERGY PREDICTED BY IDOCK:   -6.10 KCAL/MOL
REMARK 923 INTER-LIGAND FREE ENERGY PREDICTED BY IDOCK:   -5.75 KCAL/MOL
REMARK 924 INTRA-LIGAND FREE ENERGY PREDICTED BY IDOCK:   -0.34 KCAL/MOL
REMARK 927      BINDING AFFINITY PREDICTED BY RF-SCORE:    0.00 PKD
ROOT
HETATM    1  C   UNL     1     -11.775  12.144  66.613  1.00  0.00    -0.313 C  
HETATM    2  C   UNL     1     -10.622  11.927  67.568  1.00  0.00    -0.219 C  
HETATM    3  S   UNL     1      -9.737  13.497  67.703  1.00  0.00    -0.236 SA 
HETATM    4  C   UNL     1     -10.995  14.512  66.829  1.00  0.00    -0.316 C  
HETATM    5  C   UNL     1     -12.241  13.601  66.668  1.00  0.00    -0.389 C  
HETATM    6  O   UNL     1     -12.567  12.775  63.290  1.00  0.00    -0.676 OA 
HETATM    7  C   UNL     1     -12.358  12.809  64.486  1.00  0.00    -0.445 C  
HETATM    8  N   UNL     1     -12.909  13.709  65.391  1.00  0.00    -0.683 NA 
HETATM    9  N   UNL     1     -11.517  11.964  65.202  1.00  0.00    -0.284 NA 
ENDROOT
BRANCH   4  10
HETATM   10  C   UNL     1     -10.324  15.100  65.569  1.00  0.00    -0.399 C  
BRANCH  10  11
HETATM   11  C   UNL     1     -10.180  16.631  65.527  1.00  0.00    -0.227 C  
BRANCH  11  12
HETATM   12  C   UNL     1      -9.279  17.226  66.610  1.00  0.00    -0.275 C  
BRANCH  12  13
HETATM   13  C   UNL     1      -7.843  16.724  66.490  1.00  0.00    -0.338 C  
HETATM   14  C   UNL     1      -6.916  17.757  65.894  1.00  0.00    -0.256 C  
HETATM   15  O   UNL     1      -7.232  18.890  65.575  1.00  0.00    -0.485 OA 
HETATM   16  O   UNL     1      -5.655  17.283  65.760  1.00  0.00    -0.213 OA 
ENDBRANCH  12  13
ENDBRANCH  11  12
ENDBRANCH  10  11
ENDBRANCH   4  10
TORSDOF 4
ENDMDL
MODEL       33
REMARK 921   NORMALIZED FREE ENERGY PREDICTED BY IDOCK:   -4.75 KCAL/MOL
REMARK 922        TOTAL FREE ENERGY PREDICTED BY IDOCK:   -6.04 KCAL/MOL
REMARK 923 INTER-LIGAND FREE ENERGY PREDICTED BY IDOCK:   -5.70 KCAL/MOL
REMARK 924 INTRA-LIGAND FREE ENERGY PREDICTED BY IDOCK:   -0.34 KCAL/MOL
REMARK 927      BINDING AFFINITY PREDICTED BY RF-SCORE:    0.00 PKD
ROOT
HETATM    1  C   UNL     1      -9.161  17.336  66.210  1.00  0.00    -0.215 C  
HETATM    2  C   UNL     1      -9.382  18.705  66.812  1.00  0.00    -0.308 C  
HETATM    3  S   UNL     1     -10.175  18.461  68.418  1.00  0.00    -0.349 SA 
HETATM    4  C   UNL     1      -9.931  16.642  68.487  1.00  0.00    -0.261 C  
HETATM    5  C   UNL     1      -8.974  16.295  67.316  1.00  0.00    -0.195 C  
HETATM    6  O   UNL     1     -10.794  14.570  64.885  1.00  0.00    -0.385 OA 
HETATM    7  C   UNL     1     -10.185  15.378  65.558  1.00  0.00    -0.382 C  
HETATM    8  N   UNL     1      -9.309  15.087  66.598  1.00  0.00    -0.249 NA 
HETATM    9  N   UNL     1     -10.240  16.762  65.438  1.00  0.00    -0.623 NA 
ENDROOT
BRANCH   4  10
HETATM   10  C   UNL     1     -11.329  15.987  68.537  1.00  0.00    -0.382 C  
BRANCH  10  11
HETATM   11  C   UNL     1     -11.776  15.443  69.905  1.00  0.00    -0.357 C  
BRANCH  11  12
HETATM   12  C   UNL     1     -11.975  13.928  69.966  1.00  0.00    -0.404 C  
BRANCH  12  13
HETATM   13  C   UNL     1     -11.825  13.283  68.591  1.00  0.00    -0.380 C  
HETATM   14  C   UNL     1     -11.900  11.775  68.647  1.00  0.00    -0.310 C  
HETATM   15  O   UNL     1     -12.104  11.115  69.651  1.00  0.00    -0.319 OA 
HETATM   16  O   UNL     1     -11.729  11.218  67.426  1.00  0.00    -0.580 OA 
ENDBRANCH  12  13
ENDBRANCH  11  12
ENDBRANCH  10  11
ENDBRANCH   4  10
TORSDOF 4
ENDMDL
MODEL       34
REMARK 921   NORMALIZED FREE ENERGY PREDICTED BY IDOCK:   -4.75 KCAL/MOL
REMARK 922        TOTAL FREE ENERGY PREDICTED BY IDOCK:   -6.04 KCAL/MOL
REMARK 923 INTER-LIGAND FREE ENERGY PREDICTED BY IDOCK:   -5.47 KCAL/MOL
REMARK 924 INTRA-LIGAND FREE ENERGY PREDICTED BY IDOCK:   -0.56 KCAL/MOL
REMARK 927      BINDING AFFINITY PREDICTED BY RF-SCORE:    0.00 PKD
ROOT
HETATM    1  C   UNL     1     -10.402  13.897  67.091  1.00  0.00    -0.265 C  
HETATM    2  C   UNL     1      -9.943  14.998  66.162  1.00  0.00    -0.291 C  
HETATM    3  S   UNL     1     -11.187  15.153  64.861  1.00  0.00    -0.394 SA 
HETATM    4  C   UNL     1     -12.444  14.075  65.656  1.00  0.00    -0.504 C  
HETATM    5  C   UNL     1     -11.931  13.811  67.096  1.00  0.00    -0.405 C  
HETATM    6  O   UNL     1     -10.935  10.472  67.314  1.00  0.00    -0.291 OA 
HETATM    7  C   UNL     1     -11.014  11.680  67.227  1.00  0.00    -0.267 C  
HETATM    8  N   UNL     1     -12.115  12.458  67.567  1.00  0.00    -0.472 NA 
HETATM    9  N   UNL     1     -10.028  12.541  66.759  1.00  0.00    -0.223 NA 
ENDROOT
BRANCH   4  10
HETATM   10  C   UNL     1     -12.691  12.876  64.713  1.00  0.00    -0.442 C  
BRANCH  10  11
HETATM   11  C   UNL     1     -11.628  12.637  63.626  1.00  0.00    -0.575 C  
BRANCH  11  12
HETATM   12  C   UNL     1     -11.031  11.229  63.603  1.00  0.00    -0.369 C  
BRANCH  12  13
HETATM   13  C   UNL     1      -9.590  11.235  63.099  1.00  0.00    -0.391 C  
HETATM   14  C   UNL     1      -8.731  10.202  63.788  1.00  0.00    -0.212 C  
HETATM   15  O   UNL     1      -9.118   9.405  64.624  1.00  0.00    -0.225 OA 
HETATM   16  O   UNL     1      -7.449  10.245  63.355  1.00  0.00    -0.147 OA 
ENDBRANCH  12  13
ENDBRANCH  11  12
ENDBRANCH  10  11
ENDBRANCH   4  10
TORSDOF 4
ENDMDL
MODEL       35
REMARK 921   NORMALIZED FREE ENERGY PREDICTED BY IDOCK:   -4.73 KCAL/MOL
REMARK 922        TOTAL FREE ENERGY PREDICTED BY IDOCK:   -6.02 KCAL/MOL
REMARK 923 INTER-LIGAND FREE ENERGY PREDICTED BY IDOCK:   -5.65 KCAL/MOL
REMARK 924 INTRA-LIGAND FREE ENERGY PREDICTED BY IDOCK:   -0.37 KCAL/MOL
REMARK 927      BINDING AFFINITY PREDICTED BY RF-SCORE:    0.00 PKD
ROOT
HETATM    1  C   UNL     1     -12.165  14.166  64.545  1.00  0.00    -0.445 C  
HETATM    2  C   UNL     1     -11.990  13.260  63.347  1.00  0.00    -0.427 C  
HETATM    3  S   UNL     1     -11.290  11.707  63.951  1.00  0.00    -0.320 SA 
HETATM    4  C   UNL     1     -11.523  12.063  65.738  1.00  0.00    -0.320 C  
HETATM    5  C   UNL     1     -12.408  13.336  65.808  1.00  0.00    -0.447 C  
HETATM    6  O   UNL     1     -10.437  15.982  66.950  1.00  0.00    -0.300 OA 
HETATM    7  C   UNL     1     -11.090  15.182  66.312  1.00  0.00    -0.309 C  
HETATM    8  N   UNL     1     -12.022  14.286  66.824  1.00  0.00    -0.431 NA 
HETATM    9  N   UNL     1     -11.039  14.983  64.936  1.00  0.00    -0.408 NA 
ENDROOT
BRANCH   4  10
HETATM   10  C   UNL     1     -10.125  12.081  66.395  1.00  0.00    -0.242 C  
BRANCH  10  11
HETATM   11  C   UNL     1     -10.055  11.603  67.856  1.00  0.00    -0.198 C  
BRANCH  11  12
HETATM   12  C   UNL     1     -11.312  10.902  68.369  1.00  0.00    -0.370 C  
BRANCH  12  13
HETATM   13  C   UNL     1     -11.901  11.613  69.585  1.00  0.00    -0.419 C  
HETATM   14  C   UNL     1     -12.118  10.681  70.753  1.00  0.00    -0.374 C  
HETATM   15  O   UNL     1     -11.827   9.498  70.776  1.00  0.00    -0.277 OA 
HETATM   16  O   UNL     1     -12.674  11.320  71.809  1.00  0.00    -0.364 OA 
ENDBRANCH  12  13
ENDBRANCH  11  12
ENDBRANCH  10  11
ENDBRANCH   4  10
TORSDOF 4
ENDMDL
MODEL       36
REMARK 921   NORMALIZED FREE ENERGY PREDICTED BY IDOCK:   -4.73 KCAL/MOL
REMARK 922        TOTAL FREE ENERGY PREDICTED BY IDOCK:   -6.01 KCAL/MOL
REMARK 923 INTER-LIGAND FREE ENERGY PREDICTED BY IDOCK:   -5.80 KCAL/MOL
REMARK 924 INTRA-LIGAND FREE ENERGY PREDICTED BY IDOCK:   -0.21 KCAL/MOL
REMARK 927      BINDING AFFINITY PREDICTED BY RF-SCORE:    0.00 PKD
ROOT
HETATM    1  C   UNL     1     -11.006  14.698  69.105  1.00  0.00    -0.262 C  
HETATM    2  C   UNL     1     -11.753  13.507  69.661  1.00  0.00    -0.314 C  
HETATM    3  S   UNL     1     -11.129  12.040  68.809  1.00  0.00    -0.266 SA 
HETATM    4  C   UNL     1      -9.705  12.870  67.997  1.00  0.00    -0.224 C  
HETATM    5  C   UNL     1      -9.609  14.279  68.641  1.00  0.00    -0.192 C  
HETATM    6  O   UNL     1     -10.573  16.644  66.259  1.00  0.00    -0.286 OA 
HETATM    7  C   UNL     1     -10.485  15.868  67.190  1.00  0.00    -0.313 C  
HETATM    8  N   UNL     1      -9.309  15.348  67.717  1.00  0.00    -0.195 NA 
HETATM    9  N   UNL     1     -11.539  15.328  67.918  1.00  0.00    -0.326 NA 
ENDROOT
BRANCH   4  10
HETATM   10  C   UNL     1      -9.908  12.753  66.470  1.00  0.00    -0.258 C  
BRANCH  10  11
HETATM   11  C   UNL     1      -9.761  11.342  65.872  1.00  0.00    -0.257 C  
BRANCH  11  12
HETATM   12  C   UNL     1     -10.477  11.126  64.539  1.00  0.00    -0.415 C  
BRANCH  12  13
HETATM   13  C   UNL     1     -10.806  12.450  63.854  1.00  0.00    -0.465 C  
HETATM   14  C   UNL     1     -12.281  12.771  63.892  1.00  0.00    -0.463 C  
HETATM   15  O   UNL     1     -13.137  12.098  64.439  1.00  0.00    -0.740 OA 
HETATM   16  O   UNL     1     -12.560  13.929  63.248  1.00  0.00    -0.824 OA 
ENDBRANCH  12  13
ENDBRANCH  11  12
ENDBRANCH  10  11
ENDBRANCH   4  10
TORSDOF 4
ENDMDL
MODEL       37
REMARK 921   NORMALIZED FREE ENERGY PREDICTED BY IDOCK:   -4.72 KCAL/MOL
REMARK 922        TOTAL FREE ENERGY PREDICTED BY IDOCK:   -6.00 KCAL/MOL
REMARK 923 INTER-LIGAND FREE ENERGY PREDICTED BY IDOCK:   -5.61 KCAL/MOL
REMARK 924 INTRA-LIGAND FREE ENERGY PREDICTED BY IDOCK:   -0.38 KCAL/MOL
REMARK 927      BINDING AFFINITY PREDICTED BY RF-SCORE:    0.00 PKD
ROOT
HETATM    1  C   UNL     1     -11.142  12.672  64.627  1.00  0.00    -0.313 C  
HETATM    2  C   UNL     1      -9.985  11.966  65.297  1.00  0.00    -0.251 C  
HETATM    3  S   UNL     1     -10.132  12.267  67.073  1.00  0.00    -0.214 SA 
HETATM    4  C   UNL     1     -11.817  12.995  67.014  1.00  0.00    -0.377 C  
HETATM    5  C   UNL     1     -12.341  12.743  65.575  1.00  0.00    -0.434 C  
HETATM    6  O   UNL     1     -12.458  15.804  63.898  1.00  0.00    -0.744 OA 
HETATM    7  C   UNL     1     -12.194  14.701  64.332  1.00  0.00    -0.452 C  
HETATM    8  N   UNL     1     -13.069  13.847  64.994  1.00  0.00    -0.732 NA 
HETATM    9  N   UNL     1     -10.961  14.061  64.268  1.00  0.00    -0.249 NA 
ENDROOT
BRANCH   4  10
HETATM   10  C   UNL     1     -11.715  14.446  67.535  1.00  0.00    -0.416 C  
BRANCH  10  11
HETATM   11  C   UNL     1     -10.304  15.060  67.562  1.00  0.00    -0.241 C  
BRANCH  11  12
HETATM   12  C   UNL     1     -10.077  16.114  68.646  1.00  0.00    -0.231 C  
BRANCH  12  13
HETATM   13  C   UNL     1      -8.661  16.048  69.211  1.00  0.00    -0.224 C  
HETATM   14  C   UNL     1      -7.816  17.229  68.797  1.00  0.00    -0.254 C  
HETATM   15  O   UNL     1      -8.200  18.172  68.127  1.00  0.00    -0.259 OA 
HETATM   16  O   UNL     1      -6.553  17.136  69.276  1.00  0.00    -0.220 OA 
ENDBRANCH  12  13
ENDBRANCH  11  12
ENDBRANCH  10  11
ENDBRANCH   4  10
TORSDOF 4
ENDMDL
MODEL       38
REMARK 921   NORMALIZED FREE ENERGY PREDICTED BY IDOCK:   -4.71 KCAL/MOL
REMARK 922        TOTAL FREE ENERGY PREDICTED BY IDOCK:   -5.99 KCAL/MOL
REMARK 923 INTER-LIGAND FREE ENERGY PREDICTED BY IDOCK:   -5.79 KCAL/MOL
REMARK 924 INTRA-LIGAND FREE ENERGY PREDICTED BY IDOCK:   -0.20 KCAL/MOL
REMARK 927      BINDING AFFINITY PREDICTED BY RF-SCORE:    0.00 PKD
ROOT
HETATM    1  C   UNL     1     -10.455  13.025  65.980  1.00  0.00    -0.279 C  
HETATM    2  C   UNL     1     -10.731  11.638  66.515  1.00  0.00    -0.272 C  
HETATM    3  S   UNL     1     -11.577  11.835  68.101  1.00  0.00    -0.314 SA 
HETATM    4  C   UNL     1     -11.882  13.640  67.942  1.00  0.00    -0.366 C  
HETATM    5  C   UNL     1     -11.518  14.007  66.478  1.00  0.00    -0.357 C  
HETATM    6  O   UNL     1      -8.587  15.904  66.518  1.00  0.00    -0.256 OA 
HETATM    7  C   UNL     1      -9.441  15.046  66.422  1.00  0.00    -0.297 C  
HETATM    8  N   UNL     1     -10.811  15.257  66.326  1.00  0.00    -0.314 NA 
HETATM    9  N   UNL     1      -9.231  13.672  66.398  1.00  0.00    -0.181 NA 
ENDROOT
BRANCH   4  10
HETATM   10  C   UNL     1     -11.138  14.341  69.101  1.00  0.00    -0.291 C  
BRANCH  10  11
HETATM   11  C   UNL     1     -11.957  15.358  69.915  1.00  0.00    -0.384 C  
BRANCH  11  12
HETATM   12  C   UNL     1     -12.251  14.946  71.358  1.00  0.00    -0.391 C  
BRANCH  12  13
HETATM   13  C   UNL     1     -12.537  16.156  72.244  1.00  0.00    -0.428 C  
HETATM   14  C   UNL     1     -12.319  15.865  73.710  1.00  0.00    -0.587 C  
HETATM   15  O   UNL     1     -11.916  14.810  74.168  1.00  0.00    -0.446 OA 
HETATM   16  O   UNL     1     -12.611  16.936  74.484  1.00  0.00    -0.631 OA 
ENDBRANCH  12  13
ENDBRANCH  11  12
ENDBRANCH  10  11
ENDBRANCH   4  10
TORSDOF 4
ENDMDL
MODEL       39
REMARK 921   NORMALIZED FREE ENERGY PREDICTED BY IDOCK:   -4.71 KCAL/MOL
REMARK 922        TOTAL FREE ENERGY PREDICTED BY IDOCK:   -5.99 KCAL/MOL
REMARK 923 INTER-LIGAND FREE ENERGY PREDICTED BY IDOCK:   -5.61 KCAL/MOL
REMARK 924 INTRA-LIGAND FREE ENERGY PREDICTED BY IDOCK:   -0.38 KCAL/MOL
REMARK 927      BINDING AFFINITY PREDICTED BY RF-SCORE:    0.00 PKD
ROOT
HETATM    1  C   UNL     1     -10.682  16.476  69.350  1.00  0.00    -0.330 C  
HETATM    2  C   UNL     1      -9.406  16.961  68.700  1.00  0.00    -0.268 C  
HETATM    3  S   UNL     1      -9.126  15.933  67.240  1.00  0.00    -0.211 SA 
HETATM    4  C   UNL     1     -10.772  15.117  67.252  1.00  0.00    -0.305 C  
HETATM    5  C   UNL     1     -11.623  15.886  68.297  1.00  0.00    -0.272 C  
HETATM    6  O   UNL     1     -12.106  13.810  71.063  1.00  0.00    -0.340 OA 
HETATM    7  C   UNL     1     -11.757  14.654  70.262  1.00  0.00    -0.297 C  
HETATM    8  N   UNL     1     -12.458  15.053  69.130  1.00  0.00    -0.030 NA 
HETATM    9  N   UNL     1     -10.579  15.392  70.301  1.00  0.00    -0.300 NA 
ENDROOT
BRANCH   4  10
HETATM   10  C   UNL     1     -10.538  13.601  67.440  1.00  0.00    -0.260 C  
BRANCH  10  11
HETATM   11  C   UNL     1      -9.563  12.936  66.452  1.00  0.00    -0.252 C  
BRANCH  11  12
HETATM   12  C   UNL     1     -10.220  12.054  65.390  1.00  0.00    -0.295 C  
BRANCH  12  13
HETATM   13  C   UNL     1     -10.696  12.872  64.192  1.00  0.00    -0.443 C  
HETATM   14  C   UNL     1     -12.190  13.092  64.197  1.00  0.00    -0.398 C  
HETATM   15  O   UNL     1     -12.956  12.716  65.067  1.00  0.00    -0.812 OA 
HETATM   16  O   UNL     1     -12.599  13.787  63.110  1.00  0.00    -0.793 OA 
ENDBRANCH  12  13
ENDBRANCH  11  12
ENDBRANCH  10  11
ENDBRANCH   4  10
TORSDOF 4
ENDMDL
MODEL       40
REMARK 921   NORMALIZED FREE ENERGY PREDICTED BY IDOCK:   -4.69 KCAL/MOL
REMARK 922        TOTAL FREE ENERGY PREDICTED BY IDOCK:   -5.96 KCAL/MOL
REMARK 923 INTER-LIGAND FREE ENERGY PREDICTED BY IDOCK:   -5.38 KCAL/MOL
REMARK 924 INTRA-LIGAND FREE ENERGY PREDICTED BY IDOCK:   -0.58 KCAL/MOL
REMARK 927      BINDING AFFINITY PREDICTED BY RF-SCORE:    0.00 PKD
ROOT
HETATM    1  C   UNL     1     -10.986  14.656  64.442  1.00  0.00    -0.080 C  
HETATM    2  C   UNL     1     -10.897  15.835  65.383  1.00  0.00    -0.364 C  
HETATM    3  S   UNL     1     -10.820  15.173  67.064  1.00  0.00    -0.315 SA 
HETATM    4  C   UNL     1     -10.565  13.421  66.577  1.00  0.00    -0.287 C  
HETATM    5  C   UNL     1     -10.286  13.438  65.050  1.00  0.00    -0.347 C  
HETATM    6  O   UNL     1     -13.043  12.050  63.415  1.00  0.00    -0.747 OA 
HETATM    7  C   UNL     1     -12.189  12.768  63.897  1.00  0.00    -0.463 C  
HETATM    8  N   UNL     1     -10.920  12.374  64.307  1.00  0.00    -0.324 NA 
HETATM    9  N   UNL     1     -12.301  14.130  64.150  1.00  0.00    -0.678 NA 
ENDROOT
BRANCH   4  10
HETATM   10  C   UNL     1     -11.764  12.609  67.114  1.00  0.00    -0.438 C  
BRANCH  10  11
HETATM   11  C   UNL     1     -11.434  11.500  68.129  1.00  0.00    -0.385 C  
BRANCH  11  12
HETATM   12  C   UNL     1     -10.036  10.896  67.996  1.00  0.00    -0.197 C  
BRANCH  12  13
HETATM   13  C   UNL     1     -10.013   9.738  67.002  1.00  0.00    -0.259 C  
HETATM   14  C   UNL     1      -8.904   9.870  65.985  1.00  0.00    -0.146 C  
HETATM   15  O   UNL     1      -8.074  10.762  65.956  1.00  0.00    -0.156 OA 
HETATM   16  O   UNL     1      -8.920   8.855  65.089  1.00  0.00    -0.197 OA 
ENDBRANCH  12  13
ENDBRANCH  11  12
ENDBRANCH  10  11
ENDBRANCH   4  10
TORSDOF 4
ENDMDL
MODEL       41
REMARK 921   NORMALIZED FREE ENERGY PREDICTED BY IDOCK:   -4.65 KCAL/MOL
REMARK 922        TOTAL FREE ENERGY PREDICTED BY IDOCK:   -5.91 KCAL/MOL
REMARK 923 INTER-LIGAND FREE ENERGY PREDICTED BY IDOCK:   -5.78 KCAL/MOL
REMARK 924 INTRA-LIGAND FREE ENERGY PREDICTED BY IDOCK:   -0.13 KCAL/MOL
REMARK 927      BINDING AFFINITY PREDICTED BY RF-SCORE:    0.00 PKD
ROOT
HETATM    1  C   UNL     1     -10.718   7.691  70.543  1.00  0.00    -0.236 C  
HETATM    2  C   UNL     1     -10.284   7.330  69.140  1.00  0.00    -0.197 C  
HETATM    3  S   UNL     1     -10.283   8.857  68.172  1.00  0.00    -0.206 SA 
HETATM    4  C   UNL     1     -10.501   9.997  69.596  1.00  0.00    -0.248 C  
HETATM    5  C   UNL     1     -10.313   9.130  70.870  1.00  0.00    -0.280 C  
HETATM    6  O   UNL     1     -13.415   8.791  72.437  1.00  0.00    -0.403 OA 
HETATM    7  C   UNL     1     -12.383   8.654  71.810  1.00  0.00    -0.346 C  
HETATM    8  N   UNL     1     -11.233   9.423  71.944  1.00  0.00    -0.287 NA 
HETATM    9  N   UNL     1     -12.136   7.709  70.821  1.00  0.00    -0.188 NA 
ENDROOT
BRANCH   4  10
HETATM   10  C   UNL     1     -11.834  10.749  69.389  1.00  0.00    -0.370 C  
BRANCH  10  11
HETATM   11  C   UNL     1     -11.747  12.093  68.642  1.00  0.00    -0.382 C  
BRANCH  11  12
HETATM   12  C   UNL     1     -11.761  11.988  67.117  1.00  0.00    -0.344 C  
BRANCH  12  13
HETATM   13  C   UNL     1     -11.911  13.357  66.458  1.00  0.00    -0.452 C  
HETATM   14  C   UNL     1     -12.585  13.280  65.109  1.00  0.00    -0.453 C  
HETATM   15  O   UNL     1     -13.016  12.265  64.592  1.00  0.00    -0.741 OA 
HETATM   16  O   UNL     1     -12.677  14.497  64.523  1.00  0.00    -0.653 OA 
ENDBRANCH  12  13
ENDBRANCH  11  12
ENDBRANCH  10  11
ENDBRANCH   4  10
TORSDOF 4
ENDMDL
MODEL       42
REMARK 921   NORMALIZED FREE ENERGY PREDICTED BY IDOCK:   -4.64 KCAL/MOL
REMARK 922        TOTAL FREE ENERGY PREDICTED BY IDOCK:   -5.91 KCAL/MOL
REMARK 923 INTER-LIGAND FREE ENERGY PREDICTED BY IDOCK:   -5.60 KCAL/MOL
REMARK 924 INTRA-LIGAND FREE ENERGY PREDICTED BY IDOCK:   -0.31 KCAL/MOL
REMARK 927      BINDING AFFINITY PREDICTED BY RF-SCORE:    0.00 PKD
ROOT
HETATM    1  C   UNL     1     -10.730   7.118  71.229  1.00  0.00    -0.226 C  
HETATM    2  C   UNL     1      -9.618   7.284  70.218  1.00  0.00    -0.165 C  
HETATM    3  S   UNL     1      -9.572   9.031  69.755  1.00  0.00    -0.183 SA 
HETATM    4  C   UNL     1     -10.718   9.615  71.067  1.00  0.00    -0.323 C  
HETATM    5  C   UNL     1     -10.919   8.412  72.026  1.00  0.00    -0.323 C  
HETATM    6  O   UNL     1     -14.179   7.224  71.630  1.00  0.00    -0.430 OA 
HETATM    7  C   UNL     1     -12.980   7.419  71.620  1.00  0.00    -0.366 C  
HETATM    8  N   UNL     1     -12.272   8.232  72.497  1.00  0.00    -0.356 NA 
HETATM    9  N   UNL     1     -12.063   6.880  70.725  1.00  0.00    -0.377 NA 
ENDROOT
BRANCH   4  10
HETATM   10  C   UNL     1     -11.949  10.233  70.367  1.00  0.00    -0.391 C  
BRANCH  10  11
HETATM   11  C   UNL     1     -12.164  11.742  70.579  1.00  0.00    -0.438 C  
BRANCH  11  12
HETATM   12  C   UNL     1     -11.734  12.629  69.410  1.00  0.00    -0.387 C  
BRANCH  12  13
HETATM   13  C   UNL     1     -11.867  11.904  68.073  1.00  0.00    -0.323 C  
HETATM   14  C   UNL     1     -11.997  12.856  66.908  1.00  0.00    -0.335 C  
HETATM   15  O   UNL     1     -11.960  14.072  66.982  1.00  0.00    -0.403 OA 
HETATM   16  O   UNL     1     -12.150  12.197  65.735  1.00  0.00    -0.572 OA 
ENDBRANCH  12  13
ENDBRANCH  11  12
ENDBRANCH  10  11
ENDBRANCH   4  10
TORSDOF 4
ENDMDL
MODEL       43
REMARK 921   NORMALIZED FREE ENERGY PREDICTED BY IDOCK:   -4.63 KCAL/MOL
REMARK 922        TOTAL FREE ENERGY PREDICTED BY IDOCK:   -5.89 KCAL/MOL
REMARK 923 INTER-LIGAND FREE ENERGY PREDICTED BY IDOCK:   -5.60 KCAL/MOL
REMARK 924 INTRA-LIGAND FREE ENERGY PREDICTED BY IDOCK:   -0.29 KCAL/MOL
REMARK 927      BINDING AFFINITY PREDICTED BY RF-SCORE:    0.00 PKD
ROOT
HETATM    1  C   UNL     1     -11.324  11.987  66.225  1.00  0.00    -0.357 C  
HETATM    2  C   UNL     1     -12.200  12.518  65.113  1.00  0.00    -0.448 C  
HETATM    3  S   UNL     1     -12.348  14.303  65.356  1.00  0.00    -0.390 SA 
HETATM    4  C   UNL     1     -11.050  14.437  66.649  1.00  0.00    -0.326 C  
HETATM    5  C   UNL     1     -10.333  13.061  66.679  1.00  0.00    -0.260 C  
HETATM    6  O   UNL     1     -11.186  11.444  69.654  1.00  0.00    -0.258 OA 
HETATM    7  C   UNL     1     -11.067  11.833  68.510  1.00  0.00    -0.239 C  
HETATM    8  N   UNL     1     -10.008  12.576  68.000  1.00  0.00    -0.213 NA 
HETATM    9  N   UNL     1     -11.966  11.628  67.470  1.00  0.00    -0.621 NA 
ENDROOT
BRANCH   4  10
HETATM   10  C   UNL     1     -11.727  14.962  67.935  1.00  0.00    -0.344 C  
BRANCH  10  11
HETATM   11  C   UNL     1     -11.328  16.379  68.384  1.00  0.00    -0.268 C  
BRANCH  11  12
HETATM   12  C   UNL     1     -10.147  16.988  67.628  1.00  0.00    -0.298 C  
BRANCH  12  13
HETATM   13  C   UNL     1     -10.455  18.403  67.144  1.00  0.00    -0.434 C  
HETATM   14  C   UNL     1      -9.582  19.444  67.803  1.00  0.00    -0.335 C  
HETATM   15  O   UNL     1      -8.690  19.215  68.601  1.00  0.00    -0.349 OA 
HETATM   16  O   UNL     1      -9.893  20.695  67.390  1.00  0.00    -0.464 OA 
ENDBRANCH  12  13
ENDBRANCH  11  12
ENDBRANCH  10  11
ENDBRANCH   4  10
TORSDOF 4
ENDMDL
MODEL       44
REMARK 921   NORMALIZED FREE ENERGY PREDICTED BY IDOCK:   -4.62 KCAL/MOL
REMARK 922        TOTAL FREE ENERGY PREDICTED BY IDOCK:   -5.88 KCAL/MOL
REMARK 923 INTER-LIGAND FREE ENERGY PREDICTED BY IDOCK:   -5.52 KCAL/MOL
REMARK 924 INTRA-LIGAND FREE ENERGY PREDICTED BY IDOCK:   -0.37 KCAL/MOL
REMARK 927      BINDING AFFINITY PREDICTED BY RF-SCORE:    0.00 PKD
ROOT
HETATM    1  C   UNL     1      -9.768  11.295  67.822  1.00  0.00    -0.173 C  
HETATM    2  C   UNL     1     -10.301  10.408  68.925  1.00  0.00    -0.209 C  
HETATM    3  S   UNL     1     -11.840  11.152  69.513  1.00  0.00    -0.376 SA 
HETATM    4  C   UNL     1     -11.994  12.387  68.162  1.00  0.00    -0.214 C  
HETATM    5  C   UNL     1     -10.922  12.002  67.107  1.00  0.00    -0.270 C  
HETATM    6  O   UNL     1      -8.405  14.422  67.164  1.00  0.00    -0.201 OA 
HETATM    7  C   UNL     1      -9.099  13.432  67.281  1.00  0.00    -0.222 C  
HETATM    8  N   UNL     1     -10.220  13.120  66.521  1.00  0.00    -0.271 NA 
HETATM    9  N   UNL     1      -8.927  12.406  68.204  1.00  0.00    -0.193 NA 
ENDROOT
BRANCH   4  10
HETATM   10  C   UNL     1     -11.945  13.790  68.807  1.00  0.00    -0.400 C  
BRANCH  10  11
HETATM   11  C   UNL     1     -11.914  13.830  70.345  1.00  0.00    -0.385 C  
BRANCH  11  12
HETATM   12  C   UNL     1     -13.106  14.529  70.999  1.00  0.00    -0.429 C  
BRANCH  12  13
HETATM   13  C   UNL     1     -13.077  14.395  72.519  1.00  0.00    -0.536 C  
HETATM   14  C   UNL     1     -12.384  15.557  73.190  1.00  0.00    -0.459 C  
HETATM   15  O   UNL     1     -11.928  16.533  72.620  1.00  0.00    -0.533 OA 
HETATM   16  O   UNL     1     -12.335  15.404  74.534  1.00  0.00    -0.646 OA 
ENDBRANCH  12  13
ENDBRANCH  11  12
ENDBRANCH  10  11
ENDBRANCH   4  10
TORSDOF 4
ENDMDL
MODEL       45
REMARK 921   NORMALIZED FREE ENERGY PREDICTED BY IDOCK:   -4.62 KCAL/MOL
REMARK 922        TOTAL FREE ENERGY PREDICTED BY IDOCK:   -5.88 KCAL/MOL
REMARK 923 INTER-LIGAND FREE ENERGY PREDICTED BY IDOCK:   -5.51 KCAL/MOL
REMARK 924 INTRA-LIGAND FREE ENERGY PREDICTED BY IDOCK:   -0.37 KCAL/MOL
REMARK 927      BINDING AFFINITY PREDICTED BY RF-SCORE:    0.00 PKD
ROOT
HETATM    1  C   UNL     1      -9.457  17.394  66.325  1.00  0.00    -0.226 C  
HETATM    2  C   UNL     1      -9.347  17.904  67.744  1.00  0.00    -0.262 C  
HETATM    3  S   UNL     1      -9.924  16.583  68.834  1.00  0.00    -0.275 SA 
HETATM    4  C   UNL     1      -9.992  15.276  67.545  1.00  0.00    -0.226 C  
HETATM    5  C   UNL     1      -9.293  15.873  66.294  1.00  0.00    -0.322 C  
HETATM    6  O   UNL     1     -11.722  16.470  63.858  1.00  0.00    -1.148 OA 
HETATM    7  C   UNL     1     -10.890  16.531  64.740  1.00  0.00    -0.127 C  
HETATM    8  N   UNL     1      -9.935  15.566  65.037  1.00  0.00    -0.329 NA 
HETATM    9  N   UNL     1     -10.721  17.572  65.646  1.00  0.00    -0.466 NA 
ENDROOT
BRANCH   4  10
HETATM   10  C   UNL     1     -11.460  14.807  67.435  1.00  0.00    -0.376 C  
BRANCH  10  11
HETATM   11  C   UNL     1     -11.716  13.311  67.690  1.00  0.00    -0.408 C  
BRANCH  11  12
HETATM   12  C   UNL     1     -12.036  12.487  66.442  1.00  0.00    -0.386 C  
BRANCH  12  13
HETATM   13  C   UNL     1     -10.769  12.053  65.710  1.00  0.00    -0.319 C  
HETATM   14  C   UNL     1     -10.230  10.736  66.215  1.00  0.00    -0.245 C  
HETATM   15  O   UNL     1     -10.746  10.045  67.076  1.00  0.00    -0.234 OA 
HETATM   16  O   UNL     1      -9.087  10.384  65.581  1.00  0.00    -0.161 OA 
ENDBRANCH  12  13
ENDBRANCH  11  12
ENDBRANCH  10  11
ENDBRANCH   4  10
TORSDOF 4
ENDMDL
MODEL       46
REMARK 921   NORMALIZED FREE ENERGY PREDICTED BY IDOCK:   -4.57 KCAL/MOL
REMARK 922        TOTAL FREE ENERGY PREDICTED BY IDOCK:   -5.81 KCAL/MOL
REMARK 923 INTER-LIGAND FREE ENERGY PREDICTED BY IDOCK:   -5.46 KCAL/MOL
REMARK 924 INTRA-LIGAND FREE ENERGY PREDICTED BY IDOCK:   -0.36 KCAL/MOL
REMARK 927      BINDING AFFINITY PREDICTED BY RF-SCORE:    0.00 PKD
ROOT
HETATM    1  C   UNL     1      -9.798  11.287  66.995  1.00  0.00    -0.191 C  
HETATM    2  C   UNL     1      -8.529  10.496  67.219  1.00  0.00    -0.122 C  
HETATM    3  S   UNL     1      -8.796   9.456  68.673  1.00  0.00    -0.133 SA 
HETATM    4  C   UNL     1     -10.603   9.760  68.807  1.00  0.00    -0.219 C  
HETATM    5  C   UNL     1     -11.009  10.501  67.505  1.00  0.00    -0.303 C  
HETATM    6  O   UNL     1     -11.790  13.805  68.322  1.00  0.00    -0.344 OA 
HETATM    7  C   UNL     1     -11.288  12.765  67.945  1.00  0.00    -0.293 C  
HETATM    8  N   UNL     1     -11.958  11.574  67.691  1.00  0.00    -0.634 NA 
HETATM    9  N   UNL     1      -9.938  12.542  67.699  1.00  0.00    -0.198 NA 
ENDROOT
BRANCH   4  10
HETATM   10  C   UNL     1     -10.860  10.438  70.171  1.00  0.00    -0.333 C  
BRANCH  10  11
HETATM   11  C   UNL     1     -12.023   9.869  71.003  1.00  0.00    -0.456 C  
BRANCH  11  12
HETATM   12  C   UNL     1     -13.029  10.907  71.504  1.00  0.00    -0.556 C  
BRANCH  12  13
HETATM   13  C   UNL     1     -12.535  12.332  71.269  1.00  0.00    -0.281 C  
HETATM   14  C   UNL     1     -13.332  13.356  72.041  1.00  0.00    -0.479 C  
HETATM   15  O   UNL     1     -14.243  13.108  72.811  1.00  0.00    -0.608 OA 
HETATM   16  O   UNL     1     -12.905  14.616  71.793  1.00  0.00    -0.306 OA 
ENDBRANCH  12  13
ENDBRANCH  11  12
ENDBRANCH  10  11
ENDBRANCH   4  10
TORSDOF 4
ENDMDL
MODEL       47
REMARK 921   NORMALIZED FREE ENERGY PREDICTED BY IDOCK:   -4.57 KCAL/MOL
REMARK 922        TOTAL FREE ENERGY PREDICTED BY IDOCK:   -5.81 KCAL/MOL
REMARK 923 INTER-LIGAND FREE ENERGY PREDICTED BY IDOCK:   -5.51 KCAL/MOL
REMARK 924 INTRA-LIGAND FREE ENERGY PREDICTED BY IDOCK:   -0.30 KCAL/MOL
REMARK 927      BINDING AFFINITY PREDICTED BY RF-SCORE:    0.00 PKD
ROOT
HETATM    1  C   UNL     1     -11.791  14.218  65.543  1.00  0.00    -0.363 C  
HETATM    2  C   UNL     1     -11.775  14.554  67.017  1.00  0.00    -0.393 C  
HETATM    3  S   UNL     1     -10.839  13.252  67.851  1.00  0.00    -0.250 SA 
HETATM    4  C   UNL     1     -10.186  12.466  66.325  1.00  0.00    -0.238 C  
HETATM    5  C   UNL     1     -10.532  13.435  65.163  1.00  0.00    -0.347 C  
HETATM    6  O   UNL     1     -13.020  11.959  63.207  1.00  0.00    -0.707 OA 
HETATM    7  C   UNL     1     -12.360  12.623  63.981  1.00  0.00    -0.443 C  
HETATM    8  N   UNL     1     -10.981  12.791  63.951  1.00  0.00    -0.406 NA 
HETATM    9  N   UNL     1     -12.841  13.346  65.067  1.00  0.00    -0.727 NA 
ENDROOT
BRANCH   4  10
HETATM   10  C   UNL     1     -10.723  11.018  66.283  1.00  0.00    -0.273 C  
BRANCH  10  11
HETATM   11  C   UNL     1      -9.665   9.900  66.308  1.00  0.00    -0.281 C  
BRANCH  11  12
HETATM   12  C   UNL     1     -10.177   8.533  66.763  1.00  0.00    -0.370 C  
BRANCH  12  13
HETATM   13  C   UNL     1      -9.325   7.958  67.891  1.00  0.00    -0.150 C  
HETATM   14  C   UNL     1      -9.829   8.354  69.258  1.00  0.00    -0.186 C  
HETATM   15  O   UNL     1     -10.826   9.020  69.478  1.00  0.00    -0.229 OA 
HETATM   16  O   UNL     1      -9.042   7.866  70.245  1.00  0.00    -0.150 OA 
ENDBRANCH  12  13
ENDBRANCH  11  12
ENDBRANCH  10  11
ENDBRANCH   4  10
TORSDOF 4
ENDMDL
MODEL       48
REMARK 921   NORMALIZED FREE ENERGY PREDICTED BY IDOCK:   -4.56 KCAL/MOL
REMARK 922        TOTAL FREE ENERGY PREDICTED BY IDOCK:   -5.80 KCAL/MOL
REMARK 923 INTER-LIGAND FREE ENERGY PREDICTED BY IDOCK:   -5.60 KCAL/MOL
REMARK 924 INTRA-LIGAND FREE ENERGY PREDICTED BY IDOCK:   -0.20 KCAL/MOL
REMARK 927      BINDING AFFINITY PREDICTED BY RF-SCORE:    0.00 PKD
ROOT
HETATM    1  C   UNL     1     -11.307   6.920  70.792  1.00  0.00    -0.310 C  
HETATM    2  C   UNL     1     -11.052   6.322  69.427  1.00  0.00    -0.410 C  
HETATM    3  S   UNL     1     -10.390   7.639  68.382  1.00  0.00    -0.176 SA 
HETATM    4  C   UNL     1     -10.119   8.852  69.735  1.00  0.00    -0.199 C  
HETATM    5  C   UNL     1     -10.332   8.069  71.058  1.00  0.00    -0.201 C  
HETATM    6  O   UNL     1     -13.301   9.178  72.524  1.00  0.00    -0.458 OA 
HETATM    7  C   UNL     1     -12.418   8.577  71.944  1.00  0.00    -0.352 C  
HETATM    8  N   UNL     1     -11.052   8.793  72.080  1.00  0.00    -0.363 NA 
HETATM    9  N   UNL     1     -12.586   7.556  71.016  1.00  0.00    -0.241 NA 
ENDROOT
BRANCH   4  10
HETATM   10  C   UNL     1     -11.002  10.084  69.438  1.00  0.00    -0.280 C  
BRANCH  10  11
HETATM   11  C   UNL     1     -11.220  10.422  67.953  1.00  0.00    -0.332 C  
BRANCH  11  12
HETATM   12  C   UNL     1     -11.113  11.907  67.604  1.00  0.00    -0.314 C  
BRANCH  12  13
HETATM   13  C   UNL     1     -11.887  12.246  66.333  1.00  0.00    -0.382 C  
HETATM   14  C   UNL     1     -12.323  13.691  66.289  1.00  0.00    -0.412 C  
HETATM   15  O   UNL     1     -12.066  14.533  67.132  1.00  0.00    -0.397 OA 
HETATM   16  O   UNL     1     -13.039  13.966  65.174  1.00  0.00    -0.773 OA 
ENDBRANCH  12  13
ENDBRANCH  11  12
ENDBRANCH  10  11
ENDBRANCH   4  10
TORSDOF 4
ENDMDL
MODEL       49
REMARK 921   NORMALIZED FREE ENERGY PREDICTED BY IDOCK:   -4.54 KCAL/MOL
REMARK 922        TOTAL FREE ENERGY PREDICTED BY IDOCK:   -5.78 KCAL/MOL
REMARK 923 INTER-LIGAND FREE ENERGY PREDICTED BY IDOCK:   -5.55 KCAL/MOL
REMARK 924 INTRA-LIGAND FREE ENERGY PREDICTED BY IDOCK:   -0.23 KCAL/MOL
REMARK 927      BINDING AFFINITY PREDICTED BY RF-SCORE:    0.00 PKD
ROOT
HETATM    1  C   UNL     1     -10.671   5.668  71.898  1.00  0.00    -0.241 C  
HETATM    2  C   UNL     1      -9.685   5.918  73.017  1.00  0.00    -0.155 C  
HETATM    3  S   UNL     1      -9.700   7.693  73.356  1.00  0.00    -0.293 SA 
HETATM    4  C   UNL     1     -11.175   8.080  72.332  1.00  0.00    -0.369 C  
HETATM    5  C   UNL     1     -11.790   6.711  71.935  1.00  0.00    -0.332 C  
HETATM    6  O   UNL     1     -11.259   6.219  68.519  1.00  0.00    -0.352 OA 
HETATM    7  C   UNL     1     -11.240   6.212  69.733  1.00  0.00    -0.423 C  
HETATM    8  N   UNL     1     -12.265   6.633  70.573  1.00  0.00    -0.284 NA 
HETATM    9  N   UNL     1     -10.189   5.793  70.541  1.00  0.00    -0.206 NA 
ENDROOT
BRANCH   4  10
HETATM   10  C   UNL     1     -10.727   9.055  71.221  1.00  0.00    -0.379 C  
BRANCH  10  11
HETATM   11  C   UNL     1     -11.702  10.198  70.886  1.00  0.00    -0.468 C  
BRANCH  11  12
HETATM   12  C   UNL     1     -11.630  10.710  69.448  1.00  0.00    -0.352 C  
BRANCH  12  13
HETATM   13  C   UNL     1     -11.752  12.230  69.382  1.00  0.00    -0.392 C  
HETATM   14  C   UNL     1     -11.908  12.739  67.968  1.00  0.00    -0.336 C  
HETATM   15  O   UNL     1     -11.978  12.042  66.971  1.00  0.00    -0.609 OA 
HETATM   16  O   UNL     1     -11.978  14.090  67.925  1.00  0.00    -0.360 OA 
ENDBRANCH  12  13
ENDBRANCH  11  12
ENDBRANCH  10  11
ENDBRANCH   4  10
TORSDOF 4
ENDMDL
MODEL       50
REMARK 921   NORMALIZED FREE ENERGY PREDICTED BY IDOCK:   -4.52 KCAL/MOL
REMARK 922        TOTAL FREE ENERGY PREDICTED BY IDOCK:   -5.76 KCAL/MOL
REMARK 923 INTER-LIGAND FREE ENERGY PREDICTED BY IDOCK:   -5.55 KCAL/MOL
REMARK 924 INTRA-LIGAND FREE ENERGY PREDICTED BY IDOCK:   -0.21 KCAL/MOL
REMARK 927      BINDING AFFINITY PREDICTED BY RF-SCORE:    0.00 PKD
ROOT
HETATM    1  C   UNL     1     -10.724  14.880  65.755  1.00  0.00    -0.331 C  
HETATM    2  C   UNL     1     -10.581  13.807  64.699  1.00  0.00    -0.425 C  
HETATM    3  S   UNL     1     -11.203  12.268  65.413  1.00  0.00    -0.338 SA 
HETATM    4  C   UNL     1     -11.948  13.028  66.910  1.00  0.00    -0.352 C  
HETATM    5  C   UNL     1     -11.904  14.562  66.676  1.00  0.00    -0.366 C  
HETATM    6  O   UNL     1      -9.536  15.936  68.843  1.00  0.00    -0.207 OA 
HETATM    7  C   UNL     1     -10.166  15.494  67.903  1.00  0.00    -0.238 C  
HETATM    8  N   UNL     1     -11.546  15.341  67.838  1.00  0.00    -0.326 NA 
HETATM    9  N   UNL     1      -9.642  15.039  66.699  1.00  0.00    -0.249 NA 
ENDROOT
BRANCH   4  10
HETATM   10  C   UNL     1     -11.229  12.433  68.141  1.00  0.00    -0.313 C  
BRANCH  10  11
HETATM   11  C   UNL     1     -11.975  11.315  68.889  1.00  0.00    -0.378 C  
BRANCH  11  12
HETATM   12  C   UNL     1     -12.053  11.490  70.405  1.00  0.00    -0.471 C  
BRANCH  12  13
HETATM   13  C   UNL     1     -12.991  10.470  71.045  1.00  0.00    -0.475 C  
HETATM   14  C   UNL     1     -12.247   9.348  71.730  1.00  0.00    -0.390 C  
HETATM   15  O   UNL     1     -11.035   9.258  71.822  1.00  0.00    -0.369 OA 
HETATM   16  O   UNL     1     -13.092   8.434  72.260  1.00  0.00    -0.327 OA 
ENDBRANCH  12  13
ENDBRANCH  11  12
ENDBRANCH  10  11
ENDBRANCH   4  10
TORSDOF 4
ENDMDL
MODEL       51
REMARK 921   NORMALIZED FREE ENERGY PREDICTED BY IDOCK:   -4.52 KCAL/MOL
REMARK 922        TOTAL FREE ENERGY PREDICTED BY IDOCK:   -5.76 KCAL/MOL
REMARK 923 INTER-LIGAND FREE ENERGY PREDICTED BY IDOCK:   -5.43 KCAL/MOL
REMARK 924 INTRA-LIGAND FREE ENERGY PREDICTED BY IDOCK:   -0.32 KCAL/MOL
REMARK 927      BINDING AFFINITY PREDICTED BY RF-SCORE:    0.00 PKD
ROOT
HETATM    1  C   UNL     1     -11.163  14.537  64.277  1.00  0.00    -0.062 C  
HETATM    2  C   UNL     1     -11.109  15.741  65.190  1.00  0.00    -0.324 C  
HETATM    3  S   UNL     1     -10.990  15.122  66.884  1.00  0.00    -0.311 SA 
HETATM    4  C   UNL     1     -10.674  13.369  66.435  1.00  0.00    -0.286 C  
HETATM    5  C   UNL     1     -10.413  13.361  64.905  1.00  0.00    -0.390 C  
HETATM    6  O   UNL     1     -13.132  11.835  63.333  1.00  0.00    -0.622 OA 
HETATM    7  C   UNL     1     -12.300  12.594  63.789  1.00  0.00    -0.478 C  
HETATM    8  N   UNL     1     -11.014  12.257  64.194  1.00  0.00    -0.331 NA 
HETATM    9  N   UNL     1     -12.460  13.957  64.012  1.00  0.00    -0.706 NA 
ENDROOT
BRANCH   4  10
HETATM   10  C   UNL     1     -11.838  12.527  67.004  1.00  0.00    -0.394 C  
BRANCH  10  11
HETATM   11  C   UNL     1     -11.490  11.592  68.176  1.00  0.00    -0.385 C  
BRANCH  11  12
HETATM   12  C   UNL     1     -11.962  12.070  69.549  1.00  0.00    -0.346 C  
BRANCH  12  13
HETATM   13  C   UNL     1     -11.165  13.279  70.032  1.00  0.00     0.148 C  
HETATM   14  C   UNL     1     -12.048  14.378  70.573  1.00  0.00    -0.334 C  
HETATM   15  O   UNL     1     -13.261  14.324  70.673  1.00  0.00    -0.300 OA 
HETATM   16  O   UNL     1     -11.327  15.455  70.963  1.00  0.00    -0.315 OA 
ENDBRANCH  12  13
ENDBRANCH  11  12
ENDBRANCH  10  11
ENDBRANCH   4  10
TORSDOF 4
ENDMDL
MODEL       52
REMARK 921   NORMALIZED FREE ENERGY PREDICTED BY IDOCK:   -4.50 KCAL/MOL
REMARK 922        TOTAL FREE ENERGY PREDICTED BY IDOCK:   -5.73 KCAL/MOL
REMARK 923 INTER-LIGAND FREE ENERGY PREDICTED BY IDOCK:   -5.43 KCAL/MOL
REMARK 924 INTRA-LIGAND FREE ENERGY PREDICTED BY IDOCK:   -0.30 KCAL/MOL
REMARK 927      BINDING AFFINITY PREDICTED BY RF-SCORE:    0.00 PKD
ROOT
HETATM    1  C   UNL     1      -9.671  11.943  67.223  1.00  0.00    -0.184 C  
HETATM    2  C   UNL     1      -8.770  11.258  68.226  1.00  0.00    -0.158 C  
HETATM    3  S   UNL     1      -9.834  10.324  69.350  1.00  0.00    -0.211 SA 
HETATM    4  C   UNL     1     -11.377  10.517  68.371  1.00  0.00    -0.262 C  
HETATM    5  C   UNL     1     -10.945  11.122  67.008  1.00  0.00    -0.289 C  
HETATM    6  O   UNL     1     -12.077  14.423  66.865  1.00  0.00    -0.425 OA 
HETATM    7  C   UNL     1     -11.443  13.391  66.964  1.00  0.00    -0.337 C  
HETATM    8  N   UNL     1     -11.828  12.142  66.492  1.00  0.00    -0.615 NA 
HETATM    9  N   UNL     1     -10.205  13.238  67.577  1.00  0.00    -0.221 NA 
ENDROOT
BRANCH   4  10
HETATM   10  C   UNL     1     -12.391  11.284  69.248  1.00  0.00    -0.172 C  
BRANCH  10  11
HETATM   11  C   UNL     1     -12.089  11.325  70.757  1.00  0.00    -0.450 C  
BRANCH  11  12
HETATM   12  C   UNL     1     -12.915  10.360  71.608  1.00  0.00    -0.581 C  
BRANCH  12  13
HETATM   13  C   UNL     1     -12.187   9.037  71.829  1.00  0.00    -0.434 C  
HETATM   14  C   UNL     1     -13.105   7.843  71.704  1.00  0.00    -0.332 C  
HETATM   15  O   UNL     1     -14.288   7.889  71.416  1.00  0.00    -0.413 OA 
HETATM   16  O   UNL     1     -12.452   6.681  71.938  1.00  0.00    -0.344 OA 
ENDBRANCH  12  13
ENDBRANCH  11  12
ENDBRANCH  10  11
ENDBRANCH   4  10
TORSDOF 4
ENDMDL
MODEL       53
REMARK 921   NORMALIZED FREE ENERGY PREDICTED BY IDOCK:   -4.49 KCAL/MOL
REMARK 922        TOTAL FREE ENERGY PREDICTED BY IDOCK:   -5.72 KCAL/MOL
REMARK 923 INTER-LIGAND FREE ENERGY PREDICTED BY IDOCK:   -5.35 KCAL/MOL
REMARK 924 INTRA-LIGAND FREE ENERGY PREDICTED BY IDOCK:   -0.36 KCAL/MOL
REMARK 927      BINDING AFFINITY PREDICTED BY RF-SCORE:    0.00 PKD
ROOT
HETATM    1  C   UNL     1      -9.897   6.116  72.599  1.00  0.00    -0.167 C  
HETATM    2  C   UNL     1     -11.306   5.736  72.205  1.00  0.00    -0.278 C  
HETATM    3  S   UNL     1     -11.821   6.872  70.897  1.00  0.00    -0.380 SA 
HETATM    4  C   UNL     1     -10.163   7.609  70.609  1.00  0.00    -0.199 C  
HETATM    5  C   UNL     1      -9.161   6.733  71.407  1.00  0.00    -0.153 C  
HETATM    6  O   UNL     1      -7.995   8.592  74.122  1.00  0.00    -0.391 OA 
HETATM    7  C   UNL     1      -8.552   7.822  73.366  1.00  0.00    -0.213 C  
HETATM    8  N   UNL     1      -8.124   7.469  72.092  1.00  0.00    -0.099 NA 
HETATM    9  N   UNL     1      -9.737   7.137  73.610  1.00  0.00    -0.240 NA 
ENDROOT
BRANCH   4  10
HETATM   10  C   UNL     1     -10.264   9.118  70.928  1.00  0.00    -0.351 C  
BRANCH  10  11
HETATM   11  C   UNL     1     -11.562   9.582  71.611  1.00  0.00    -0.451 C  
BRANCH  11  12
HETATM   12  C   UNL     1     -12.255  10.771  70.945  1.00  0.00    -0.487 C  
BRANCH  12  13
HETATM   13  C   UNL     1     -13.276  11.424  71.873  1.00  0.00    -0.485 C  
HETATM   14  C   UNL     1     -13.313  12.927  71.729  1.00  0.00    -0.359 C  
HETATM   15  O   UNL     1     -12.652  13.577  70.939  1.00  0.00    -0.348 OA 
HETATM   16  O   UNL     1     -14.197  13.491  72.585  1.00  0.00    -0.751 OA 
ENDBRANCH  12  13
ENDBRANCH  11  12
ENDBRANCH  10  11
ENDBRANCH   4  10
TORSDOF 4
ENDMDL
MODEL       54
REMARK 921   NORMALIZED FREE ENERGY PREDICTED BY IDOCK:   -4.47 KCAL/MOL
REMARK 922        TOTAL FREE ENERGY PREDICTED BY IDOCK:   -5.70 KCAL/MOL
REMARK 923 INTER-LIGAND FREE ENERGY PREDICTED BY IDOCK:   -5.36 KCAL/MOL
REMARK 924 INTRA-LIGAND FREE ENERGY PREDICTED BY IDOCK:   -0.34 KCAL/MOL
REMARK 927      BINDING AFFINITY PREDICTED BY RF-SCORE:    0.00 PKD
ROOT
HETATM    1  C   UNL     1      -9.394  16.871  67.363  1.00  0.00    -0.235 C  
HETATM    2  C   UNL     1      -9.531  16.658  68.853  1.00  0.00    -0.251 C  
HETATM    3  S   UNL     1     -10.259  15.021  69.094  1.00  0.00    -0.238 SA 
HETATM    4  C   UNL     1     -10.086  14.467  67.351  1.00  0.00    -0.243 C  
HETATM    5  C   UNL     1      -9.199  15.530  66.651  1.00  0.00    -0.271 C  
HETATM    6  O   UNL     1     -11.197  17.339  64.430  1.00  0.00    -1.082 OA 
HETATM    7  C   UNL     1     -10.525  16.932  65.357  1.00  0.00    -0.154 C  
HETATM    8  N   UNL     1      -9.616  15.881  65.313  1.00  0.00    -0.307 NA 
HETATM    9  N   UNL     1     -10.529  17.422  66.658  1.00  0.00    -0.290 NA 
ENDROOT
BRANCH   4  10
HETATM   10  C   UNL     1     -11.507  14.195  66.807  1.00  0.00    -0.383 C  
BRANCH  10  11
HETATM   11  C   UNL     1     -11.851  12.724  66.513  1.00  0.00    -0.471 C  
BRANCH  11  12
HETATM   12  C   UNL     1     -11.046  11.698  67.311  1.00  0.00    -0.346 C  
BRANCH  12  13
HETATM   13  C   UNL     1     -11.798  11.234  68.555  1.00  0.00    -0.355 C  
HETATM   14  C   UNL     1     -10.874  10.717  69.632  1.00  0.00    -0.268 C  
HETATM   15  O   UNL     1      -9.657  10.699  69.569  1.00  0.00    -0.157 OA 
HETATM   16  O   UNL     1     -11.559  10.275  70.713  1.00  0.00    -0.310 OA 
ENDBRANCH  12  13
ENDBRANCH  11  12
ENDBRANCH  10  11
ENDBRANCH   4  10
TORSDOF 4
ENDMDL
MODEL       55
REMARK 921   NORMALIZED FREE ENERGY PREDICTED BY IDOCK:   -4.46 KCAL/MOL
REMARK 922        TOTAL FREE ENERGY PREDICTED BY IDOCK:   -5.68 KCAL/MOL
REMARK 923 INTER-LIGAND FREE ENERGY PREDICTED BY IDOCK:   -5.40 KCAL/MOL
REMARK 924 INTRA-LIGAND FREE ENERGY PREDICTED BY IDOCK:   -0.28 KCAL/MOL
REMARK 927      BINDING AFFINITY PREDICTED BY RF-SCORE:    0.00 PKD
ROOT
HETATM    1  C   UNL     1     -10.655  11.557  66.081  1.00  0.00    -0.266 C  
HETATM    2  C   UNL     1     -10.816  10.980  64.693  1.00  0.00    -0.178 C  
HETATM    3  S   UNL     1     -10.877  12.370  63.539  1.00  0.00    -0.370 SA 
HETATM    4  C   UNL     1     -10.370  13.656  64.748  1.00  0.00    -0.392 C  
HETATM    5  C   UNL     1      -9.906  12.891  66.016  1.00  0.00    -0.255 C  
HETATM    6  O   UNL     1     -12.265  13.412  68.538  1.00  0.00    -0.295 OA 
HETATM    7  C   UNL     1     -11.563  12.987  67.642  1.00  0.00    -0.355 C  
HETATM    8  N   UNL     1     -10.320  13.484  67.267  1.00  0.00    -0.241 NA 
HETATM    9  N   UNL     1     -11.856  11.923  66.797  1.00  0.00    -0.607 NA 
ENDROOT
BRANCH   4  10
HETATM   10  C   UNL     1     -11.530  14.669  64.863  1.00  0.00    -0.401 C  
BRANCH  10  11
HETATM   11  C   UNL     1     -11.148  16.156  64.746  1.00  0.00    -0.345 C  
BRANCH  11  12
HETATM   12  C   UNL     1     -10.398  16.727  65.950  1.00  0.00    -0.341 C  
BRANCH  12  13
HETATM   13  C   UNL     1     -10.617  18.231  66.090  1.00  0.00    -0.326 C  
HETATM   14  C   UNL     1      -9.328  18.988  66.305  1.00  0.00    -0.298 C  
HETATM   15  O   UNL     1      -8.214  18.494  66.323  1.00  0.00    -0.337 OA 
HETATM   16  O   UNL     1      -9.544  20.315  66.464  1.00  0.00    -0.389 OA 
ENDBRANCH  12  13
ENDBRANCH  11  12
ENDBRANCH  10  11
ENDBRANCH   4  10
TORSDOF 4
ENDMDL
MODEL       56
REMARK 921   NORMALIZED FREE ENERGY PREDICTED BY IDOCK:   -4.46 KCAL/MOL
REMARK 922        TOTAL FREE ENERGY PREDICTED BY IDOCK:   -5.68 KCAL/MOL
REMARK 923 INTER-LIGAND FREE ENERGY PREDICTED BY IDOCK:   -5.60 KCAL/MOL
REMARK 924 INTRA-LIGAND FREE ENERGY PREDICTED BY IDOCK:   -0.08 KCAL/MOL
REMARK 927      BINDING AFFINITY PREDICTED BY RF-SCORE:    0.00 PKD
ROOT
HETATM    1  C   UNL     1     -10.051   5.823  71.920  1.00  0.00    -0.185 C  
HETATM    2  C   UNL     1      -8.887   6.238  72.791  1.00  0.00    -0.125 C  
HETATM    3  S   UNL     1      -9.173   7.953  73.285  1.00  0.00    -0.282 SA 
HETATM    4  C   UNL     1     -10.905   8.049  72.679  1.00  0.00    -0.368 C  
HETATM    5  C   UNL     1     -11.311   6.596  72.316  1.00  0.00    -0.275 C  
HETATM    6  O   UNL     1     -11.567   6.363  68.841  1.00  0.00    -0.230 OA 
HETATM    7  C   UNL     1     -11.243   6.314  70.011  1.00  0.00    -0.412 C  
HETATM    8  N   UNL     1     -12.087   6.469  71.104  1.00  0.00    -0.321 NA 
HETATM    9  N   UNL     1      -9.961   6.103  70.505  1.00  0.00    -0.178 NA 
ENDROOT
BRANCH   4  10
HETATM   10  C   UNL     1     -10.956   9.140  71.587  1.00  0.00    -0.445 C  
BRANCH  10  11
HETATM   11  C   UNL     1     -12.342   9.743  71.293  1.00  0.00    -0.465 C  
BRANCH  11  12
HETATM   12  C   UNL     1     -12.348  11.246  71.012  1.00  0.00    -0.472 C  
BRANCH  12  13
HETATM   13  C   UNL     1     -13.183  12.009  72.036  1.00  0.00    -0.481 C  
HETATM   14  C   UNL     1     -13.091  13.506  71.860  1.00  0.00    -0.384 C  
HETATM   15  O   UNL     1     -12.467  14.076  70.982  1.00  0.00    -0.330 OA 
HETATM   16  O   UNL     1     -13.808  14.167  72.798  1.00  0.00    -0.645 OA 
ENDBRANCH  12  13
ENDBRANCH  11  12
ENDBRANCH  10  11
ENDBRANCH   4  10
TORSDOF 4
ENDMDL
MODEL       57
REMARK 921   NORMALIZED FREE ENERGY PREDICTED BY IDOCK:   -4.46 KCAL/MOL
REMARK 922        TOTAL FREE ENERGY PREDICTED BY IDOCK:   -5.68 KCAL/MOL
REMARK 923 INTER-LIGAND FREE ENERGY PREDICTED BY IDOCK:   -5.50 KCAL/MOL
REMARK 924 INTRA-LIGAND FREE ENERGY PREDICTED BY IDOCK:   -0.18 KCAL/MOL
REMARK 927      BINDING AFFINITY PREDICTED BY RF-SCORE:    0.00 PKD
ROOT
HETATM    1  C   UNL     1     -11.747   7.224  71.798  1.00  0.00    -0.286 C  
HETATM    2  C   UNL     1     -13.228   7.085  72.069  1.00  0.00    -0.095 C  
HETATM    3  S   UNL     1     -14.002   8.657  71.627  1.00  0.00    -0.366 SA 
HETATM    4  C   UNL     1     -12.532   9.377  70.793  1.00  0.00    -0.081 C  
HETATM    5  C   UNL     1     -11.508   8.219  70.659  1.00  0.00    -0.225 C  
HETATM    6  O   UNL     1      -8.856   8.841  72.844  1.00  0.00    -0.362 OA 
HETATM    7  C   UNL     1      -9.852   8.445  72.273  1.00  0.00    -0.313 C  
HETATM    8  N   UNL     1     -10.137   8.591  70.921  1.00  0.00    -0.193 NA 
HETATM    9  N   UNL     1     -10.922   7.771  72.851  1.00  0.00    -0.391 NA 
ENDROOT
BRANCH   4  10
HETATM   10  C   UNL     1     -12.133  10.649  71.572  1.00  0.00    -0.261 C  
BRANCH  10  11
HETATM   11  C   UNL     1     -13.280  11.602  71.952  1.00  0.00    -0.475 C  
BRANCH  11  12
HETATM   12  C   UNL     1     -13.083  13.057  71.524  1.00  0.00    -0.400 C  
BRANCH  12  13
HETATM   13  C   UNL     1     -13.673  14.030  72.541  1.00  0.00    -0.651 C  
HETATM   14  C   UNL     1     -13.247  15.457  72.293  1.00  0.00    -0.421 C  
HETATM   15  O   UNL     1     -12.550  15.835  71.368  1.00  0.00    -0.430 OA 
HETATM   16  O   UNL     1     -13.750  16.301  73.224  1.00  0.00    -0.549 OA 
ENDBRANCH  12  13
ENDBRANCH  11  12
ENDBRANCH  10  11
ENDBRANCH   4  10
TORSDOF 4
ENDMDL
MODEL       58
REMARK 921   NORMALIZED FREE ENERGY PREDICTED BY IDOCK:   -4.42 KCAL/MOL
REMARK 922        TOTAL FREE ENERGY PREDICTED BY IDOCK:   -5.63 KCAL/MOL
REMARK 923 INTER-LIGAND FREE ENERGY PREDICTED BY IDOCK:   -5.43 KCAL/MOL
REMARK 924 INTRA-LIGAND FREE ENERGY PREDICTED BY IDOCK:   -0.20 KCAL/MOL
REMARK 927      BINDING AFFINITY PREDICTED BY RF-SCORE:    0.00 PKD
ROOT
HETATM    1  C   UNL     1     -11.219   6.723  72.483  1.00  0.00    -0.268 C  
HETATM    2  C   UNL     1      -9.893   6.158  72.027  1.00  0.00    -0.155 C  
HETATM    3  S   UNL     1      -9.127   7.393  70.952  1.00  0.00    -0.154 SA 
HETATM    4  C   UNL     1     -10.306   8.749  71.333  1.00  0.00    -0.278 C  
HETATM    5  C   UNL     1     -11.156   8.251  72.533  1.00  0.00    -0.368 C  
HETATM    6  O   UNL     1     -14.395   7.616  71.395  1.00  0.00    -0.433 OA 
HETATM    7  C   UNL     1     -13.246   7.567  71.784  1.00  0.00    -0.316 C  
HETATM    8  N   UNL     1     -12.561   8.574  72.454  1.00  0.00    -0.377 NA 
HETATM    9  N   UNL     1     -12.368   6.499  71.635  1.00  0.00    -0.320 NA 
ENDROOT
BRANCH   4  10
HETATM   10  C   UNL     1     -11.015   9.132  70.015  1.00  0.00    -0.240 C  
BRANCH  10  11
HETATM   11  C   UNL     1     -11.279  10.633  69.797  1.00  0.00    -0.363 C  
BRANCH  11  12
HETATM   12  C   UNL     1     -11.533  11.041  68.346  1.00  0.00    -0.378 C  
BRANCH  12  13
HETATM   13  C   UNL     1     -11.655  12.556  68.198  1.00  0.00    -0.390 C  
HETATM   14  C   UNL     1     -11.941  12.978  66.777  1.00  0.00    -0.369 C  
HETATM   15  O   UNL     1     -12.108  12.223  65.836  1.00  0.00    -0.609 OA 
HETATM   16  O   UNL     1     -12.009  14.325  66.657  1.00  0.00    -0.410 OA 
ENDBRANCH  12  13
ENDBRANCH  11  12
ENDBRANCH  10  11
ENDBRANCH   4  10
TORSDOF 4
ENDMDL
MODEL       59
REMARK 921   NORMALIZED FREE ENERGY PREDICTED BY IDOCK:   -4.40 KCAL/MOL
REMARK 922        TOTAL FREE ENERGY PREDICTED BY IDOCK:   -5.61 KCAL/MOL
REMARK 923 INTER-LIGAND FREE ENERGY PREDICTED BY IDOCK:   -5.14 KCAL/MOL
REMARK 924 INTRA-LIGAND FREE ENERGY PREDICTED BY IDOCK:   -0.47 KCAL/MOL
REMARK 927      BINDING AFFINITY PREDICTED BY RF-SCORE:    0.00 PKD
ROOT
HETATM    1  C   UNL     1      -8.520   9.875  69.051  1.00  0.00    -0.136 C  
HETATM    2  C   UNL     1      -7.463  10.810  68.507  1.00  0.00    -0.100 C  
HETATM    3  S   UNL     1      -8.298  11.981  67.412  1.00  0.00    -0.180 SA 
HETATM    4  C   UNL     1     -10.010  11.515  67.888  1.00  0.00    -0.183 C  
HETATM    5  C   UNL     1      -9.872  10.589  69.125  1.00  0.00    -0.218 C  
HETATM    6  O   UNL     1     -10.728   7.342  68.168  1.00  0.00    -0.195 OA 
HETATM    7  C   UNL     1     -10.177   8.376  68.489  1.00  0.00    -0.201 C  
HETATM    8  N   UNL     1     -10.767   9.455  69.136  1.00  0.00    -0.219 NA 
HETATM    9  N   UNL     1      -8.844   8.704  68.268  1.00  0.00    -0.141 NA 
ENDROOT
BRANCH   4  10
HETATM   10  C   UNL     1     -10.714  10.980  66.621  1.00  0.00    -0.305 C  
BRANCH  10  11
HETATM   11  C   UNL     1      -9.807  10.680  65.415  1.00  0.00    -0.325 C  
BRANCH  11  12
HETATM   12  C   UNL     1     -10.381  11.084  64.057  1.00  0.00    -0.436 C  
BRANCH  12  13
HETATM   13  C   UNL     1     -10.763  12.561  64.021  1.00  0.00    -0.449 C  
HETATM   14  C   UNL     1     -12.175  12.784  63.535  1.00  0.00    -0.525 C  
HETATM   15  O   UNL     1     -12.967  11.906  63.240  1.00  0.00    -0.707 OA 
HETATM   16  O   UNL     1     -12.484  14.100  63.475  1.00  0.00    -0.817 OA 
ENDBRANCH  12  13
ENDBRANCH  11  12
ENDBRANCH  10  11
ENDBRANCH   4  10
TORSDOF 4
ENDMDL
MODEL       60
REMARK 921   NORMALIZED FREE ENERGY PREDICTED BY IDOCK:   -4.39 KCAL/MOL
REMARK 922        TOTAL FREE ENERGY PREDICTED BY IDOCK:   -5.59 KCAL/MOL
REMARK 923 INTER-LIGAND FREE ENERGY PREDICTED BY IDOCK:   -5.18 KCAL/MOL
REMARK 924 INTRA-LIGAND FREE ENERGY PREDICTED BY IDOCK:   -0.41 KCAL/MOL
REMARK 927      BINDING AFFINITY PREDICTED BY RF-SCORE:    0.00 PKD
ROOT
HETATM    1  C   UNL     1      -7.937  17.931  68.426  1.00  0.00    -0.298 C  
HETATM    2  C   UNL     1      -8.630  19.161  67.883  1.00  0.00    -0.305 C  
HETATM    3  S   UNL     1     -10.345  18.702  67.543  1.00  0.00    -0.430 SA 
HETATM    4  C   UNL     1     -10.287  17.071  68.386  1.00  0.00    -0.351 C  
HETATM    5  C   UNL     1      -8.941  17.037  69.158  1.00  0.00    -0.050 C  
HETATM    6  O   UNL     1      -6.826  14.750  67.580  1.00  0.00    -0.162 OA 
HETATM    7  C   UNL     1      -7.405  15.730  68.005  1.00  0.00    -0.125 C  
HETATM    8  N   UNL     1      -8.247  15.771  69.110  1.00  0.00    -0.233 NA 
HETATM    9  N   UNL     1      -7.360  17.013  67.471  1.00  0.00    -0.150 NA 
ENDROOT
BRANCH   4  10
HETATM   10  C   UNL     1     -10.571  15.988  67.322  1.00  0.00    -0.313 C  
BRANCH  10  11
HETATM   11  C   UNL     1     -10.641  16.471  65.862  1.00  0.00    -0.279 C  
BRANCH  11  12
HETATM   12  C   UNL     1     -11.140  15.431  64.859  1.00  0.00    -0.435 C  
BRANCH  12  13
HETATM   13  C   UNL     1     -10.968  14.009  65.386  1.00  0.00    -0.321 C  
HETATM   14  C   UNL     1     -12.286  13.290  65.555  1.00  0.00    -0.457 C  
HETATM   15  O   UNL     1     -13.380  13.744  65.270  1.00  0.00    -0.710 OA 
HETATM   16  O   UNL     1     -12.117  12.044  66.058  1.00  0.00    -0.561 OA 
ENDBRANCH  12  13
ENDBRANCH  11  12
ENDBRANCH  10  11
ENDBRANCH   4  10
TORSDOF 4
ENDMDL
MODEL       61
REMARK 921   NORMALIZED FREE ENERGY PREDICTED BY IDOCK:   -4.37 KCAL/MOL
REMARK 922        TOTAL FREE ENERGY PREDICTED BY IDOCK:   -5.57 KCAL/MOL
REMARK 923 INTER-LIGAND FREE ENERGY PREDICTED BY IDOCK:   -5.27 KCAL/MOL
REMARK 924 INTRA-LIGAND FREE ENERGY PREDICTED BY IDOCK:   -0.30 KCAL/MOL
REMARK 927      BINDING AFFINITY PREDICTED BY RF-SCORE:    0.00 PKD
ROOT
HETATM    1  C   UNL     1     -10.527  10.003  69.163  1.00  0.00    -0.219 C  
HETATM    2  C   UNL     1     -11.369  10.712  70.200  1.00  0.00    -0.323 C  
HETATM    3  S   UNL     1     -11.905  12.278  69.474  1.00  0.00    -0.288 SA 
HETATM    4  C   UNL     1     -11.358  11.902  67.761  1.00  0.00    -0.292 C  
HETATM    5  C   UNL     1     -10.979  10.397  67.754  1.00  0.00    -0.309 C  
HETATM    6  O   UNL     1      -7.510  10.139  67.446  1.00  0.00    -0.093 OA 
HETATM    7  C   UNL     1      -8.668  10.168  67.813  1.00  0.00    -0.121 C  
HETATM    8  N   UNL     1      -9.790  10.076  66.999  1.00  0.00    -0.181 NA 
HETATM    9  N   UNL     1      -9.116  10.311  69.121  1.00  0.00    -0.182 NA 
ENDROOT
BRANCH   4  10
HETATM   10  C   UNL     1     -10.290  12.949  67.375  1.00  0.00    -0.233 C  
BRANCH  10  11
HETATM   11  C   UNL     1     -10.686  13.950  66.274  1.00  0.00    -0.285 C  
BRANCH  11  12
HETATM   12  C   UNL     1     -10.235  13.572  64.863  1.00  0.00    -0.351 C  
BRANCH  12  13
HETATM   13  C   UNL     1     -11.055  12.415  64.299  1.00  0.00    -0.399 C  
HETATM   14  C   UNL     1     -12.281  12.882  63.552  1.00  0.00    -0.512 C  
HETATM   15  O   UNL     1     -12.591  14.045  63.361  1.00  0.00    -0.845 OA 
HETATM   16  O   UNL     1     -13.015  11.843  63.090  1.00  0.00    -0.640 OA 
ENDBRANCH  12  13
ENDBRANCH  11  12
ENDBRANCH  10  11
ENDBRANCH   4  10
TORSDOF 4
ENDMDL
MODEL       62
REMARK 921   NORMALIZED FREE ENERGY PREDICTED BY IDOCK:   -4.35 KCAL/MOL
REMARK 922        TOTAL FREE ENERGY PREDICTED BY IDOCK:   -5.54 KCAL/MOL
REMARK 923 INTER-LIGAND FREE ENERGY PREDICTED BY IDOCK:   -5.16 KCAL/MOL
REMARK 924 INTRA-LIGAND FREE ENERGY PREDICTED BY IDOCK:   -0.38 KCAL/MOL
REMARK 927      BINDING AFFINITY PREDICTED BY RF-SCORE:    0.00 PKD
ROOT
HETATM    1  C   UNL     1     -10.311   9.933  69.103  1.00  0.00    -0.209 C  
HETATM    2  C   UNL     1     -11.079   9.967  70.405  1.00  0.00    -0.327 C  
HETATM    3  S   UNL     1     -12.099  11.460  70.384  1.00  0.00    -0.377 SA 
HETATM    4  C   UNL     1     -11.820  11.869  68.616  1.00  0.00    -0.308 C  
HETATM    5  C   UNL     1     -11.106  10.636  67.999  1.00  0.00    -0.301 C  
HETATM    6  O   UNL     1      -7.801  11.518  67.298  1.00  0.00    -0.137 OA 
HETATM    7  C   UNL     1      -8.839  11.083  67.754  1.00  0.00    -0.133 C  
HETATM    8  N   UNL     1     -10.044  10.952  67.073  1.00  0.00    -0.198 NA 
HETATM    9  N   UNL     1      -9.047  10.633  69.053  1.00  0.00    -0.179 NA 
ENDROOT
BRANCH   4  10
HETATM   10  C   UNL     1     -11.124  13.247  68.562  1.00  0.00    -0.294 C  
BRANCH  10  11
HETATM   11  C   UNL     1     -11.599  14.205  67.455  1.00  0.00    -0.396 C  
BRANCH  11  12
HETATM   12  C   UNL     1     -10.718  14.241  66.207  1.00  0.00    -0.297 C  
BRANCH  12  13
HETATM   13  C   UNL     1     -11.366  13.507  65.036  1.00  0.00    -0.334 C  
HETATM   14  C   UNL     1     -12.086  14.441  64.093  1.00  0.00    -0.376 C  
HETATM   15  O   UNL     1     -12.129  15.654  64.197  1.00  0.00    -0.556 OA 
HETATM   16  O   UNL     1     -12.685  13.770  63.081  1.00  0.00    -0.743 OA 
ENDBRANCH  12  13
ENDBRANCH  11  12
ENDBRANCH  10  11
ENDBRANCH   4  10
TORSDOF 4
ENDMDL
MODEL       63
REMARK 921   NORMALIZED FREE ENERGY PREDICTED BY IDOCK:   -4.32 KCAL/MOL
REMARK 922        TOTAL FREE ENERGY PREDICTED BY IDOCK:   -5.51 KCAL/MOL
REMARK 923 INTER-LIGAND FREE ENERGY PREDICTED BY IDOCK:   -5.11 KCAL/MOL
REMARK 924 INTRA-LIGAND FREE ENERGY PREDICTED BY IDOCK:   -0.40 KCAL/MOL
REMARK 927      BINDING AFFINITY PREDICTED BY RF-SCORE:    0.00 PKD
ROOT
HETATM    1  C   UNL     1      -9.074  17.772  68.442  1.00  0.00    -0.278 C  
HETATM    2  C   UNL     1      -7.596  17.765  68.127  1.00  0.00    -0.250 C  
HETATM    3  S   UNL     1      -7.389  16.890  66.558  1.00  0.00    -0.270 SA 
HETATM    4  C   UNL     1      -9.173  16.822  66.130  1.00  0.00    -0.249 C  
HETATM    5  C   UNL     1      -9.893  17.745  67.149  1.00  0.00    -0.311 C  
HETATM    6  O   UNL     1     -11.752  15.742  69.323  1.00  0.00    -0.353 OA 
HETATM    7  C   UNL     1     -10.935  16.456  68.777  1.00  0.00    -0.344 C  
HETATM    8  N   UNL     1     -11.150  17.235  67.646  1.00  0.00    -0.127 NA 
HETATM    9  N   UNL     1      -9.611  16.638  69.160  1.00  0.00    -0.243 NA 
ENDROOT
BRANCH   4  10
HETATM   10  C   UNL     1      -9.575  15.333  66.049  1.00  0.00    -0.372 C  
BRANCH  10  11
HETATM   11  C   UNL     1     -10.670  14.979  65.026  1.00  0.00    -0.448 C  
BRANCH  11  12
HETATM   12  C   UNL     1     -11.912  14.308  65.613  1.00  0.00    -0.390 C  
BRANCH  12  13
HETATM   13  C   UNL     1     -11.788  12.786  65.605  1.00  0.00    -0.472 C  
HETATM   14  C   UNL     1     -11.690  12.206  66.996  1.00  0.00    -0.303 C  
HETATM   15  O   UNL     1     -11.746  12.844  68.033  1.00  0.00    -0.321 OA 
HETATM   16  O   UNL     1     -11.545  10.860  66.970  1.00  0.00    -0.383 OA 
ENDBRANCH  12  13
ENDBRANCH  11  12
ENDBRANCH  10  11
ENDBRANCH   4  10
TORSDOF 4
ENDMDL
MODEL       64
REMARK 921   NORMALIZED FREE ENERGY PREDICTED BY IDOCK:   -4.32 KCAL/MOL
REMARK 922        TOTAL FREE ENERGY PREDICTED BY IDOCK:   -5.50 KCAL/MOL
REMARK 923 INTER-LIGAND FREE ENERGY PREDICTED BY IDOCK:   -5.18 KCAL/MOL
REMARK 924 INTRA-LIGAND FREE ENERGY PREDICTED BY IDOCK:   -0.32 KCAL/MOL
REMARK 927      BINDING AFFINITY PREDICTED BY RF-SCORE:    0.00 PKD
ROOT
HETATM    1  C   UNL     1     -11.735  13.317  68.999  1.00  0.00    -0.322 C  
HETATM    2  C   UNL     1     -11.923  13.741  70.438  1.00  0.00    -0.315 C  
HETATM    3  S   UNL     1     -11.701  15.534  70.501  1.00  0.00    -0.387 SA 
HETATM    4  C   UNL     1     -11.702  15.799  68.683  1.00  0.00    -0.344 C  
HETATM    5  C   UNL     1     -12.144  14.451  68.055  1.00  0.00    -0.231 C  
HETATM    6  O   UNL     1      -9.384  13.027  66.457  1.00  0.00    -0.248 OA 
HETATM    7  C   UNL     1     -10.291  13.336  67.203  1.00  0.00    -0.248 C  
HETATM    8  N   UNL     1     -11.420  14.073  66.863  1.00  0.00    -0.338 NA 
HETATM    9  N   UNL     1     -10.389  13.030  68.556  1.00  0.00    -0.252 NA 
ENDROOT
BRANCH   4  10
HETATM   10  C   UNL     1     -10.328  16.394  68.300  1.00  0.00    -0.279 C  
BRANCH  10  11
HETATM   11  C   UNL     1     -10.325  17.400  67.135  1.00  0.00    -0.325 C  
BRANCH  11  12
HETATM   12  C   UNL     1     -10.435  18.869  67.547  1.00  0.00    -0.522 C  
BRANCH  12  13
HETATM   13  C   UNL     1      -9.537  19.190  68.739  1.00  0.00    -0.474 C  
HETATM   14  C   UNL     1      -8.140  19.587  68.322  1.00  0.00    -0.334 C  
HETATM   15  O   UNL     1      -7.750  19.694  67.172  1.00  0.00    -0.244 OA 
HETATM   16  O   UNL     1      -7.347  19.833  69.391  1.00  0.00    -0.318 OA 
ENDBRANCH  12  13
ENDBRANCH  11  12
ENDBRANCH  10  11
ENDBRANCH   4  10
TORSDOF 4
ENDMDL
MODEL       65
REMARK 921   NORMALIZED FREE ENERGY PREDICTED BY IDOCK:   -4.31 KCAL/MOL
REMARK 922        TOTAL FREE ENERGY PREDICTED BY IDOCK:   -5.49 KCAL/MOL
REMARK 923 INTER-LIGAND FREE ENERGY PREDICTED BY IDOCK:   -5.18 KCAL/MOL
REMARK 924 INTRA-LIGAND FREE ENERGY PREDICTED BY IDOCK:   -0.31 KCAL/MOL
REMARK 927      BINDING AFFINITY PREDICTED BY RF-SCORE:    0.00 PKD
ROOT
HETATM    1  C   UNL     1      -9.578  15.663  68.331  1.00  0.00    -0.199 C  
HETATM    2  C   UNL     1      -8.663  14.716  67.589  1.00  0.00    -0.177 C  
HETATM    3  S   UNL     1      -9.651  13.278  67.117  1.00  0.00    -0.248 SA 
HETATM    4  C   UNL     1     -11.281  14.003  67.553  1.00  0.00    -0.309 C  
HETATM    5  C   UNL     1     -11.018  15.506  67.836  1.00  0.00    -0.316 C  
HETATM    6  O   UNL     1     -11.401  16.063  71.262  1.00  0.00    -0.389 OA 
HETATM    7  C   UNL     1     -11.003  15.884  70.128  1.00  0.00    -0.364 C  
HETATM    8  N   UNL     1     -11.743  16.046  68.963  1.00  0.00    -0.356 NA 
HETATM    9  N   UNL     1      -9.730  15.469  69.756  1.00  0.00    -0.286 NA 
ENDROOT
BRANCH   4  10
HETATM   10  C   UNL     1     -11.898  13.125  68.664  1.00  0.00    -0.363 C  
BRANCH  10  11
HETATM   11  C   UNL     1     -11.140  11.829  69.006  1.00  0.00    -0.301 C  
BRANCH  11  12
HETATM   12  C   UNL     1     -11.987  10.735  69.656  1.00  0.00    -0.385 C  
BRANCH  12  13
HETATM   13  C   UNL     1     -11.141   9.802  70.518  1.00  0.00    -0.384 C  
HETATM   14  C   UNL     1     -11.908   9.244  71.693  1.00  0.00    -0.383 C  
HETATM   15  O   UNL     1     -13.084   9.455  71.933  1.00  0.00    -0.361 OA 
HETATM   16  O   UNL     1     -11.133   8.448  72.466  1.00  0.00    -0.361 OA 
ENDBRANCH  12  13
ENDBRANCH  11  12
ENDBRANCH  10  11
ENDBRANCH   4  10
TORSDOF 4
ENDMDL
MODEL       66
REMARK 921   NORMALIZED FREE ENERGY PREDICTED BY IDOCK:   -4.27 KCAL/MOL
REMARK 922        TOTAL FREE ENERGY PREDICTED BY IDOCK:   -5.45 KCAL/MOL
REMARK 923 INTER-LIGAND FREE ENERGY PREDICTED BY IDOCK:   -5.12 KCAL/MOL
REMARK 924 INTRA-LIGAND FREE ENERGY PREDICTED BY IDOCK:   -0.33 KCAL/MOL
REMARK 927      BINDING AFFINITY PREDICTED BY RF-SCORE:    0.00 PKD
ROOT
HETATM    1  C   UNL     1     -10.297  16.360  69.031  1.00  0.00    -0.278 C  
HETATM    2  C   UNL     1     -11.165  16.097  70.240  1.00  0.00    -0.381 C  
HETATM    3  S   UNL     1     -11.998  14.516  69.967  1.00  0.00    -0.350 SA 
HETATM    4  C   UNL     1     -11.013  14.022  68.497  1.00  0.00    -0.256 C  
HETATM    5  C   UNL     1      -9.843  15.038  68.406  1.00  0.00    -0.222 C  
HETATM    6  O   UNL     1     -10.384  17.093  65.636  1.00  0.00    -0.557 OA 
HETATM    7  C   UNL     1     -10.281  16.595  66.739  1.00  0.00    -0.301 C  
HETATM    8  N   UNL     1      -9.524  15.477  67.068  1.00  0.00    -0.220 NA 
HETATM    9  N   UNL     1     -10.905  17.029  67.903  1.00  0.00    -0.341 NA 
ENDROOT
BRANCH   4  10
HETATM   10  C   UNL     1     -11.988  13.890  67.306  1.00  0.00    -0.446 C  
BRANCH  10  11
HETATM   11  C   UNL     1     -11.821  12.638  66.427  1.00  0.00    -0.466 C  
BRANCH  11  12
HETATM   12  C   UNL     1     -10.614  11.763  66.768  1.00  0.00    -0.273 C  
BRANCH  12  13
HETATM   13  C   UNL     1     -11.033  10.459  67.441  1.00  0.00    -0.335 C  
HETATM   14  C   UNL     1     -10.299   9.260  66.889  1.00  0.00    -0.246 C  
HETATM   15  O   UNL     1      -9.430   9.296  66.035  1.00  0.00    -0.206 OA 
HETATM   16  O   UNL     1     -10.708   8.108  67.470  1.00  0.00    -0.242 OA 
ENDBRANCH  12  13
ENDBRANCH  11  12
ENDBRANCH  10  11
ENDBRANCH   4  10
TORSDOF 4
ENDMDL
MODEL       67
REMARK 921   NORMALIZED FREE ENERGY PREDICTED BY IDOCK:   -4.25 KCAL/MOL
REMARK 922        TOTAL FREE ENERGY PREDICTED BY IDOCK:   -5.42 KCAL/MOL
REMARK 923 INTER-LIGAND FREE ENERGY PREDICTED BY IDOCK:   -5.13 KCAL/MOL
REMARK 924 INTRA-LIGAND FREE ENERGY PREDICTED BY IDOCK:   -0.29 KCAL/MOL
REMARK 927      BINDING AFFINITY PREDICTED BY RF-SCORE:    0.00 PKD
ROOT
HETATM    1  C   UNL     1      -9.276  15.571  66.610  1.00  0.00    -0.271 C  
HETATM    2  C   UNL     1     -10.148  14.451  66.090  1.00  0.00    -0.309 C  
HETATM    3  S   UNL     1     -11.570  14.321  67.198  1.00  0.00    -0.397 SA 
HETATM    4  C   UNL     1     -11.248  15.878  68.119  1.00  0.00    -0.339 C  
HETATM    5  C   UNL     1     -10.129  16.614  67.335  1.00  0.00    -0.274 C  
HETATM    6  O   UNL     1      -7.202  16.506  69.236  1.00  0.00    -0.229 OA 
HETATM    7  C   UNL     1      -8.097  16.350  68.430  1.00  0.00    -0.188 C  
HETATM    8  N   UNL     1      -9.126  17.245  68.161  1.00  0.00    -0.249 NA 
HETATM    9  N   UNL     1      -8.290  15.240  67.615  1.00  0.00    -0.155 NA 
ENDROOT
BRANCH   4  10
HETATM   10  C   UNL     1     -11.008  15.502  69.598  1.00  0.00    -0.288 C  
BRANCH  10  11
HETATM   11  C   UNL     1     -12.006  16.081  70.617  1.00  0.00    -0.300 C  
BRANCH  11  12
HETATM   12  C   UNL     1     -12.543  15.079  71.639  1.00  0.00    -0.409 C  
BRANCH  12  13
HETATM   13  C   UNL     1     -12.483  13.647  71.112  1.00  0.00    -0.442 C  
HETATM   14  C   UNL     1     -13.369  12.705  71.892  1.00  0.00    -0.387 C  
HETATM   15  O   UNL     1     -14.099  13.023  72.814  1.00  0.00    -0.573 OA 
HETATM   16  O   UNL     1     -13.276  11.434  71.436  1.00  0.00    -0.326 OA 
ENDBRANCH  12  13
ENDBRANCH  11  12
ENDBRANCH  10  11
ENDBRANCH   4  10
TORSDOF 4
ENDMDL
MODEL       68
REMARK 921   NORMALIZED FREE ENERGY PREDICTED BY IDOCK:   -4.24 KCAL/MOL
REMARK 922        TOTAL FREE ENERGY PREDICTED BY IDOCK:   -5.41 KCAL/MOL
REMARK 923 INTER-LIGAND FREE ENERGY PREDICTED BY IDOCK:   -5.17 KCAL/MOL
REMARK 924 INTRA-LIGAND FREE ENERGY PREDICTED BY IDOCK:   -0.24 KCAL/MOL
REMARK 927      BINDING AFFINITY PREDICTED BY RF-SCORE:    0.00 PKD
ROOT
HETATM    1  C   UNL     1     -12.078  14.009  65.670  1.00  0.00    -0.417 C  
HETATM    2  C   UNL     1     -11.936  14.117  67.171  1.00  0.00    -0.426 C  
HETATM    3  S   UNL     1     -10.673  12.926  67.675  1.00  0.00    -0.227 SA 
HETATM    4  C   UNL     1     -10.085  12.528  65.981  1.00  0.00    -0.253 C  
HETATM    5  C   UNL     1     -10.753  13.568  65.042  1.00  0.00    -0.357 C  
HETATM    6  O   UNL     1     -13.150  11.921  63.108  1.00  0.00    -0.605 OA 
HETATM    7  C   UNL     1     -12.532  12.583  63.919  1.00  0.00    -0.445 C  
HETATM    8  N   UNL     1     -11.224  13.034  63.785  1.00  0.00    -0.393 NA 
HETATM    9  N   UNL     1     -12.997  13.021  65.153  1.00  0.00    -0.764 NA 
ENDROOT
BRANCH   4  10
HETATM   10  C   UNL     1     -10.341  11.024  65.742  1.00  0.00    -0.316 C  
BRANCH  10  11
HETATM   11  C   UNL     1      -9.718  10.057  66.765  1.00  0.00    -0.239 C  
BRANCH  11  12
HETATM   12  C   UNL     1      -9.082   8.803  66.167  1.00  0.00    -0.251 C  
BRANCH  12  13
HETATM   13  C   UNL     1      -8.674   9.015  64.711  1.00  0.00    -0.187 C  
HETATM   14  C   UNL     1      -7.678   7.986  64.232  1.00  0.00    -0.128 C  
HETATM   15  O   UNL     1      -7.258   7.050  64.890  1.00  0.00    -0.070 OA 
HETATM   16  O   UNL     1      -7.300   8.210  62.952  1.00  0.00    -0.093 OA 
ENDBRANCH  12  13
ENDBRANCH  11  12
ENDBRANCH  10  11
ENDBRANCH   4  10
TORSDOF 4
ENDMDL
MODEL       69
REMARK 921   NORMALIZED FREE ENERGY PREDICTED BY IDOCK:   -4.24 KCAL/MOL
REMARK 922        TOTAL FREE ENERGY PREDICTED BY IDOCK:   -5.41 KCAL/MOL
REMARK 923 INTER-LIGAND FREE ENERGY PREDICTED BY IDOCK:   -5.14 KCAL/MOL
REMARK 924 INTRA-LIGAND FREE ENERGY PREDICTED BY IDOCK:   -0.27 KCAL/MOL
REMARK 927      BINDING AFFINITY PREDICTED BY RF-SCORE:    0.00 PKD
ROOT
HETATM    1  C   UNL     1     -11.205  11.809  66.406  1.00  0.00    -0.323 C  
HETATM    2  C   UNL     1     -11.521  12.027  64.943  1.00  0.00    -0.294 C  
HETATM    3  S   UNL     1     -10.870  13.652  64.492  1.00  0.00    -0.375 SA 
HETATM    4  C   UNL     1      -9.914  13.920  66.038  1.00  0.00    -0.310 C  
HETATM    5  C   UNL     1      -9.931  12.563  66.791  1.00  0.00    -0.228 C  
HETATM    6  O   UNL     1     -11.954  12.902  69.617  1.00  0.00    -0.313 OA 
HETATM    7  C   UNL     1     -11.465  12.652  68.534  1.00  0.00    -0.311 C  
HETATM    8  N   UNL     1     -10.110  12.667  68.221  1.00  0.00    -0.230 NA 
HETATM    9  N   UNL     1     -12.153  12.307  67.376  1.00  0.00    -0.503 NA 
ENDROOT
BRANCH   4  10
HETATM   10  C   UNL     1     -10.492  15.173  66.731  1.00  0.00    -0.283 C  
BRANCH  10  11
HETATM   11  C   UNL     1     -10.080  16.531  66.134  1.00  0.00    -0.365 C  
BRANCH  11  12
HETATM   12  C   UNL     1      -9.211  17.401  67.043  1.00  0.00    -0.252 C  
BRANCH  12  13
HETATM   13  C   UNL     1      -7.786  16.865  67.144  1.00  0.00    -0.210 C  
HETATM   14  C   UNL     1      -6.859  17.489  66.128  1.00  0.00    -0.276 C  
HETATM   15  O   UNL     1      -7.166  18.358  65.332  1.00  0.00    -0.534 OA 
HETATM   16  O   UNL     1      -5.608  16.977  66.207  1.00  0.00    -0.334 OA 
ENDBRANCH  12  13
ENDBRANCH  11  12
ENDBRANCH  10  11
ENDBRANCH   4  10
TORSDOF 4
ENDMDL
MODEL       70
REMARK 921   NORMALIZED FREE ENERGY PREDICTED BY IDOCK:   -4.22 KCAL/MOL
REMARK 922        TOTAL FREE ENERGY PREDICTED BY IDOCK:   -5.38 KCAL/MOL
REMARK 923 INTER-LIGAND FREE ENERGY PREDICTED BY IDOCK:   -5.11 KCAL/MOL
REMARK 924 INTRA-LIGAND FREE ENERGY PREDICTED BY IDOCK:   -0.27 KCAL/MOL
REMARK 927      BINDING AFFINITY PREDICTED BY RF-SCORE:    0.00 PKD
ROOT
HETATM    1  C   UNL     1     -10.059   7.861  71.838  1.00  0.00    -0.194 C  
HETATM    2  C   UNL     1     -11.201   7.796  72.827  1.00  0.00    -0.398 C  
HETATM    3  S   UNL     1     -12.485   8.924  72.237  1.00  0.00    -0.343 SA 
HETATM    4  C   UNL     1     -11.740   9.228  70.585  1.00  0.00    -0.222 C  
HETATM    5  C   UNL     1     -10.586   8.200  70.441  1.00  0.00    -0.224 C  
HETATM    6  O   UNL     1      -7.553   9.922  70.598  1.00  0.00    -0.288 OA 
HETATM    7  C   UNL     1      -8.546   9.252  70.798  1.00  0.00    -0.203 C  
HETATM    8  N   UNL     1      -9.386   8.718  69.827  1.00  0.00    -0.160 NA 
HETATM    9  N   UNL     1      -9.060   8.886  72.037  1.00  0.00    -0.381 NA 
ENDROOT
BRANCH   4  10
HETATM   10  C   UNL     1     -11.420  10.736  70.490  1.00  0.00    -0.367 C  
BRANCH  10  11
HETATM   11  C   UNL     1     -12.051  11.491  69.306  1.00  0.00    -0.344 C  
BRANCH  11  12
HETATM   12  C   UNL     1     -11.055  12.161  68.359  1.00  0.00    -0.289 C  
BRANCH  12  13
HETATM   13  C   UNL     1     -11.407  11.906  66.896  1.00  0.00    -0.392 C  
HETATM   14  C   UNL     1     -12.131  13.070  66.263  1.00  0.00    -0.386 C  
HETATM   15  O   UNL     1     -12.383  14.128  66.812  1.00  0.00    -0.438 OA 
HETATM   16  O   UNL     1     -12.468  12.813  64.977  1.00  0.00    -0.483 OA 
ENDBRANCH  12  13
ENDBRANCH  11  12
ENDBRANCH  10  11
ENDBRANCH   4  10
TORSDOF 4
ENDMDL
MODEL       71
REMARK 921   NORMALIZED FREE ENERGY PREDICTED BY IDOCK:   -4.21 KCAL/MOL
REMARK 922        TOTAL FREE ENERGY PREDICTED BY IDOCK:   -5.37 KCAL/MOL
REMARK 923 INTER-LIGAND FREE ENERGY PREDICTED BY IDOCK:   -4.96 KCAL/MOL
REMARK 924 INTRA-LIGAND FREE ENERGY PREDICTED BY IDOCK:   -0.40 KCAL/MOL
REMARK 927      BINDING AFFINITY PREDICTED BY RF-SCORE:    0.00 PKD
ROOT
HETATM    1  C   UNL     1      -9.779  11.430  67.465  1.00  0.00    -0.178 C  
HETATM    2  C   UNL     1      -8.507  10.700  67.834  1.00  0.00    -0.120 C  
HETATM    3  S   UNL     1      -8.923   9.532  69.149  1.00  0.00    -0.157 SA 
HETATM    4  C   UNL     1     -10.745   9.717  69.012  1.00  0.00    -0.211 C  
HETATM    5  C   UNL     1     -10.995  10.536  67.718  1.00  0.00    -0.313 C  
HETATM    6  O   UNL     1     -12.126  13.711  68.629  1.00  0.00    -0.360 OA 
HETATM    7  C   UNL     1     -11.499  12.737  68.265  1.00  0.00    -0.314 C  
HETATM    8  N   UNL     1     -12.035  11.533  67.823  1.00  0.00    -0.637 NA 
HETATM    9  N   UNL     1     -10.115  12.613  68.224  1.00  0.00    -0.230 NA 
ENDROOT
BRANCH   4  10
HETATM   10  C   UNL     1     -11.259  10.266  70.361  1.00  0.00    -0.407 C  
BRANCH  10  11
HETATM   11  C   UNL     1     -11.329   9.258  71.522  1.00  0.00    -0.455 C  
BRANCH  11  12
HETATM   12  C   UNL     1     -12.133   7.990  71.232  1.00  0.00    -0.314 C  
BRANCH  12  13
HETATM   13  C   UNL     1     -11.299   6.730  71.448  1.00  0.00    -0.322 C  
HETATM   14  C   UNL     1     -11.057   5.969  70.166  1.00  0.00    -0.361 C  
HETATM   15  O   UNL     1     -11.430   6.314  69.059  1.00  0.00    -0.363 OA 
HETATM   16  O   UNL     1     -10.347   4.836  70.381  1.00  0.00    -0.223 OA 
ENDBRANCH  12  13
ENDBRANCH  11  12
ENDBRANCH  10  11
ENDBRANCH   4  10
TORSDOF 4
ENDMDL
MODEL       72
REMARK 921   NORMALIZED FREE ENERGY PREDICTED BY IDOCK:   -4.20 KCAL/MOL
REMARK 922        TOTAL FREE ENERGY PREDICTED BY IDOCK:   -5.36 KCAL/MOL
REMARK 923 INTER-LIGAND FREE ENERGY PREDICTED BY IDOCK:   -5.14 KCAL/MOL
REMARK 924 INTRA-LIGAND FREE ENERGY PREDICTED BY IDOCK:   -0.22 KCAL/MOL
REMARK 927      BINDING AFFINITY PREDICTED BY RF-SCORE:    0.00 PKD
ROOT
HETATM    1  C   UNL     1     -12.190  14.374  64.558  1.00  0.00    -0.463 C  
HETATM    2  C   UNL     1     -12.081  13.439  63.375  1.00  0.00    -0.372 C  
HETATM    3  S   UNL     1     -11.531  11.838  64.008  1.00  0.00    -0.330 SA 
HETATM    4  C   UNL     1     -11.754  12.238  65.786  1.00  0.00    -0.385 C  
HETATM    5  C   UNL     1     -12.522  13.586  65.827  1.00  0.00    -0.462 C  
HETATM    6  O   UNL     1     -10.336  16.061  66.964  1.00  0.00    -0.281 OA 
HETATM    7  C   UNL     1     -11.051  15.314  66.327  1.00  0.00    -0.273 C  
HETATM    8  N   UNL     1     -12.065  14.513  66.837  1.00  0.00    -0.359 NA 
HETATM    9  N   UNL     1     -11.000  15.093  64.955  1.00  0.00    -0.416 NA 
ENDROOT
BRANCH   4  10
HETATM   10  C   UNL     1     -10.369  12.140  66.463  1.00  0.00    -0.239 C  
BRANCH  10  11
HETATM   11  C   UNL     1      -9.547  10.878  66.146  1.00  0.00    -0.239 C  
BRANCH  11  12
HETATM   12  C   UNL     1      -9.669   9.751  67.172  1.00  0.00    -0.223 C  
BRANCH  12  13
HETATM   13  C   UNL     1     -10.198   8.466  66.540  1.00  0.00    -0.277 C  
HETATM   14  C   UNL     1     -10.484   7.392  67.562  1.00  0.00    -0.268 C  
HETATM   15  O   UNL     1     -10.363   7.515  68.768  1.00  0.00    -0.194 OA 
HETATM   16  O   UNL     1     -10.917   6.248  66.981  1.00  0.00    -0.355 OA 
ENDBRANCH  12  13
ENDBRANCH  11  12
ENDBRANCH  10  11
ENDBRANCH   4  10
TORSDOF 4
ENDMDL
MODEL       73
REMARK 921   NORMALIZED FREE ENERGY PREDICTED BY IDOCK:   -4.19 KCAL/MOL
REMARK 922        TOTAL FREE ENERGY PREDICTED BY IDOCK:   -5.35 KCAL/MOL
REMARK 923 INTER-LIGAND FREE ENERGY PREDICTED BY IDOCK:   -5.04 KCAL/MOL
REMARK 924 INTRA-LIGAND FREE ENERGY PREDICTED BY IDOCK:   -0.30 KCAL/MOL
REMARK 927      BINDING AFFINITY PREDICTED BY RF-SCORE:    0.00 PKD
ROOT
HETATM    1  C   UNL     1     -12.976  15.358  72.770  1.00  0.00    -0.448 C  
HETATM    2  C   UNL     1     -11.904  16.422  72.685  1.00  0.00    -0.448 C  
HETATM    3  S   UNL     1     -11.430  16.565  70.947  1.00  0.00     0.218 SA 
HETATM    4  C   UNL     1     -12.799  15.537  70.281  1.00  0.00    -0.195 C  
HETATM    5  C   UNL     1     -13.774  15.305  71.465  1.00  0.00    -0.520 C  
HETATM    6  O   UNL     1     -13.564  11.952  72.419  1.00  0.00    -0.289 OA 
HETATM    7  C   UNL     1     -13.487  13.160  72.310  1.00  0.00    -0.568 C  
HETATM    8  N   UNL     1     -14.320  13.970  71.547  1.00  0.00    -0.185 NA 
HETATM    9  N   UNL     1     -12.546  13.986  72.914  1.00  0.00    -0.157 NA 
ENDROOT
BRANCH   4  10
HETATM   10  C   UNL     1     -12.164  14.317  69.578  1.00  0.00    -0.341 C  
BRANCH  10  11
HETATM   11  C   UNL     1     -11.718  14.529  68.120  1.00  0.00    -0.369 C  
BRANCH  11  12
HETATM   12  C   UNL     1     -12.257  13.502  67.123  1.00  0.00    -0.328 C  
BRANCH  12  13
HETATM   13  C   UNL     1     -11.146  12.612  66.572  1.00  0.00    -0.320 C  
HETATM   14  C   UNL     1     -11.118  11.250  67.223  1.00  0.00    -0.305 C  
HETATM   15  O   UNL     1     -11.905  10.853  68.065  1.00  0.00    -0.585 OA 
HETATM   16  O   UNL     1     -10.105  10.487  66.750  1.00  0.00    -0.202 OA 
ENDBRANCH  12  13
ENDBRANCH  11  12
ENDBRANCH  10  11
ENDBRANCH   4  10
TORSDOF 4
ENDMDL
MODEL       74
REMARK 921   NORMALIZED FREE ENERGY PREDICTED BY IDOCK:   -4.19 KCAL/MOL
REMARK 922        TOTAL FREE ENERGY PREDICTED BY IDOCK:   -5.34 KCAL/MOL
REMARK 923 INTER-LIGAND FREE ENERGY PREDICTED BY IDOCK:   -5.17 KCAL/MOL
REMARK 924 INTRA-LIGAND FREE ENERGY PREDICTED BY IDOCK:   -0.18 KCAL/MOL
REMARK 927      BINDING AFFINITY PREDICTED BY RF-SCORE:    0.00 PKD
ROOT
HETATM    1  C   UNL     1     -12.077  14.017  65.670  1.00  0.00    -0.417 C  
HETATM    2  C   UNL     1     -11.938  14.120  67.172  1.00  0.00    -0.426 C  
HETATM    3  S   UNL     1     -10.666  12.938  67.674  1.00  0.00    -0.227 SA 
HETATM    4  C   UNL     1     -10.073  12.551  65.979  1.00  0.00    -0.253 C  
HETATM    5  C   UNL     1     -10.748  13.588  65.043  1.00  0.00    -0.357 C  
HETATM    6  O   UNL     1     -13.128  11.928  63.100  1.00  0.00    -0.605 OA 
HETATM    7  C   UNL     1     -12.517  12.592  63.913  1.00  0.00    -0.407 C  
HETATM    8  N   UNL     1     -11.213  13.055  63.783  1.00  0.00    -0.393 NA 
HETATM    9  N   UNL     1     -12.988  13.022  65.149  1.00  0.00    -0.764 NA 
ENDROOT
BRANCH   4  10
HETATM   10  C   UNL     1     -10.316  11.045  65.734  1.00  0.00    -0.316 C  
BRANCH  10  11
HETATM   11  C   UNL     1      -9.685  10.081  66.755  1.00  0.00    -0.239 C  
BRANCH  11  12
HETATM   12  C   UNL     1      -9.032   8.837  66.152  1.00  0.00    -0.225 C  
BRANCH  12  13
HETATM   13  C   UNL     1      -9.045   7.663  67.127  1.00  0.00    -0.146 C  
HETATM   14  C   UNL     1      -8.820   6.337  66.440  1.00  0.00    -0.143 C  
HETATM   15  O   UNL     1      -8.603   6.185  65.251  1.00  0.00    -0.143 OA 
HETATM   16  O   UNL     1      -8.871   5.304  67.314  1.00  0.00    -0.108 OA 
ENDBRANCH  12  13
ENDBRANCH  11  12
ENDBRANCH  10  11
ENDBRANCH   4  10
TORSDOF 4
ENDMDL
MODEL       75
REMARK 921   NORMALIZED FREE ENERGY PREDICTED BY IDOCK:   -4.17 KCAL/MOL
REMARK 922        TOTAL FREE ENERGY PREDICTED BY IDOCK:   -5.32 KCAL/MOL
REMARK 923 INTER-LIGAND FREE ENERGY PREDICTED BY IDOCK:   -4.80 KCAL/MOL
REMARK 924 INTRA-LIGAND FREE ENERGY PREDICTED BY IDOCK:   -0.53 KCAL/MOL
REMARK 927      BINDING AFFINITY PREDICTED BY RF-SCORE:    0.00 PKD
ROOT
HETATM    1  C   UNL     1      -9.738  12.566  66.976  1.00  0.00    -0.213 C  
HETATM    2  C   UNL     1      -8.351  12.022  66.719  1.00  0.00    -0.135 C  
HETATM    3  S   UNL     1      -8.442  10.225  66.888  1.00  0.00    -0.127 SA 
HETATM    4  C   UNL     1     -10.274  10.122  66.953  1.00  0.00    -0.236 C  
HETATM    5  C   UNL     1     -10.795  11.534  66.574  1.00  0.00    -0.288 C  
HETATM    6  O   UNL     1     -12.153  13.007  69.434  1.00  0.00    -0.282 OA 
HETATM    7  C   UNL     1     -11.473  12.661  68.490  1.00  0.00    -0.311 C  
HETATM    8  N   UNL     1     -11.920  11.994  67.355  1.00  0.00    -0.585 NA 
HETATM    9  N   UNL     1     -10.102  12.849  68.346  1.00  0.00    -0.236 NA 
ENDROOT
BRANCH   4  10
HETATM   10  C   UNL     1     -10.658   9.521  68.323  1.00  0.00    -0.260 C  
BRANCH  10  11
HETATM   11  C   UNL     1      -9.516   9.378  69.346  1.00  0.00    -0.177 C  
BRANCH  11  12
HETATM   12  C   UNL     1      -9.951   9.421  70.811  1.00  0.00    -0.358 C  
BRANCH  12  13
HETATM   13  C   UNL     1     -11.411   9.840  70.956  1.00  0.00    -0.458 C  
HETATM   14  C   UNL     1     -12.185   8.933  71.884  1.00  0.00    -0.374 C  
HETATM   15  O   UNL     1     -11.720   7.991  72.501  1.00  0.00    -0.367 OA 
HETATM   16  O   UNL     1     -13.486   9.297  71.972  1.00  0.00    -0.391 OA 
ENDBRANCH  12  13
ENDBRANCH  11  12
ENDBRANCH  10  11
ENDBRANCH   4  10
TORSDOF 4
ENDMDL
MODEL       76
REMARK 921   NORMALIZED FREE ENERGY PREDICTED BY IDOCK:   -4.16 KCAL/MOL
REMARK 922        TOTAL FREE ENERGY PREDICTED BY IDOCK:   -5.32 KCAL/MOL
REMARK 923 INTER-LIGAND FREE ENERGY PREDICTED BY IDOCK:   -4.90 KCAL/MOL
REMARK 924 INTRA-LIGAND FREE ENERGY PREDICTED BY IDOCK:   -0.42 KCAL/MOL
REMARK 927      BINDING AFFINITY PREDICTED BY RF-SCORE:    0.00 PKD
ROOT
HETATM    1  C   UNL     1     -10.553   6.013  70.492  1.00  0.00    -0.266 C  
HETATM    2  C   UNL     1      -9.497   6.307  69.451  1.00  0.00    -0.139 C  
HETATM    3  S   UNL     1      -8.857   7.963  69.790  1.00  0.00    -0.141 SA 
HETATM    4  C   UNL     1      -9.669   8.160  71.426  1.00  0.00    -0.171 C  
HETATM    5  C   UNL     1     -10.241   6.764  71.790  1.00  0.00    -0.190 C  
HETATM    6  O   UNL     1     -13.724   6.917  71.586  1.00  0.00    -0.306 OA 
HETATM    7  C   UNL     1     -12.534   6.734  71.420  1.00  0.00    -0.329 C  
HETATM    8  N   UNL     1     -11.550   6.786  72.400  1.00  0.00    -0.267 NA 
HETATM    9  N   UNL     1     -11.904   6.444  70.215  1.00  0.00    -0.340 NA 
ENDROOT
BRANCH   4  10
HETATM   10  C   UNL     1     -10.630   9.365  71.326  1.00  0.00    -0.400 C  
BRANCH  10  11
HETATM   11  C   UNL     1     -10.747  10.028  69.943  1.00  0.00    -0.328 C  
BRANCH  11  12
HETATM   12  C   UNL     1     -12.013  10.857  69.726  1.00  0.00    -0.423 C  
BRANCH  12  13
HETATM   13  C   UNL     1     -12.681  11.224  71.048  1.00  0.00    -0.457 C  
HETATM   14  C   UNL     1     -12.772  12.717  71.257  1.00  0.00    -0.269 C  
HETATM   15  O   UNL     1     -12.406  13.565  70.462  1.00  0.00    -0.339 OA 
HETATM   16  O   UNL     1     -13.334  13.024  72.450  1.00  0.00    -0.535 OA 
ENDBRANCH  12  13
ENDBRANCH  11  12
ENDBRANCH  10  11
ENDBRANCH   4  10
TORSDOF 4
ENDMDL
MODEL       77
REMARK 921   NORMALIZED FREE ENERGY PREDICTED BY IDOCK:   -4.16 KCAL/MOL
REMARK 922        TOTAL FREE ENERGY PREDICTED BY IDOCK:   -5.31 KCAL/MOL
REMARK 923 INTER-LIGAND FREE ENERGY PREDICTED BY IDOCK:   -4.95 KCAL/MOL
REMARK 924 INTRA-LIGAND FREE ENERGY PREDICTED BY IDOCK:   -0.36 KCAL/MOL
REMARK 927      BINDING AFFINITY PREDICTED BY RF-SCORE:    0.00 PKD
ROOT
HETATM    1  C   UNL     1     -12.141  13.088  69.792  1.00  0.00    -0.258 C  
HETATM    2  C   UNL     1     -11.700  14.166  70.755  1.00  0.00    -0.163 C  
HETATM    3  S   UNL     1     -10.842  15.429  69.787  1.00  0.00    -0.311 SA 
HETATM    4  C   UNL     1     -11.322  14.778  68.138  1.00  0.00    -0.307 C  
HETATM    5  C   UNL     1     -12.393  13.686  68.406  1.00  0.00     0.069 C  
HETATM    6  O   UNL     1     -10.985  10.571  67.696  1.00  0.00    -0.279 OA 
HETATM    7  C   UNL     1     -11.435  11.580  68.201  1.00  0.00    -0.315 C  
HETATM    8  N   UNL     1     -12.270  12.504  67.585  1.00  0.00    -0.333 NA 
HETATM    9  N   UNL     1     -11.203  12.030  69.496  1.00  0.00    -0.195 NA 
ENDROOT
BRANCH   4  10
HETATM   10  C   UNL     1     -10.024  14.393  67.395  1.00  0.00    -0.242 C  
BRANCH  10  11
HETATM   11  C   UNL     1      -9.976  14.730  65.894  1.00  0.00    -0.351 C  
BRANCH  11  12
HETATM   12  C   UNL     1     -10.191  13.542  64.956  1.00  0.00    -0.345 C  
BRANCH  12  13
HETATM   13  C   UNL     1     -11.608  13.518  64.389  1.00  0.00    -0.429 C  
HETATM   14  C   UNL     1     -11.952  12.198  63.742  1.00  0.00    -0.513 C  
HETATM   15  O   UNL     1     -11.223  11.222  63.699  1.00  0.00    -0.358 OA 
HETATM   16  O   UNL     1     -13.198  12.206  63.214  1.00  0.00    -0.620 OA 
ENDBRANCH  12  13
ENDBRANCH  11  12
ENDBRANCH  10  11
ENDBRANCH   4  10
TORSDOF 4
ENDMDL
MODEL       78
REMARK 921   NORMALIZED FREE ENERGY PREDICTED BY IDOCK:   -4.16 KCAL/MOL
REMARK 922        TOTAL FREE ENERGY PREDICTED BY IDOCK:   -5.31 KCAL/MOL
REMARK 923 INTER-LIGAND FREE ENERGY PREDICTED BY IDOCK:   -5.02 KCAL/MOL
REMARK 924 INTRA-LIGAND FREE ENERGY PREDICTED BY IDOCK:   -0.28 KCAL/MOL
REMARK 927      BINDING AFFINITY PREDICTED BY RF-SCORE:    0.00 PKD
ROOT
HETATM    1  C   UNL     1      -8.625  10.336  68.324  1.00  0.00    -0.122 C  
HETATM    2  C   UNL     1      -7.808  11.523  67.868  1.00  0.00    -0.123 C  
HETATM    3  S   UNL     1      -8.966  12.868  67.522  1.00  0.00    -0.204 SA 
HETATM    4  C   UNL     1     -10.439  12.058  68.262  1.00  0.00    -0.204 C  
HETATM    5  C   UNL     1      -9.908  10.808  69.013  1.00  0.00    -0.194 C  
HETATM    6  O   UNL     1     -10.931   7.961  67.269  1.00  0.00    -0.199 OA 
HETATM    7  C   UNL     1     -10.335   8.898  67.761  1.00  0.00    -0.242 C  
HETATM    8  N   UNL     1     -10.727   9.626  68.878  1.00  0.00    -0.219 NA 
HETATM    9  N   UNL     1      -9.141   9.448  67.307  1.00  0.00    -0.133 NA 
ENDROOT
BRANCH   4  10
HETATM   10  C   UNL     1     -11.482  11.873  67.137  1.00  0.00    -0.386 C  
BRANCH  10  11
HETATM   11  C   UNL     1     -12.084  13.162  66.551  1.00  0.00    -0.423 C  
BRANCH  11  12
HETATM   12  C   UNL     1     -11.882  13.346  65.047  1.00  0.00    -0.381 C  
BRANCH  12  13
HETATM   13  C   UNL     1     -12.267  14.752  64.593  1.00  0.00    -0.405 C  
HETATM   14  C   UNL     1     -11.102  15.711  64.625  1.00  0.00    -0.373 C  
HETATM   15  O   UNL     1      -9.958  15.423  64.929  1.00  0.00    -0.274 OA 
HETATM   16  O   UNL     1     -11.469  16.960  64.254  1.00  0.00    -1.142 OA 
ENDBRANCH  12  13
ENDBRANCH  11  12
ENDBRANCH  10  11
ENDBRANCH   4  10
TORSDOF 4
ENDMDL
MODEL       79
REMARK 921   NORMALIZED FREE ENERGY PREDICTED BY IDOCK:   -4.15 KCAL/MOL
REMARK 922        TOTAL FREE ENERGY PREDICTED BY IDOCK:   -5.30 KCAL/MOL
REMARK 923 INTER-LIGAND FREE ENERGY PREDICTED BY IDOCK:   -4.94 KCAL/MOL
REMARK 924 INTRA-LIGAND FREE ENERGY PREDICTED BY IDOCK:   -0.36 KCAL/MOL
REMARK 927      BINDING AFFINITY PREDICTED BY RF-SCORE:    0.00 PKD
ROOT
HETATM    1  C   UNL     1     -11.796  12.360  66.140  1.00  0.00    -0.376 C  
HETATM    2  C   UNL     1     -11.524  12.526  67.618  1.00  0.00    -0.334 C  
HETATM    3  S   UNL     1     -11.212  14.283  67.910  1.00  0.00    -0.300 SA 
HETATM    4  C   UNL     1     -11.746  14.859  66.249  1.00  0.00    -0.177 C  
HETATM    5  C   UNL     1     -12.417  13.637  65.568  1.00  0.00    -0.503 C  
HETATM    6  O   UNL     1     -10.331  12.532  62.995  1.00  0.00    -0.143 OA 
HETATM    7  C   UNL     1     -10.958  12.700  64.021  1.00  0.00    -0.406 C  
HETATM    8  N   UNL     1     -12.102  13.476  64.168  1.00  0.00    -0.500 NA 
HETATM    9  N   UNL     1     -10.659  12.164  65.269  1.00  0.00    -0.271 NA 
ENDROOT
BRANCH   4  10
HETATM   10  C   UNL     1     -10.525  15.522  65.573  1.00  0.00    -0.407 C  
BRANCH  10  11
HETATM   11  C   UNL     1     -10.299  17.011  65.890  1.00  0.00    -0.310 C  
BRANCH  11  12
HETATM   12  C   UNL     1      -9.196  17.296  66.910  1.00  0.00    -0.265 C  
BRANCH  12  13
HETATM   13  C   UNL     1      -7.909  16.547  66.575  1.00  0.00    -0.338 C  
HETATM   14  C   UNL     1      -7.439  15.666  67.709  1.00  0.00    -0.145 C  
HETATM   15  O   UNL     1      -8.019  15.509  68.768  1.00  0.00    -0.140 OA 
HETATM   16  O   UNL     1      -6.278  15.039  67.409  1.00  0.00    -0.324 OA 
ENDBRANCH  12  13
ENDBRANCH  11  12
ENDBRANCH  10  11
ENDBRANCH   4  10
TORSDOF 4
ENDMDL
MODEL       80
REMARK 921   NORMALIZED FREE ENERGY PREDICTED BY IDOCK:   -4.14 KCAL/MOL
REMARK 922        TOTAL FREE ENERGY PREDICTED BY IDOCK:   -5.28 KCAL/MOL
REMARK 923 INTER-LIGAND FREE ENERGY PREDICTED BY IDOCK:   -4.69 KCAL/MOL
REMARK 924 INTRA-LIGAND FREE ENERGY PREDICTED BY IDOCK:   -0.59 KCAL/MOL
REMARK 927      BINDING AFFINITY PREDICTED BY RF-SCORE:    0.00 PKD
ROOT
HETATM    1  C   UNL     1     -11.528   9.462  71.632  1.00  0.00    -0.393 C  
HETATM    2  C   UNL     1     -12.929   8.894  71.606  1.00  0.00    -0.354 C  
HETATM    3  S   UNL     1     -12.775   7.094  71.559  1.00  0.00    -0.384 SA 
HETATM    4  C   UNL     1     -10.972   7.038  71.906  1.00  0.00    -0.233 C  
HETATM    5  C   UNL     1     -10.570   8.480  72.313  1.00  0.00    -0.338 C  
HETATM    6  O   UNL     1      -8.635   9.846  69.747  1.00  0.00    -0.183 OA 
HETATM    7  C   UNL     1      -9.503   9.529  70.535  1.00  0.00    -0.246 C  
HETATM    8  N   UNL     1      -9.308   8.932  71.775  1.00  0.00    -0.313 NA 
HETATM    9  N   UNL     1     -10.873   9.687  70.363  1.00  0.00    -0.271 NA 
ENDROOT
BRANCH   4  10
HETATM   10  C   UNL     1     -10.285   6.380  70.689  1.00  0.00    -0.229 C  
BRANCH  10  11
HETATM   11  C   UNL     1     -11.177   6.126  69.460  1.00  0.00    -0.482 C  
BRANCH  11  12
HETATM   12  C   UNL     1     -10.456   6.188  68.113  1.00  0.00    -0.284 C  
BRANCH  12  13
HETATM   13  C   UNL     1     -10.889   7.402  67.296  1.00  0.00    -0.326 C  
HETATM   14  C   UNL     1      -9.718   8.231  66.825  1.00  0.00    -0.239 C  
HETATM   15  O   UNL     1      -8.544   7.968  67.016  1.00  0.00    -0.124 OA 
HETATM   16  O   UNL     1     -10.121   9.323  66.133  1.00  0.00    -0.288 OA 
ENDBRANCH  12  13
ENDBRANCH  11  12
ENDBRANCH  10  11
ENDBRANCH   4  10
TORSDOF 4
ENDMDL
MODEL       81
REMARK 921   NORMALIZED FREE ENERGY PREDICTED BY IDOCK:   -4.12 KCAL/MOL
REMARK 922        TOTAL FREE ENERGY PREDICTED BY IDOCK:   -5.26 KCAL/MOL
REMARK 923 INTER-LIGAND FREE ENERGY PREDICTED BY IDOCK:   -5.03 KCAL/MOL
REMARK 924 INTRA-LIGAND FREE ENERGY PREDICTED BY IDOCK:   -0.24 KCAL/MOL
REMARK 927      BINDING AFFINITY PREDICTED BY RF-SCORE:    0.00 PKD
ROOT
HETATM    1  C   UNL     1     -13.435  15.024  73.063  1.00  0.00    -0.418 C  
HETATM    2  C   UNL     1     -12.460  16.139  73.368  1.00  0.00    -0.555 C  
HETATM    3  S   UNL     1     -11.630  16.562  71.819  1.00  0.00     0.121 SA 
HETATM    4  C   UNL     1     -12.731  15.578  70.727  1.00  0.00    -0.457 C  
HETATM    5  C   UNL     1     -13.921  15.126  71.615  1.00  0.00    -0.523 C  
HETATM    6  O   UNL     1     -13.655  11.683  72.136  1.00  0.00    -0.332 OA 
HETATM    7  C   UNL     1     -13.654  12.896  72.209  1.00  0.00    -0.515 C  
HETATM    8  N   UNL     1     -14.362  13.769  71.391  1.00  0.00     0.190 NA 
HETATM    9  N   UNL     1     -12.938  13.668  73.117  1.00  0.00    -0.245 NA 
ENDROOT
BRANCH   4  10
HETATM   10  C   UNL     1     -11.861  14.508  70.031  1.00  0.00    -0.372 C  
BRANCH  10  11
HETATM   11  C   UNL     1     -11.543  14.751  68.545  1.00  0.00    -0.348 C  
BRANCH  11  12
HETATM   12  C   UNL     1     -10.449  15.786  68.279  1.00  0.00    -0.259 C  
BRANCH  12  13
HETATM   13  C   UNL     1     -11.028  17.188  68.104  1.00  0.00    -0.231 C  
HETATM   14  C   UNL     1      -9.994  18.271  68.298  1.00  0.00    -0.364 C  
HETATM   15  O   UNL     1      -8.811  18.085  68.525  1.00  0.00    -0.296 OA 
HETATM   16  O   UNL     1     -10.532  19.507  68.176  1.00  0.00    -0.422 OA 
ENDBRANCH  12  13
ENDBRANCH  11  12
ENDBRANCH  10  11
ENDBRANCH   4  10
TORSDOF 4
ENDMDL
MODEL       82
REMARK 921   NORMALIZED FREE ENERGY PREDICTED BY IDOCK:   -4.12 KCAL/MOL
REMARK 922        TOTAL FREE ENERGY PREDICTED BY IDOCK:   -5.26 KCAL/MOL
REMARK 923 INTER-LIGAND FREE ENERGY PREDICTED BY IDOCK:   -4.97 KCAL/MOL
REMARK 924 INTRA-LIGAND FREE ENERGY PREDICTED BY IDOCK:   -0.29 KCAL/MOL
REMARK 927      BINDING AFFINITY PREDICTED BY RF-SCORE:    0.00 PKD
ROOT
HETATM    1  C   UNL     1     -10.864  15.012  66.785  1.00  0.00    -0.318 C  
HETATM    2  C   UNL     1     -10.187  13.670  66.953  1.00  0.00    -0.261 C  
HETATM    3  S   UNL     1      -8.481  13.992  67.455  1.00  0.00    -0.208 SA 
HETATM    4  C   UNL     1      -8.702  15.787  67.777  1.00  0.00    -0.170 C  
HETATM    5  C   UNL     1     -10.231  16.046  67.718  1.00  0.00    -0.260 C  
HETATM    6  O   UNL     1     -10.925  17.884  64.831  1.00  0.00    -0.827 OA 
HETATM    7  C   UNL     1     -10.783  17.038  65.691  1.00  0.00    -0.144 C  
HETATM    8  N   UNL     1     -10.613  17.269  67.051  1.00  0.00    -0.278 NA 
HETATM    9  N   UNL     1     -10.752  15.661  65.498  1.00  0.00    -0.371 NA 
ENDROOT
BRANCH   4  10
HETATM   10  C   UNL     1      -7.772  16.551  66.808  1.00  0.00    -0.294 C  
BRANCH  10  11
HETATM   11  C   UNL     1      -6.933  17.685  67.425  1.00  0.00    -0.187 C  
BRANCH  11  12
HETATM   12  C   UNL     1      -7.610  18.443  68.568  1.00  0.00    -0.319 C  
BRANCH  12  13
HETATM   13  C   UNL     1      -6.958  19.802  68.809  1.00  0.00    -0.366 C  
HETATM   14  C   UNL     1      -6.124  19.830  70.068  1.00  0.00    -0.316 C  
HETATM   15  O   UNL     1      -5.932  18.881  70.808  1.00  0.00    -0.093 OA 
HETATM   16  O   UNL     1      -5.584  21.051  70.285  1.00  0.00    -0.557 OA 
ENDBRANCH  12  13
ENDBRANCH  11  12
ENDBRANCH  10  11
ENDBRANCH   4  10
TORSDOF 4
ENDMDL
MODEL       83
REMARK 921   NORMALIZED FREE ENERGY PREDICTED BY IDOCK:   -4.09 KCAL/MOL
REMARK 922        TOTAL FREE ENERGY PREDICTED BY IDOCK:   -5.22 KCAL/MOL
REMARK 923 INTER-LIGAND FREE ENERGY PREDICTED BY IDOCK:   -4.91 KCAL/MOL
REMARK 924 INTRA-LIGAND FREE ENERGY PREDICTED BY IDOCK:   -0.31 KCAL/MOL
REMARK 927      BINDING AFFINITY PREDICTED BY RF-SCORE:    0.00 PKD
ROOT
HETATM    1  C   UNL     1      -9.541  10.528  65.249  1.00  0.00    -0.249 C  
HETATM    2  C   UNL     1     -10.063  10.756  63.849  1.00  0.00    -0.333 C  
HETATM    3  S   UNL     1     -11.126  12.218  63.906  1.00  0.00    -0.455 SA 
HETATM    4  C   UNL     1     -10.656  12.739  65.604  1.00  0.00    -0.275 C  
HETATM    5  C   UNL     1      -9.443  11.857  66.002  1.00  0.00    -0.229 C  
HETATM    6  O   UNL     1     -10.481   9.610  68.465  1.00  0.00    -0.198 OA 
HETATM    7  C   UNL     1     -10.136  10.174  67.446  1.00  0.00    -0.205 C  
HETATM    8  N   UNL     1      -9.459  11.386  67.367  1.00  0.00    -0.166 NA 
HETATM    9  N   UNL     1     -10.353   9.735  66.145  1.00  0.00    -0.196 NA 
ENDROOT
BRANCH   4  10
HETATM   10  C   UNL     1     -11.934  12.699  66.472  1.00  0.00    -0.401 C  
BRANCH  10  11
HETATM   11  C   UNL     1     -12.147  13.891  67.422  1.00  0.00    -0.380 C  
BRANCH  11  12
HETATM   12  C   UNL     1     -11.852  13.605  68.895  1.00  0.00    -0.402 C  
BRANCH  12  13
HETATM   13  C   UNL     1     -12.226  14.787  69.786  1.00  0.00    -0.337 C  
HETATM   14  C   UNL     1     -12.909  14.358  71.062  1.00  0.00    -0.353 C  
HETATM   15  O   UNL     1     -13.114  13.205  71.400  1.00  0.00    -0.337 OA 
HETATM   16  O   UNL     1     -13.266  15.419  71.823  1.00  0.00    -0.391 OA 
ENDBRANCH  12  13
ENDBRANCH  11  12
ENDBRANCH  10  11
ENDBRANCH   4  10
TORSDOF 4
ENDMDL
MODEL       84
REMARK 921   NORMALIZED FREE ENERGY PREDICTED BY IDOCK:   -4.09 KCAL/MOL
REMARK 922        TOTAL FREE ENERGY PREDICTED BY IDOCK:   -5.22 KCAL/MOL
REMARK 923 INTER-LIGAND FREE ENERGY PREDICTED BY IDOCK:   -5.11 KCAL/MOL
REMARK 924 INTRA-LIGAND FREE ENERGY PREDICTED BY IDOCK:   -0.11 KCAL/MOL
REMARK 927      BINDING AFFINITY PREDICTED BY RF-SCORE:    0.00 PKD
ROOT
HETATM    1  C   UNL     1     -10.046   6.703  69.780  1.00  0.00    -0.182 C  
HETATM    2  C   UNL     1     -10.142   7.537  68.522  1.00  0.00    -0.184 C  
HETATM    3  S   UNL     1     -10.418   9.248  69.035  1.00  0.00    -0.206 SA 
HETATM    4  C   UNL     1     -10.082   8.978  70.821  1.00  0.00    -0.241 C  
HETATM    5  C   UNL     1      -9.496   7.546  70.934  1.00  0.00    -0.165 C  
HETATM    6  O   UNL     1     -11.869   5.507  72.485  1.00  0.00    -0.252 OA 
HETATM    7  C   UNL     1     -11.126   6.089  71.720  1.00  0.00    -0.276 C  
HETATM    8  N   UNL     1      -9.973   6.784  72.064  1.00  0.00    -0.172 NA 
HETATM    9  N   UNL     1     -11.276   6.194  70.342  1.00  0.00    -0.353 NA 
ENDROOT
BRANCH   4  10
HETATM   10  C   UNL     1     -11.374   9.326  71.594  1.00  0.00    -0.467 C  
BRANCH  10  11
HETATM   11  C   UNL     1     -12.481  10.027  70.787  1.00  0.00    -0.386 C  
BRANCH  11  12
HETATM   12  C   UNL     1     -12.385  11.552  70.744  1.00  0.00    -0.472 C  
BRANCH  12  13
HETATM   13  C   UNL     1     -13.233  12.203  71.834  1.00  0.00    -0.474 C  
HETATM   14  C   UNL     1     -12.949  13.678  71.986  1.00  0.00    -0.334 C  
HETATM   15  O   UNL     1     -12.171  14.322  71.304  1.00  0.00    -0.334 OA 
HETATM   16  O   UNL     1     -13.682  14.231  72.981  1.00  0.00    -0.613 OA 
ENDBRANCH  12  13
ENDBRANCH  11  12
ENDBRANCH  10  11
ENDBRANCH   4  10
TORSDOF 4
ENDMDL
MODEL       85
REMARK 921   NORMALIZED FREE ENERGY PREDICTED BY IDOCK:   -4.08 KCAL/MOL
REMARK 922        TOTAL FREE ENERGY PREDICTED BY IDOCK:   -5.21 KCAL/MOL
REMARK 923 INTER-LIGAND FREE ENERGY PREDICTED BY IDOCK:   -4.85 KCAL/MOL
REMARK 924 INTRA-LIGAND FREE ENERGY PREDICTED BY IDOCK:   -0.37 KCAL/MOL
REMARK 927      BINDING AFFINITY PREDICTED BY RF-SCORE:    0.00 PKD
ROOT
HETATM    1  C   UNL     1     -10.762  15.919  67.134  1.00  0.00    -0.301 C  
HETATM    2  C   UNL     1     -11.471  16.327  68.405  1.00  0.00    -0.243 C  
HETATM    3  S   UNL     1     -10.983  15.153  69.690  1.00  0.00    -0.297 SA 
HETATM    4  C   UNL     1      -9.639  14.351  68.728  1.00  0.00    -0.177 C  
HETATM    5  C   UNL     1      -9.436  15.228  67.464  1.00  0.00    -0.202 C  
HETATM    6  O   UNL     1     -10.603  13.450  64.694  1.00  0.00    -0.372 OA 
HETATM    7  C   UNL     1     -10.430  14.205  65.630  1.00  0.00    -0.321 C  
HETATM    8  N   UNL     1      -9.215  14.489  66.243  1.00  0.00    -0.242 NA 
HETATM    9  N   UNL     1     -11.409  14.937  66.293  1.00  0.00    -0.334 NA 
ENDROOT
BRANCH   4  10
HETATM   10  C   UNL     1     -10.014  12.862  68.559  1.00  0.00    -0.168 C  
BRANCH  10  11
HETATM   11  C   UNL     1     -11.407  12.450  69.068  1.00  0.00    -0.336 C  
BRANCH  11  12
HETATM   12  C   UNL     1     -11.730  10.961  68.938  1.00  0.00    -0.376 C  
BRANCH  12  13
HETATM   13  C   UNL     1     -11.087  10.144  70.056  1.00  0.00    -0.368 C  
HETATM   14  C   UNL     1     -12.078   9.735  71.119  1.00  0.00    -0.370 C  
HETATM   15  O   UNL     1     -13.274   9.972  71.099  1.00  0.00    -0.384 OA 
HETATM   16  O   UNL     1     -11.485   9.043  72.119  1.00  0.00    -0.355 OA 
ENDBRANCH  12  13
ENDBRANCH  11  12
ENDBRANCH  10  11
ENDBRANCH   4  10
TORSDOF 4
ENDMDL
MODEL       86
REMARK 921   NORMALIZED FREE ENERGY PREDICTED BY IDOCK:   -4.07 KCAL/MOL
REMARK 922        TOTAL FREE ENERGY PREDICTED BY IDOCK:   -5.20 KCAL/MOL
REMARK 923 INTER-LIGAND FREE ENERGY PREDICTED BY IDOCK:   -5.03 KCAL/MOL
REMARK 924 INTRA-LIGAND FREE ENERGY PREDICTED BY IDOCK:   -0.16 KCAL/MOL
REMARK 927      BINDING AFFINITY PREDICTED BY RF-SCORE:    0.00 PKD
ROOT
HETATM    1  C   UNL     1      -8.079  18.867  66.974  1.00  0.00    -0.261 C  
HETATM    2  C   UNL     1      -9.438  19.443  66.644  1.00  0.00    -0.350 C  
HETATM    3  S   UNL     1     -10.650  18.570  67.661  1.00  0.00    -0.369 SA 
HETATM    4  C   UNL     1      -9.430  17.717  68.738  1.00  0.00    -0.250 C  
HETATM    5  C   UNL     1      -8.055  18.360  68.418  1.00  0.00    -0.308 C  
HETATM    6  O   UNL     1      -6.116  16.014  66.707  1.00  0.00    -0.272 OA 
HETATM    7  C   UNL     1      -6.820  16.939  67.056  1.00  0.00    -0.204 C  
HETATM    8  N   UNL     1      -6.952  17.430  68.350  1.00  0.00    -0.193 NA 
HETATM    9  N   UNL     1      -7.651  17.698  66.240  1.00  0.00    -0.315 NA 
ENDROOT
BRANCH   4  10
HETATM   10  C   UNL     1      -9.616  16.196  68.536  1.00  0.00    -0.215 C  
BRANCH  10  11
HETATM   11  C   UNL     1     -10.941  15.600  69.043  1.00  0.00    -0.263 C  
BRANCH  11  12
HETATM   12  C   UNL     1     -11.472  16.212  70.340  1.00  0.00    -0.344 C  
BRANCH  12  13
HETATM   13  C   UNL     1     -12.133  15.164  71.230  1.00  0.00    -0.399 C  
HETATM   14  C   UNL     1     -12.112  15.546  72.691  1.00  0.00    -0.437 C  
HETATM   15  O   UNL     1     -11.667  16.588  73.142  1.00  0.00    -0.396 OA 
HETATM   16  O   UNL     1     -12.669  14.590  73.470  1.00  0.00    -0.459 OA 
ENDBRANCH  12  13
ENDBRANCH  11  12
ENDBRANCH  10  11
ENDBRANCH   4  10
TORSDOF 4
ENDMDL
MODEL       87
REMARK 921   NORMALIZED FREE ENERGY PREDICTED BY IDOCK:   -4.07 KCAL/MOL
REMARK 922        TOTAL FREE ENERGY PREDICTED BY IDOCK:   -5.19 KCAL/MOL
REMARK 923 INTER-LIGAND FREE ENERGY PREDICTED BY IDOCK:   -4.66 KCAL/MOL
REMARK 924 INTRA-LIGAND FREE ENERGY PREDICTED BY IDOCK:   -0.54 KCAL/MOL
REMARK 927      BINDING AFFINITY PREDICTED BY RF-SCORE:    0.00 PKD
ROOT
HETATM    1  C   UNL     1     -10.783  16.626  67.697  1.00  0.00    -0.306 C  
HETATM    2  C   UNL     1      -9.563  17.421  67.291  1.00  0.00    -0.258 C  
HETATM    3  S   UNL     1      -8.399  16.264  66.534  1.00  0.00    -0.326 SA 
HETATM    4  C   UNL     1      -9.566  14.850  66.422  1.00  0.00    -0.293 C  
HETATM    5  C   UNL     1     -10.966  15.424  66.767  1.00  0.00    -0.282 C  
HETATM    6  O   UNL     1     -11.924  14.182  69.887  1.00  0.00    -0.296 OA 
HETATM    7  C   UNL     1     -11.540  14.841  68.941  1.00  0.00    -0.313 C  
HETATM    8  N   UNL     1     -11.782  14.571  67.600  1.00  0.00    -0.373 NA 
HETATM    9  N   UNL     1     -10.771  15.998  68.999  1.00  0.00    -0.254 NA 
ENDROOT
BRANCH   4  10
HETATM   10  C   UNL     1      -8.990  13.703  67.281  1.00  0.00    -0.226 C  
BRANCH  10  11
HETATM   11  C   UNL     1      -8.952  12.313  66.621  1.00  0.00    -0.189 C  
BRANCH  11  12
HETATM   12  C   UNL     1     -10.046  11.348  67.079  1.00  0.00    -0.237 C  
BRANCH  12  13
HETATM   13  C   UNL     1      -9.977  11.089  68.582  1.00  0.00    -0.205 C  
HETATM   14  C   UNL     1     -11.343  10.947  69.209  1.00  0.00    -0.277 C  
HETATM   15  O   UNL     1     -12.403  10.984  68.608  1.00  0.00    -0.539 OA 
HETATM   16  O   UNL     1     -11.265  10.754  70.546  1.00  0.00    -0.282 OA 
ENDBRANCH  12  13
ENDBRANCH  11  12
ENDBRANCH  10  11
ENDBRANCH   4  10
TORSDOF 4
ENDMDL
MODEL       88
REMARK 921   NORMALIZED FREE ENERGY PREDICTED BY IDOCK:   -4.06 KCAL/MOL
REMARK 922        TOTAL FREE ENERGY PREDICTED BY IDOCK:   -5.18 KCAL/MOL
REMARK 923 INTER-LIGAND FREE ENERGY PREDICTED BY IDOCK:   -4.84 KCAL/MOL
REMARK 924 INTRA-LIGAND FREE ENERGY PREDICTED BY IDOCK:   -0.34 KCAL/MOL
REMARK 927      BINDING AFFINITY PREDICTED BY RF-SCORE:    0.00 PKD
ROOT
HETATM    1  C   UNL     1     -12.468  15.857  71.472  1.00  0.00    -0.428 C  
HETATM    2  C   UNL     1     -13.681  15.398  72.250  1.00  0.00    -0.526 C  
HETATM    3  S   UNL     1     -13.840  13.616  71.990  1.00  0.00    -0.438 SA 
HETATM    4  C   UNL     1     -12.206  13.386  71.183  1.00  0.00    -0.152 C  
HETATM    5  C   UNL     1     -11.444  14.724  71.371  1.00  0.00    -0.175 C  
HETATM    6  O   UNL     1     -11.212  16.302  68.264  1.00  0.00    -0.352 OA 
HETATM    7  C   UNL     1     -11.487  15.938  69.390  1.00  0.00    -0.351 C  
HETATM    8  N   UNL     1     -10.688  15.158  70.219  1.00  0.00    -0.241 NA 
HETATM    9  N   UNL     1     -12.659  16.214  70.085  1.00  0.00    -0.010 NA 
ENDROOT
BRANCH   4  10
HETATM   10  C   UNL     1     -12.465  12.861  69.753  1.00  0.00     0.027 C  
BRANCH  10  11
HETATM   11  C   UNL     1     -11.707  11.582  69.352  1.00  0.00    -0.413 C  
BRANCH  11  12
HETATM   12  C   UNL     1     -10.778  11.732  68.147  1.00  0.00    -0.247 C  
BRANCH  12  13
HETATM   13  C   UNL     1     -11.490  11.398  66.839  1.00  0.00    -0.198 C  
HETATM   14  C   UNL     1     -11.983  12.629  66.116  1.00  0.00    -0.395 C  
HETATM   15  O   UNL     1     -11.810  13.779  66.482  1.00  0.00    -0.362 OA 
HETATM   16  O   UNL     1     -12.643  12.313  64.978  1.00  0.00    -0.575 OA 
ENDBRANCH  12  13
ENDBRANCH  11  12
ENDBRANCH  10  11
ENDBRANCH   4  10
TORSDOF 4
ENDMDL
MODEL       89
REMARK 921   NORMALIZED FREE ENERGY PREDICTED BY IDOCK:   -4.05 KCAL/MOL
REMARK 922        TOTAL FREE ENERGY PREDICTED BY IDOCK:   -5.17 KCAL/MOL
REMARK 923 INTER-LIGAND FREE ENERGY PREDICTED BY IDOCK:   -4.70 KCAL/MOL
REMARK 924 INTRA-LIGAND FREE ENERGY PREDICTED BY IDOCK:   -0.47 KCAL/MOL
REMARK 927      BINDING AFFINITY PREDICTED BY RF-SCORE:    0.00 PKD
ROOT
HETATM    1  C   UNL     1      -8.027   7.392  66.860  1.00  0.00    -0.115 C  
HETATM    2  C   UNL     1      -6.927   7.913  65.963  1.00  0.00    -0.061 C  
HETATM    3  S   UNL     1      -7.317   9.637  65.585  1.00  0.00    -0.105 SA 
HETATM    4  C   UNL     1      -8.673   9.809  66.812  1.00  0.00    -0.131 C  
HETATM    5  C   UNL     1      -8.616   8.533  67.694  1.00  0.00    -0.133 C  
HETATM    6  O   UNL     1     -11.398   6.557  66.950  1.00  0.00    -0.330 OA 
HETATM    7  C   UNL     1     -10.298   7.062  67.058  1.00  0.00    -0.290 C  
HETATM    8  N   UNL     1      -9.903   7.972  68.031  1.00  0.00    -0.161 NA 
HETATM    9  N   UNL     1      -9.205   6.845  66.226  1.00  0.00    -0.149 NA 
ENDROOT
BRANCH   4  10
HETATM   10  C   UNL     1      -9.968  10.126  66.031  1.00  0.00    -0.322 C  
BRANCH  10  11
HETATM   11  C   UNL     1      -9.888   9.993  64.500  1.00  0.00    -0.244 C  
BRANCH  11  12
HETATM   12  C   UNL     1     -10.285  11.246  63.719  1.00  0.00    -0.431 C  
BRANCH  12  13
HETATM   13  C   UNL     1     -11.005  12.259  64.604  1.00  0.00    -0.349 C  
HETATM   14  C   UNL     1     -12.421  12.523  64.149  1.00  0.00    -0.430 C  
HETATM   15  O   UNL     1     -12.976  11.974  63.214  1.00  0.00    -0.736 OA 
HETATM   16  O   UNL     1     -13.033  13.450  64.923  1.00  0.00    -0.717 OA 
ENDBRANCH  12  13
ENDBRANCH  11  12
ENDBRANCH  10  11
ENDBRANCH   4  10
TORSDOF 4
ENDMDL
MODEL       90
REMARK 921   NORMALIZED FREE ENERGY PREDICTED BY IDOCK:   -4.04 KCAL/MOL
REMARK 922        TOTAL FREE ENERGY PREDICTED BY IDOCK:   -5.16 KCAL/MOL
REMARK 923 INTER-LIGAND FREE ENERGY PREDICTED BY IDOCK:   -4.71 KCAL/MOL
REMARK 924 INTRA-LIGAND FREE ENERGY PREDICTED BY IDOCK:   -0.45 KCAL/MOL
REMARK 927      BINDING AFFINITY PREDICTED BY RF-SCORE:    0.00 PKD
ROOT
HETATM    1  C   UNL     1     -12.426  13.901  65.125  1.00  0.00    -0.453 C  
HETATM    2  C   UNL     1     -12.425  12.439  64.738  1.00  0.00    -0.401 C  
HETATM    3  S   UNL     1     -11.060  11.653  65.624  1.00  0.00    -0.200 SA 
HETATM    4  C   UNL     1     -10.695  13.073  66.731  1.00  0.00    -0.262 C  
HETATM    5  C   UNL     1     -11.863  14.076  66.538  1.00  0.00    -0.417 C  
HETATM    6  O   UNL     1     -10.643  16.869  64.832  1.00  0.00    -0.702 OA 
HETATM    7  C   UNL     1     -11.174  15.834  65.184  1.00  0.00    -0.248 C  
HETATM    8  N   UNL     1     -11.468  15.465  66.492  1.00  0.00    -0.109 NA 
HETATM    9  N   UNL     1     -11.591  14.797  64.357  1.00  0.00    -0.337 NA 
ENDROOT
BRANCH   4  10
HETATM   10  C   UNL     1      -9.250  13.534  66.434  1.00  0.00    -0.136 C  
BRANCH  10  11
HETATM   11  C   UNL     1      -8.299  13.608  67.642  1.00  0.00    -0.182 C  
BRANCH  11  12
HETATM   12  C   UNL     1      -7.907  15.021  68.073  1.00  0.00    -0.129 C  
BRANCH  12  13
HETATM   13  C   UNL     1      -7.916  15.993  66.896  1.00  0.00    -0.283 C  
HETATM   14  C   UNL     1      -8.211  17.413  67.319  1.00  0.00    -0.205 C  
HETATM   15  O   UNL     1      -8.381  17.787  68.466  1.00  0.00    -0.290 OA 
HETATM   16  O   UNL     1      -8.251  18.255  66.259  1.00  0.00    -0.353 OA 
ENDBRANCH  12  13
ENDBRANCH  11  12
ENDBRANCH  10  11
ENDBRANCH   4  10
TORSDOF 4
ENDMDL
MODEL       91
REMARK 921   NORMALIZED FREE ENERGY PREDICTED BY IDOCK:   -4.04 KCAL/MOL
REMARK 922        TOTAL FREE ENERGY PREDICTED BY IDOCK:   -5.16 KCAL/MOL
REMARK 923 INTER-LIGAND FREE ENERGY PREDICTED BY IDOCK:   -4.77 KCAL/MOL
REMARK 924 INTRA-LIGAND FREE ENERGY PREDICTED BY IDOCK:   -0.39 KCAL/MOL
REMARK 927      BINDING AFFINITY PREDICTED BY RF-SCORE:    0.00 PKD
ROOT
HETATM    1  C   UNL     1     -10.106  15.370  68.259  1.00  0.00    -0.218 C  
HETATM    2  C   UNL     1     -11.426  14.773  68.690  1.00  0.00    -0.302 C  
HETATM    3  S   UNL     1     -11.856  13.497  67.484  1.00  0.00    -0.355 SA 
HETATM    4  C   UNL     1     -10.232  13.477  66.627  1.00  0.00    -0.275 C  
HETATM    5  C   UNL     1      -9.275  14.329  67.503  1.00  0.00    -0.197 C  
HETATM    6  O   UNL     1      -8.583  17.300  65.805  1.00  0.00    -0.532 OA 
HETATM    7  C   UNL     1      -8.987  16.425  66.543  1.00  0.00    -0.276 C  
HETATM    8  N   UNL     1      -8.384  15.192  66.764  1.00  0.00    -0.228 NA 
HETATM    9  N   UNL     1     -10.142  16.465  67.316  1.00  0.00    -0.264 NA 
ENDROOT
BRANCH   4  10
HETATM   10  C   UNL     1     -10.476  13.891  65.159  1.00  0.00    -0.409 C  
BRANCH  10  11
HETATM   11  C   UNL     1     -10.175  12.823  64.093  1.00  0.00    -0.344 C  
BRANCH  11  12
HETATM   12  C   UNL     1     -10.941  11.510  64.256  1.00  0.00    -0.406 C  
BRANCH  12  13
HETATM   13  C   UNL     1      -9.999  10.329  64.471  1.00  0.00    -0.359 C  
HETATM   14  C   UNL     1     -10.081   9.768  65.871  1.00  0.00    -0.243 C  
HETATM   15  O   UNL     1     -10.835  10.159  66.744  1.00  0.00    -0.168 OA 
HETATM   16  O   UNL     1      -9.214   8.746  66.055  1.00  0.00    -0.193 OA 
ENDBRANCH  12  13
ENDBRANCH  11  12
ENDBRANCH  10  11
ENDBRANCH   4  10
TORSDOF 4
ENDMDL
MODEL       92
REMARK 921   NORMALIZED FREE ENERGY PREDICTED BY IDOCK:   -4.03 KCAL/MOL
REMARK 922        TOTAL FREE ENERGY PREDICTED BY IDOCK:   -5.15 KCAL/MOL
REMARK 923 INTER-LIGAND FREE ENERGY PREDICTED BY IDOCK:   -4.65 KCAL/MOL
REMARK 924 INTRA-LIGAND FREE ENERGY PREDICTED BY IDOCK:   -0.50 KCAL/MOL
REMARK 927      BINDING AFFINITY PREDICTED BY RF-SCORE:    0.00 PKD
ROOT
HETATM    1  C   UNL     1     -11.331   6.842  72.548  1.00  0.00    -0.253 C  
HETATM    2  C   UNL     1     -10.470   6.678  73.780  1.00  0.00    -0.333 C  
HETATM    3  S   UNL     1      -9.038   7.763  73.579  1.00  0.00    -0.288 SA 
HETATM    4  C   UNL     1      -9.676   8.668  72.114  1.00  0.00    -0.313 C  
HETATM    5  C   UNL     1     -11.163   8.248  71.967  1.00  0.00    -0.323 C  
HETATM    6  O   UNL     1     -11.460   6.235  69.129  1.00  0.00    -0.394 OA 
HETATM    7  C   UNL     1     -11.376   6.699  70.249  1.00  0.00    -0.374 C  
HETATM    8  N   UNL     1     -11.597   8.023  70.607  1.00  0.00    -0.243 NA 
HETATM    9  N   UNL     1     -11.031   6.009  71.405  1.00  0.00    -0.270 NA 
ENDROOT
BRANCH   4  10
HETATM   10  C   UNL     1      -8.701   8.407  70.945  1.00  0.00    -0.178 C  
BRANCH  10  11
HETATM   11  C   UNL     1      -8.101   9.652  70.269  1.00  0.00    -0.206 C  
BRANCH  11  12
HETATM   12  C   UNL     1      -8.522   9.866  68.814  1.00  0.00    -0.122 C  
BRANCH  12  13
HETATM   13  C   UNL     1      -9.756  10.758  68.708  1.00  0.00    -0.197 C  
HETATM   14  C   UNL     1     -10.836  10.153  67.843  1.00  0.00    -0.284 C  
HETATM   15  O   UNL     1     -10.784   9.059  67.310  1.00  0.00    -0.269 OA 
HETATM   16  O   UNL     1     -11.907  10.973  67.730  1.00  0.00    -0.605 OA 
ENDBRANCH  12  13
ENDBRANCH  11  12
ENDBRANCH  10  11
ENDBRANCH   4  10
TORSDOF 4
ENDMDL
MODEL       93
REMARK 921   NORMALIZED FREE ENERGY PREDICTED BY IDOCK:   -4.02 KCAL/MOL
REMARK 922        TOTAL FREE ENERGY PREDICTED BY IDOCK:   -5.14 KCAL/MOL
REMARK 923 INTER-LIGAND FREE ENERGY PREDICTED BY IDOCK:   -4.83 KCAL/MOL
REMARK 924 INTRA-LIGAND FREE ENERGY PREDICTED BY IDOCK:   -0.30 KCAL/MOL
REMARK 927      BINDING AFFINITY PREDICTED BY RF-SCORE:    0.00 PKD
ROOT
HETATM    1  C   UNL     1     -12.001   7.847  72.174  1.00  0.00    -0.332 C  
HETATM    2  C   UNL     1     -13.051   8.921  72.352  1.00  0.00    -0.418 C  
HETATM    3  S   UNL     1     -12.751  10.177  71.087  1.00  0.00    -0.424 SA 
HETATM    4  C   UNL     1     -11.523   9.204  70.127  1.00  0.00    -0.087 C  
HETATM    5  C   UNL     1     -11.569   7.766  70.707  1.00  0.00    -0.255 C  
HETATM    6  O   UNL     1      -8.601   7.191  72.454  1.00  0.00    -0.118 OA 
HETATM    7  C   UNL     1      -9.738   7.420  72.095  1.00  0.00    -0.150 C  
HETATM    8  N   UNL     1     -10.281   7.128  70.849  1.00  0.00    -0.197 NA 
HETATM    9  N   UNL     1     -10.736   8.029  72.848  1.00  0.00    -0.368 NA 
ENDROOT
BRANCH   4  10
HETATM   10  C   UNL     1     -10.190   9.984  70.152  1.00  0.00    -0.297 C  
BRANCH  10  11
HETATM   11  C   UNL     1      -9.633  10.421  68.785  1.00  0.00    -0.178 C  
BRANCH  11  12
HETATM   12  C   UNL     1     -10.686  10.857  67.766  1.00  0.00    -0.279 C  
BRANCH  12  13
HETATM   13  C   UNL     1     -11.089  12.316  67.958  1.00  0.00    -0.285 C  
HETATM   14  C   UNL     1     -11.864  12.863  66.783  1.00  0.00    -0.385 C  
HETATM   15  O   UNL     1     -12.191  12.228  65.796  1.00  0.00    -0.622 OA 
HETATM   16  O   UNL     1     -12.182  14.167  66.954  1.00  0.00    -0.439 OA 
ENDBRANCH  12  13
ENDBRANCH  11  12
ENDBRANCH  10  11
ENDBRANCH   4  10
TORSDOF 4
ENDMDL
MODEL       94
REMARK 921   NORMALIZED FREE ENERGY PREDICTED BY IDOCK:   -4.02 KCAL/MOL
REMARK 922        TOTAL FREE ENERGY PREDICTED BY IDOCK:   -5.14 KCAL/MOL
REMARK 923 INTER-LIGAND FREE ENERGY PREDICTED BY IDOCK:   -4.81 KCAL/MOL
REMARK 924 INTRA-LIGAND FREE ENERGY PREDICTED BY IDOCK:   -0.32 KCAL/MOL
REMARK 927      BINDING AFFINITY PREDICTED BY RF-SCORE:    0.00 PKD
ROOT
HETATM    1  C   UNL     1     -11.736  14.151  64.406  1.00  0.00    -0.392 C  
HETATM    2  C   UNL     1     -11.374  12.895  63.647  1.00  0.00    -0.398 C  
HETATM    3  S   UNL     1     -11.123  11.586  64.868  1.00  0.00    -0.162 SA 
HETATM    4  C   UNL     1     -11.792  12.519  66.302  1.00  0.00    -0.390 C  
HETATM    5  C   UNL     1     -12.451  13.794  65.712  1.00  0.00    -0.485 C  
HETATM    6  O   UNL     1     -10.495  16.549  66.592  1.00  0.00    -0.297 OA 
HETATM    7  C   UNL     1     -11.059  15.623  66.043  1.00  0.00    -0.136 C  
HETATM    8  N   UNL     1     -12.225  15.000  66.473  1.00  0.00     0.118 NA 
HETATM    9  N   UNL     1     -10.653  14.985  64.877  1.00  0.00    -0.409 NA 
ENDROOT
BRANCH   4  10
HETATM   10  C   UNL     1     -10.651  12.669  67.332  1.00  0.00    -0.240 C  
BRANCH  10  11
HETATM   11  C   UNL     1     -10.898  12.042  68.716  1.00  0.00    -0.267 C  
BRANCH  11  12
HETATM   12  C   UNL     1     -12.090  12.616  69.483  1.00  0.00    -0.253 C  
BRANCH  12  13
HETATM   13  C   UNL     1     -11.923  14.109  69.753  1.00  0.00    -0.396 C  
HETATM   14  C   UNL     1     -12.863  14.614  70.821  1.00  0.00    -0.358 C  
HETATM   15  O   UNL     1     -13.649  13.928  71.452  1.00  0.00    -0.303 OA 
HETATM   16  O   UNL     1     -12.727  15.946  71.022  1.00  0.00    -0.446 OA 
ENDBRANCH  12  13
ENDBRANCH  11  12
ENDBRANCH  10  11
ENDBRANCH   4  10
TORSDOF 4
ENDMDL
MODEL       95
REMARK 921   NORMALIZED FREE ENERGY PREDICTED BY IDOCK:   -4.01 KCAL/MOL
REMARK 922        TOTAL FREE ENERGY PREDICTED BY IDOCK:   -5.13 KCAL/MOL
REMARK 923 INTER-LIGAND FREE ENERGY PREDICTED BY IDOCK:   -4.79 KCAL/MOL
REMARK 924 INTRA-LIGAND FREE ENERGY PREDICTED BY IDOCK:   -0.34 KCAL/MOL
REMARK 927      BINDING AFFINITY PREDICTED BY RF-SCORE:    0.00 PKD
ROOT
HETATM    1  C   UNL     1     -11.697  11.613  67.609  1.00  0.00    -0.228 C  
HETATM    2  C   UNL     1     -11.781  12.111  69.034  1.00  0.00    -0.322 C  
HETATM    3  S   UNL     1     -11.375  13.872  69.010  1.00  0.00    -0.300 SA 
HETATM    4  C   UNL     1     -11.423  14.063  67.183  1.00  0.00    -0.352 C  
HETATM    5  C   UNL     1     -12.026  12.744  66.632  1.00  0.00    -0.341 C  
HETATM    6  O   UNL     1      -9.495  10.978  64.998  1.00  0.00    -0.216 OA 
HETATM    7  C   UNL     1     -10.334  11.410  65.763  1.00  0.00    -0.255 C  
HETATM    8  N   UNL     1     -11.395  12.245  65.432  1.00  0.00    -0.332 NA 
HETATM    9  N   UNL     1     -10.407  11.170  67.130  1.00  0.00    -0.204 NA 
ENDROOT
BRANCH   4  10
HETATM   10  C   UNL     1     -10.013  14.497  66.724  1.00  0.00    -0.267 C  
BRANCH  10  11
HETATM   11  C   UNL     1      -9.955  15.454  65.520  1.00  0.00    -0.379 C  
BRANCH  11  12
HETATM   12  C   UNL     1     -10.277  16.914  65.837  1.00  0.00    -0.330 C  
BRANCH  12  13
HETATM   13  C   UNL     1      -9.553  17.392  67.094  1.00  0.00    -0.265 C  
HETATM   14  C   UNL     1      -8.256  18.099  66.782  1.00  0.00    -0.252 C  
HETATM   15  O   UNL     1      -7.824  18.323  65.665  1.00  0.00    -0.515 OA 
HETATM   16  O   UNL     1      -7.610  18.484  67.908  1.00  0.00    -0.232 OA 
ENDBRANCH  12  13
ENDBRANCH  11  12
ENDBRANCH  10  11
ENDBRANCH   4  10
TORSDOF 4
ENDMDL
MODEL       96
REMARK 921   NORMALIZED FREE ENERGY PREDICTED BY IDOCK:   -3.98 KCAL/MOL
REMARK 922        TOTAL FREE ENERGY PREDICTED BY IDOCK:   -5.09 KCAL/MOL
REMARK 923 INTER-LIGAND FREE ENERGY PREDICTED BY IDOCK:   -4.88 KCAL/MOL
REMARK 924 INTRA-LIGAND FREE ENERGY PREDICTED BY IDOCK:   -0.22 KCAL/MOL
REMARK 927      BINDING AFFINITY PREDICTED BY RF-SCORE:    0.00 PKD
ROOT
HETATM    1  C   UNL     1      -9.618   8.830  68.620  1.00  0.00    -0.154 C  
HETATM    2  C   UNL     1      -9.541   8.325  67.196  1.00  0.00    -0.180 C  
HETATM    3  S   UNL     1     -10.087   9.672  66.122  1.00  0.00    -0.218 SA 
HETATM    4  C   UNL     1     -10.094  10.973  67.419  1.00  0.00    -0.186 C  
HETATM    5  C   UNL     1      -9.401  10.345  68.657  1.00  0.00    -0.167 C  
HETATM    6  O   UNL     1     -11.820   9.815  71.119  1.00  0.00    -0.322 OA 
HETATM    7  C   UNL     1     -11.001   9.731  70.226  1.00  0.00    -0.298 C  
HETATM    8  N   UNL     1     -10.017  10.666  69.924  1.00  0.00     0.033 NA 
HETATM    9  N   UNL     1     -10.879   8.691  69.312  1.00  0.00    -0.131 NA 
ENDROOT
BRANCH   4  10
HETATM   10  C   UNL     1     -11.544  11.490  67.549  1.00  0.00    -0.322 C  
BRANCH  10  11
HETATM   11  C   UNL     1     -11.816  12.898  66.989  1.00  0.00    -0.437 C  
BRANCH  11  12
HETATM   12  C   UNL     1     -11.333  13.129  65.557  1.00  0.00    -0.325 C  
BRANCH  12  13
HETATM   13  C   UNL     1     -12.035  14.320  64.909  1.00  0.00    -0.430 C  
HETATM   14  C   UNL     1     -11.117  15.505  64.726  1.00  0.00    -0.407 C  
HETATM   15  O   UNL     1      -9.932  15.531  65.009  1.00  0.00    -0.331 OA 
HETATM   16  O   UNL     1     -11.765  16.563  64.184  1.00  0.00    -0.998 OA 
ENDBRANCH  12  13
ENDBRANCH  11  12
ENDBRANCH  10  11
ENDBRANCH   4  10
TORSDOF 4
ENDMDL
MODEL       97
REMARK 921   NORMALIZED FREE ENERGY PREDICTED BY IDOCK:   -3.97 KCAL/MOL
REMARK 922        TOTAL FREE ENERGY PREDICTED BY IDOCK:   -5.07 KCAL/MOL
REMARK 923 INTER-LIGAND FREE ENERGY PREDICTED BY IDOCK:   -4.79 KCAL/MOL
REMARK 924 INTRA-LIGAND FREE ENERGY PREDICTED BY IDOCK:   -0.28 KCAL/MOL
REMARK 927      BINDING AFFINITY PREDICTED BY RF-SCORE:    0.00 PKD
ROOT
HETATM    1  C   UNL     1      -9.911   9.988  67.219  1.00  0.00    -0.181 C  
HETATM    2  C   UNL     1      -9.676   9.472  65.817  1.00  0.00    -0.287 C  
HETATM    3  S   UNL     1     -10.168  10.784  64.675  1.00  0.00    -0.327 SA 
HETATM    4  C   UNL     1     -10.354  12.097  65.946  1.00  0.00    -0.255 C  
HETATM    5  C   UNL     1      -9.760  11.511  67.255  1.00  0.00    -0.182 C  
HETATM    6  O   UNL     1     -12.384  10.908  69.479  1.00  0.00    -0.321 OA 
HETATM    7  C   UNL     1     -11.479  10.849  68.671  1.00  0.00    -0.311 C  
HETATM    8  N   UNL     1     -10.509  11.820  68.451  1.00  0.00    -0.208 NA 
HETATM    9  N   UNL     1     -11.227   9.805  67.788  1.00  0.00    -0.080 NA 
ENDROOT
BRANCH   4  10
HETATM   10  C   UNL     1     -11.829  12.555  65.928  1.00  0.00    -0.489 C  
BRANCH  10  11
HETATM   11  C   UNL     1     -12.067  14.073  65.839  1.00  0.00    -0.448 C  
BRANCH  11  12
HETATM   12  C   UNL     1     -11.147  14.926  66.713  1.00  0.00    -0.335 C  
BRANCH  12  13
HETATM   13  C   UNL     1     -11.611  14.952  68.167  1.00  0.00    -0.356 C  
HETATM   14  C   UNL     1     -11.204  16.217  68.883  1.00  0.00    -0.337 C  
HETATM   15  O   UNL     1     -10.611  17.155  68.378  1.00  0.00    -0.348 OA 
HETATM   16  O   UNL     1     -11.592  16.208  70.179  1.00  0.00    -0.324 OA 
ENDBRANCH  12  13
ENDBRANCH  11  12
ENDBRANCH  10  11
ENDBRANCH   4  10
TORSDOF 4
ENDMDL
MODEL       98
REMARK 921   NORMALIZED FREE ENERGY PREDICTED BY IDOCK:   -3.97 KCAL/MOL
REMARK 922        TOTAL FREE ENERGY PREDICTED BY IDOCK:   -5.07 KCAL/MOL
REMARK 923 INTER-LIGAND FREE ENERGY PREDICTED BY IDOCK:   -4.85 KCAL/MOL
REMARK 924 INTRA-LIGAND FREE ENERGY PREDICTED BY IDOCK:   -0.23 KCAL/MOL
REMARK 927      BINDING AFFINITY PREDICTED BY RF-SCORE:    0.00 PKD
ROOT
HETATM    1  C   UNL     1     -10.152   7.972  69.636  1.00  0.00    -0.198 C  
HETATM    2  C   UNL     1     -10.256   8.097  68.132  1.00  0.00    -0.209 C  
HETATM    3  S   UNL     1     -10.720   9.806  67.768  1.00  0.00    -0.243 SA 
HETATM    4  C   UNL     1     -10.461  10.450  69.469  1.00  0.00    -0.247 C  
HETATM    5  C   UNL     1      -9.750   9.315  70.252  1.00  0.00    -0.232 C  
HETATM    6  O   UNL     1     -12.004   8.004  72.575  1.00  0.00    -0.358 OA 
HETATM    7  C   UNL     1     -11.278   8.233  71.629  1.00  0.00    -0.270 C  
HETATM    8  N   UNL     1     -10.216   9.130  71.607  1.00  0.00    -0.341 NA 
HETATM    9  N   UNL     1     -11.359   7.658  70.366  1.00  0.00    -0.255 NA 
ENDROOT
BRANCH   4  10
HETATM   10  C   UNL     1     -11.821  10.978  69.977  1.00  0.00    -0.435 C  
BRANCH  10  11
HETATM   11  C   UNL     1     -11.923  12.499  70.190  1.00  0.00    -0.377 C  
BRANCH  11  12
HETATM   12  C   UNL     1     -12.008  13.328  68.909  1.00  0.00    -0.336 C  
BRANCH  12  13
HETATM   13  C   UNL     1     -11.810  14.816  69.184  1.00  0.00    -0.340 C  
HETATM   14  C   UNL     1     -11.315  15.569  67.972  1.00  0.00    -0.330 C  
HETATM   15  O   UNL     1     -11.128  15.087  66.869  1.00  0.00    -0.324 OA 
HETATM   16  O   UNL     1     -11.111  16.879  68.244  1.00  0.00    -0.349 OA 
ENDBRANCH  12  13
ENDBRANCH  11  12
ENDBRANCH  10  11
ENDBRANCH   4  10
TORSDOF 4
ENDMDL
MODEL       99
REMARK 921   NORMALIZED FREE ENERGY PREDICTED BY IDOCK:   -3.96 KCAL/MOL
REMARK 922        TOTAL FREE ENERGY PREDICTED BY IDOCK:   -5.06 KCAL/MOL
REMARK 923 INTER-LIGAND FREE ENERGY PREDICTED BY IDOCK:   -4.68 KCAL/MOL
REMARK 924 INTRA-LIGAND FREE ENERGY PREDICTED BY IDOCK:   -0.38 KCAL/MOL
REMARK 927      BINDING AFFINITY PREDICTED BY RF-SCORE:    0.00 PKD
ROOT
HETATM    1  C   UNL     1      -9.049   6.424  70.825  1.00  0.00    -0.151 C  
HETATM    2  C   UNL     1      -8.534   7.019  72.116  1.00  0.00    -0.111 C  
HETATM    3  S   UNL     1      -9.952   7.204  73.222  1.00  0.00    -0.288 SA 
HETATM    4  C   UNL     1     -11.131   6.234  72.201  1.00  0.00    -0.269 C  
HETATM    5  C   UNL     1     -10.279   5.553  71.096  1.00  0.00    -0.222 C  
HETATM    6  O   UNL     1     -11.025   7.074  68.042  1.00  0.00    -0.187 OA 
HETATM    7  C   UNL     1     -10.539   6.695  69.089  1.00  0.00    -0.244 C  
HETATM    8  N   UNL     1     -10.886   5.542  69.785  1.00  0.00    -0.298 NA 
HETATM    9  N   UNL     1      -9.544   7.335  69.818  1.00  0.00    -0.163 NA 
ENDROOT
BRANCH   4  10
HETATM   10  C   UNL     1     -12.279   7.182  71.790  1.00  0.00    -0.379 C  
BRANCH  10  11
HETATM   11  C   UNL     1     -12.112   8.661  72.182  1.00  0.00    -0.451 C  
BRANCH  11  12
HETATM   12  C   UNL     1     -13.306   9.557  71.853  1.00  0.00    -0.518 C  
BRANCH  12  13
HETATM   13  C   UNL     1     -12.897  11.022  71.731  1.00  0.00    -0.496 C  
HETATM   14  C   UNL     1     -12.469  11.391  70.330  1.00  0.00    -0.261 C  
HETATM   15  O   UNL     1     -12.480  10.642  69.369  1.00  0.00    -0.297 OA 
HETATM   16  O   UNL     1     -12.075  12.683  70.249  1.00  0.00    -0.349 OA 
ENDBRANCH  12  13
ENDBRANCH  11  12
ENDBRANCH  10  11
ENDBRANCH   4  10
TORSDOF 4
ENDMDL
MODEL      100
REMARK 921   NORMALIZED FREE ENERGY PREDICTED BY IDOCK:   -3.95 KCAL/MOL
REMARK 922        TOTAL FREE ENERGY PREDICTED BY IDOCK:   -5.06 KCAL/MOL
REMARK 923 INTER-LIGAND FREE ENERGY PREDICTED BY IDOCK:   -4.79 KCAL/MOL
REMARK 924 INTRA-LIGAND FREE ENERGY PREDICTED BY IDOCK:   -0.27 KCAL/MOL
REMARK 927      BINDING AFFINITY PREDICTED BY RF-SCORE:    0.00 PKD
ROOT
HETATM    1  C   UNL     1      -9.520   7.360  68.873  1.00  0.00    -0.144 C  
HETATM    2  C   UNL     1      -9.162   8.375  69.935  1.00  0.00    -0.151 C  
HETATM    3  S   UNL     1      -9.513  10.011  69.250  1.00  0.00    -0.228 SA 
HETATM    4  C   UNL     1     -10.416   9.416  67.765  1.00  0.00    -0.254 C  
HETATM    5  C   UNL     1     -10.643   7.897  67.983  1.00  0.00    -0.132 C  
HETATM    6  O   UNL     1      -8.609   6.148  65.747  1.00  0.00    -0.145 OA 
HETATM    7  C   UNL     1      -9.128   6.683  66.706  1.00  0.00    -0.142 C  
HETATM    8  N   UNL     1     -10.456   7.081  66.806  1.00  0.00    -0.254 NA 
HETATM    9  N   UNL     1      -8.505   7.021  67.902  1.00  0.00    -0.124 NA 
ENDROOT
BRANCH   4  10
HETATM   10  C   UNL     1      -9.628   9.888  66.522  1.00  0.00    -0.243 C  
BRANCH  10  11
HETATM   11  C   UNL     1     -10.364  10.856  65.579  1.00  0.00    -0.316 C  
BRANCH  11  12
HETATM   12  C   UNL     1     -11.261  11.881  66.274  1.00  0.00    -0.392 C  
BRANCH  12  13
HETATM   13  C   UNL     1     -11.372  13.173  65.469  1.00  0.00    -0.325 C  
HETATM   14  C   UNL     1     -12.503  13.138  64.468  1.00  0.00    -0.342 C  
HETATM   15  O   UNL     1     -13.288  12.218  64.323  1.00  0.00    -0.777 OA 
HETATM   16  O   UNL     1     -12.564  14.277  63.739  1.00  0.00    -0.821 OA 
ENDBRANCH  12  13
ENDBRANCH  11  12
ENDBRANCH  10  11
ENDBRANCH   4  10
TORSDOF 4
ENDMDL
MODEL      101
REMARK 921   NORMALIZED FREE ENERGY PREDICTED BY IDOCK:   -3.95 KCAL/MOL
REMARK 922        TOTAL FREE ENERGY PREDICTED BY IDOCK:   -5.05 KCAL/MOL
REMARK 923 INTER-LIGAND FREE ENERGY PREDICTED BY IDOCK:   -4.73 KCAL/MOL
REMARK 924 INTRA-LIGAND FREE ENERGY PREDICTED BY IDOCK:   -0.32 KCAL/MOL
REMARK 927      BINDING AFFINITY PREDICTED BY RF-SCORE:    0.00 PKD
ROOT
HETATM    1  C   UNL     1      -9.687   6.738  68.589  1.00  0.00    -0.131 C  
HETATM    2  C   UNL     1      -9.388   6.902  67.116  1.00  0.00    -0.141 C  
HETATM    3  S   UNL     1      -9.742   8.622  66.687  1.00  0.00    -0.268 SA 
HETATM    4  C   UNL     1      -9.947   9.221  68.411  1.00  0.00    -0.176 C  
HETATM    5  C   UNL     1      -9.466   8.062  69.325  1.00  0.00    -0.155 C  
HETATM    6  O   UNL     1     -12.254   6.702  70.930  1.00  0.00    -0.368 OA 
HETATM    7  C   UNL     1     -11.303   6.953  70.218  1.00  0.00    -0.324 C  
HETATM    8  N   UNL     1     -10.275   7.845  70.502  1.00  0.00    -0.197 NA 
HETATM    9  N   UNL     1     -11.044   6.410  68.964  1.00  0.00    -0.353 NA 
ENDROOT
BRANCH   4  10
HETATM   10  C   UNL     1     -11.394   9.742  68.553  1.00  0.00     0.025 C  
BRANCH  10  11
HETATM   11  C   UNL     1     -11.551  11.253  68.797  1.00  0.00    -0.383 C  
BRANCH  11  12
HETATM   12  C   UNL     1     -10.868  12.150  67.764  1.00  0.00    -0.263 C  
BRANCH  12  13
HETATM   13  C   UNL     1     -11.501  12.005  66.383  1.00  0.00    -0.417 C  
HETATM   14  C   UNL     1     -12.285  13.229  65.972  1.00  0.00    -0.424 C  
HETATM   15  O   UNL     1     -12.385  14.254  66.623  1.00  0.00    -0.446 OA 
HETATM   16  O   UNL     1     -12.869  13.069  64.762  1.00  0.00    -0.708 OA 
ENDBRANCH  12  13
ENDBRANCH  11  12
ENDBRANCH  10  11
ENDBRANCH   4  10
TORSDOF 4
ENDMDL
MODEL      102
REMARK 921   NORMALIZED FREE ENERGY PREDICTED BY IDOCK:   -3.94 KCAL/MOL
REMARK 922        TOTAL FREE ENERGY PREDICTED BY IDOCK:   -5.04 KCAL/MOL
REMARK 923 INTER-LIGAND FREE ENERGY PREDICTED BY IDOCK:   -4.75 KCAL/MOL
REMARK 924 INTRA-LIGAND FREE ENERGY PREDICTED BY IDOCK:   -0.29 KCAL/MOL
REMARK 927      BINDING AFFINITY PREDICTED BY RF-SCORE:    0.00 PKD
ROOT
HETATM    1  C   UNL     1      -8.327  10.435  68.491  1.00  0.00    -0.124 C  
HETATM    2  C   UNL     1      -9.736  10.516  69.033  1.00  0.00    -0.210 C  
HETATM    3  S   UNL     1     -10.856  10.505  67.614  1.00  0.00    -0.312 SA 
HETATM    4  C   UNL     1      -9.586  10.066  66.361  1.00  0.00    -0.196 C  
HETATM    5  C   UNL     1      -8.313   9.680  67.160  1.00  0.00    -0.121 C  
HETATM    6  O   UNL     1      -5.922  12.181  66.693  1.00  0.00    -0.226 OA 
HETATM    7  C   UNL     1      -6.785  11.429  67.098  1.00  0.00    -0.121 C  
HETATM    8  N   UNL     1      -7.074  10.165  66.597  1.00  0.00    -0.097 NA 
HETATM    9  N   UNL     1      -7.673  11.675  68.139  1.00  0.00    -0.114 NA 
ENDROOT
BRANCH   4  10
HETATM   10  C   UNL     1      -9.514  11.229  65.346  1.00  0.00    -0.251 C  
BRANCH  10  11
HETATM   11  C   UNL     1     -10.498  11.161  64.165  1.00  0.00    -0.442 C  
BRANCH  11  12
HETATM   12  C   UNL     1     -11.328  12.425  63.940  1.00  0.00    -0.502 C  
BRANCH  12  13
HETATM   13  C   UNL     1     -10.669  13.652  64.563  1.00  0.00    -0.420 C  
HETATM   14  C   UNL     1     -11.491  14.906  64.384  1.00  0.00    -0.247 C  
HETATM   15  O   UNL     1     -12.584  14.963  63.848  1.00  0.00    -0.831 OA 
HETATM   16  O   UNL     1     -10.875  15.991  64.910  1.00  0.00    -0.534 OA 
ENDBRANCH  12  13
ENDBRANCH  11  12
ENDBRANCH  10  11
ENDBRANCH   4  10
TORSDOF 4
ENDMDL
MODEL      103
REMARK 921   NORMALIZED FREE ENERGY PREDICTED BY IDOCK:   -3.91 KCAL/MOL
REMARK 922        TOTAL FREE ENERGY PREDICTED BY IDOCK:   -5.00 KCAL/MOL
REMARK 923 INTER-LIGAND FREE ENERGY PREDICTED BY IDOCK:   -4.57 KCAL/MOL
REMARK 924 INTRA-LIGAND FREE ENERGY PREDICTED BY IDOCK:   -0.43 KCAL/MOL
REMARK 927      BINDING AFFINITY PREDICTED BY RF-SCORE:    0.00 PKD
ROOT
HETATM    1  C   UNL     1     -11.461   9.564  71.567  1.00  0.00    -0.395 C  
HETATM    2  C   UNL     1     -12.900   9.100  71.568  1.00  0.00    -0.347 C  
HETATM    3  S   UNL     1     -12.880   7.295  71.483  1.00  0.00    -0.377 SA 
HETATM    4  C   UNL     1     -11.077   7.101  71.781  1.00  0.00    -0.236 C  
HETATM    5  C   UNL     1     -10.561   8.502  72.204  1.00  0.00    -0.349 C  
HETATM    6  O   UNL     1      -8.596   9.777  69.614  1.00  0.00    -0.158 OA 
HETATM    7  C   UNL     1      -9.465   9.507  70.419  1.00  0.00    -0.262 C  
HETATM    8  N   UNL     1      -9.283   8.872  71.642  1.00  0.00    -0.293 NA 
HETATM    9  N   UNL     1     -10.824   9.767  70.286  1.00  0.00    -0.277 NA 
ENDROOT
BRANCH   4  10
HETATM   10  C   UNL     1     -10.471   6.420  70.533  1.00  0.00    -0.270 C  
BRANCH  10  11
HETATM   11  C   UNL     1     -11.386   6.323  69.300  1.00  0.00    -0.411 C  
BRANCH  11  12
HETATM   12  C   UNL     1     -10.670   6.424  67.953  1.00  0.00    -0.372 C  
BRANCH  12  13
HETATM   13  C   UNL     1      -9.689   5.274  67.746  1.00  0.00    -0.170 C  
HETATM   14  C   UNL     1      -9.972   4.489  66.488  1.00  0.00    -0.240 C  
HETATM   15  O   UNL     1     -10.848   4.742  65.680  1.00  0.00    -0.274 OA 
HETATM   16  O   UNL     1      -9.116   3.451  66.339  1.00  0.00    -0.141 OA 
ENDBRANCH  12  13
ENDBRANCH  11  12
ENDBRANCH  10  11
ENDBRANCH   4  10
TORSDOF 4
ENDMDL
MODEL      104
REMARK 921   NORMALIZED FREE ENERGY PREDICTED BY IDOCK:   -3.90 KCAL/MOL
REMARK 922        TOTAL FREE ENERGY PREDICTED BY IDOCK:   -4.99 KCAL/MOL
REMARK 923 INTER-LIGAND FREE ENERGY PREDICTED BY IDOCK:   -4.65 KCAL/MOL
REMARK 924 INTRA-LIGAND FREE ENERGY PREDICTED BY IDOCK:   -0.35 KCAL/MOL
REMARK 927      BINDING AFFINITY PREDICTED BY RF-SCORE:    0.00 PKD
ROOT
HETATM    1  C   UNL     1     -11.817   7.600  72.244  1.00  0.00    -0.308 C  
HETATM    2  C   UNL     1     -11.577   6.124  72.017  1.00  0.00    -0.310 C  
HETATM    3  S   UNL     1     -10.503   5.973  70.571  1.00  0.00    -0.261 SA 
HETATM    4  C   UNL     1     -10.084   7.757  70.447  1.00  0.00    -0.194 C  
HETATM    5  C   UNL     1     -10.621   8.414  71.746  1.00  0.00    -0.282 C  
HETATM    6  O   UNL     1     -13.359  10.415  70.915  1.00  0.00    -0.337 OA 
HETATM    7  C   UNL     1     -12.597   9.548  71.294  1.00  0.00    -0.339 C  
HETATM    8  N   UNL     1     -11.242   9.705  71.560  1.00  0.00    -0.362 NA 
HETATM    9  N   UNL     1     -12.915   8.216  71.533  1.00  0.00    -0.315 NA 
ENDROOT
BRANCH   4  10
HETATM   10  C   UNL     1     -10.598   8.262  69.080  1.00  0.00    -0.167 C  
BRANCH  10  11
HETATM   11  C   UNL     1      -9.697   9.270  68.345  1.00  0.00    -0.168 C  
BRANCH  11  12
HETATM   12  C   UNL     1     -10.423  10.195  67.369  1.00  0.00    -0.310 C  
BRANCH  12  13
HETATM   13  C   UNL     1     -11.302  11.209  68.098  1.00  0.00    -0.377 C  
HETATM   14  C   UNL     1     -11.519  12.470  67.297  1.00  0.00    -0.353 C  
HETATM   15  O   UNL     1     -11.095  12.675  66.172  1.00  0.00    -0.275 OA 
HETATM   16  O   UNL     1     -12.269  13.372  67.972  1.00  0.00    -0.289 OA 
ENDBRANCH  12  13
ENDBRANCH  11  12
ENDBRANCH  10  11
ENDBRANCH   4  10
TORSDOF 4
ENDMDL
MODEL      105
REMARK 921   NORMALIZED FREE ENERGY PREDICTED BY IDOCK:   -3.88 KCAL/MOL
REMARK 922        TOTAL FREE ENERGY PREDICTED BY IDOCK:   -4.96 KCAL/MOL
REMARK 923 INTER-LIGAND FREE ENERGY PREDICTED BY IDOCK:   -4.57 KCAL/MOL
REMARK 924 INTRA-LIGAND FREE ENERGY PREDICTED BY IDOCK:   -0.39 KCAL/MOL
REMARK 927      BINDING AFFINITY PREDICTED BY RF-SCORE:    0.00 PKD
ROOT
HETATM    1  C   UNL     1     -11.392  11.111  67.522  1.00  0.00    -0.278 C  
HETATM    2  C   UNL     1     -10.552   9.904  67.171  1.00  0.00    -0.228 C  
HETATM    3  S   UNL     1      -8.821  10.422  67.235  1.00  0.00    -0.131 SA 
HETATM    4  C   UNL     1      -9.129  12.053  68.020  1.00  0.00    -0.188 C  
HETATM    5  C   UNL     1     -10.618  12.043  68.457  1.00  0.00    -0.231 C  
HETATM    6  O   UNL     1     -12.381  14.247  66.400  1.00  0.00    -0.448 OA 
HETATM    7  C   UNL     1     -11.884  13.290  66.960  1.00  0.00    -0.390 C  
HETATM    8  N   UNL     1     -11.323  13.284  68.232  1.00  0.00    -0.280 NA 
HETATM    9  N   UNL     1     -11.761  12.004  66.447  1.00  0.00    -0.565 NA 
ENDROOT
BRANCH   4  10
HETATM   10  C   UNL     1      -8.640  13.141  67.038  1.00  0.00    -0.168 C  
BRANCH  10  11
HETATM   11  C   UNL     1      -7.920  14.348  67.665  1.00  0.00    -0.191 C  
BRANCH  11  12
HETATM   12  C   UNL     1      -8.041  15.654  66.880  1.00  0.00    -0.290 C  
BRANCH  12  13
HETATM   13  C   UNL     1      -9.424  16.281  67.033  1.00  0.00    -0.237 C  
HETATM   14  C   UNL     1      -9.439  17.417  68.027  1.00  0.00    -0.281 C  
HETATM   15  O   UNL     1      -8.467  17.845  68.625  1.00  0.00    -0.299 OA 
HETATM   16  O   UNL     1     -10.680  17.937  68.178  1.00  0.00    -0.367 OA 
ENDBRANCH  12  13
ENDBRANCH  11  12
ENDBRANCH  10  11
ENDBRANCH   4  10
TORSDOF 4
ENDMDL
MODEL      106
REMARK 921   NORMALIZED FREE ENERGY PREDICTED BY IDOCK:   -3.83 KCAL/MOL
REMARK 922        TOTAL FREE ENERGY PREDICTED BY IDOCK:   -4.91 KCAL/MOL
REMARK 923 INTER-LIGAND FREE ENERGY PREDICTED BY IDOCK:   -4.52 KCAL/MOL
REMARK 924 INTRA-LIGAND FREE ENERGY PREDICTED BY IDOCK:   -0.39 KCAL/MOL
REMARK 927      BINDING AFFINITY PREDICTED BY RF-SCORE:    0.00 PKD
ROOT
HETATM    1  C   UNL     1      -8.740   6.232  67.786  1.00  0.00    -0.113 C  
HETATM    2  C   UNL     1      -7.923   5.492  68.821  1.00  0.00    -0.095 C  
HETATM    3  S   UNL     1      -9.067   4.925  70.100  1.00  0.00    -0.116 SA 
HETATM    4  C   UNL     1     -10.607   5.322  69.181  1.00  0.00    -0.097 C  
HETATM    5  C   UNL     1     -10.164   5.672  67.735  1.00  0.00    -0.193 C  
HETATM    6  O   UNL     1     -10.627   9.098  67.243  1.00  0.00    -0.271 OA 
HETATM    7  C   UNL     1     -10.204   7.976  67.437  1.00  0.00    -0.261 C  
HETATM    8  N   UNL     1     -10.862   6.788  67.141  1.00  0.00    -0.367 NA 
HETATM    9  N   UNL     1      -8.980   7.640  68.004  1.00  0.00    -0.127 NA 
ENDROOT
BRANCH   4  10
HETATM   10  C   UNL     1     -11.384   6.373  70.005  1.00  0.00    -0.496 C  
BRANCH  10  11
HETATM   11  C   UNL     1     -10.627   7.000  71.190  1.00  0.00    -0.237 C  
BRANCH  11  12
HETATM   12  C   UNL     1     -11.509   7.709  72.218  1.00  0.00    -0.366 C  
BRANCH  12  13
HETATM   13  C   UNL     1     -11.659   9.196  71.905  1.00  0.00    -0.430 C  
HETATM   14  C   UNL     1     -13.067   9.695  72.124  1.00  0.00    -0.431 C  
HETATM   15  O   UNL     1     -13.995   9.028  72.547  1.00  0.00    -0.478 OA 
HETATM   16  O   UNL     1     -13.191  11.005  71.808  1.00  0.00    -0.446 OA 
ENDBRANCH  12  13
ENDBRANCH  11  12
ENDBRANCH  10  11
ENDBRANCH   4  10
TORSDOF 4
ENDMDL
MODEL      107
REMARK 921   NORMALIZED FREE ENERGY PREDICTED BY IDOCK:   -3.83 KCAL/MOL
REMARK 922        TOTAL FREE ENERGY PREDICTED BY IDOCK:   -4.90 KCAL/MOL
REMARK 923 INTER-LIGAND FREE ENERGY PREDICTED BY IDOCK:   -4.52 KCAL/MOL
REMARK 924 INTRA-LIGAND FREE ENERGY PREDICTED BY IDOCK:   -0.38 KCAL/MOL
REMARK 927      BINDING AFFINITY PREDICTED BY RF-SCORE:    0.00 PKD
ROOT
HETATM    1  C   UNL     1     -11.174  14.732  65.799  1.00  0.00    -0.337 C  
HETATM    2  C   UNL     1     -10.518  13.831  64.777  1.00  0.00    -0.428 C  
HETATM    3  S   UNL     1     -10.333  12.203  65.541  1.00  0.00    -0.271 SA 
HETATM    4  C   UNL     1     -11.371  12.555  67.015  1.00  0.00    -0.328 C  
HETATM    5  C   UNL     1     -12.067  13.913  66.733  1.00  0.00    -0.439 C  
HETATM    6  O   UNL     1     -10.679  16.319  68.849  1.00  0.00    -0.260 OA 
HETATM    7  C   UNL     1     -11.007  15.602  67.925  1.00  0.00    -0.319 C  
HETATM    8  N   UNL     1     -12.142  14.802  67.869  1.00  0.00    -0.225 NA 
HETATM    9  N   UNL     1     -10.313  15.420  66.734  1.00  0.00    -0.272 NA 
ENDROOT
BRANCH   4  10
HETATM   10  C   UNL     1     -10.470  12.415  68.263  1.00  0.00    -0.234 C  
BRANCH  10  11
HETATM   11  C   UNL     1     -10.866  11.318  69.267  1.00  0.00    -0.259 C  
BRANCH  11  12
HETATM   12  C   UNL     1      -9.902  10.134  69.345  1.00  0.00    -0.247 C  
BRANCH  12  13
HETATM   13  C   UNL     1     -10.559   8.839  68.874  1.00  0.00    -0.178 C  
HETATM   14  C   UNL     1     -10.163   8.467  67.465  1.00  0.00    -0.243 C  
HETATM   15  O   UNL     1      -9.375   9.081  66.768  1.00  0.00    -0.147 OA 
HETATM   16  O   UNL     1     -10.782   7.337  67.051  1.00  0.00    -0.332 OA 
ENDBRANCH  12  13
ENDBRANCH  11  12
ENDBRANCH  10  11
ENDBRANCH   4  10
TORSDOF 4
ENDMDL
MODEL      108
REMARK 921   NORMALIZED FREE ENERGY PREDICTED BY IDOCK:   -3.83 KCAL/MOL
REMARK 922        TOTAL FREE ENERGY PREDICTED BY IDOCK:   -4.90 KCAL/MOL
REMARK 923 INTER-LIGAND FREE ENERGY PREDICTED BY IDOCK:   -4.71 KCAL/MOL
REMARK 924 INTRA-LIGAND FREE ENERGY PREDICTED BY IDOCK:   -0.18 KCAL/MOL
REMARK 927      BINDING AFFINITY PREDICTED BY RF-SCORE:    0.00 PKD
ROOT
HETATM    1  C   UNL     1     -13.104  15.779  71.352  1.00  0.00    -0.377 C  
HETATM    2  C   UNL     1     -14.349  15.368  72.106  1.00  0.00    -0.544 C  
HETATM    3  S   UNL     1     -14.211  13.596  72.439  1.00  0.00    -0.181 SA 
HETATM    4  C   UNL     1     -12.453  13.433  71.930  1.00  0.00     0.046 C  
HETATM    5  C   UNL     1     -11.927  14.881  71.741  1.00  0.00    -0.367 C  
HETATM    6  O   UNL     1     -11.428  15.431  68.329  1.00  0.00    -0.332 OA 
HETATM    7  C   UNL     1     -11.824  15.390  69.476  1.00  0.00    -0.349 C  
HETATM    8  N   UNL     1     -11.066  15.068  70.596  1.00  0.00    -0.239 NA 
HETATM    9  N   UNL     1     -13.119  15.645  69.912  1.00  0.00     0.084 NA 
ENDROOT
BRANCH   4  10
HETATM   10  C   UNL     1     -12.403  12.453  70.738  1.00  0.00    -0.377 C  
BRANCH  10  11
HETATM   11  C   UNL     1     -12.584  10.962  71.076  1.00  0.00    -0.517 C  
BRANCH  11  12
HETATM   12  C   UNL     1     -11.452  10.049  70.607  1.00  0.00    -0.425 C  
BRANCH  12  13
HETATM   13  C   UNL     1     -11.559   8.655  71.219  1.00  0.00    -0.340 C  
HETATM   14  C   UNL     1     -10.303   8.245  71.951  1.00  0.00    -0.255 C  
HETATM   15  O   UNL     1      -9.313   8.940  72.098  1.00  0.00    -0.348 OA 
HETATM   16  O   UNL     1     -10.402   6.993  72.457  1.00  0.00    -0.193 OA 
ENDBRANCH  12  13
ENDBRANCH  11  12
ENDBRANCH  10  11
ENDBRANCH   4  10
TORSDOF 4
ENDMDL
MODEL      109
REMARK 921   NORMALIZED FREE ENERGY PREDICTED BY IDOCK:   -3.82 KCAL/MOL
REMARK 922        TOTAL FREE ENERGY PREDICTED BY IDOCK:   -4.90 KCAL/MOL
REMARK 923 INTER-LIGAND FREE ENERGY PREDICTED BY IDOCK:   -4.58 KCAL/MOL
REMARK 924 INTRA-LIGAND FREE ENERGY PREDICTED BY IDOCK:   -0.32 KCAL/MOL
REMARK 927      BINDING AFFINITY PREDICTED BY RF-SCORE:    0.00 PKD
ROOT
HETATM    1  C   UNL     1     -10.664   8.159  72.842  1.00  0.00    -0.247 C  
HETATM    2  C   UNL     1     -10.416   6.834  73.528  1.00  0.00    -0.330 C  
HETATM    3  S   UNL     1     -10.224   5.590  72.231  1.00  0.00    -0.206 SA 
HETATM    4  C   UNL     1     -10.122   6.774  70.830  1.00  0.00    -0.190 C  
HETATM    5  C   UNL     1      -9.986   8.181  71.470  1.00  0.00    -0.182 C  
HETATM    6  O   UNL     1     -12.962   9.926  70.927  1.00  0.00    -0.335 OA 
HETATM    7  C   UNL     1     -12.025   9.291  71.367  1.00  0.00    -0.351 C  
HETATM    8  N   UNL     1     -10.750   9.219  70.818  1.00  0.00    -0.258 NA 
HETATM    9  N   UNL     1     -12.030   8.494  72.507  1.00  0.00    -0.373 NA 
ENDROOT
BRANCH   4  10
HETATM   10  C   UNL     1     -11.314   6.486  69.891  1.00  0.00    -0.469 C  
BRANCH  10  11
HETATM   11  C   UNL     1     -11.003   6.473  68.383  1.00  0.00    -0.358 C  
BRANCH  11  12
HETATM   12  C   UNL     1      -9.864   7.397  67.949  1.00  0.00    -0.177 C  
BRANCH  12  13
HETATM   13  C   UNL     1     -10.389   8.672  67.296  1.00  0.00    -0.366 C  
HETATM   14  C   UNL     1      -9.647   9.022  66.028  1.00  0.00    -0.272 C  
HETATM   15  O   UNL     1      -8.755   8.361  65.527  1.00  0.00    -0.172 OA 
HETATM   16  O   UNL     1     -10.100  10.175  65.482  1.00  0.00    -0.289 OA 
ENDBRANCH  12  13
ENDBRANCH  11  12
ENDBRANCH  10  11
ENDBRANCH   4  10
TORSDOF 4
ENDMDL
MODEL      110
REMARK 921   NORMALIZED FREE ENERGY PREDICTED BY IDOCK:   -3.78 KCAL/MOL
REMARK 922        TOTAL FREE ENERGY PREDICTED BY IDOCK:   -4.84 KCAL/MOL
REMARK 923 INTER-LIGAND FREE ENERGY PREDICTED BY IDOCK:   -4.51 KCAL/MOL
REMARK 924 INTRA-LIGAND FREE ENERGY PREDICTED BY IDOCK:   -0.33 KCAL/MOL
REMARK 927      BINDING AFFINITY PREDICTED BY RF-SCORE:    0.00 PKD
ROOT
HETATM    1  C   UNL     1     -11.659   6.536  71.726  1.00  0.00    -0.312 C  
HETATM    2  C   UNL     1     -11.803   7.777  72.578  1.00  0.00    -0.302 C  
HETATM    3  S   UNL     1     -11.199   9.171  71.599  1.00  0.00    -0.381 SA 
HETATM    4  C   UNL     1     -11.074   8.260  70.009  1.00  0.00    -0.147 C  
HETATM    5  C   UNL     1     -11.775   6.895  70.243  1.00  0.00    -0.291 C  
HETATM    6  O   UNL     1      -9.335   4.397  70.279  1.00  0.00    -0.118 OA 
HETATM    7  C   UNL     1     -10.180   5.231  70.536  1.00  0.00    -0.264 C  
HETATM    8  N   UNL     1     -11.108   5.761  69.647  1.00  0.00    -0.338 NA 
HETATM    9  N   UNL     1     -10.393   5.840  71.767  1.00  0.00    -0.214 NA 
ENDROOT
BRANCH   4  10
HETATM   10  C   UNL     1      -9.591   8.279  69.577  1.00  0.00    -0.171 C  
BRANCH  10  11
HETATM   11  C   UNL     1      -9.258   9.116  68.329  1.00  0.00    -0.135 C  
BRANCH  11  12
HETATM   12  C   UNL     1     -10.393   9.245  67.314  1.00  0.00    -0.332 C  
BRANCH  12  13
HETATM   13  C   UNL     1     -10.291  10.540  66.513  1.00  0.00    -0.294 C  
HETATM   14  C   UNL     1     -11.259  11.596  66.992  1.00  0.00    -0.314 C  
HETATM   15  O   UNL     1     -12.019  11.480  67.938  1.00  0.00    -0.618 OA 
HETATM   16  O   UNL     1     -11.181  12.724  66.248  1.00  0.00    -0.279 OA 
ENDBRANCH  12  13
ENDBRANCH  11  12
ENDBRANCH  10  11
ENDBRANCH   4  10
TORSDOF 4
ENDMDL
MODEL      111
REMARK 921   NORMALIZED FREE ENERGY PREDICTED BY IDOCK:   -3.78 KCAL/MOL
REMARK 922        TOTAL FREE ENERGY PREDICTED BY IDOCK:   -4.84 KCAL/MOL
REMARK 923 INTER-LIGAND FREE ENERGY PREDICTED BY IDOCK:   -4.42 KCAL/MOL
REMARK 924 INTRA-LIGAND FREE ENERGY PREDICTED BY IDOCK:   -0.42 KCAL/MOL
REMARK 927      BINDING AFFINITY PREDICTED BY RF-SCORE:    0.00 PKD
ROOT
HETATM    1  C   UNL     1     -11.002  15.181  66.653  1.00  0.00    -0.318 C  
HETATM    2  C   UNL     1     -10.353  15.422  67.997  1.00  0.00    -0.249 C  
HETATM    3  S   UNL     1      -9.048  14.186  68.190  1.00  0.00    -0.197 SA 
HETATM    4  C   UNL     1      -9.091  13.578  66.457  1.00  0.00    -0.113 C  
HETATM    5  C   UNL     1      -9.992  14.573  65.678  1.00  0.00    -0.347 C  
HETATM    6  O   UNL     1     -12.974  12.949  64.865  1.00  0.00    -0.754 OA 
HETATM    7  C   UNL     1     -12.089  13.633  65.338  1.00  0.00    -0.403 C  
HETATM    8  N   UNL     1     -10.886  13.960  64.723  1.00  0.00    -0.399 NA 
HETATM    9  N   UNL     1     -12.086  14.226  66.595  1.00  0.00    -0.436 NA 
ENDROOT
BRANCH   4  10
HETATM   10  C   UNL     1      -9.480  12.083  66.499  1.00  0.00    -0.234 C  
BRANCH  10  11
HETATM   11  C   UNL     1      -9.680  11.472  67.897  1.00  0.00    -0.187 C  
BRANCH  11  12
HETATM   12  C   UNL     1      -9.305   9.995  68.018  1.00  0.00    -0.139 C  
BRANCH  12  13
HETATM   13  C   UNL     1      -8.580   9.492  66.772  1.00  0.00    -0.133 C  
HETATM   14  C   UNL     1      -9.255   8.292  66.154  1.00  0.00    -0.192 C  
HETATM   15  O   UNL     1     -10.289   7.782  66.548  1.00  0.00    -0.234 OA 
HETATM   16  O   UNL     1      -8.580   7.837  65.072  1.00  0.00    -0.089 OA 
ENDBRANCH  12  13
ENDBRANCH  11  12
ENDBRANCH  10  11
ENDBRANCH   4  10
TORSDOF 4
ENDMDL
MODEL      112
REMARK 921   NORMALIZED FREE ENERGY PREDICTED BY IDOCK:   -3.78 KCAL/MOL
REMARK 922        TOTAL FREE ENERGY PREDICTED BY IDOCK:   -4.84 KCAL/MOL
REMARK 923 INTER-LIGAND FREE ENERGY PREDICTED BY IDOCK:   -4.41 KCAL/MOL
REMARK 924 INTRA-LIGAND FREE ENERGY PREDICTED BY IDOCK:   -0.43 KCAL/MOL
REMARK 927      BINDING AFFINITY PREDICTED BY RF-SCORE:    0.00 PKD
ROOT
HETATM    1  C   UNL     1     -10.235  12.435  66.170  1.00  0.00    -0.242 C  
HETATM    2  C   UNL     1     -10.325  11.119  66.908  1.00  0.00    -0.231 C  
HETATM    3  S   UNL     1     -11.123  11.452  68.496  1.00  0.00    -0.261 SA 
HETATM    4  C   UNL     1     -11.643  13.169  68.104  1.00  0.00    -0.339 C  
HETATM    5  C   UNL     1     -11.384  13.357  66.585  1.00  0.00    -0.323 C  
HETATM    6  O   UNL     1      -8.696  15.550  66.191  1.00  0.00    -0.304 OA 
HETATM    7  C   UNL     1      -9.447  14.598  66.265  1.00  0.00    -0.293 C  
HETATM    8  N   UNL     1     -10.835  14.642  66.218  1.00  0.00    -0.315 NA 
HETATM    9  N   UNL     1      -9.079  13.266  66.422  1.00  0.00    -0.118 NA 
ENDROOT
BRANCH   4  10
HETATM   10  C   UNL     1     -10.940  14.109  69.109  1.00  0.00    -0.280 C  
BRANCH  10  11
HETATM   11  C   UNL     1     -11.779  15.283  69.642  1.00  0.00    -0.355 C  
BRANCH  11  12
HETATM   12  C   UNL     1     -11.519  16.627  68.961  1.00  0.00     0.015 C  
BRANCH  12  13
HETATM   13  C   UNL     1     -10.085  17.102  69.179  1.00  0.00    -0.254 C  
HETATM   14  C   UNL     1      -9.762  18.352  68.395  1.00  0.00    -0.356 C  
HETATM   15  O   UNL     1     -10.546  18.967  67.692  1.00  0.00    -0.420 OA 
HETATM   16  O   UNL     1      -8.477  18.739  68.571  1.00  0.00    -0.329 OA 
ENDBRANCH  12  13
ENDBRANCH  11  12
ENDBRANCH  10  11
ENDBRANCH   4  10
TORSDOF 4
ENDMDL
MODEL      113
REMARK 921   NORMALIZED FREE ENERGY PREDICTED BY IDOCK:   -3.78 KCAL/MOL
REMARK 922        TOTAL FREE ENERGY PREDICTED BY IDOCK:   -4.84 KCAL/MOL
REMARK 923 INTER-LIGAND FREE ENERGY PREDICTED BY IDOCK:   -4.45 KCAL/MOL
REMARK 924 INTRA-LIGAND FREE ENERGY PREDICTED BY IDOCK:   -0.39 KCAL/MOL
REMARK 927      BINDING AFFINITY PREDICTED BY RF-SCORE:    0.00 PKD
ROOT
HETATM    1  C   UNL     1     -12.564   9.474  72.174  1.00  0.00    -0.334 C  
HETATM    2  C   UNL     1     -14.023   9.089  72.082  1.00  0.00    -0.435 C  
HETATM    3  S   UNL     1     -14.088   7.371  71.526  1.00  0.00    -0.339 SA 
HETATM    4  C   UNL     1     -12.295   7.027  71.725  1.00  0.00    -0.354 C  
HETATM    5  C   UNL     1     -11.709   8.244  72.490  1.00  0.00    -0.383 C  
HETATM    6  O   UNL     1      -9.709  10.069  70.286  1.00  0.00    -0.212 OA 
HETATM    7  C   UNL     1     -10.582   9.635  71.010  1.00  0.00    -0.292 C  
HETATM    8  N   UNL     1     -10.420   8.693  72.019  1.00  0.00    -0.335 NA 
HETATM    9  N   UNL     1     -11.928   9.980  70.978  1.00  0.00    -0.346 NA 
ENDROOT
BRANCH   4  10
HETATM   10  C   UNL     1     -11.732   6.673  70.331  1.00  0.00    -0.446 C  
BRANCH  10  11
HETATM   11  C   UNL     1     -10.650   5.579  70.293  1.00  0.00    -0.357 C  
BRANCH  11  12
HETATM   12  C   UNL     1     -10.264   5.003  71.655  1.00  0.00    -0.275 C  
BRANCH  12  13
HETATM   13  C   UNL     1      -8.830   5.364  72.035  1.00  0.00    -0.139 C  
HETATM   14  C   UNL     1      -7.975   4.146  72.295  1.00  0.00    -0.086 C  
HETATM   15  O   UNL     1      -8.341   2.989  72.179  1.00  0.00    -0.067 OA 
HETATM   16  O   UNL     1      -6.718   4.484  72.666  1.00  0.00    -0.047 OA 
ENDBRANCH  12  13
ENDBRANCH  11  12
ENDBRANCH  10  11
ENDBRANCH   4  10
TORSDOF 4
ENDMDL
MODEL      114
REMARK 921   NORMALIZED FREE ENERGY PREDICTED BY IDOCK:   -3.78 KCAL/MOL
REMARK 922        TOTAL FREE ENERGY PREDICTED BY IDOCK:   -4.84 KCAL/MOL
REMARK 923 INTER-LIGAND FREE ENERGY PREDICTED BY IDOCK:   -4.74 KCAL/MOL
REMARK 924 INTRA-LIGAND FREE ENERGY PREDICTED BY IDOCK:   -0.09 KCAL/MOL
REMARK 927      BINDING AFFINITY PREDICTED BY RF-SCORE:    0.00 PKD
ROOT
HETATM    1  C   UNL     1     -11.051  13.708  66.045  1.00  0.00    -0.293 C  
HETATM    2  C   UNL     1     -11.979  14.407  67.014  1.00  0.00    -0.395 C  
HETATM    3  S   UNL     1     -11.828  13.560  68.604  1.00  0.00    -0.363 SA 
HETATM    4  C   UNL     1     -10.365  12.545  68.152  1.00  0.00    -0.232 C  
HETATM    5  C   UNL     1      -9.861  13.103  66.794  1.00  0.00    -0.251 C  
HETATM    6  O   UNL     1     -10.542  10.739  64.316  1.00  0.00    -0.350 OA 
HETATM    7  C   UNL     1     -10.520  11.689  65.072  1.00  0.00    -0.285 C  
HETATM    8  N   UNL     1      -9.440  12.098  65.846  1.00  0.00    -0.216 NA 
HETATM    9  N   UNL     1     -11.569  12.563  65.331  1.00  0.00    -0.357 NA 
ENDROOT
BRANCH   4  10
HETATM   10  C   UNL     1     -10.782  11.061  68.248  1.00  0.00    -0.235 C  
BRANCH  10  11
HETATM   11  C   UNL     1     -10.054  10.219  69.311  1.00  0.00    -0.244 C  
BRANCH  11  12
HETATM   12  C   UNL     1     -10.940   9.238  70.080  1.00  0.00    -0.254 C  
BRANCH  12  13
HETATM   13  C   UNL     1     -11.553   9.883  71.320  1.00  0.00    -0.456 C  
HETATM   14  C   UNL     1     -12.844  10.608  71.020  1.00  0.00    -0.402 C  
HETATM   15  O   UNL     1     -13.390  10.655  69.932  1.00  0.00     0.042 OA 
HETATM   16  O   UNL     1     -13.354  11.204  72.123  1.00  0.00    -0.452 OA 
ENDBRANCH  12  13
ENDBRANCH  11  12
ENDBRANCH  10  11
ENDBRANCH   4  10
TORSDOF 4
ENDMDL
MODEL      115
REMARK 921   NORMALIZED FREE ENERGY PREDICTED BY IDOCK:   -3.78 KCAL/MOL
REMARK 922        TOTAL FREE ENERGY PREDICTED BY IDOCK:   -4.84 KCAL/MOL
REMARK 923 INTER-LIGAND FREE ENERGY PREDICTED BY IDOCK:   -4.50 KCAL/MOL
REMARK 924 INTRA-LIGAND FREE ENERGY PREDICTED BY IDOCK:   -0.33 KCAL/MOL
REMARK 927      BINDING AFFINITY PREDICTED BY RF-SCORE:    0.00 PKD
ROOT
HETATM    1  C   UNL     1      -8.962  11.373  66.140  1.00  0.00    -0.201 C  
HETATM    2  C   UNL     1      -8.214  10.869  67.353  1.00  0.00    -0.117 C  
HETATM    3  S   UNL     1      -9.450  10.340  68.562  1.00  0.00    -0.165 SA 
HETATM    4  C   UNL     1     -10.892  10.437  67.428  1.00  0.00    -0.286 C  
HETATM    5  C   UNL     1     -10.305  10.651  66.008  1.00  0.00    -0.225 C  
HETATM    6  O   UNL     1     -11.039  13.912  64.996  1.00  0.00    -0.322 OA 
HETATM    7  C   UNL     1     -10.536  12.879  65.390  1.00  0.00    -0.292 C  
HETATM    8  N   UNL     1     -11.030  11.595  65.189  1.00  0.00    -0.287 NA 
HETATM    9  N   UNL     1      -9.366  12.761  66.132  1.00  0.00    -0.166 NA 
ENDROOT
BRANCH   4  10
HETATM   10  C   UNL     1     -11.867  11.487  68.006  1.00  0.00    -0.287 C  
BRANCH  10  11
HETATM   11  C   UNL     1     -12.012  11.508  69.538  1.00  0.00    -0.402 C  
BRANCH  11  12
HETATM   12  C   UNL     1     -12.208  12.895  70.152  1.00  0.00    -0.336 C  
BRANCH  12  13
HETATM   13  C   UNL     1     -11.632  13.993  69.261  1.00  0.00    -0.356 C  
HETATM   14  C   UNL     1     -11.842  15.374  69.834  1.00  0.00    -0.350 C  
HETATM   15  O   UNL     1     -12.367  15.621  70.906  1.00  0.00    -0.381 OA 
HETATM   16  O   UNL     1     -11.358  16.337  69.015  1.00  0.00    -0.331 OA 
ENDBRANCH  12  13
ENDBRANCH  11  12
ENDBRANCH  10  11
ENDBRANCH   4  10
TORSDOF 4
ENDMDL
MODEL      116
REMARK 921   NORMALIZED FREE ENERGY PREDICTED BY IDOCK:   -3.77 KCAL/MOL
REMARK 922        TOTAL FREE ENERGY PREDICTED BY IDOCK:   -4.83 KCAL/MOL
REMARK 923 INTER-LIGAND FREE ENERGY PREDICTED BY IDOCK:   -4.46 KCAL/MOL
REMARK 924 INTRA-LIGAND FREE ENERGY PREDICTED BY IDOCK:   -0.37 KCAL/MOL
REMARK 927      BINDING AFFINITY PREDICTED BY RF-SCORE:    0.00 PKD
ROOT
HETATM    1  C   UNL     1      -8.629   8.285  67.242  1.00  0.00    -0.124 C  
HETATM    2  C   UNL     1      -8.469   8.739  65.809  1.00  0.00    -0.148 C  
HETATM    3  S   UNL     1      -9.412  10.270  65.625  1.00  0.00    -0.242 SA 
HETATM    4  C   UNL     1      -9.735  10.522  67.415  1.00  0.00    -0.164 C  
HETATM    5  C   UNL     1      -8.846   9.491  68.159  1.00  0.00    -0.124 C  
HETATM    6  O   UNL     1     -10.921   7.045  69.539  1.00  0.00    -0.243 OA 
HETATM    7  C   UNL     1     -10.147   7.703  68.875  1.00  0.00    -0.197 C  
HETATM    8  N   UNL     1      -9.478   8.849  69.289  1.00  0.00    -0.159 NA 
HETATM    9  N   UNL     1      -9.772   7.459  67.558  1.00  0.00    -0.141 NA 
ENDROOT
BRANCH   4  10
HETATM   10  C   UNL     1     -11.266  10.484  67.621  1.00  0.00    -0.338 C  
BRANCH  10  11
HETATM   11  C   UNL     1     -11.884  11.695  68.342  1.00  0.00    -0.346 C  
BRANCH  11  12
HETATM   12  C   UNL     1     -11.702  11.708  69.860  1.00  0.00    -0.414 C  
BRANCH  12  13
HETATM   13  C   UNL     1     -12.256  10.440  70.506  1.00  0.00    -0.412 C  
HETATM   14  C   UNL     1     -13.066  10.729  71.748  1.00  0.00    -0.468 C  
HETATM   15  O   UNL     1     -13.311  11.838  72.189  1.00  0.00    -0.497 OA 
HETATM   16  O   UNL     1     -13.518   9.593  72.328  1.00  0.00    -0.441 OA 
ENDBRANCH  12  13
ENDBRANCH  11  12
ENDBRANCH  10  11
ENDBRANCH   4  10
TORSDOF 4
ENDMDL
MODEL      117
REMARK 921   NORMALIZED FREE ENERGY PREDICTED BY IDOCK:   -3.77 KCAL/MOL
REMARK 922        TOTAL FREE ENERGY PREDICTED BY IDOCK:   -4.83 KCAL/MOL
REMARK 923 INTER-LIGAND FREE ENERGY PREDICTED BY IDOCK:   -4.40 KCAL/MOL
REMARK 924 INTRA-LIGAND FREE ENERGY PREDICTED BY IDOCK:   -0.43 KCAL/MOL
REMARK 927      BINDING AFFINITY PREDICTED BY RF-SCORE:    0.00 PKD
ROOT
HETATM    1  C   UNL     1     -12.001  13.784  67.488  1.00  0.00    -0.376 C  
HETATM    2  C   UNL     1     -11.397  15.016  66.851  1.00  0.00    -0.302 C  
HETATM    3  S   UNL     1      -9.860  14.504  66.050  1.00  0.00    -0.311 SA 
HETATM    4  C   UNL     1     -10.135  12.696  66.225  1.00  0.00    -0.253 C  
HETATM    5  C   UNL     1     -11.602  12.532  66.703  1.00  0.00    -0.380 C  
HETATM    6  O   UNL     1     -11.560  11.450  70.023  1.00  0.00    -0.298 OA 
HETATM    7  C   UNL     1     -11.639  12.065  68.979  1.00  0.00    -0.313 C  
HETATM    8  N   UNL     1     -11.800  11.517  67.712  1.00  0.00    -0.626 NA 
HETATM    9  N   UNL     1     -11.575  13.446  68.827  1.00  0.00    -0.301 NA 
ENDROOT
BRANCH   4  10
HETATM   10  C   UNL     1      -8.991  12.134  67.097  1.00  0.00    -0.189 C  
BRANCH  10  11
HETATM   11  C   UNL     1      -7.927  11.296  66.366  1.00  0.00    -0.125 C  
BRANCH  11  12
HETATM   12  C   UNL     1      -7.777   9.859  66.866  1.00  0.00    -0.098 C  
BRANCH  12  13
HETATM   13  C   UNL     1      -8.845   8.941  66.277  1.00  0.00    -0.187 C  
HETATM   14  C   UNL     1      -9.730   8.328  67.336  1.00  0.00    -0.174 C  
HETATM   15  O   UNL     1      -9.660   8.553  68.532  1.00  0.00    -0.148 OA 
HETATM   16  O   UNL     1     -10.648   7.490  66.801  1.00  0.00    -0.318 OA 
ENDBRANCH  12  13
ENDBRANCH  11  12
ENDBRANCH  10  11
ENDBRANCH   4  10
TORSDOF 4
ENDMDL
MODEL      118
REMARK 921   NORMALIZED FREE ENERGY PREDICTED BY IDOCK:   -3.75 KCAL/MOL
REMARK 922        TOTAL FREE ENERGY PREDICTED BY IDOCK:   -4.81 KCAL/MOL
REMARK 923 INTER-LIGAND FREE ENERGY PREDICTED BY IDOCK:   -4.69 KCAL/MOL
REMARK 924 INTRA-LIGAND FREE ENERGY PREDICTED BY IDOCK:   -0.12 KCAL/MOL
REMARK 927      BINDING AFFINITY PREDICTED BY RF-SCORE:    0.00 PKD
ROOT
HETATM    1  C   UNL     1      -9.099   8.063  67.728  1.00  0.00    -0.131 C  
HETATM    2  C   UNL     1      -9.235   8.214  69.227  1.00  0.00    -0.151 C  
HETATM    3  S   UNL     1     -10.205   9.709  69.528  1.00  0.00    -0.235 SA 
HETATM    4  C   UNL     1     -10.723   9.966  67.784  1.00  0.00    -0.277 C  
HETATM    5  C   UNL     1     -10.309   8.679  67.022  1.00  0.00    -0.298 C  
HETATM    6  O   UNL     1      -7.649   9.468  64.901  1.00  0.00    -0.104 OA 
HETATM    7  C   UNL     1      -8.380   9.082  65.791  1.00  0.00    -0.128 C  
HETATM    8  N   UNL     1      -9.756   8.907  65.707  1.00  0.00    -0.200 NA 
HETATM    9  N   UNL     1      -7.998   8.744  67.085  1.00  0.00    -0.096 NA 
ENDROOT
BRANCH   4  10
HETATM   10  C   UNL     1     -10.155  11.328  67.327  1.00  0.00    -0.214 C  
BRANCH  10  11
HETATM   11  C   UNL     1     -10.892  12.015  66.164  1.00  0.00    -0.325 C  
BRANCH  11  12
HETATM   12  C   UNL     1     -10.629  13.515  66.027  1.00  0.00    -0.285 C  
BRANCH  12  13
HETATM   13  C   UNL     1     -11.614  14.176  65.065  1.00  0.00    -0.362 C  
HETATM   14  C   UNL     1     -11.228  15.596  64.726  1.00  0.00    -0.382 C  
HETATM   15  O   UNL     1     -10.227  16.169  65.119  1.00  0.00    -0.542 OA 
HETATM   16  O   UNL     1     -12.130  16.178  63.902  1.00  0.00    -0.956 OA 
ENDBRANCH  12  13
ENDBRANCH  11  12
ENDBRANCH  10  11
ENDBRANCH   4  10
TORSDOF 4
ENDMDL
MODEL      119
REMARK 921   NORMALIZED FREE ENERGY PREDICTED BY IDOCK:   -3.75 KCAL/MOL
REMARK 922        TOTAL FREE ENERGY PREDICTED BY IDOCK:   -4.80 KCAL/MOL
REMARK 923 INTER-LIGAND FREE ENERGY PREDICTED BY IDOCK:   -4.65 KCAL/MOL
REMARK 924 INTRA-LIGAND FREE ENERGY PREDICTED BY IDOCK:   -0.15 KCAL/MOL
REMARK 927      BINDING AFFINITY PREDICTED BY RF-SCORE:    0.00 PKD
ROOT
HETATM    1  C   UNL     1      -6.608  15.697  67.978  1.00  0.00    -0.139 C  
HETATM    2  C   UNL     1      -6.885  16.811  66.993  1.00  0.00    -0.211 C  
HETATM    3  S   UNL     1      -8.544  16.538  66.330  1.00  0.00    -0.330 SA 
HETATM    4  C   UNL     1      -9.023  15.225  67.523  1.00  0.00    -0.185 C  
HETATM    5  C   UNL     1      -7.914  15.210  68.609  1.00  0.00    -0.151 C  
HETATM    6  O   UNL     1      -6.055  12.278  68.243  1.00  0.00    -0.050 OA 
HETATM    7  C   UNL     1      -6.487  13.413  68.252  1.00  0.00    -0.102 C  
HETATM    8  N   UNL     1      -7.517  13.894  69.051  1.00  0.00    -0.078 NA 
HETATM    9  N   UNL     1      -6.051  14.469  67.459  1.00  0.00    -0.346 NA 
ENDROOT
BRANCH   4  10
HETATM   10  C   UNL     1      -9.299  13.939  66.712  1.00  0.00    -0.286 C  
BRANCH  10  11
HETATM   11  C   UNL     1     -10.328  12.965  67.314  1.00  0.00    -0.234 C  
BRANCH  11  12
HETATM   12  C   UNL     1     -11.746  13.095  66.755  1.00  0.00    -0.439 C  
BRANCH  12  13
HETATM   13  C   UNL     1     -11.940  14.411  66.007  1.00  0.00    -0.377 C  
HETATM   14  C   UNL     1     -12.488  14.211  64.614  1.00  0.00    -0.350 C  
HETATM   15  O   UNL     1     -12.796  13.139  64.124  1.00  0.00    -0.651 OA 
HETATM   16  O   UNL     1     -12.619  15.384  63.952  1.00  0.00    -0.725 OA 
ENDBRANCH  12  13
ENDBRANCH  11  12
ENDBRANCH  10  11
ENDBRANCH   4  10
TORSDOF 4
ENDMDL
MODEL      120
REMARK 921   NORMALIZED FREE ENERGY PREDICTED BY IDOCK:   -3.71 KCAL/MOL
REMARK 922        TOTAL FREE ENERGY PREDICTED BY IDOCK:   -4.75 KCAL/MOL
REMARK 923 INTER-LIGAND FREE ENERGY PREDICTED BY IDOCK:   -4.55 KCAL/MOL
REMARK 924 INTRA-LIGAND FREE ENERGY PREDICTED BY IDOCK:   -0.19 KCAL/MOL
REMARK 927      BINDING AFFINITY PREDICTED BY RF-SCORE:    0.00 PKD
ROOT
HETATM    1  C   UNL     1     -11.106   8.025  72.666  1.00  0.00    -0.387 C  
HETATM    2  C   UNL     1     -10.781   6.568  72.912  1.00  0.00    -0.251 C  
HETATM    3  S   UNL     1     -10.088   5.910  71.378  1.00  0.00    -0.203 SA 
HETATM    4  C   UNL     1      -9.894   7.530  70.534  1.00  0.00    -0.183 C  
HETATM    5  C   UNL     1     -10.157   8.610  71.617  1.00  0.00    -0.294 C  
HETATM    6  O   UNL     1     -13.204  10.160  70.904  1.00  0.00    -0.395 OA 
HETATM    7  C   UNL     1     -12.289   9.493  71.343  1.00  0.00    -0.364 C  
HETATM    8  N   UNL     1     -10.933   9.742  71.166  1.00  0.00    -0.352 NA 
HETATM    9  N   UNL     1     -12.401   8.336  72.106  1.00  0.00    -0.345 NA 
ENDROOT
BRANCH   4  10
HETATM   10  C   UNL     1     -10.778   7.502  69.267  1.00  0.00    -0.185 C  
BRANCH  10  11
HETATM   11  C   UNL     1     -10.913   6.141  68.562  1.00  0.00    -0.404 C  
BRANCH  11  12
HETATM   12  C   UNL     1     -10.751   6.180  67.042  1.00  0.00    -0.423 C  
BRANCH  12  13
HETATM   13  C   UNL     1      -9.638   5.249  66.568  1.00  0.00    -0.166 C  
HETATM   14  C   UNL     1     -10.091   4.315  65.472  1.00  0.00    -0.223 C  
HETATM   15  O   UNL     1     -11.199   4.305  64.965  1.00  0.00    -0.249 OA 
HETATM   16  O   UNL     1      -9.103   3.473  65.089  1.00  0.00    -0.130 OA 
ENDBRANCH  12  13
ENDBRANCH  11  12
ENDBRANCH  10  11
ENDBRANCH   4  10
TORSDOF 4
ENDMDL
MODEL      121
REMARK 921   NORMALIZED FREE ENERGY PREDICTED BY IDOCK:   -3.70 KCAL/MOL
REMARK 922        TOTAL FREE ENERGY PREDICTED BY IDOCK:   -4.74 KCAL/MOL
REMARK 923 INTER-LIGAND FREE ENERGY PREDICTED BY IDOCK:   -4.50 KCAL/MOL
REMARK 924 INTRA-LIGAND FREE ENERGY PREDICTED BY IDOCK:   -0.25 KCAL/MOL
REMARK 927      BINDING AFFINITY PREDICTED BY RF-SCORE:    0.00 PKD
ROOT
HETATM    1  C   UNL     1     -13.092  15.715  71.318  1.00  0.00    -0.473 C  
HETATM    2  C   UNL     1     -14.307  15.209  72.063  1.00  0.00    -0.586 C  
HETATM    3  S   UNL     1     -14.094  13.428  72.284  1.00  0.00    -0.261 SA 
HETATM    4  C   UNL     1     -12.340  13.367  71.742  1.00  0.00     0.137 C  
HETATM    5  C   UNL     1     -11.874  14.844  71.636  1.00  0.00    -0.366 C  
HETATM    6  O   UNL     1     -11.451  15.621  68.258  1.00  0.00    -0.353 OA 
HETATM    7  C   UNL     1     -11.827  15.494  69.405  1.00  0.00    -0.374 C  
HETATM    8  N   UNL     1     -11.040  15.134  70.493  1.00  0.00    -0.276 NA 
HETATM    9  N   UNL     1     -13.124  15.670  69.874  1.00  0.00     0.084 NA 
ENDROOT
BRANCH   4  10
HETATM   10  C   UNL     1     -12.270  12.463  70.491  1.00  0.00    -0.382 C  
BRANCH  10  11
HETATM   11  C   UNL     1     -12.294  10.946  70.747  1.00  0.00    -0.487 C  
BRANCH  11  12
HETATM   12  C   UNL     1     -11.420  10.117  69.805  1.00  0.00    -0.288 C  
BRANCH  12  13
HETATM   13  C   UNL     1     -10.648  10.999  68.827  1.00  0.00    -0.232 C  
HETATM   14  C   UNL     1     -10.240  10.258  67.576  1.00  0.00    -0.210 C  
HETATM   15  O   UNL     1     -10.518   9.099  67.320  1.00  0.00    -0.254 OA 
HETATM   16  O   UNL     1      -9.526  11.043  66.737  1.00  0.00    -0.177 OA 
ENDBRANCH  12  13
ENDBRANCH  11  12
ENDBRANCH  10  11
ENDBRANCH   4  10
TORSDOF 4
ENDMDL
MODEL      122
REMARK 921   NORMALIZED FREE ENERGY PREDICTED BY IDOCK:   -3.70 KCAL/MOL
REMARK 922        TOTAL FREE ENERGY PREDICTED BY IDOCK:   -4.74 KCAL/MOL
REMARK 923 INTER-LIGAND FREE ENERGY PREDICTED BY IDOCK:   -4.62 KCAL/MOL
REMARK 924 INTRA-LIGAND FREE ENERGY PREDICTED BY IDOCK:   -0.12 KCAL/MOL
REMARK 927      BINDING AFFINITY PREDICTED BY RF-SCORE:    0.00 PKD
ROOT
HETATM    1  C   UNL     1      -9.455  19.220  67.997  1.00  0.00    -0.335 C  
HETATM    2  C   UNL     1      -9.591  18.478  69.308  1.00  0.00     0.026 C  
HETATM    3  S   UNL     1      -9.691  16.716  68.916  1.00  0.00    -0.248 SA 
HETATM    4  C   UNL     1      -9.231  16.879  67.145  1.00  0.00    -0.229 C  
HETATM    5  C   UNL     1      -8.748  18.342  66.961  1.00  0.00    -0.270 C  
HETATM    6  O   UNL     1     -11.134  20.056  65.073  1.00  0.00    -0.238 OA 
HETATM    7  C   UNL     1     -10.415  19.596  65.937  1.00  0.00    -0.493 C  
HETATM    8  N   UNL     1      -9.187  18.976  65.740  1.00  0.00    -0.310 NA 
HETATM    9  N   UNL     1     -10.670  19.582  67.304  1.00  0.00    -0.490 NA 
ENDROOT
BRANCH   4  10
HETATM   10  C   UNL     1     -10.423  16.368  66.306  1.00  0.00    -0.298 C  
BRANCH  10  11
HETATM   11  C   UNL     1     -10.298  14.940  65.746  1.00  0.00    -0.351 C  
BRANCH  11  12
HETATM   12  C   UNL     1     -10.993  13.857  66.572  1.00  0.00    -0.300 C  
BRANCH  12  13
HETATM   13  C   UNL     1     -11.989  14.454  67.562  1.00  0.00    -0.389 C  
HETATM   14  C   UNL     1     -11.776  13.954  68.971  1.00  0.00    -0.338 C  
HETATM   15  O   UNL     1     -10.891  13.195  69.325  1.00  0.00    -0.144 OA 
HETATM   16  O   UNL     1     -12.690  14.464  69.829  1.00  0.00    -0.217 OA 
ENDBRANCH  12  13
ENDBRANCH  11  12
ENDBRANCH  10  11
ENDBRANCH   4  10
TORSDOF 4
ENDMDL
MODEL      123
REMARK 921   NORMALIZED FREE ENERGY PREDICTED BY IDOCK:   -3.68 KCAL/MOL
REMARK 922        TOTAL FREE ENERGY PREDICTED BY IDOCK:   -4.72 KCAL/MOL
REMARK 923 INTER-LIGAND FREE ENERGY PREDICTED BY IDOCK:   -4.24 KCAL/MOL
REMARK 924 INTRA-LIGAND FREE ENERGY PREDICTED BY IDOCK:   -0.48 KCAL/MOL
REMARK 927      BINDING AFFINITY PREDICTED BY RF-SCORE:    0.00 PKD
ROOT
HETATM    1  C   UNL     1     -10.340   5.209  70.192  1.00  0.00    -0.270 C  
HETATM    2  C   UNL     1      -9.077   5.182  69.362  1.00  0.00    -0.108 C  
HETATM    3  S   UNL     1      -7.907   6.325  70.131  1.00  0.00    -0.108 SA 
HETATM    4  C   UNL     1      -8.869   6.588  71.674  1.00  0.00    -0.135 C  
HETATM    5  C   UNL     1     -10.009   5.536  71.651  1.00  0.00    -0.182 C  
HETATM    6  O   UNL     1     -13.031   7.202  71.117  1.00  0.00    -0.366 OA 
HETATM    7  C   UNL     1     -12.007   6.555  71.041  1.00  0.00    -0.297 C  
HETATM    8  N   UNL     1     -11.291   6.022  72.107  1.00  0.00    -0.289 NA 
HETATM    9  N   UNL     1     -11.327   6.218  69.876  1.00  0.00    -0.427 NA 
ENDROOT
BRANCH   4  10
HETATM   10  C   UNL     1      -9.230   8.089  71.745  1.00  0.00    -0.212 C  
BRANCH  10  11
HETATM   11  C   UNL     1      -8.940   8.918  70.482  1.00  0.00    -0.224 C  
BRANCH  11  12
HETATM   12  C   UNL     1     -10.133   9.700  69.933  1.00  0.00    -0.279 C  
BRANCH  12  13
HETATM   13  C   UNL     1      -9.926  10.097  68.474  1.00  0.00    -0.177 C  
HETATM   14  C   UNL     1     -11.123  10.809  67.890  1.00  0.00    -0.308 C  
HETATM   15  O   UNL     1     -12.141  11.093  68.498  1.00  0.00    -0.586 OA 
HETATM   16  O   UNL     1     -10.936  11.121  66.587  1.00  0.00    -0.274 OA 
ENDBRANCH  12  13
ENDBRANCH  11  12
ENDBRANCH  10  11
ENDBRANCH   4  10
TORSDOF 4
ENDMDL
MODEL      124
REMARK 921   NORMALIZED FREE ENERGY PREDICTED BY IDOCK:   -3.68 KCAL/MOL
REMARK 922        TOTAL FREE ENERGY PREDICTED BY IDOCK:   -4.71 KCAL/MOL
REMARK 923 INTER-LIGAND FREE ENERGY PREDICTED BY IDOCK:   -4.36 KCAL/MOL
REMARK 924 INTRA-LIGAND FREE ENERGY PREDICTED BY IDOCK:   -0.35 KCAL/MOL
REMARK 927      BINDING AFFINITY PREDICTED BY RF-SCORE:    0.00 PKD
ROOT
HETATM    1  C   UNL     1     -13.457  15.152  72.995  1.00  0.00    -0.452 C  
HETATM    2  C   UNL     1     -12.443  16.239  73.272  1.00  0.00    -0.489 C  
HETATM    3  S   UNL     1     -11.552  16.545  71.730  1.00  0.00     0.121 SA 
HETATM    4  C   UNL     1     -12.665  15.554  70.656  1.00  0.00    -0.436 C  
HETATM    5  C   UNL     1     -13.897  15.199  71.530  1.00  0.00    -0.508 C  
HETATM    6  O   UNL     1     -13.797  11.780  72.232  1.00  0.00    -0.102 OA 
HETATM    7  C   UNL     1     -13.745  12.993  72.243  1.00  0.00    -0.512 C  
HETATM    8  N   UNL     1     -14.391  13.852  71.361  1.00  0.00     0.043 NA 
HETATM    9  N   UNL     1     -13.022  13.780  73.132  1.00  0.00    -0.329 NA 
ENDROOT
BRANCH   4  10
HETATM   10  C   UNL     1     -11.823  14.413  70.042  1.00  0.00    -0.377 C  
BRANCH  10  11
HETATM   11  C   UNL     1     -11.883  14.273  68.511  1.00  0.00    -0.382 C  
BRANCH  11  12
HETATM   12  C   UNL     1     -10.757  14.974  67.751  1.00  0.00    -0.278 C  
BRANCH  12  13
HETATM   13  C   UNL     1      -9.487  14.128  67.716  1.00  0.00    -0.207 C  
HETATM   14  C   UNL     1      -8.320  14.806  68.394  1.00  0.00    -0.154 C  
HETATM   15  O   UNL     1      -8.360  15.885  68.958  1.00  0.00    -0.209 OA 
HETATM   16  O   UNL     1      -7.193  14.059  68.321  1.00  0.00    -0.092 OA 
ENDBRANCH  12  13
ENDBRANCH  11  12
ENDBRANCH  10  11
ENDBRANCH   4  10
TORSDOF 4
ENDMDL
MODEL      125
REMARK 921   NORMALIZED FREE ENERGY PREDICTED BY IDOCK:   -3.67 KCAL/MOL
REMARK 922        TOTAL FREE ENERGY PREDICTED BY IDOCK:   -4.70 KCAL/MOL
REMARK 923 INTER-LIGAND FREE ENERGY PREDICTED BY IDOCK:   -4.39 KCAL/MOL
REMARK 924 INTRA-LIGAND FREE ENERGY PREDICTED BY IDOCK:   -0.31 KCAL/MOL
REMARK 927      BINDING AFFINITY PREDICTED BY RF-SCORE:    0.00 PKD
ROOT
HETATM    1  C   UNL     1      -8.739  11.214  65.786  1.00  0.00    -0.150 C  
HETATM    2  C   UNL     1      -7.433  10.608  66.248  1.00  0.00    -0.137 C  
HETATM    3  S   UNL     1      -7.748   8.864  66.600  1.00  0.00    -0.100 SA 
HETATM    4  C   UNL     1      -9.427   8.810  65.857  1.00  0.00    -0.208 C  
HETATM    5  C   UNL     1      -9.603  10.153  65.100  1.00  0.00    -0.292 C  
HETATM    6  O   UNL     1     -11.934  12.093  66.830  1.00  0.00    -0.603 OA 
HETATM    7  C   UNL     1     -10.943  11.587  66.343  1.00  0.00    -0.284 C  
HETATM    8  N   UNL     1     -10.909  10.755  65.229  1.00  0.00    -0.079 NA 
HETATM    9  N   UNL     1      -9.637  11.721  66.799  1.00  0.00    -0.196 NA 
ENDROOT
BRANCH   4  10
HETATM   10  C   UNL     1     -10.422   8.444  66.981  1.00  0.00    -0.375 C  
BRANCH  10  11
HETATM   11  C   UNL     1     -10.815   6.959  67.084  1.00  0.00    -0.447 C  
BRANCH  11  12
HETATM   12  C   UNL     1     -11.058   6.451  68.505  1.00  0.00    -0.385 C  
BRANCH  12  13
HETATM   13  C   UNL     1     -10.509   7.416  69.552  1.00  0.00    -0.236 C  
HETATM   14  C   UNL     1     -11.397   7.518  70.769  1.00  0.00    -0.280 C  
HETATM   15  O   UNL     1     -12.421   6.882  70.951  1.00  0.00    -0.378 OA 
HETATM   16  O   UNL     1     -10.914   8.404  71.671  1.00  0.00    -0.246 OA 
ENDBRANCH  12  13
ENDBRANCH  11  12
ENDBRANCH  10  11
ENDBRANCH   4  10
TORSDOF 4
ENDMDL
MODEL      126
REMARK 921   NORMALIZED FREE ENERGY PREDICTED BY IDOCK:   -3.64 KCAL/MOL
REMARK 922        TOTAL FREE ENERGY PREDICTED BY IDOCK:   -4.67 KCAL/MOL
REMARK 923 INTER-LIGAND FREE ENERGY PREDICTED BY IDOCK:   -4.51 KCAL/MOL
REMARK 924 INTRA-LIGAND FREE ENERGY PREDICTED BY IDOCK:   -0.16 KCAL/MOL
REMARK 927      BINDING AFFINITY PREDICTED BY RF-SCORE:    0.00 PKD
ROOT
HETATM    1  C   UNL     1     -12.049  13.134  65.068  1.00  0.00    -0.415 C  
HETATM    2  C   UNL     1     -11.448  11.747  65.114  1.00  0.00    -0.183 C  
HETATM    3  S   UNL     1      -9.940  11.852  66.106  1.00  0.00    -0.234 SA 
HETATM    4  C   UNL     1     -10.234  13.552  66.738  1.00  0.00    -0.264 C  
HETATM    5  C   UNL     1     -11.689  13.911  66.336  1.00  0.00    -0.383 C  
HETATM    6  O   UNL     1     -11.569  16.347  63.837  1.00  0.00    -1.100 OA 
HETATM    7  C   UNL     1     -11.669  15.333  64.499  1.00  0.00    -0.305 C  
HETATM    8  N   UNL     1     -11.872  15.267  65.873  1.00  0.00     0.085 NA 
HETATM    9  N   UNL     1     -11.591  14.028  64.029  1.00  0.00    -0.257 NA 
ENDROOT
BRANCH   4  10
HETATM   10  C   UNL     1      -9.074  14.441  66.238  1.00  0.00    -0.130 C  
BRANCH  10  11
HETATM   11  C   UNL     1      -7.985  14.781  67.272  1.00  0.00    -0.232 C  
BRANCH  11  12
HETATM   12  C   UNL     1      -8.428  14.690  68.733  1.00  0.00    -0.161 C  
BRANCH  12  13
HETATM   13  C   UNL     1      -9.409  15.801  69.096  1.00  0.00    -0.258 C  
HETATM   14  C   UNL     1     -10.689  15.270  69.698  1.00  0.00    -0.281 C  
HETATM   15  O   UNL     1     -10.928  14.098  69.926  1.00  0.00    -0.110 OA 
HETATM   16  O   UNL     1     -11.562  16.265  69.981  1.00  0.00    -0.283 OA 
ENDBRANCH  12  13
ENDBRANCH  11  12
ENDBRANCH  10  11
ENDBRANCH   4  10
TORSDOF 4
ENDMDL
MODEL      127
REMARK 921   NORMALIZED FREE ENERGY PREDICTED BY IDOCK:   -3.63 KCAL/MOL
REMARK 922        TOTAL FREE ENERGY PREDICTED BY IDOCK:   -4.66 KCAL/MOL
REMARK 923 INTER-LIGAND FREE ENERGY PREDICTED BY IDOCK:   -4.25 KCAL/MOL
REMARK 924 INTRA-LIGAND FREE ENERGY PREDICTED BY IDOCK:   -0.41 KCAL/MOL
REMARK 927      BINDING AFFINITY PREDICTED BY RF-SCORE:    0.00 PKD
ROOT
HETATM    1  C   UNL     1     -11.020   6.234  72.670  1.00  0.00    -0.252 C  
HETATM    2  C   UNL     1     -12.486   6.233  72.299  1.00  0.00    -0.023 C  
HETATM    3  S   UNL     1     -12.681   7.350  70.891  1.00  0.00    -0.025 SA 
HETATM    4  C   UNL     1     -10.888   7.563  70.554  1.00  0.00    -0.240 C  
HETATM    5  C   UNL     1     -10.160   6.512  71.435  1.00  0.00    -0.191 C  
HETATM    6  O   UNL     1      -8.474   8.197  73.987  1.00  0.00    -0.260 OA 
HETATM    7  C   UNL     1      -9.237   7.552  73.296  1.00  0.00    -0.205 C  
HETATM    8  N   UNL     1      -8.947   6.983  72.061  1.00  0.00    -0.132 NA 
HETATM    9  N   UNL     1     -10.563   7.253  73.588  1.00  0.00    -0.364 NA 
ENDROOT
BRANCH   4  10
HETATM   10  C   UNL     1     -10.555   9.060  70.738  1.00  0.00    -0.300 C  
BRANCH  10  11
HETATM   11  C   UNL     1     -11.663   9.931  71.356  1.00  0.00    -0.449 C  
BRANCH  11  12
HETATM   12  C   UNL     1     -12.219  11.019  70.437  1.00  0.00    -0.461 C  
BRANCH  12  13
HETATM   13  C   UNL     1     -11.744  10.842  68.998  1.00  0.00    -0.357 C  
HETATM   14  C   UNL     1     -11.715  12.143  68.232  1.00  0.00    -0.342 C  
HETATM   15  O   UNL     1     -11.990  13.238  68.690  1.00  0.00    -0.339 OA 
HETATM   16  O   UNL     1     -11.326  11.962  66.948  1.00  0.00    -0.306 OA 
ENDBRANCH  12  13
ENDBRANCH  11  12
ENDBRANCH  10  11
ENDBRANCH   4  10
TORSDOF 4
ENDMDL
MODEL      128
REMARK 921   NORMALIZED FREE ENERGY PREDICTED BY IDOCK:   -3.61 KCAL/MOL
REMARK 922        TOTAL FREE ENERGY PREDICTED BY IDOCK:   -4.64 KCAL/MOL
REMARK 923 INTER-LIGAND FREE ENERGY PREDICTED BY IDOCK:   -4.25 KCAL/MOL
REMARK 924 INTRA-LIGAND FREE ENERGY PREDICTED BY IDOCK:   -0.39 KCAL/MOL
REMARK 927      BINDING AFFINITY PREDICTED BY RF-SCORE:    0.00 PKD
ROOT
HETATM    1  C   UNL     1     -10.091   5.835  71.316  1.00  0.00    -0.201 C  
HETATM    2  C   UNL     1      -9.817   4.458  70.753  1.00  0.00    -0.203 C  
HETATM    3  S   UNL     1      -9.620   4.642  68.966  1.00  0.00    -0.174 SA 
HETATM    4  C   UNL     1      -9.549   6.478  68.960  1.00  0.00    -0.132 C  
HETATM    5  C   UNL     1      -9.427   6.905  70.447  1.00  0.00    -0.169 C  
HETATM    6  O   UNL     1     -12.433   8.399  71.410  1.00  0.00    -0.303 OA 
HETATM    7  C   UNL     1     -11.482   7.668  71.216  1.00  0.00    -0.269 C  
HETATM    8  N   UNL     1     -10.212   8.062  70.811  1.00  0.00    -0.193 NA 
HETATM    9  N   UNL     1     -11.464   6.284  71.348  1.00  0.00    -0.301 NA 
ENDROOT
BRANCH   4  10
HETATM   10  C   UNL     1     -10.746   6.986  68.126  1.00  0.00    -0.242 C  
BRANCH  10  11
HETATM   11  C   UNL     1     -10.404   7.894  66.931  1.00  0.00    -0.400 C  
BRANCH  11  12
HETATM   12  C   UNL     1      -9.798   9.249  67.299  1.00  0.00    -0.236 C  
BRANCH  12  13
HETATM   13  C   UNL     1     -10.864  10.235  67.770  1.00  0.00    -0.346 C  
HETATM   14  C   UNL     1     -11.151  11.310  66.749  1.00  0.00    -0.250 C  
HETATM   15  O   UNL     1     -10.643  11.388  65.644  1.00  0.00    -0.255 OA 
HETATM   16  O   UNL     1     -12.071  12.196  67.197  1.00  0.00    -0.575 OA 
ENDBRANCH  12  13
ENDBRANCH  11  12
ENDBRANCH  10  11
ENDBRANCH   4  10
TORSDOF 4
ENDMDL
MODEL      129
REMARK 921   NORMALIZED FREE ENERGY PREDICTED BY IDOCK:   -3.61 KCAL/MOL
REMARK 922        TOTAL FREE ENERGY PREDICTED BY IDOCK:   -4.63 KCAL/MOL
REMARK 923 INTER-LIGAND FREE ENERGY PREDICTED BY IDOCK:   -4.11 KCAL/MOL
REMARK 924 INTRA-LIGAND FREE ENERGY PREDICTED BY IDOCK:   -0.52 KCAL/MOL
REMARK 927      BINDING AFFINITY PREDICTED BY RF-SCORE:    0.00 PKD
ROOT
HETATM    1  C   UNL     1     -11.402  10.092  70.786  1.00  0.00    -0.354 C  
HETATM    2  C   UNL     1     -12.848  10.343  71.151  1.00  0.00    -0.414 C  
HETATM    3  S   UNL     1     -13.437   8.882  72.038  1.00  0.00    -0.463 SA 
HETATM    4  C   UNL     1     -11.789   8.096  72.245  1.00  0.00    -0.382 C  
HETATM    5  C   UNL     1     -10.749   9.165  71.814  1.00  0.00    -0.335 C  
HETATM    6  O   UNL     1      -9.322   8.152  68.793  1.00  0.00    -0.144 OA 
HETATM    7  C   UNL     1      -9.957   8.676  69.686  1.00  0.00    -0.191 C  
HETATM    8  N   UNL     1      -9.642   8.654  71.040  1.00  0.00    -0.191 NA 
HETATM    9  N   UNL     1     -11.136   9.399  69.546  1.00  0.00    -0.169 NA 
ENDROOT
BRANCH   4  10
HETATM   10  C   UNL     1     -11.826   6.740  71.507  1.00  0.00    -0.378 C  
BRANCH  10  11
HETATM   11  C   UNL     1     -11.364   5.514  72.315  1.00  0.00    -0.257 C  
BRANCH  11  12
HETATM   12  C   UNL     1      -9.998   4.954  71.917  1.00  0.00    -0.250 C  
BRANCH  12  13
HETATM   13  C   UNL     1      -9.910   4.692  70.416  1.00  0.00    -0.306 C  
HETATM   14  C   UNL     1      -8.575   5.093  69.835  1.00  0.00    -0.100 C  
HETATM   15  O   UNL     1      -7.633   5.537  70.468  1.00  0.00    -0.080 OA 
HETATM   16  O   UNL     1      -8.527   4.889  68.497  1.00  0.00    -0.094 OA 
ENDBRANCH  12  13
ENDBRANCH  11  12
ENDBRANCH  10  11
ENDBRANCH   4  10
TORSDOF 4
ENDMDL
MODEL      130
REMARK 921   NORMALIZED FREE ENERGY PREDICTED BY IDOCK:   -3.60 KCAL/MOL
REMARK 922        TOTAL FREE ENERGY PREDICTED BY IDOCK:   -4.62 KCAL/MOL
REMARK 923 INTER-LIGAND FREE ENERGY PREDICTED BY IDOCK:   -4.43 KCAL/MOL
REMARK 924 INTRA-LIGAND FREE ENERGY PREDICTED BY IDOCK:   -0.19 KCAL/MOL
REMARK 927      BINDING AFFINITY PREDICTED BY RF-SCORE:    0.00 PKD
ROOT
HETATM    1  C   UNL     1     -11.356  14.710  66.157  1.00  0.00    -0.350 C  
HETATM    2  C   UNL     1     -10.943  15.156  67.541  1.00  0.00    -0.310 C  
HETATM    3  S   UNL     1      -9.897  13.853  68.232  1.00  0.00    -0.232 SA 
HETATM    4  C   UNL     1      -9.702  12.904  66.672  1.00  0.00    -0.254 C  
HETATM    5  C   UNL     1     -10.281  13.805  65.549  1.00  0.00    -0.316 C  
HETATM    6  O   UNL     1     -13.265  12.380  64.426  1.00  0.00    -0.816 OA 
HETATM    7  C   UNL     1     -12.393  13.048  64.944  1.00  0.00    -0.459 C  
HETATM    8  N   UNL     1     -11.060  13.106  64.553  1.00  0.00    -0.338 NA 
HETATM    9  N   UNL     1     -12.539  13.887  66.043  1.00  0.00    -0.458 NA 
ENDROOT
BRANCH   4  10
HETATM   10  C   UNL     1     -10.310  11.503  66.901  1.00  0.00    -0.258 C  
BRANCH  10  11
HETATM   11  C   UNL     1     -10.171  10.926  68.321  1.00  0.00    -0.191 C  
BRANCH  11  12
HETATM   12  C   UNL     1      -9.318   9.662  68.426  1.00  0.00    -0.136 C  
BRANCH  12  13
HETATM   13  C   UNL     1      -7.995   9.808  67.679  1.00  0.00    -0.105 C  
HETATM   14  C   UNL     1      -7.073  10.815  68.324  1.00  0.00    -0.078 C  
HETATM   15  O   UNL     1      -7.304  11.427  69.352  1.00  0.00    -0.085 OA 
HETATM   16  O   UNL     1      -5.921  10.959  67.629  1.00  0.00    -0.043 OA 
ENDBRANCH  12  13
ENDBRANCH  11  12
ENDBRANCH  10  11
ENDBRANCH   4  10
TORSDOF 4
ENDMDL
MODEL      131
REMARK 921   NORMALIZED FREE ENERGY PREDICTED BY IDOCK:   -3.59 KCAL/MOL
REMARK 922        TOTAL FREE ENERGY PREDICTED BY IDOCK:   -4.60 KCAL/MOL
REMARK 923 INTER-LIGAND FREE ENERGY PREDICTED BY IDOCK:   -4.03 KCAL/MOL
REMARK 924 INTRA-LIGAND FREE ENERGY PREDICTED BY IDOCK:   -0.57 KCAL/MOL
REMARK 927      BINDING AFFINITY PREDICTED BY RF-SCORE:    0.00 PKD
ROOT
HETATM    1  C   UNL     1      -9.097  16.846  68.613  1.00  0.00    -0.265 C  
HETATM    2  C   UNL     1     -10.443  17.533  68.651  1.00  0.00    -0.338 C  
HETATM    3  S   UNL     1     -11.639  16.331  69.277  1.00  0.00    -0.100 SA 
HETATM    4  C   UNL     1     -10.404  15.077  69.804  1.00  0.00    -0.155 C  
HETATM    5  C   UNL     1      -9.020  15.769  69.698  1.00  0.00    -0.084 C  
HETATM    6  O   UNL     1      -7.281  14.346  67.025  1.00  0.00    -0.057 OA 
HETATM    7  C   UNL     1      -7.924  15.046  67.781  1.00  0.00    -0.143 C  
HETATM    8  N   UNL     1      -7.965  14.937  69.166  1.00  0.00    -0.170 NA 
HETATM    9  N   UNL     1      -8.761  16.096  67.423  1.00  0.00    -0.177 NA 
ENDROOT
BRANCH   4  10
HETATM   10  C   UNL     1     -10.668  13.793  68.986  1.00  0.00    -0.209 C  
BRANCH  10  11
HETATM   11  C   UNL     1     -11.845  13.848  67.996  1.00  0.00    -0.411 C  
BRANCH  11  12
HETATM   12  C   UNL     1     -11.461  13.686  66.525  1.00  0.00    -0.357 C  
BRANCH  12  13
HETATM   13  C   UNL     1     -12.060  14.793  65.660  1.00  0.00    -0.114 C  
HETATM   14  C   UNL     1     -11.068  15.355  64.670  1.00  0.00    -0.347 C  
HETATM   15  O   UNL     1      -9.924  14.965  64.517  1.00  0.00    -0.010 OA 
HETATM   16  O   UNL     1     -11.604  16.359  63.937  1.00  0.00    -1.100 OA 
ENDBRANCH  12  13
ENDBRANCH  11  12
ENDBRANCH  10  11
ENDBRANCH   4  10
TORSDOF 4
ENDMDL
MODEL      132
REMARK 921   NORMALIZED FREE ENERGY PREDICTED BY IDOCK:   -3.58 KCAL/MOL
REMARK 922        TOTAL FREE ENERGY PREDICTED BY IDOCK:   -4.60 KCAL/MOL
REMARK 923 INTER-LIGAND FREE ENERGY PREDICTED BY IDOCK:   -4.32 KCAL/MOL
REMARK 924 INTRA-LIGAND FREE ENERGY PREDICTED BY IDOCK:   -0.28 KCAL/MOL
REMARK 927      BINDING AFFINITY PREDICTED BY RF-SCORE:    0.00 PKD
ROOT
HETATM    1  C   UNL     1      -8.272  10.544  65.399  1.00  0.00    -0.152 C  
HETATM    2  C   UNL     1      -7.421   9.346  65.754  1.00  0.00    -0.099 C  
HETATM    3  S   UNL     1      -8.446   8.237  66.747  1.00  0.00    -0.125 SA 
HETATM    4  C   UNL     1     -10.035   9.107  66.443  1.00  0.00    -0.288 C  
HETATM    5  C   UNL     1      -9.747  10.142  65.322  1.00  0.00    -0.300 C  
HETATM    6  O   UNL     1      -9.855  13.337  66.725  1.00  0.00    -0.249 OA 
HETATM    7  C   UNL     1      -9.549  12.264  66.246  1.00  0.00    -0.242 C  
HETATM    8  N   UNL     1     -10.379  11.427  65.509  1.00  0.00    -0.256 NA 
HETATM    9  N   UNL     1      -8.310  11.641  66.339  1.00  0.00    -0.132 NA 
ENDROOT
BRANCH   4  10
HETATM   10  C   UNL     1     -10.563   9.602  67.808  1.00  0.00    -0.320 C  
BRANCH  10  11
HETATM   11  C   UNL     1     -10.343   8.659  69.004  1.00  0.00    -0.226 C  
BRANCH  11  12
HETATM   12  C   UNL     1     -10.157   9.355  70.352  1.00  0.00    -0.310 C  
BRANCH  12  13
HETATM   13  C   UNL     1     -11.301  10.321  70.652  1.00  0.00    -0.431 C  
HETATM   14  C   UNL     1     -12.278   9.767  71.662  1.00  0.00    -0.404 C  
HETATM   15  O   UNL     1     -12.173   8.694  72.230  1.00  0.00    -0.362 OA 
HETATM   16  O   UNL     1     -13.304  10.620  71.888  1.00  0.00    -0.424 OA 
ENDBRANCH  12  13
ENDBRANCH  11  12
ENDBRANCH  10  11
ENDBRANCH   4  10
TORSDOF 4
ENDMDL
MODEL      133
REMARK 921   NORMALIZED FREE ENERGY PREDICTED BY IDOCK:   -3.58 KCAL/MOL
REMARK 922        TOTAL FREE ENERGY PREDICTED BY IDOCK:   -4.60 KCAL/MOL
REMARK 923 INTER-LIGAND FREE ENERGY PREDICTED BY IDOCK:   -4.17 KCAL/MOL
REMARK 924 INTRA-LIGAND FREE ENERGY PREDICTED BY IDOCK:   -0.43 KCAL/MOL
REMARK 927      BINDING AFFINITY PREDICTED BY RF-SCORE:    0.00 PKD
ROOT
HETATM    1  C   UNL     1     -11.782  14.485  67.614  1.00  0.00    -0.382 C  
HETATM    2  C   UNL     1     -10.985  15.670  67.114  1.00  0.00    -0.270 C  
HETATM    3  S   UNL     1      -9.527  15.015  66.269  1.00  0.00    -0.314 SA 
HETATM    4  C   UNL     1     -10.078  13.263  66.248  1.00  0.00    -0.294 C  
HETATM    5  C   UNL     1     -11.563  13.276  66.701  1.00  0.00    -0.365 C  
HETATM    6  O   UNL     1     -11.752  11.858  69.886  1.00  0.00    -0.310 OA 
HETATM    7  C   UNL     1     -11.716  12.584  68.914  1.00  0.00    -0.322 C  
HETATM    8  N   UNL     1     -11.933  12.203  67.594  1.00  0.00    -0.543 NA 
HETATM    9  N   UNL     1     -11.439  13.947  68.911  1.00  0.00    -0.279 NA 
ENDROOT
BRANCH   4  10
HETATM   10  C   UNL     1      -9.051  12.443  67.060  1.00  0.00    -0.207 C  
BRANCH  10  11
HETATM   11  C   UNL     1      -8.514  11.168  66.386  1.00  0.00    -0.167 C  
BRANCH  11  12
HETATM   12  C   UNL     1      -8.745   9.875  67.170  1.00  0.00    -0.136 C  
BRANCH  12  13
HETATM   13  C   UNL     1      -8.942  10.145  68.659  1.00  0.00    -0.136 C  
HETATM   14  C   UNL     1      -7.901   9.463  69.514  1.00  0.00    -0.091 C  
HETATM   15  O   UNL     1      -6.966   8.802  69.096  1.00  0.00    -0.057 OA 
HETATM   16  O   UNL     1      -8.112   9.682  70.833  1.00  0.00    -0.293 OA 
ENDBRANCH  12  13
ENDBRANCH  11  12
ENDBRANCH  10  11
ENDBRANCH   4  10
TORSDOF 4
ENDMDL
MODEL      134
REMARK 921   NORMALIZED FREE ENERGY PREDICTED BY IDOCK:   -3.57 KCAL/MOL
REMARK 922        TOTAL FREE ENERGY PREDICTED BY IDOCK:   -4.58 KCAL/MOL
REMARK 923 INTER-LIGAND FREE ENERGY PREDICTED BY IDOCK:   -4.46 KCAL/MOL
REMARK 924 INTRA-LIGAND FREE ENERGY PREDICTED BY IDOCK:   -0.11 KCAL/MOL
REMARK 927      BINDING AFFINITY PREDICTED BY RF-SCORE:    0.00 PKD
ROOT
HETATM    1  C   UNL     1      -8.986  17.500  68.277  1.00  0.00    -0.267 C  
HETATM    2  C   UNL     1     -10.359  17.435  68.906  1.00  0.00    -0.340 C  
HETATM    3  S   UNL     1     -11.280  16.139  68.046  1.00  0.00    -0.235 SA 
HETATM    4  C   UNL     1      -9.847  15.452  67.125  1.00  0.00    -0.221 C  
HETATM    5  C   UNL     1      -8.587  16.126  67.732  1.00  0.00    -0.167 C  
HETATM    6  O   UNL     1      -7.282  18.341  65.369  1.00  0.00    -0.541 OA 
HETATM    7  C   UNL     1      -7.828  17.798  66.308  1.00  0.00    -0.264 C  
HETATM    8  N   UNL     1      -7.582  16.509  66.767  1.00  0.00    -0.235 NA 
HETATM    9  N   UNL     1      -8.821  18.342  67.114  1.00  0.00    -0.259 NA 
ENDROOT
BRANCH   4  10
HETATM   10  C   UNL     1     -10.139  15.620  65.618  1.00  0.00    -0.395 C  
BRANCH  10  11
HETATM   11  C   UNL     1     -10.420  14.327  64.832  1.00  0.00    -0.454 C  
BRANCH  11  12
HETATM   12  C   UNL     1     -10.654  13.085  65.692  1.00  0.00    -0.297 C  
BRANCH  12  13
HETATM   13  C   UNL     1      -9.346  12.366  66.014  1.00  0.00    -0.116 C  
HETATM   14  C   UNL     1      -9.285  10.979  65.418  1.00  0.00    -0.210 C  
HETATM   15  O   UNL     1     -10.143  10.474  64.716  1.00  0.00    -0.318 OA 
HETATM   16  O   UNL     1      -8.136  10.343  65.744  1.00  0.00    -0.144 OA 
ENDBRANCH  12  13
ENDBRANCH  11  12
ENDBRANCH  10  11
ENDBRANCH   4  10
TORSDOF 4
ENDMDL
MODEL      135
REMARK 921   NORMALIZED FREE ENERGY PREDICTED BY IDOCK:   -3.56 KCAL/MOL
REMARK 922        TOTAL FREE ENERGY PREDICTED BY IDOCK:   -4.56 KCAL/MOL
REMARK 923 INTER-LIGAND FREE ENERGY PREDICTED BY IDOCK:   -4.70 KCAL/MOL
REMARK 924 INTRA-LIGAND FREE ENERGY PREDICTED BY IDOCK:    0.14 KCAL/MOL
REMARK 927      BINDING AFFINITY PREDICTED BY RF-SCORE:    0.00 PKD
ROOT
HETATM    1  C   UNL     1     -10.727   5.919  69.121  1.00  0.00    -0.324 C  
HETATM    2  C   UNL     1     -11.047   6.261  67.683  1.00  0.00    -0.266 C  
HETATM    3  S   UNL     1     -10.375   7.908  67.363  1.00  0.00    -0.293 SA 
HETATM    4  C   UNL     1      -9.407   8.035  68.919  1.00  0.00    -0.150 C  
HETATM    5  C   UNL     1      -9.440   6.622  69.559  1.00  0.00    -0.147 C  
HETATM    6  O   UNL     1     -11.444   6.754  72.416  1.00  0.00    -0.268 OA 
HETATM    7  C   UNL     1     -10.963   6.587  71.313  1.00  0.00    -0.262 C  
HETATM    8  N   UNL     1      -9.611   6.610  70.993  1.00  0.00    -0.171 NA 
HETATM    9  N   UNL     1     -11.663   6.349  70.135  1.00  0.00    -0.398 NA 
ENDROOT
BRANCH   4  10
HETATM   10  C   UNL     1      -9.965   9.235  69.717  1.00  0.00    -0.213 C  
BRANCH  10  11
HETATM   11  C   UNL     1     -10.925  10.168  68.957  1.00  0.00    -0.265 C  
BRANCH  11  12
HETATM   12  C   UNL     1     -11.900  10.950  69.838  1.00  0.00    -0.427 C  
BRANCH  12  13
HETATM   13  C   UNL     1     -11.740  12.458  69.658  1.00  0.00    -0.377 C  
HETATM   14  C   UNL     1     -11.903  12.890  68.220  1.00  0.00    -0.330 C  
HETATM   15  O   UNL     1     -12.177  12.155  67.288  1.00  0.00    -0.496 OA 
HETATM   16  O   UNL     1     -11.722  14.224  68.073  1.00  0.00    -0.315 OA 
ENDBRANCH  12  13
ENDBRANCH  11  12
ENDBRANCH  10  11
ENDBRANCH   4  10
TORSDOF 4
ENDMDL
MODEL      136
REMARK 921   NORMALIZED FREE ENERGY PREDICTED BY IDOCK:   -3.55 KCAL/MOL
REMARK 922        TOTAL FREE ENERGY PREDICTED BY IDOCK:   -4.55 KCAL/MOL
REMARK 923 INTER-LIGAND FREE ENERGY PREDICTED BY IDOCK:   -4.12 KCAL/MOL
REMARK 924 INTRA-LIGAND FREE ENERGY PREDICTED BY IDOCK:   -0.43 KCAL/MOL
REMARK 927      BINDING AFFINITY PREDICTED BY RF-SCORE:    0.00 PKD
ROOT
HETATM    1  C   UNL     1      -8.878   6.604  68.328  1.00  0.00    -0.124 C  
HETATM    2  C   UNL     1      -8.136   5.982  69.490  1.00  0.00    -0.107 C  
HETATM    3  S   UNL     1      -9.378   5.419  70.677  1.00  0.00    -0.167 SA 
HETATM    4  C   UNL     1     -10.830   5.659  69.577  1.00  0.00    -0.274 C  
HETATM    5  C   UNL     1     -10.253   5.951  68.166  1.00  0.00    -0.184 C  
HETATM    6  O   UNL     1     -10.859   9.304  67.403  1.00  0.00    -0.255 OA 
HETATM    7  C   UNL     1     -10.396   8.225  67.713  1.00  0.00    -0.234 C  
HETATM    8  N   UNL     1     -10.947   6.981  67.429  1.00  0.00    -0.289 NA 
HETATM    9  N   UNL     1      -9.223   8.004  68.426  1.00  0.00    -0.135 NA 
ENDROOT
BRANCH   4  10
HETATM   10  C   UNL     1     -11.751   6.704  70.244  1.00  0.00    -0.432 C  
BRANCH  10  11
HETATM   11  C   UNL     1     -11.856   6.635  71.778  1.00  0.00    -0.380 C  
BRANCH  11  12
HETATM   12  C   UNL     1     -11.515   7.934  72.510  1.00  0.00    -0.455 C  
BRANCH  12  13
HETATM   13  C   UNL     1     -10.564   8.807  71.697  1.00  0.00    -0.401 C  
HETATM   14  C   UNL     1      -9.124   8.649  72.124  1.00  0.00    -0.231 C  
HETATM   15  O   UNL     1      -8.722   7.886  72.984  1.00  0.00    -0.159 OA 
HETATM   16  O   UNL     1      -8.299   9.458  71.418  1.00  0.00    -0.295 OA 
ENDBRANCH  12  13
ENDBRANCH  11  12
ENDBRANCH  10  11
ENDBRANCH   4  10
TORSDOF 4
ENDMDL
MODEL      137
REMARK 921   NORMALIZED FREE ENERGY PREDICTED BY IDOCK:   -3.54 KCAL/MOL
REMARK 922        TOTAL FREE ENERGY PREDICTED BY IDOCK:   -4.55 KCAL/MOL
REMARK 923 INTER-LIGAND FREE ENERGY PREDICTED BY IDOCK:   -4.31 KCAL/MOL
REMARK 924 INTRA-LIGAND FREE ENERGY PREDICTED BY IDOCK:   -0.24 KCAL/MOL
REMARK 927      BINDING AFFINITY PREDICTED BY RF-SCORE:    0.00 PKD
ROOT
HETATM    1  C   UNL     1      -9.055  17.845  68.143  1.00  0.00    -0.278 C  
HETATM    2  C   UNL     1     -10.559  17.693  68.148  1.00  0.00    -0.356 C  
HETATM    3  S   UNL     1     -10.919  15.928  68.006  1.00  0.00    -0.330 SA 
HETATM    4  C   UNL     1      -9.196  15.350  68.274  1.00  0.00    -0.188 C  
HETATM    5  C   UNL     1      -8.394  16.597  68.734  1.00  0.00    -0.252 C  
HETATM    6  O   UNL     1      -6.221  17.516  66.161  1.00  0.00    -0.211 OA 
HETATM    7  C   UNL     1      -7.122  17.409  66.968  1.00  0.00    -0.183 C  
HETATM    8  N   UNL     1      -7.070  16.708  68.168  1.00  0.00    -0.149 NA 
HETATM    9  N   UNL     1      -8.397  17.952  66.861  1.00  0.00    -0.235 NA 
ENDROOT
BRANCH   4  10
HETATM   10  C   UNL     1      -8.754  14.599  66.999  1.00  0.00    -0.258 C  
BRANCH  10  11
HETATM   11  C   UNL     1      -9.769  13.604  66.410  1.00  0.00    -0.300 C  
BRANCH  11  12
HETATM   12  C   UNL     1      -9.555  12.145  66.814  1.00  0.00    -0.216 C  
BRANCH  12  13
HETATM   13  C   UNL     1      -9.772  11.935  68.310  1.00  0.00    -0.200 C  
HETATM   14  C   UNL     1     -11.201  11.580  68.644  1.00  0.00    -0.248 C  
HETATM   15  O   UNL     1     -12.098  11.424  67.834  1.00  0.00    -0.646 OA 
HETATM   16  O   UNL     1     -11.384  11.433  69.978  1.00  0.00    -0.260 OA 
ENDBRANCH  12  13
ENDBRANCH  11  12
ENDBRANCH  10  11
ENDBRANCH   4  10
TORSDOF 4
ENDMDL
MODEL      138
REMARK 921   NORMALIZED FREE ENERGY PREDICTED BY IDOCK:   -3.53 KCAL/MOL
REMARK 922        TOTAL FREE ENERGY PREDICTED BY IDOCK:   -4.53 KCAL/MOL
REMARK 923 INTER-LIGAND FREE ENERGY PREDICTED BY IDOCK:   -4.29 KCAL/MOL
REMARK 924 INTRA-LIGAND FREE ENERGY PREDICTED BY IDOCK:   -0.24 KCAL/MOL
REMARK 927      BINDING AFFINITY PREDICTED BY RF-SCORE:    0.00 PKD
ROOT
HETATM    1  C   UNL     1     -12.160  14.461  64.508  1.00  0.00    -0.481 C  
HETATM    2  C   UNL     1     -12.161  13.474  63.362  1.00  0.00    -0.289 C  
HETATM    3  S   UNL     1     -11.762  11.852  64.054  1.00  0.00    -0.358 SA 
HETATM    4  C   UNL     1     -11.921  12.342  65.817  1.00  0.00    -0.372 C  
HETATM    5  C   UNL     1     -12.551  13.761  65.812  1.00  0.00    -0.480 C  
HETATM    6  O   UNL     1     -10.116  16.049  66.825  1.00  0.00    -0.253 OA 
HETATM    7  C   UNL     1     -10.910  15.352  66.226  1.00  0.00    -0.301 C  
HETATM    8  N   UNL     1     -11.991  14.676  66.779  1.00  0.00    -0.338 NA 
HETATM    9  N   UNL     1     -10.900  15.073  64.864  1.00  0.00    -0.412 NA 
ENDROOT
BRANCH   4  10
HETATM   10  C   UNL     1     -10.542  12.134  66.483  1.00  0.00    -0.269 C  
BRANCH  10  11
HETATM   11  C   UNL     1      -9.752  10.892  66.034  1.00  0.00    -0.268 C  
BRANCH  11  12
HETATM   12  C   UNL     1      -8.400  10.701  66.722  1.00  0.00    -0.132 C  
BRANCH  12  13
HETATM   13  C   UNL     1      -7.484  11.904  66.510  1.00  0.00     0.158 C  
HETATM   14  C   UNL     1      -6.325  11.928  67.478  1.00  0.00    -0.105 C  
HETATM   15  O   UNL     1      -6.089  11.077  68.318  1.00  0.00    -0.049 OA 
HETATM   16  O   UNL     1      -5.544  13.019  67.301  1.00  0.00    -0.338 OA 
ENDBRANCH  12  13
ENDBRANCH  11  12
ENDBRANCH  10  11
ENDBRANCH   4  10
TORSDOF 4
ENDMDL
MODEL      139
REMARK 921   NORMALIZED FREE ENERGY PREDICTED BY IDOCK:   -3.52 KCAL/MOL
REMARK 922        TOTAL FREE ENERGY PREDICTED BY IDOCK:   -4.53 KCAL/MOL
REMARK 923 INTER-LIGAND FREE ENERGY PREDICTED BY IDOCK:   -4.34 KCAL/MOL
REMARK 924 INTRA-LIGAND FREE ENERGY PREDICTED BY IDOCK:   -0.19 KCAL/MOL
REMARK 927      BINDING AFFINITY PREDICTED BY RF-SCORE:    0.00 PKD
ROOT
HETATM    1  C   UNL     1     -10.145  14.631  66.098  1.00  0.00    -0.300 C  
HETATM    2  C   UNL     1     -11.047  14.365  64.914  1.00  0.00    -0.398 C  
HETATM    3  S   UNL     1     -12.418  13.345  65.505  1.00  0.00    -0.467 SA 
HETATM    4  C   UNL     1     -12.045  13.525  67.294  1.00  0.00    -0.323 C  
HETATM    5  C   UNL     1     -10.958  14.629  67.395  1.00  0.00    -0.308 C  
HETATM    6  O   UNL     1      -7.948  13.125  68.329  1.00  0.00    -0.136 OA 
HETATM    7  C   UNL     1      -8.880  13.655  67.758  1.00  0.00    -0.190 C  
HETATM    8  N   UNL     1      -9.914  14.365  68.358  1.00  0.00    -0.235 NA 
HETATM    9  N   UNL     1      -9.117  13.657  66.388  1.00  0.00    -0.123 NA 
ENDROOT
BRANCH   4  10
HETATM   10  C   UNL     1     -11.740  12.116  67.850  1.00  0.00    -0.403 C  
BRANCH  10  11
HETATM   11  C   UNL     1     -11.984  11.913  69.356  1.00  0.00    -0.350 C  
BRANCH  11  12
HETATM   12  C   UNL     1     -11.798  10.479  69.853  1.00  0.00    -0.358 C  
BRANCH  12  13
HETATM   13  C   UNL     1     -10.980   9.642  68.874  1.00  0.00    -0.153 C  
HETATM   14  C   UNL     1     -10.605   8.292  69.437  1.00  0.00    -0.196 C  
HETATM   15  O   UNL     1     -10.939   7.865  70.529  1.00  0.00    -0.242 OA 
HETATM   16  O   UNL     1      -9.850   7.577  68.570  1.00  0.00    -0.157 OA 
ENDBRANCH  12  13
ENDBRANCH  11  12
ENDBRANCH  10  11
ENDBRANCH   4  10
TORSDOF 4
ENDMDL
MODEL      140
REMARK 921   NORMALIZED FREE ENERGY PREDICTED BY IDOCK:   -3.52 KCAL/MOL
REMARK 922        TOTAL FREE ENERGY PREDICTED BY IDOCK:   -4.53 KCAL/MOL
REMARK 923 INTER-LIGAND FREE ENERGY PREDICTED BY IDOCK:   -4.27 KCAL/MOL
REMARK 924 INTRA-LIGAND FREE ENERGY PREDICTED BY IDOCK:   -0.26 KCAL/MOL
REMARK 927      BINDING AFFINITY PREDICTED BY RF-SCORE:    0.00 PKD
ROOT
HETATM    1  C   UNL     1     -11.381  15.371  67.408  1.00  0.00    -0.243 C  
HETATM    2  C   UNL     1     -10.910  16.031  68.684  1.00  0.00    -0.301 C  
HETATM    3  S   UNL     1      -9.271  15.368  69.057  1.00  0.00    -0.250 SA 
HETATM    4  C   UNL     1      -9.029  14.515  67.447  1.00  0.00    -0.200 C  
HETATM    5  C   UNL     1     -10.183  15.002  66.529  1.00  0.00    -0.275 C  
HETATM    6  O   UNL     1     -12.392  12.342  66.039  1.00  0.00    -0.627 OA 
HETATM    7  C   UNL     1     -11.815  13.356  66.380  1.00  0.00    -0.396 C  
HETATM    8  N   UNL     1     -10.772  13.975  65.702  1.00  0.00    -0.293 NA 
HETATM    9  N   UNL     1     -12.068  14.105  67.524  1.00  0.00    -0.380 NA 
ENDROOT
BRANCH   4  10
HETATM   10  C   UNL     1      -8.885  13.005  67.738  1.00  0.00    -0.188 C  
BRANCH  10  11
HETATM   11  C   UNL     1      -7.471  12.516  68.101  1.00  0.00    -0.117 C  
BRANCH  11  12
HETATM   12  C   UNL     1      -7.424  11.233  68.932  1.00  0.00    -0.123 C  
BRANCH  12  13
HETATM   13  C   UNL     1      -8.781  10.538  68.977  1.00  0.00    -0.160 C  
HETATM   14  C   UNL     1      -8.925   9.622  70.170  1.00  0.00    -0.236 C  
HETATM   15  O   UNL     1      -8.091   9.466  71.044  1.00  0.00    -0.300 OA 
HETATM   16  O   UNL     1     -10.120   8.986  70.174  1.00  0.00    -0.177 OA 
ENDBRANCH  12  13
ENDBRANCH  11  12
ENDBRANCH  10  11
ENDBRANCH   4  10
TORSDOF 4
ENDMDL
MODEL      141
REMARK 921   NORMALIZED FREE ENERGY PREDICTED BY IDOCK:   -3.52 KCAL/MOL
REMARK 922        TOTAL FREE ENERGY PREDICTED BY IDOCK:   -4.52 KCAL/MOL
REMARK 923 INTER-LIGAND FREE ENERGY PREDICTED BY IDOCK:   -4.31 KCAL/MOL
REMARK 924 INTRA-LIGAND FREE ENERGY PREDICTED BY IDOCK:   -0.21 KCAL/MOL
REMARK 927      BINDING AFFINITY PREDICTED BY RF-SCORE:    0.00 PKD
ROOT
HETATM    1  C   UNL     1     -10.604  14.620  68.292  1.00  0.00    -0.235 C  
HETATM    2  C   UNL     1     -11.530  13.834  69.194  1.00  0.00    -0.298 C  
HETATM    3  S   UNL     1     -11.358  12.091  68.748  1.00  0.00    -0.304 SA 
HETATM    4  C   UNL     1      -9.890  12.305  67.665  1.00  0.00    -0.196 C  
HETATM    5  C   UNL     1      -9.403  13.761  67.889  1.00  0.00    -0.211 C  
HETATM    6  O   UNL     1     -10.082  15.603  65.001  1.00  0.00    -0.398 OA 
HETATM    7  C   UNL     1     -10.062  15.094  66.104  1.00  0.00    -0.295 C  
HETATM    8  N   UNL     1      -8.980  14.449  66.692  1.00  0.00    -0.238 NA 
HETATM    9  N   UNL     1     -11.117  15.038  67.007  1.00  0.00    -0.330 NA 
ENDROOT
BRANCH   4  10
HETATM   10  C   UNL     1     -10.292  11.856  66.243  1.00  0.00    -0.259 C  
BRANCH  10  11
HETATM   11  C   UNL     1      -9.837  10.448  65.821  1.00  0.00    -0.300 C  
BRANCH  11  12
HETATM   12  C   UNL     1      -9.515   9.498  66.975  1.00  0.00    -0.197 C  
BRANCH  12  13
HETATM   13  C   UNL     1     -10.385   8.245  66.935  1.00  0.00    -0.391 C  
HETATM   14  C   UNL     1     -10.441   7.535  68.267  1.00  0.00    -0.180 C  
HETATM   15  O   UNL     1      -9.904   7.915  69.292  1.00  0.00    -0.171 OA 
HETATM   16  O   UNL     1     -11.187   6.407  68.204  1.00  0.00    -0.312 OA 
ENDBRANCH  12  13
ENDBRANCH  11  12
ENDBRANCH  10  11
ENDBRANCH   4  10
TORSDOF 4
ENDMDL
MODEL      142
REMARK 921   NORMALIZED FREE ENERGY PREDICTED BY IDOCK:   -3.52 KCAL/MOL
REMARK 922        TOTAL FREE ENERGY PREDICTED BY IDOCK:   -4.52 KCAL/MOL
REMARK 923 INTER-LIGAND FREE ENERGY PREDICTED BY IDOCK:   -4.26 KCAL/MOL
REMARK 924 INTRA-LIGAND FREE ENERGY PREDICTED BY IDOCK:   -0.27 KCAL/MOL
REMARK 927      BINDING AFFINITY PREDICTED BY RF-SCORE:    0.00 PKD
ROOT
HETATM    1  C   UNL     1     -11.363   6.890  71.033  1.00  0.00    -0.299 C  
HETATM    2  C   UNL     1     -10.898   6.258  69.741  1.00  0.00    -0.336 C  
HETATM    3  S   UNL     1     -10.515   7.604  68.596  1.00  0.00    -0.140 SA 
HETATM    4  C   UNL     1     -10.617   8.956  69.835  1.00  0.00    -0.221 C  
HETATM    5  C   UNL     1     -10.708   8.261  71.219  1.00  0.00    -0.227 C  
HETATM    6  O   UNL     1     -13.931   8.732  72.476  1.00  0.00    -0.428 OA 
HETATM    7  C   UNL     1     -12.900   8.318  71.986  1.00  0.00    -0.340 C  
HETATM    8  N   UNL     1     -11.635   8.871  72.144  1.00  0.00    -0.359 NA 
HETATM    9  N   UNL     1     -12.767   7.211  71.154  1.00  0.00    -0.358 NA 
ENDROOT
BRANCH   4  10
HETATM   10  C   UNL     1     -11.753   9.906  69.393  1.00  0.00     0.073 C  
BRANCH  10  11
HETATM   11  C   UNL     1     -11.480  11.412  69.553  1.00  0.00    -0.381 C  
BRANCH  11  12
HETATM   12  C   UNL     1     -11.554  12.224  68.260  1.00  0.00    -0.385 C  
BRANCH  12  13
HETATM   13  C   UNL     1     -11.115  11.402  67.050  1.00  0.00    -0.364 C  
HETATM   14  C   UNL     1      -9.616  11.234  66.976  1.00  0.00    -0.178 C  
HETATM   15  O   UNL     1      -8.817  11.653  67.795  1.00  0.00    -0.149 OA 
HETATM   16  O   UNL     1      -9.243  10.534  65.879  1.00  0.00    -0.166 OA 
ENDBRANCH  12  13
ENDBRANCH  11  12
ENDBRANCH  10  11
ENDBRANCH   4  10
TORSDOF 4
ENDMDL
MODEL      143
REMARK 921   NORMALIZED FREE ENERGY PREDICTED BY IDOCK:   -3.52 KCAL/MOL
REMARK 922        TOTAL FREE ENERGY PREDICTED BY IDOCK:   -4.52 KCAL/MOL
REMARK 923 INTER-LIGAND FREE ENERGY PREDICTED BY IDOCK:   -4.24 KCAL/MOL
REMARK 924 INTRA-LIGAND FREE ENERGY PREDICTED BY IDOCK:   -0.28 KCAL/MOL
REMARK 927      BINDING AFFINITY PREDICTED BY RF-SCORE:    0.00 PKD
ROOT
HETATM    1  C   UNL     1      -9.667  10.532  66.355  1.00  0.00    -0.198 C  
HETATM    2  C   UNL     1      -9.974  10.803  64.899  1.00  0.00    -0.312 C  
HETATM    3  S   UNL     1     -10.623  12.487  64.794  1.00  0.00    -0.321 SA 
HETATM    4  C   UNL     1     -10.203  12.971  66.516  1.00  0.00    -0.268 C  
HETATM    5  C   UNL     1      -9.304  11.835  67.072  1.00  0.00    -0.184 C  
HETATM    6  O   UNL     1     -11.121  10.072  69.477  1.00  0.00    -0.233 OA 
HETATM    7  C   UNL     1     -10.545  10.470  68.484  1.00  0.00    -0.206 C  
HETATM    8  N   UNL     1      -9.574  11.464  68.441  1.00  0.00    -0.192 NA 
HETATM    9  N   UNL     1     -10.739  10.026  67.182  1.00  0.00    -0.239 NA 
ENDROOT
BRANCH   4  10
HETATM   10  C   UNL     1     -11.526  13.307  67.240  1.00  0.00    -0.378 C  
BRANCH  10  11
HETATM   11  C   UNL     1     -11.681  14.756  67.735  1.00  0.00    -0.368 C  
BRANCH  11  12
HETATM   12  C   UNL     1     -10.369  15.489  68.014  1.00  0.00    -0.247 C  
BRANCH  12  13
HETATM   13  C   UNL     1     -10.067  16.535  66.944  1.00  0.00    -0.281 C  
HETATM   14  C   UNL     1      -8.650  17.052  67.023  1.00  0.00    -0.210 C  
HETATM   15  O   UNL     1      -7.801  16.669  67.808  1.00  0.00    -0.159 OA 
HETATM   16  O   UNL     1      -8.411  18.005  66.091  1.00  0.00    -0.440 OA 
ENDBRANCH  12  13
ENDBRANCH  11  12
ENDBRANCH  10  11
ENDBRANCH   4  10
TORSDOF 4
ENDMDL
MODEL      144
REMARK 921   NORMALIZED FREE ENERGY PREDICTED BY IDOCK:   -3.52 KCAL/MOL
REMARK 922        TOTAL FREE ENERGY PREDICTED BY IDOCK:   -4.52 KCAL/MOL
REMARK 923 INTER-LIGAND FREE ENERGY PREDICTED BY IDOCK:   -4.27 KCAL/MOL
REMARK 924 INTRA-LIGAND FREE ENERGY PREDICTED BY IDOCK:   -0.24 KCAL/MOL
REMARK 927      BINDING AFFINITY PREDICTED BY RF-SCORE:    0.00 PKD
ROOT
HETATM    1  C   UNL     1      -9.319  11.271  67.449  1.00  0.00    -0.162 C  
HETATM    2  C   UNL     1     -10.766  10.848  67.575  1.00  0.00    -0.252 C  
HETATM    3  S   UNL     1     -11.767  12.353  67.539  1.00  0.00    -0.308 SA 
HETATM    4  C   UNL     1     -10.411  13.484  67.034  1.00  0.00    -0.252 C  
HETATM    5  C   UNL     1      -9.215  12.572  66.650  1.00  0.00    -0.223 C  
HETATM    6  O   UNL     1      -6.739  12.922  69.087  1.00  0.00    -0.105 OA 
HETATM    7  C   UNL     1      -7.649  12.565  68.366  1.00  0.00    -0.129 C  
HETATM    8  N   UNL     1      -7.924  13.048  67.092  1.00  0.00    -0.134 NA 
HETATM    9  N   UNL     1      -8.612  11.608  68.663  1.00  0.00    -0.127 NA 
ENDROOT
BRANCH   4  10
HETATM   10  C   UNL     1     -10.231  14.526  68.161  1.00  0.00    -0.230 C  
BRANCH  10  11
HETATM   11  C   UNL     1     -11.088  15.799  68.051  1.00  0.00    -0.337 C  
BRANCH  11  12
HETATM   12  C   UNL     1     -10.366  17.099  68.406  1.00  0.00    -0.362 C  
BRANCH  12  13
HETATM   13  C   UNL     1     -10.865  18.271  67.565  1.00  0.00    -0.282 C  
HETATM   14  C   UNL     1     -10.053  18.472  66.308  1.00  0.00    -0.398 C  
HETATM   15  O   UNL     1      -9.125  17.769  65.948  1.00  0.00    -0.516 OA 
HETATM   16  O   UNL     1     -10.487  19.537  65.594  1.00  0.00    -0.456 OA 
ENDBRANCH  12  13
ENDBRANCH  11  12
ENDBRANCH  10  11
ENDBRANCH   4  10
TORSDOF 4
ENDMDL
MODEL      145
REMARK 921   NORMALIZED FREE ENERGY PREDICTED BY IDOCK:   -3.51 KCAL/MOL
REMARK 922        TOTAL FREE ENERGY PREDICTED BY IDOCK:   -4.50 KCAL/MOL
REMARK 923 INTER-LIGAND FREE ENERGY PREDICTED BY IDOCK:   -4.35 KCAL/MOL
REMARK 924 INTRA-LIGAND FREE ENERGY PREDICTED BY IDOCK:   -0.15 KCAL/MOL
REMARK 927      BINDING AFFINITY PREDICTED BY RF-SCORE:    0.00 PKD
ROOT
HETATM    1  C   UNL     1      -9.415   5.272  68.705  1.00  0.00    -0.128 C  
HETATM    2  C   UNL     1      -9.897   5.569  67.303  1.00  0.00    -0.150 C  
HETATM    3  S   UNL     1     -10.326   7.324  67.246  1.00  0.00    -0.311 SA 
HETATM    4  C   UNL     1      -9.592   7.762  68.872  1.00  0.00    -0.154 C  
HETATM    5  C   UNL     1      -8.778   6.519  69.322  1.00  0.00    -0.130 C  
HETATM    6  O   UNL     1     -10.433   5.041  72.019  1.00  0.00    -0.212 OA 
HETATM    7  C   UNL     1      -9.964   5.348  70.941  1.00  0.00    -0.202 C  
HETATM    8  N   UNL     1      -8.887   6.201  70.727  1.00  0.00    -0.139 NA 
HETATM    9  N   UNL     1     -10.409   4.922  69.695  1.00  0.00    -0.202 NA 
ENDROOT
BRANCH   4  10
HETATM   10  C   UNL     1     -10.735   8.280  69.773  1.00  0.00    -0.221 C  
BRANCH  10  11
HETATM   11  C   UNL     1     -11.093   9.770  69.627  1.00  0.00    -0.251 C  
BRANCH  11  12
HETATM   12  C   UNL     1     -11.546  10.456  70.916  1.00  0.00    -0.428 C  
BRANCH  12  13
HETATM   13  C   UNL     1     -12.985  10.094  71.273  1.00  0.00    -0.510 C  
HETATM   14  C   UNL     1     -13.068   8.959  72.267  1.00  0.00    -0.436 C  
HETATM   15  O   UNL     1     -12.115   8.401  72.782  1.00  0.00    -0.354 OA 
HETATM   16  O   UNL     1     -14.350   8.627  72.544  1.00  0.00    -0.523 OA 
ENDBRANCH  12  13
ENDBRANCH  11  12
ENDBRANCH  10  11
ENDBRANCH   4  10
TORSDOF 4
ENDMDL
MODEL      146
REMARK 921   NORMALIZED FREE ENERGY PREDICTED BY IDOCK:   -3.49 KCAL/MOL
REMARK 922        TOTAL FREE ENERGY PREDICTED BY IDOCK:   -4.49 KCAL/MOL
REMARK 923 INTER-LIGAND FREE ENERGY PREDICTED BY IDOCK:   -4.25 KCAL/MOL
REMARK 924 INTRA-LIGAND FREE ENERGY PREDICTED BY IDOCK:   -0.23 KCAL/MOL
REMARK 927      BINDING AFFINITY PREDICTED BY RF-SCORE:    0.00 PKD
ROOT
HETATM    1  C   UNL     1     -10.105  13.030  66.271  1.00  0.00    -0.282 C  
HETATM    2  C   UNL     1     -10.981  14.119  66.847  1.00  0.00    -0.300 C  
HETATM    3  S   UNL     1     -11.359  13.655  68.553  1.00  0.00    -0.314 SA 
HETATM    4  C   UNL     1     -10.156  12.271  68.655  1.00  0.00    -0.144 C  
HETATM    5  C   UNL     1      -9.278  12.373  67.379  1.00  0.00    -0.184 C  
HETATM    6  O   UNL     1     -10.078   9.701  65.278  1.00  0.00    -0.237 OA 
HETATM    7  C   UNL     1      -9.949  10.774  65.833  1.00  0.00    -0.250 C  
HETATM    8  N   UNL     1      -8.965  11.108  66.756  1.00  0.00    -0.160 NA 
HETATM    9  N   UNL     1     -10.762  11.890  65.672  1.00  0.00    -0.271 NA 
ENDROOT
BRANCH   4  10
HETATM   10  C   UNL     1     -10.958  10.976  68.915  1.00  0.00    -0.277 C  
BRANCH  10  11
HETATM   11  C   UNL     1     -10.581  10.186  70.180  1.00  0.00    -0.337 C  
BRANCH  11  12
HETATM   12  C   UNL     1     -11.594   9.123  70.606  1.00  0.00    -0.282 C  
BRANCH  12  13
HETATM   13  C   UNL     1     -11.515   8.833  72.102  1.00  0.00    -0.421 C  
HETATM   14  C   UNL     1     -10.653   7.634  72.416  1.00  0.00    -0.260 C  
HETATM   15  O   UNL     1     -10.037   6.973  71.599  1.00  0.00    -0.183 OA 
HETATM   16  O   UNL     1     -10.624   7.370  73.744  1.00  0.00    -0.349 OA 
ENDBRANCH  12  13
ENDBRANCH  11  12
ENDBRANCH  10  11
ENDBRANCH   4  10
TORSDOF 4
ENDMDL
MODEL      147
REMARK 921   NORMALIZED FREE ENERGY PREDICTED BY IDOCK:   -3.49 KCAL/MOL
REMARK 922        TOTAL FREE ENERGY PREDICTED BY IDOCK:   -4.49 KCAL/MOL
REMARK 923 INTER-LIGAND FREE ENERGY PREDICTED BY IDOCK:   -4.18 KCAL/MOL
REMARK 924 INTRA-LIGAND FREE ENERGY PREDICTED BY IDOCK:   -0.31 KCAL/MOL
REMARK 927      BINDING AFFINITY PREDICTED BY RF-SCORE:    0.00 PKD
ROOT
HETATM    1  C   UNL     1     -11.700  14.485  65.996  1.00  0.00    -0.345 C  
HETATM    2  C   UNL     1     -12.155  14.753  64.579  1.00  0.00    -0.446 C  
HETATM    3  S   UNL     1     -11.989  13.204  63.662  1.00  0.00    -0.479 SA 
HETATM    4  C   UNL     1     -11.667  12.139  65.125  1.00  0.00    -0.310 C  
HETATM    5  C   UNL     1     -11.957  13.022  66.368  1.00  0.00    -0.402 C  
HETATM    6  O   UNL     1      -8.922  13.733  67.942  1.00  0.00    -0.175 OA 
HETATM    7  C   UNL     1      -9.956  13.741  67.305  1.00  0.00    -0.239 C  
HETATM    8  N   UNL     1     -11.021  12.861  67.456  1.00  0.00    -0.249 NA 
HETATM    9  N   UNL     1     -10.290  14.623  66.283  1.00  0.00    -0.285 NA 
ENDROOT
BRANCH   4  10
HETATM   10  C   UNL     1     -10.261  11.523  64.950  1.00  0.00    -0.324 C  
BRANCH  10  11
HETATM   11  C   UNL     1     -10.013  10.183  65.666  1.00  0.00    -0.348 C  
BRANCH  11  12
HETATM   12  C   UNL     1      -8.545   9.860  65.946  1.00  0.00    -0.149 C  
BRANCH  12  13
HETATM   13  C   UNL     1      -8.152  10.212  67.378  1.00  0.00    -0.114 C  
HETATM   14  C   UNL     1      -8.205   9.020  68.303  1.00  0.00    -0.116 C  
HETATM   15  O   UNL     1      -8.480   7.880  67.971  1.00  0.00    -0.122 OA 
HETATM   16  O   UNL     1      -7.889   9.357  69.576  1.00  0.00    -0.078 OA 
ENDBRANCH  12  13
ENDBRANCH  11  12
ENDBRANCH  10  11
ENDBRANCH   4  10
TORSDOF 4
ENDMDL
MODEL      148
REMARK 921   NORMALIZED FREE ENERGY PREDICTED BY IDOCK:   -3.48 KCAL/MOL
REMARK 922        TOTAL FREE ENERGY PREDICTED BY IDOCK:   -4.47 KCAL/MOL
REMARK 923 INTER-LIGAND FREE ENERGY PREDICTED BY IDOCK:   -4.20 KCAL/MOL
REMARK 924 INTRA-LIGAND FREE ENERGY PREDICTED BY IDOCK:   -0.27 KCAL/MOL
REMARK 927      BINDING AFFINITY PREDICTED BY RF-SCORE:    0.00 PKD
ROOT
HETATM    1  C   UNL     1      -8.241   7.563  69.171  1.00  0.00    -0.131 C  
HETATM    2  C   UNL     1      -8.746   6.773  67.985  1.00  0.00    -0.118 C  
HETATM    3  S   UNL     1      -9.921   7.825  67.102  1.00  0.00    -0.258 SA 
HETATM    4  C   UNL     1      -9.535   9.369  68.019  1.00  0.00    -0.133 C  
HETATM    5  C   UNL     1      -8.267   9.062  68.859  1.00  0.00    -0.120 C  
HETATM    6  O   UNL     1      -9.184   8.924  72.225  1.00  0.00    -0.376 OA 
HETATM    7  C   UNL     1      -8.860   8.701  71.076  1.00  0.00    -0.191 C  
HETATM    8  N   UNL     1      -8.279   9.607  70.196  1.00  0.00    -0.177 NA 
HETATM    9  N   UNL     1      -9.010   7.500  70.394  1.00  0.00    -0.152 NA 
ENDROOT
BRANCH   4  10
HETATM   10  C   UNL     1     -10.826   9.815  68.742  1.00  0.00    -0.219 C  
BRANCH  10  11
HETATM   11  C   UNL     1     -11.541  11.046  68.157  1.00  0.00    -0.345 C  
BRANCH  11  12
HETATM   12  C   UNL     1     -11.134  11.414  66.730  1.00  0.00    -0.343 C  
BRANCH  12  13
HETATM   13  C   UNL     1     -10.850  12.907  66.590  1.00  0.00    -0.288 C  
HETATM   14  C   UNL     1     -11.939  13.636  65.839  1.00  0.00    -0.405 C  
HETATM   15  O   UNL     1     -12.965  13.133  65.418  1.00  0.00    -0.617 OA 
HETATM   16  O   UNL     1     -11.654  14.952  65.693  1.00  0.00    -0.329 OA 
ENDBRANCH  12  13
ENDBRANCH  11  12
ENDBRANCH  10  11
ENDBRANCH   4  10
TORSDOF 4
ENDMDL
MODEL      149
REMARK 921   NORMALIZED FREE ENERGY PREDICTED BY IDOCK:   -3.44 KCAL/MOL
REMARK 922        TOTAL FREE ENERGY PREDICTED BY IDOCK:   -4.42 KCAL/MOL
REMARK 923 INTER-LIGAND FREE ENERGY PREDICTED BY IDOCK:   -4.09 KCAL/MOL
REMARK 924 INTRA-LIGAND FREE ENERGY PREDICTED BY IDOCK:   -0.33 KCAL/MOL
REMARK 927      BINDING AFFINITY PREDICTED BY RF-SCORE:    0.00 PKD
ROOT
HETATM    1  C   UNL     1      -9.377   9.053  67.485  1.00  0.00    -0.135 C  
HETATM    2  C   UNL     1      -8.328   8.618  66.487  1.00  0.00    -0.108 C  
HETATM    3  S   UNL     1      -7.245  10.036  66.197  1.00  0.00    -0.115 SA 
HETATM    4  C   UNL     1      -7.899  11.071  67.567  1.00  0.00    -0.116 C  
HETATM    5  C   UNL     1      -8.816  10.140  68.405  1.00  0.00    -0.123 C  
HETATM    6  O   UNL     1     -12.128  11.130  67.917  1.00  0.00    -0.627 OA 
HETATM    7  C   UNL     1     -11.043  10.584  67.918  1.00  0.00    -0.304 C  
HETATM    8  N   UNL     1     -10.041  10.752  68.866  1.00  0.00    -0.197 NA 
HETATM    9  N   UNL     1     -10.570   9.686  66.968  1.00  0.00    -0.226 NA 
ENDROOT
BRANCH   4  10
HETATM   10  C   UNL     1      -8.497  12.349  66.938  1.00  0.00    -0.147 C  
BRANCH  10  11
HETATM   11  C   UNL     1      -8.309  13.651  67.737  1.00  0.00    -0.181 C  
BRANCH  11  12
HETATM   12  C   UNL     1      -9.531  14.568  67.779  1.00  0.00    -0.210 C  
BRANCH  12  13
HETATM   13  C   UNL     1      -9.568  15.516  66.583  1.00  0.00    -0.273 C  
HETATM   14  C   UNL     1     -10.875  15.448  65.830  1.00  0.00    -0.343 C  
HETATM   15  O   UNL     1     -11.833  14.760  66.138  1.00  0.00    -0.311 OA 
HETATM   16  O   UNL     1     -10.877  16.267  64.752  1.00  0.00    -0.671 OA 
ENDBRANCH  12  13
ENDBRANCH  11  12
ENDBRANCH  10  11
ENDBRANCH   4  10
TORSDOF 4
ENDMDL
MODEL      150
REMARK 921   NORMALIZED FREE ENERGY PREDICTED BY IDOCK:   -3.44 KCAL/MOL
REMARK 922        TOTAL FREE ENERGY PREDICTED BY IDOCK:   -4.42 KCAL/MOL
REMARK 923 INTER-LIGAND FREE ENERGY PREDICTED BY IDOCK:   -4.00 KCAL/MOL
REMARK 924 INTRA-LIGAND FREE ENERGY PREDICTED BY IDOCK:   -0.42 KCAL/MOL
REMARK 927      BINDING AFFINITY PREDICTED BY RF-SCORE:    0.00 PKD
ROOT
HETATM    1  C   UNL     1     -10.328   6.001  70.970  1.00  0.00    -0.216 C  
HETATM    2  C   UNL     1     -10.564   6.138  72.457  1.00  0.00    -0.213 C  
HETATM    3  S   UNL     1     -11.332   7.751  72.730  1.00  0.00    -0.341 SA 
HETATM    4  C   UNL     1     -11.662   8.118  70.961  1.00  0.00    -0.274 C  
HETATM    5  C   UNL     1     -11.375   6.801  70.191  1.00  0.00    -0.350 C  
HETATM    6  O   UNL     1      -8.465   7.240  68.312  1.00  0.00    -0.124 OA 
HETATM    7  C   UNL     1      -9.313   6.946  69.129  1.00  0.00    -0.140 C  
HETATM    8  N   UNL     1     -10.689   6.974  68.931  1.00  0.00    -0.215 NA 
HETATM    9  N   UNL     1      -9.092   6.528  70.437  1.00  0.00    -0.155 NA 
ENDROOT
BRANCH   4  10
HETATM   10  C   UNL     1     -10.870   9.393  70.594  1.00  0.00    -0.346 C  
BRANCH  10  11
HETATM   11  C   UNL     1     -11.656  10.495  69.862  1.00  0.00    -0.384 C  
BRANCH  11  12
HETATM   12  C   UNL     1     -10.875  11.235  68.776  1.00  0.00    -0.252 C  
BRANCH  12  13
HETATM   13  C   UNL     1     -11.098  10.617  67.399  1.00  0.00    -0.341 C  
HETATM   14  C   UNL     1      -9.804  10.350  66.667  1.00  0.00    -0.202 C  
HETATM   15  O   UNL     1      -8.687  10.549  67.112  1.00  0.00    -0.130 OA 
HETATM   16  O   UNL     1     -10.021   9.835  65.434  1.00  0.00    -0.320 OA 
ENDBRANCH  12  13
ENDBRANCH  11  12
ENDBRANCH  10  11
ENDBRANCH   4  10
TORSDOF 4
ENDMDL
MODEL      151
REMARK 921   NORMALIZED FREE ENERGY PREDICTED BY IDOCK:   -3.41 KCAL/MOL
REMARK 922        TOTAL FREE ENERGY PREDICTED BY IDOCK:   -4.39 KCAL/MOL
REMARK 923 INTER-LIGAND FREE ENERGY PREDICTED BY IDOCK:   -4.10 KCAL/MOL
REMARK 924 INTRA-LIGAND FREE ENERGY PREDICTED BY IDOCK:   -0.29 KCAL/MOL
REMARK 927      BINDING AFFINITY PREDICTED BY RF-SCORE:    0.00 PKD
ROOT
HETATM    1  C   UNL     1      -8.283  11.536  67.040  1.00  0.00    -0.167 C  
HETATM    2  C   UNL     1      -8.368  13.043  67.140  1.00  0.00    -0.150 C  
HETATM    3  S   UNL     1      -9.739  13.428  68.253  1.00  0.00    -0.210 SA 
HETATM    4  C   UNL     1      -9.997  11.712  68.855  1.00  0.00    -0.066 C  
HETATM    5  C   UNL     1      -8.788  10.890  68.333  1.00  0.00    -0.147 C  
HETATM    6  O   UNL     1      -9.928   8.719  65.846  1.00  0.00    -0.213 OA 
HETATM    7  C   UNL     1      -9.437   9.617  66.501  1.00  0.00    -0.181 C  
HETATM    8  N   UNL     1      -9.117   9.568  67.853  1.00  0.00    -0.126 NA 
HETATM    9  N   UNL     1      -9.099  10.885  66.041  1.00  0.00    -0.184 NA 
ENDROOT
BRANCH   4  10
HETATM   10  C   UNL     1     -11.426  11.288  68.451  1.00  0.00    -0.377 C  
BRANCH  10  11
HETATM   11  C   UNL     1     -12.397  10.986  69.607  1.00  0.00    -0.303 C  
BRANCH  11  12
HETATM   12  C   UNL     1     -11.741  10.462  70.884  1.00  0.00    -0.455 C  
BRANCH  12  13
HETATM   13  C   UNL     1     -12.756  10.286  72.010  1.00  0.00    -0.397 C  
HETATM   14  C   UNL     1     -13.403   8.922  71.999  1.00  0.00    -0.421 C  
HETATM   15  O   UNL     1     -13.138   8.021  71.222  1.00  0.00    -0.266 OA 
HETATM   16  O   UNL     1     -14.326   8.795  72.981  1.00  0.00    -0.438 OA 
ENDBRANCH  12  13
ENDBRANCH  11  12
ENDBRANCH  10  11
ENDBRANCH   4  10
TORSDOF 4
ENDMDL
MODEL      152
REMARK 921   NORMALIZED FREE ENERGY PREDICTED BY IDOCK:   -3.41 KCAL/MOL
REMARK 922        TOTAL FREE ENERGY PREDICTED BY IDOCK:   -4.39 KCAL/MOL
REMARK 923 INTER-LIGAND FREE ENERGY PREDICTED BY IDOCK:   -4.07 KCAL/MOL
REMARK 924 INTRA-LIGAND FREE ENERGY PREDICTED BY IDOCK:   -0.31 KCAL/MOL
REMARK 927      BINDING AFFINITY PREDICTED BY RF-SCORE:    0.00 PKD
ROOT
HETATM    1  C   UNL     1     -12.063  13.787  67.735  1.00  0.00    -0.290 C  
HETATM    2  C   UNL     1     -11.433  15.078  67.262  1.00  0.00    -0.304 C  
HETATM    3  S   UNL     1     -10.032  14.635  66.210  1.00  0.00    -0.304 SA 
HETATM    4  C   UNL     1     -10.429  12.846  66.089  1.00  0.00    -0.269 C  
HETATM    5  C   UNL     1     -11.847  12.681  66.698  1.00  0.00    -0.380 C  
HETATM    6  O   UNL     1     -11.548  11.000  69.744  1.00  0.00    -0.266 OA 
HETATM    7  C   UNL     1     -11.685  11.803  68.843  1.00  0.00    -0.323 C  
HETATM    8  N   UNL     1     -12.019  11.510  67.525  1.00  0.00    -0.622 NA 
HETATM    9  N   UNL     1     -11.528  13.181  68.933  1.00  0.00    -0.278 NA 
ENDROOT
BRANCH   4  10
HETATM   10  C   UNL     1      -9.249  12.065  66.709  1.00  0.00    -0.201 C  
BRANCH  10  11
HETATM   11  C   UNL     1      -8.860  10.752  66.006  1.00  0.00    -0.192 C  
BRANCH  11  12
HETATM   12  C   UNL     1      -7.417  10.299  66.234  1.00  0.00    -0.118 C  
BRANCH  12  13
HETATM   13  C   UNL     1      -6.853  10.845  67.543  1.00  0.00    -0.079 C  
HETATM   14  C   UNL     1      -5.645  11.726  67.330  1.00  0.00    -0.100 C  
HETATM   15  O   UNL     1      -5.172  12.028  66.249  1.00  0.00    -0.297 OA 
HETATM   16  O   UNL     1      -5.136  12.172  68.503  1.00  0.00    -0.050 OA 
ENDBRANCH  12  13
ENDBRANCH  11  12
ENDBRANCH  10  11
ENDBRANCH   4  10
TORSDOF 4
ENDMDL
MODEL      153
REMARK 921   NORMALIZED FREE ENERGY PREDICTED BY IDOCK:   -3.41 KCAL/MOL
REMARK 922        TOTAL FREE ENERGY PREDICTED BY IDOCK:   -4.38 KCAL/MOL
REMARK 923 INTER-LIGAND FREE ENERGY PREDICTED BY IDOCK:   -4.06 KCAL/MOL
REMARK 924 INTRA-LIGAND FREE ENERGY PREDICTED BY IDOCK:   -0.32 KCAL/MOL
REMARK 927      BINDING AFFINITY PREDICTED BY RF-SCORE:    0.00 PKD
ROOT
HETATM    1  C   UNL     1      -9.492   6.041  68.295  1.00  0.00    -0.115 C  
HETATM    2  C   UNL     1      -8.918   5.605  69.624  1.00  0.00    -0.123 C  
HETATM    3  S   UNL     1      -9.063   7.008  70.754  1.00  0.00    -0.153 SA 
HETATM    4  C   UNL     1     -10.138   8.029  69.669  1.00  0.00    -0.198 C  
HETATM    5  C   UNL     1     -10.576   7.100  68.506  1.00  0.00    -0.187 C  
HETATM    6  O   UNL     1      -8.975   8.159  65.590  1.00  0.00    -0.158 OA 
HETATM    7  C   UNL     1      -9.345   7.593  66.599  1.00  0.00    -0.190 C  
HETATM    8  N   UNL     1     -10.590   7.724  67.204  1.00  0.00    -0.343 NA 
HETATM    9  N   UNL     1      -8.603   6.704  67.368  1.00  0.00    -0.119 NA 
ENDROOT
BRANCH   4  10
HETATM   10  C   UNL     1      -9.369   9.329  69.345  1.00  0.00    -0.164 C  
BRANCH  10  11
HETATM   11  C   UNL     1     -10.191  10.630  69.379  1.00  0.00    -0.218 C  
BRANCH  11  12
HETATM   12  C   UNL     1     -11.653  10.462  69.794  1.00  0.00    -0.339 C  
BRANCH  12  13
HETATM   13  C   UNL     1     -12.232  11.755  70.361  1.00  0.00    -0.416 C  
HETATM   14  C   UNL     1     -13.042  11.527  71.615  1.00  0.00    -0.373 C  
HETATM   15  O   UNL     1     -13.200  10.453  72.168  1.00  0.00    -0.452 OA 
HETATM   16  O   UNL     1     -13.578  12.679  72.084  1.00  0.00    -0.517 OA 
ENDBRANCH  12  13
ENDBRANCH  11  12
ENDBRANCH  10  11
ENDBRANCH   4  10
TORSDOF 4
ENDMDL
MODEL      154
REMARK 921   NORMALIZED FREE ENERGY PREDICTED BY IDOCK:   -3.40 KCAL/MOL
REMARK 922        TOTAL FREE ENERGY PREDICTED BY IDOCK:   -4.37 KCAL/MOL
REMARK 923 INTER-LIGAND FREE ENERGY PREDICTED BY IDOCK:   -3.89 KCAL/MOL
REMARK 924 INTRA-LIGAND FREE ENERGY PREDICTED BY IDOCK:   -0.49 KCAL/MOL
REMARK 927      BINDING AFFINITY PREDICTED BY RF-SCORE:    0.00 PKD
ROOT
HETATM    1  C   UNL     1      -9.770  12.509  67.753  1.00  0.00    -0.202 C  
HETATM    2  C   UNL     1      -8.280  12.413  67.511  1.00  0.00    -0.173 C  
HETATM    3  S   UNL     1      -8.018  11.085  66.313  1.00  0.00    -0.118 SA 
HETATM    4  C   UNL     1      -9.786  10.870  65.863  1.00  0.00    -0.224 C  
HETATM    5  C   UNL     1     -10.539  12.064  66.507  1.00  0.00    -0.234 C  
HETATM    6  O   UNL     1     -12.487  10.844  69.136  1.00  0.00    -0.409 OA 
HETATM    7  C   UNL     1     -11.647  11.353  68.421  1.00  0.00    -0.315 C  
HETATM    8  N   UNL     1     -11.816  11.729  67.094  1.00  0.00    -0.620 NA 
HETATM    9  N   UNL     1     -10.338  11.659  68.775  1.00  0.00    -0.214 NA 
ENDROOT
BRANCH   4  10
HETATM   10  C   UNL     1     -10.191   9.429  66.246  1.00  0.00    -0.284 C  
BRANCH  10  11
HETATM   11  C   UNL     1      -9.180   8.644  67.101  1.00  0.00    -0.175 C  
BRANCH  11  12
HETATM   12  C   UNL     1      -9.778   7.916  68.305  1.00  0.00    -0.172 C  
BRANCH  12  13
HETATM   13  C   UNL     1      -9.341   6.454  68.355  1.00  0.00    -0.121 C  
HETATM   14  C   UNL     1     -10.214   5.559  67.507  1.00  0.00    -0.199 C  
HETATM   15  O   UNL     1     -11.142   5.932  66.811  1.00  0.00    -0.262 OA 
HETATM   16  O   UNL     1      -9.835   4.262  67.591  1.00  0.00    -0.165 OA 
ENDBRANCH  12  13
ENDBRANCH  11  12
ENDBRANCH  10  11
ENDBRANCH   4  10
TORSDOF 4
ENDMDL
MODEL      155
REMARK 921   NORMALIZED FREE ENERGY PREDICTED BY IDOCK:   -3.36 KCAL/MOL
REMARK 922        TOTAL FREE ENERGY PREDICTED BY IDOCK:   -4.33 KCAL/MOL
REMARK 923 INTER-LIGAND FREE ENERGY PREDICTED BY IDOCK:   -4.14 KCAL/MOL
REMARK 924 INTRA-LIGAND FREE ENERGY PREDICTED BY IDOCK:   -0.18 KCAL/MOL
REMARK 927      BINDING AFFINITY PREDICTED BY RF-SCORE:    0.00 PKD
ROOT
HETATM    1  C   UNL     1     -12.603   9.846  71.527  1.00  0.00    -0.416 C  
HETATM    2  C   UNL     1     -13.099   8.632  72.281  1.00  0.00    -0.372 C  
HETATM    3  S   UNL     1     -12.085   7.229  71.761  1.00  0.00    -0.334 SA 
HETATM    4  C   UNL     1     -10.829   8.215  70.853  1.00  0.00    -0.230 C  
HETATM    5  C   UNL     1     -11.113   9.699  71.207  1.00  0.00    -0.355 C  
HETATM    6  O   UNL     1     -12.395  11.279  68.369  1.00  0.00    -0.545 OA 
HETATM    7  C   UNL     1     -12.208  10.733  69.438  1.00  0.00    -0.171 C  
HETATM    8  N   UNL     1     -10.991  10.619  70.100  1.00  0.00    -0.266 NA 
HETATM    9  N   UNL     1     -13.166  10.097  70.220  1.00  0.00     0.029 NA 
ENDROOT
BRANCH   4  10
HETATM   10  C   UNL     1     -10.871   7.772  69.373  1.00  0.00    -0.121 C  
BRANCH  10  11
HETATM   11  C   UNL     1     -10.857   6.255  69.118  1.00  0.00    -0.403 C  
BRANCH  11  12
HETATM   12  C   UNL     1      -9.903   5.793  68.016  1.00  0.00    -0.155 C  
BRANCH  12  13
HETATM   13  C   UNL     1     -10.586   5.767  66.651  1.00  0.00    -0.347 C  
HETATM   14  C   UNL     1     -10.326   4.486  65.896  1.00  0.00    -0.258 C  
HETATM   15  O   UNL     1      -9.686   3.537  66.314  1.00  0.00    -0.142 OA 
HETATM   16  O   UNL     1     -10.909   4.495  64.674  1.00  0.00    -0.058 OA 
ENDBRANCH  12  13
ENDBRANCH  11  12
ENDBRANCH  10  11
ENDBRANCH   4  10
TORSDOF 4
ENDMDL
MODEL      156
REMARK 921   NORMALIZED FREE ENERGY PREDICTED BY IDOCK:   -3.36 KCAL/MOL
REMARK 922        TOTAL FREE ENERGY PREDICTED BY IDOCK:   -4.32 KCAL/MOL
REMARK 923 INTER-LIGAND FREE ENERGY PREDICTED BY IDOCK:   -4.09 KCAL/MOL
REMARK 924 INTRA-LIGAND FREE ENERGY PREDICTED BY IDOCK:   -0.23 KCAL/MOL
REMARK 927      BINDING AFFINITY PREDICTED BY RF-SCORE:    0.00 PKD
ROOT
HETATM    1  C   UNL     1     -10.139  13.414  66.590  1.00  0.00    -0.275 C  
HETATM    2  C   UNL     1      -9.158  14.549  66.780  1.00  0.00    -0.261 C  
HETATM    3  S   UNL     1      -7.697  13.863  67.595  1.00  0.00    -0.193 SA 
HETATM    4  C   UNL     1      -8.171  12.099  67.402  1.00  0.00    -0.175 C  
HETATM    5  C   UNL     1      -9.392  12.086  66.443  1.00  0.00    -0.228 C  
HETATM    6  O   UNL     1     -12.227  11.216  68.286  1.00  0.00    -0.613 OA 
HETATM    7  C   UNL     1     -11.344  11.769  67.661  1.00  0.00    -0.302 C  
HETATM    8  N   UNL     1     -10.436  11.157  66.805  1.00  0.00    -0.241 NA 
HETATM    9  N   UNL     1     -11.048  13.127  67.677  1.00  0.00    -0.261 NA 
ENDROOT
BRANCH   4  10
HETATM   10  C   UNL     1      -8.320  11.500  68.818  1.00  0.00    -0.069 C  
BRANCH  10  11
HETATM   11  C   UNL     1      -8.073   9.986  68.945  1.00  0.00    -0.111 C  
BRANCH  11  12
HETATM   12  C   UNL     1      -9.312   9.153  69.276  1.00  0.00    -0.157 C  
BRANCH  12  13
HETATM   13  C   UNL     1      -9.759   9.354  70.722  1.00  0.00    -0.332 C  
HETATM   14  C   UNL     1     -10.880   8.422  71.116  1.00  0.00    -0.237 C  
HETATM   15  O   UNL     1     -11.369   7.564  70.403  1.00  0.00    -0.275 OA 
HETATM   16  O   UNL     1     -11.288   8.638  72.389  1.00  0.00    -0.359 OA 
ENDBRANCH  12  13
ENDBRANCH  11  12
ENDBRANCH  10  11
ENDBRANCH   4  10
TORSDOF 4
ENDMDL
MODEL      157
REMARK 921   NORMALIZED FREE ENERGY PREDICTED BY IDOCK:   -3.35 KCAL/MOL
REMARK 922        TOTAL FREE ENERGY PREDICTED BY IDOCK:   -4.31 KCAL/MOL
REMARK 923 INTER-LIGAND FREE ENERGY PREDICTED BY IDOCK:   -4.01 KCAL/MOL
REMARK 924 INTRA-LIGAND FREE ENERGY PREDICTED BY IDOCK:   -0.30 KCAL/MOL
REMARK 927      BINDING AFFINITY PREDICTED BY RF-SCORE:    0.00 PKD
ROOT
HETATM    1  C   UNL     1      -9.517   6.138  69.023  1.00  0.00    -0.127 C  
HETATM    2  C   UNL     1      -9.098   5.962  70.466  1.00  0.00    -0.148 C  
HETATM    3  S   UNL     1      -9.711   7.398  71.378  1.00  0.00    -0.166 SA 
HETATM    4  C   UNL     1     -10.772   8.054  70.030  1.00  0.00    -0.244 C  
HETATM    5  C   UNL     1     -10.813   6.948  68.942  1.00  0.00    -0.207 C  
HETATM    6  O   UNL     1      -8.993   8.060  66.177  1.00  0.00    -0.163 OA 
HETATM    7  C   UNL     1      -9.405   7.522  67.185  1.00  0.00    -0.142 C  
HETATM    8  N   UNL     1     -10.734   7.432  67.583  1.00  0.00    -0.229 NA 
HETATM    9  N   UNL     1      -8.638   6.892  68.158  1.00  0.00    -0.124 NA 
ENDROOT
BRANCH   4  10
HETATM   10  C   UNL     1     -10.239   9.455  69.659  1.00  0.00    -0.225 C  
BRANCH  10  11
HETATM   11  C   UNL     1     -11.292  10.486  69.213  1.00  0.00    -0.325 C  
BRANCH  11  12
HETATM   12  C   UNL     1     -11.025  11.137  67.856  1.00  0.00    -0.307 C  
BRANCH  12  13
HETATM   13  C   UNL     1     -11.599  12.550  67.784  1.00  0.00    -0.401 C  
HETATM   14  C   UNL     1     -12.186  12.869  66.430  1.00  0.00    -0.231 C  
HETATM   15  O   UNL     1     -12.255  12.097  65.490  1.00  0.00    -0.549 OA 
HETATM   16  O   UNL     1     -12.657  14.137  66.373  1.00  0.00    -0.427 OA 
ENDBRANCH  12  13
ENDBRANCH  11  12
ENDBRANCH  10  11
ENDBRANCH   4  10
TORSDOF 4
ENDMDL
MODEL      158
REMARK 921   NORMALIZED FREE ENERGY PREDICTED BY IDOCK:   -3.35 KCAL/MOL
REMARK 922        TOTAL FREE ENERGY PREDICTED BY IDOCK:   -4.31 KCAL/MOL
REMARK 923 INTER-LIGAND FREE ENERGY PREDICTED BY IDOCK:   -4.07 KCAL/MOL
REMARK 924 INTRA-LIGAND FREE ENERGY PREDICTED BY IDOCK:   -0.23 KCAL/MOL
REMARK 927      BINDING AFFINITY PREDICTED BY RF-SCORE:    0.00 PKD
ROOT
HETATM    1  C   UNL     1      -9.036   4.467  67.447  1.00  0.00    -0.132 C  
HETATM    2  C   UNL     1      -9.988   5.172  66.506  1.00  0.00    -0.212 C  
HETATM    3  S   UNL     1     -10.907   6.383  67.484  1.00  0.00    -0.367 SA 
HETATM    4  C   UNL     1      -9.875   6.243  68.997  1.00  0.00    -0.143 C  
HETATM    5  C   UNL     1      -8.637   5.399  68.593  1.00  0.00    -0.095 C  
HETATM    6  O   UNL     1      -8.882   2.278  70.140  1.00  0.00    -0.063 OA 
HETATM    7  C   UNL     1      -8.875   3.226  69.381  1.00  0.00    -0.095 C  
HETATM    8  N   UNL     1      -8.214   4.433  69.580  1.00  0.00    -0.060 NA 
HETATM    9  N   UNL     1      -9.533   3.312  68.160  1.00  0.00    -0.184 NA 
ENDROOT
BRANCH   4  10
HETATM   10  C   UNL     1     -10.788   5.741  70.138  1.00  0.00    -0.383 C  
BRANCH  10  11
HETATM   11  C   UNL     1     -11.706   6.793  70.785  1.00  0.00    -0.439 C  
BRANCH  11  12
HETATM   12  C   UNL     1     -11.064   8.162  71.011  1.00  0.00    -0.281 C  
BRANCH  12  13
HETATM   13  C   UNL     1     -11.906   9.035  71.938  1.00  0.00    -0.447 C  
HETATM   14  C   UNL     1     -12.472  10.248  71.238  1.00  0.00    -0.408 C  
HETATM   15  O   UNL     1     -12.332  10.509  70.056  1.00  0.00    -0.284 OA 
HETATM   16  O   UNL     1     -13.185  11.029  72.082  1.00  0.00    -0.481 OA 
ENDBRANCH  12  13
ENDBRANCH  11  12
ENDBRANCH  10  11
ENDBRANCH   4  10
TORSDOF 4
ENDMDL
MODEL      159
REMARK 921   NORMALIZED FREE ENERGY PREDICTED BY IDOCK:   -3.33 KCAL/MOL
REMARK 922        TOTAL FREE ENERGY PREDICTED BY IDOCK:   -4.29 KCAL/MOL
REMARK 923 INTER-LIGAND FREE ENERGY PREDICTED BY IDOCK:   -4.33 KCAL/MOL
REMARK 924 INTRA-LIGAND FREE ENERGY PREDICTED BY IDOCK:    0.04 KCAL/MOL
REMARK 927      BINDING AFFINITY PREDICTED BY RF-SCORE:    0.00 PKD
ROOT
HETATM    1  C   UNL     1      -9.627  15.238  69.160  1.00  0.00    -0.243 C  
HETATM    2  C   UNL     1      -8.699  16.432  69.131  1.00  0.00    -0.185 C  
HETATM    3  S   UNL     1      -9.063  17.356  67.621  1.00  0.00    -0.236 SA 
HETATM    4  C   UNL     1     -10.597  16.440  67.191  1.00  0.00    -0.276 C  
HETATM    5  C   UNL     1     -10.931  15.563  68.427  1.00  0.00    -0.297 C  
HETATM    6  O   UNL     1     -10.347  12.222  67.594  1.00  0.00    -0.200 OA 
HETATM    7  C   UNL     1     -10.315  13.360  68.018  1.00  0.00    -0.241 C  
HETATM    8  N   UNL     1     -11.395  14.230  68.117  1.00  0.00    -0.273 NA 
HETATM    9  N   UNL     1      -9.194  14.037  68.483  1.00  0.00    -0.193 NA 
ENDROOT
BRANCH   4  10
HETATM   10  C   UNL     1     -10.363  15.757  65.825  1.00  0.00    -0.390 C  
BRANCH  10  11
HETATM   11  C   UNL     1     -11.285  16.204  64.676  1.00  0.00    -0.307 C  
BRANCH  11  12
HETATM   12  C   UNL     1     -12.088  15.082  64.018  1.00  0.00    -0.119 C  
BRANCH  12  13
HETATM   13  C   UNL     1     -11.531  13.706  64.370  1.00  0.00    -0.410 C  
HETATM   14  C   UNL     1     -12.500  12.878  65.181  1.00  0.00    -0.501 C  
HETATM   15  O   UNL     1     -13.626  13.219  65.498  1.00  0.00    -0.221 OA 
HETATM   16  O   UNL     1     -11.976  11.676  65.515  1.00  0.00    -0.234 OA 
ENDBRANCH  12  13
ENDBRANCH  11  12
ENDBRANCH  10  11
ENDBRANCH   4  10
TORSDOF 4
ENDMDL
MODEL      160
REMARK 921   NORMALIZED FREE ENERGY PREDICTED BY IDOCK:   -3.32 KCAL/MOL
REMARK 922        TOTAL FREE ENERGY PREDICTED BY IDOCK:   -4.27 KCAL/MOL
REMARK 923 INTER-LIGAND FREE ENERGY PREDICTED BY IDOCK:   -3.81 KCAL/MOL
REMARK 924 INTRA-LIGAND FREE ENERGY PREDICTED BY IDOCK:   -0.47 KCAL/MOL
REMARK 927      BINDING AFFINITY PREDICTED BY RF-SCORE:    0.00 PKD
ROOT
HETATM    1  C   UNL     1      -9.896   7.574  66.635  1.00  0.00    -0.204 C  
HETATM    2  C   UNL     1      -9.076   6.304  66.677  1.00  0.00    -0.144 C  
HETATM    3  S   UNL     1      -8.473   6.112  68.370  1.00  0.00    -0.113 SA 
HETATM    4  C   UNL     1      -9.515   7.435  69.104  1.00  0.00    -0.149 C  
HETATM    5  C   UNL     1     -10.530   7.840  68.003  1.00  0.00    -0.185 C  
HETATM    6  O   UNL     1      -9.699  11.035  66.863  1.00  0.00    -0.183 OA 
HETATM    7  C   UNL     1      -9.874   9.844  67.027  1.00  0.00    -0.191 C  
HETATM    8  N   UNL     1     -10.781   9.259  67.902  1.00  0.00    -0.224 NA 
HETATM    9  N   UNL     1      -9.198   8.814  66.383  1.00  0.00    -0.174 NA 
ENDROOT
BRANCH   4  10
HETATM   10  C   UNL     1      -8.565   8.507  69.684  1.00  0.00    -0.131 C  
BRANCH  10  11
HETATM   11  C   UNL     1      -8.921   9.047  71.080  1.00  0.00    -0.303 C  
BRANCH  11  12
HETATM   12  C   UNL     1     -10.162   8.422  71.719  1.00  0.00    -0.323 C  
BRANCH  12  13
HETATM   13  C   UNL     1     -11.377   9.338  71.609  1.00  0.00    -0.467 C  
HETATM   14  C   UNL     1     -12.674   8.571  71.497  1.00  0.00    -0.313 C  
HETATM   15  O   UNL     1     -12.782   7.358  71.534  1.00  0.00    -0.343 OA 
HETATM   16  O   UNL     1     -13.737   9.398  71.364  1.00  0.00    -0.359 OA 
ENDBRANCH  12  13
ENDBRANCH  11  12
ENDBRANCH  10  11
ENDBRANCH   4  10
TORSDOF 4
ENDMDL
MODEL      161
REMARK 921   NORMALIZED FREE ENERGY PREDICTED BY IDOCK:   -3.31 KCAL/MOL
REMARK 922        TOTAL FREE ENERGY PREDICTED BY IDOCK:   -4.27 KCAL/MOL
REMARK 923 INTER-LIGAND FREE ENERGY PREDICTED BY IDOCK:   -3.85 KCAL/MOL
REMARK 924 INTRA-LIGAND FREE ENERGY PREDICTED BY IDOCK:   -0.42 KCAL/MOL
REMARK 927      BINDING AFFINITY PREDICTED BY RF-SCORE:    0.00 PKD
ROOT
HETATM    1  C   UNL     1      -8.505   7.407  67.320  1.00  0.00    -0.118 C  
HETATM    2  C   UNL     1      -7.602   7.108  68.495  1.00  0.00    -0.115 C  
HETATM    3  S   UNL     1      -8.456   7.674  69.984  1.00  0.00    -0.137 SA 
HETATM    4  C   UNL     1     -10.078   7.982  69.180  1.00  0.00    -0.201 C  
HETATM    5  C   UNL     1      -9.972   7.371  67.757  1.00  0.00    -0.167 C  
HETATM    6  O   UNL     1      -9.884   9.984  65.443  1.00  0.00    -0.281 OA 
HETATM    7  C   UNL     1      -9.648   9.062  66.197  1.00  0.00    -0.272 C  
HETATM    8  N   UNL     1     -10.576   8.163  66.711  1.00  0.00    -0.265 NA 
HETATM    9  N   UNL     1      -8.406   8.716  66.716  1.00  0.00    -0.107 NA 
ENDROOT
BRANCH   4  10
HETATM   10  C   UNL     1     -10.394   9.486  69.331  1.00  0.00    -0.225 C  
BRANCH  10  11
HETATM   11  C   UNL     1     -11.048   9.913  70.657  1.00  0.00    -0.409 C  
BRANCH  11  12
HETATM   12  C   UNL     1     -12.030   8.902  71.250  1.00  0.00    -0.365 C  
BRANCH  12  13
HETATM   13  C   UNL     1     -11.514   8.315  72.562  1.00  0.00    -0.454 C  
HETATM   14  C   UNL     1     -11.403   6.810  72.519  1.00  0.00    -0.254 C  
HETATM   15  O   UNL     1     -11.645   6.111  71.550  1.00  0.00    -0.295 OA 
HETATM   16  O   UNL     1     -10.979   6.304  73.701  1.00  0.00    -0.184 OA 
ENDBRANCH  12  13
ENDBRANCH  11  12
ENDBRANCH  10  11
ENDBRANCH   4  10
TORSDOF 4
ENDMDL
MODEL      162
REMARK 921   NORMALIZED FREE ENERGY PREDICTED BY IDOCK:   -3.30 KCAL/MOL
REMARK 922        TOTAL FREE ENERGY PREDICTED BY IDOCK:   -4.25 KCAL/MOL
REMARK 923 INTER-LIGAND FREE ENERGY PREDICTED BY IDOCK:   -3.93 KCAL/MOL
REMARK 924 INTRA-LIGAND FREE ENERGY PREDICTED BY IDOCK:   -0.32 KCAL/MOL
REMARK 927      BINDING AFFINITY PREDICTED BY RF-SCORE:    0.00 PKD
ROOT
HETATM    1  C   UNL     1     -12.056   8.330  72.255  1.00  0.00    -0.379 C  
HETATM    2  C   UNL     1     -11.786   9.636  71.543  1.00  0.00    -0.407 C  
HETATM    3  S   UNL     1     -10.897   9.241  70.020  1.00  0.00    -0.238 SA 
HETATM    4  C   UNL     1     -11.151   7.424  70.106  1.00  0.00    -0.246 C  
HETATM    5  C   UNL     1     -12.182   7.190  71.242  1.00  0.00    -0.365 C  
HETATM    6  O   UNL     1     -10.532   5.697  73.933  1.00  0.00    -0.245 OA 
HETATM    7  C   UNL     1     -11.091   6.440  73.151  1.00  0.00    -0.163 C  
HETATM    8  N   UNL     1     -11.902   6.054  72.090  1.00  0.00    -0.294 NA 
HETATM    9  N   UNL     1     -11.032   7.829  73.144  1.00  0.00    -0.381 NA 
ENDROOT
BRANCH   4  10
HETATM   10  C   UNL     1      -9.758   6.764  70.206  1.00  0.00    -0.179 C  
BRANCH  10  11
HETATM   11  C   UNL     1      -9.451   5.665  69.173  1.00  0.00    -0.161 C  
BRANCH  11  12
HETATM   12  C   UNL     1     -10.317   5.700  67.913  1.00  0.00    -0.260 C  
BRANCH  12  13
HETATM   13  C   UNL     1      -9.657   6.505  66.796  1.00  0.00    -0.198 C  
HETATM   14  C   UNL     1      -8.828   5.644  65.873  1.00  0.00    -0.152 C  
HETATM   15  O   UNL     1      -8.712   4.433  65.951  1.00  0.00    -0.116 OA 
HETATM   16  O   UNL     1      -8.221   6.378  64.911  1.00  0.00    -0.140 OA 
ENDBRANCH  12  13
ENDBRANCH  11  12
ENDBRANCH  10  11
ENDBRANCH   4  10
TORSDOF 4
ENDMDL
MODEL      163
REMARK 921   NORMALIZED FREE ENERGY PREDICTED BY IDOCK:   -3.30 KCAL/MOL
REMARK 922        TOTAL FREE ENERGY PREDICTED BY IDOCK:   -4.25 KCAL/MOL
REMARK 923 INTER-LIGAND FREE ENERGY PREDICTED BY IDOCK:   -3.71 KCAL/MOL
REMARK 924 INTRA-LIGAND FREE ENERGY PREDICTED BY IDOCK:   -0.53 KCAL/MOL
REMARK 927      BINDING AFFINITY PREDICTED BY RF-SCORE:    0.00 PKD
ROOT
HETATM    1  C   UNL     1     -12.138   6.793  71.736  1.00  0.00    -0.350 C  
HETATM    2  C   UNL     1     -12.575   8.164  72.201  1.00  0.00    -0.310 C  
HETATM    3  S   UNL     1     -11.600   9.376  71.280  1.00  0.00    -0.393 SA 
HETATM    4  C   UNL     1     -10.883   8.185  70.079  1.00  0.00    -0.233 C  
HETATM    5  C   UNL     1     -11.653   6.854  70.286  1.00  0.00    -0.311 C  
HETATM    6  O   UNL     1      -9.486   4.549  71.763  1.00  0.00    -0.136 OA 
HETATM    7  C   UNL     1     -10.343   5.368  71.500  1.00  0.00    -0.225 C  
HETATM    8  N   UNL     1     -10.834   5.666  70.234  1.00  0.00    -0.294 NA 
HETATM    9  N   UNL     1     -11.008   6.189  72.404  1.00  0.00    -0.245 NA 
ENDROOT
BRANCH   4  10
HETATM   10  C   UNL     1      -9.350   8.205  70.265  1.00  0.00    -0.155 C  
BRANCH  10  11
HETATM   11  C   UNL     1      -8.544   8.945  69.183  1.00  0.00    -0.134 C  
BRANCH  11  12
HETATM   12  C   UNL     1      -8.990   8.676  67.746  1.00  0.00    -0.140 C  
BRANCH  12  13
HETATM   13  C   UNL     1      -8.640   7.259  67.300  1.00  0.00    -0.121 C  
HETATM   14  C   UNL     1      -9.854   6.467  66.879  1.00  0.00    -0.158 C  
HETATM   15  O   UNL     1     -10.996   6.891  66.842  1.00  0.00    -0.377 OA 
HETATM   16  O   UNL     1      -9.530   5.202  66.522  1.00  0.00    -0.133 OA 
ENDBRANCH  12  13
ENDBRANCH  11  12
ENDBRANCH  10  11
ENDBRANCH   4  10
TORSDOF 4
ENDMDL
MODEL      164
REMARK 921   NORMALIZED FREE ENERGY PREDICTED BY IDOCK:   -3.30 KCAL/MOL
REMARK 922        TOTAL FREE ENERGY PREDICTED BY IDOCK:   -4.25 KCAL/MOL
REMARK 923 INTER-LIGAND FREE ENERGY PREDICTED BY IDOCK:   -3.88 KCAL/MOL
REMARK 924 INTRA-LIGAND FREE ENERGY PREDICTED BY IDOCK:   -0.37 KCAL/MOL
REMARK 927      BINDING AFFINITY PREDICTED BY RF-SCORE:    0.00 PKD
ROOT
HETATM    1  C   UNL     1      -6.550   7.420  71.974  1.00  0.00    -0.050 C  
HETATM    2  C   UNL     1      -5.911   6.449  71.007  1.00  0.00    -0.027 C  
HETATM    3  S   UNL     1      -7.188   5.945  69.832  1.00  0.00    -0.075 SA 
HETATM    4  C   UNL     1      -8.434   7.195  70.342  1.00  0.00    -0.140 C  
HETATM    5  C   UNL     1      -7.692   8.175  71.289  1.00  0.00    -0.091 C  
HETATM    6  O   UNL     1      -8.884   7.682  74.534  1.00  0.00    -0.174 OA 
HETATM    7  C   UNL     1      -8.255   7.714  73.495  1.00  0.00    -0.161 C  
HETATM    8  N   UNL     1      -8.454   8.598  72.441  1.00  0.00    -0.388 NA 
HETATM    9  N   UNL     1      -7.211   6.870  73.136  1.00  0.00    -0.075 NA 
ENDROOT
BRANCH   4  10
HETATM   10  C   UNL     1      -9.670   6.431  70.867  1.00  0.00    -0.193 C  
BRANCH  10  11
HETATM   11  C   UNL     1     -11.041   7.036  70.516  1.00  0.00    -0.316 C  
BRANCH  11  12
HETATM   12  C   UNL     1     -11.848   7.548  71.710  1.00  0.00    -0.327 C  
BRANCH  12  13
HETATM   13  C   UNL     1     -11.927   9.073  71.726  1.00  0.00    -0.438 C  
HETATM   14  C   UNL     1     -13.274   9.579  72.184  1.00  0.00    -0.451 C  
HETATM   15  O   UNL     1     -14.202   8.881  72.552  1.00  0.00    -0.527 OA 
HETATM   16  O   UNL     1     -13.338  10.930  72.158  1.00  0.00    -0.443 OA 
ENDBRANCH  12  13
ENDBRANCH  11  12
ENDBRANCH  10  11
ENDBRANCH   4  10
TORSDOF 4
ENDMDL
MODEL      165
REMARK 921   NORMALIZED FREE ENERGY PREDICTED BY IDOCK:   -3.27 KCAL/MOL
REMARK 922        TOTAL FREE ENERGY PREDICTED BY IDOCK:   -4.22 KCAL/MOL
REMARK 923 INTER-LIGAND FREE ENERGY PREDICTED BY IDOCK:   -3.98 KCAL/MOL
REMARK 924 INTRA-LIGAND FREE ENERGY PREDICTED BY IDOCK:   -0.24 KCAL/MOL
REMARK 927      BINDING AFFINITY PREDICTED BY RF-SCORE:    0.00 PKD
ROOT
HETATM    1  C   UNL     1     -11.842  14.456  65.218  1.00  0.00    -0.373 C  
HETATM    2  C   UNL     1     -11.684  13.053  64.676  1.00  0.00    -0.361 C  
HETATM    3  S   UNL     1     -10.332  12.276  65.590  1.00  0.00    -0.264 SA 
HETATM    4  C   UNL     1     -10.181  13.582  66.873  1.00  0.00    -0.256 C  
HETATM    5  C   UNL     1     -11.412  14.509  66.686  1.00  0.00    -0.366 C  
HETATM    6  O   UNL     1     -10.303  17.565  65.412  1.00  0.00    -0.629 OA 
HETATM    7  C   UNL     1     -10.770  16.459  65.599  1.00  0.00    -0.270 C  
HETATM    8  N   UNL     1     -11.135  15.919  66.827  1.00  0.00    -0.148 NA 
HETATM    9  N   UNL     1     -11.028  15.496  64.631  1.00  0.00    -0.385 NA 
ENDROOT
BRANCH   4  10
HETATM   10  C   UNL     1      -8.762  14.183  66.760  1.00  0.00    -0.148 C  
BRANCH  10  11
HETATM   11  C   UNL     1      -8.082  14.573  68.084  1.00  0.00    -0.137 C  
BRANCH  11  12
HETATM   12  C   UNL     1      -6.568  14.367  68.119  1.00  0.00    -0.133 C  
BRANCH  12  13
HETATM   13  C   UNL     1      -6.000  14.583  69.520  1.00  0.00    -0.107 C  
HETATM   14  C   UNL     1      -5.661  13.286  70.215  1.00  0.00    -0.154 C  
HETATM   15  O   UNL     1      -5.771  12.175  69.728  1.00  0.00    -0.087 OA 
HETATM   16  O   UNL     1      -5.194  13.495  71.468  1.00  0.00    -0.158 OA 
ENDBRANCH  12  13
ENDBRANCH  11  12
ENDBRANCH  10  11
ENDBRANCH   4  10
TORSDOF 4
ENDMDL
MODEL      166
REMARK 921   NORMALIZED FREE ENERGY PREDICTED BY IDOCK:   -3.25 KCAL/MOL
REMARK 922        TOTAL FREE ENERGY PREDICTED BY IDOCK:   -4.18 KCAL/MOL
REMARK 923 INTER-LIGAND FREE ENERGY PREDICTED BY IDOCK:   -3.62 KCAL/MOL
REMARK 924 INTRA-LIGAND FREE ENERGY PREDICTED BY IDOCK:   -0.57 KCAL/MOL
REMARK 927      BINDING AFFINITY PREDICTED BY RF-SCORE:    0.00 PKD
ROOT
HETATM    1  C   UNL     1     -11.286   7.497  72.567  1.00  0.00    -0.331 C  
HETATM    2  C   UNL     1     -12.183   7.403  71.354  1.00  0.00    -0.342 C  
HETATM    3  S   UNL     1     -11.386   6.277  70.186  1.00  0.00    -0.367 SA 
HETATM    4  C   UNL     1     -10.100   5.664  71.345  1.00  0.00    -0.200 C  
HETATM    5  C   UNL     1     -10.499   6.196  72.747  1.00  0.00    -0.216 C  
HETATM    6  O   UNL     1      -8.208   8.659  73.682  1.00  0.00    -0.395 OA 
HETATM    7  C   UNL     1      -9.166   8.015  73.307  1.00  0.00    -0.278 C  
HETATM    8  N   UNL     1      -9.397   6.666  73.553  1.00  0.00    -0.138 NA 
HETATM    9  N   UNL     1     -10.230   8.484  72.545  1.00  0.00    -0.298 NA 
ENDROOT
BRANCH   4  10
HETATM   10  C   UNL     1      -8.724   6.050  70.758  1.00  0.00    -0.135 C  
BRANCH  10  11
HETATM   11  C   UNL     1      -8.747   6.873  69.458  1.00  0.00    -0.133 C  
BRANCH  11  12
HETATM   12  C   UNL     1      -8.055   6.216  68.263  1.00  0.00    -0.111 C  
BRANCH  12  13
HETATM   13  C   UNL     1      -8.169   4.695  68.310  1.00  0.00    -0.090 C  
HETATM   14  C   UNL     1      -9.386   4.181  67.578  1.00  0.00    -0.171 C  
HETATM   15  O   UNL     1     -10.185   4.869  66.967  1.00  0.00    -0.206 OA 
HETATM   16  O   UNL     1      -9.491   2.834  67.660  1.00  0.00    -0.204 OA 
ENDBRANCH  12  13
ENDBRANCH  11  12
ENDBRANCH  10  11
ENDBRANCH   4  10
TORSDOF 4
ENDMDL
MODEL      167
REMARK 921   NORMALIZED FREE ENERGY PREDICTED BY IDOCK:   -3.24 KCAL/MOL
REMARK 922        TOTAL FREE ENERGY PREDICTED BY IDOCK:   -4.18 KCAL/MOL
REMARK 923 INTER-LIGAND FREE ENERGY PREDICTED BY IDOCK:   -3.95 KCAL/MOL
REMARK 924 INTRA-LIGAND FREE ENERGY PREDICTED BY IDOCK:   -0.23 KCAL/MOL
REMARK 927      BINDING AFFINITY PREDICTED BY RF-SCORE:    0.00 PKD
ROOT
HETATM    1  C   UNL     1      -6.138  10.395  68.004  1.00  0.00    -0.047 C  
HETATM    2  C   UNL     1      -5.475  11.658  67.504  1.00  0.00    -0.069 C  
HETATM    3  S   UNL     1      -6.752  12.934  67.415  1.00  0.00    -0.057 SA 
HETATM    4  C   UNL     1      -8.043  11.987  68.315  1.00  0.00    -0.155 C  
HETATM    5  C   UNL     1      -7.328  10.741  68.903  1.00  0.00    -0.104 C  
HETATM    6  O   UNL     1      -8.428   7.921  67.163  1.00  0.00    -0.115 OA 
HETATM    7  C   UNL     1      -7.823   8.872  67.616  1.00  0.00    -0.101 C  
HETATM    8  N   UNL     1      -8.085   9.514  68.820  1.00  0.00    -0.095 NA 
HETATM    9  N   UNL     1      -6.748   9.525  67.024  1.00  0.00    -0.071 NA 
ENDROOT
BRANCH   4  10
HETATM   10  C   UNL     1      -9.231  11.787  67.349  1.00  0.00    -0.174 C  
BRANCH  10  11
HETATM   11  C   UNL     1     -10.632  11.778  67.986  1.00  0.00    -0.235 C  
BRANCH  11  12
HETATM   12  C   UNL     1     -11.694  12.575  67.228  1.00  0.00    -0.431 C  
BRANCH  12  13
HETATM   13  C   UNL     1     -11.711  12.224  65.743  1.00  0.00    -0.445 C  
HETATM   14  C   UNL     1     -12.605  13.140  64.941  1.00  0.00    -0.407 C  
HETATM   15  O   UNL     1     -13.222  14.091  65.386  1.00  0.00    -0.761 OA 
HETATM   16  O   UNL     1     -12.637  12.792  63.633  1.00  0.00    -0.685 OA 
ENDBRANCH  12  13
ENDBRANCH  11  12
ENDBRANCH  10  11
ENDBRANCH   4  10
TORSDOF 4
ENDMDL
MODEL      168
REMARK 921   NORMALIZED FREE ENERGY PREDICTED BY IDOCK:   -3.23 KCAL/MOL
REMARK 922        TOTAL FREE ENERGY PREDICTED BY IDOCK:   -4.16 KCAL/MOL
REMARK 923 INTER-LIGAND FREE ENERGY PREDICTED BY IDOCK:   -4.23 KCAL/MOL
REMARK 924 INTRA-LIGAND FREE ENERGY PREDICTED BY IDOCK:    0.06 KCAL/MOL
REMARK 927      BINDING AFFINITY PREDICTED BY RF-SCORE:    0.00 PKD
ROOT
HETATM    1  C   UNL     1     -12.347  13.839  69.583  1.00  0.00    -0.232 C  
HETATM    2  C   UNL     1     -11.725  15.217  69.605  1.00  0.00    -0.334 C  
HETATM    3  S   UNL     1     -10.148  15.106  68.727  1.00  0.00    -0.234 SA 
HETATM    4  C   UNL     1     -10.417  13.421  68.046  1.00  0.00    -0.239 C  
HETATM    5  C   UNL     1     -11.903  13.077  68.332  1.00  0.00    -0.334 C  
HETATM    6  O   UNL     1     -12.002  10.601  70.793  1.00  0.00    -0.320 OA 
HETATM    7  C   UNL     1     -12.039  11.625  70.141  1.00  0.00    -0.333 C  
HETATM    8  N   UNL     1     -12.138  11.717  68.758  1.00  0.00    -0.433 NA 
HETATM    9  N   UNL     1     -11.979  12.922  70.638  1.00  0.00    -0.231 NA 
ENDROOT
BRANCH   4  10
HETATM   10  C   UNL     1      -9.309  12.508  68.616  1.00  0.00     0.005 C  
BRANCH  10  11
HETATM   11  C   UNL     1      -8.586  11.603  67.602  1.00  0.00    -0.142 C  
BRANCH  11  12
HETATM   12  C   UNL     1      -9.492  10.947  66.559  1.00  0.00    -0.210 C  
BRANCH  12  13
HETATM   13  C   UNL     1      -9.797  11.893  65.401  1.00  0.00    -0.258 C  
HETATM   14  C   UNL     1      -9.804  11.190  64.065  1.00  0.00    -0.302 C  
HETATM   15  O   UNL     1      -9.635   9.995  63.895  1.00  0.00    -0.283 OA 
HETATM   16  O   UNL     1     -10.040  12.049  63.046  1.00  0.00    -0.348 OA 
ENDBRANCH  12  13
ENDBRANCH  11  12
ENDBRANCH  10  11
ENDBRANCH   4  10
TORSDOF 4
ENDMDL
MODEL      169
REMARK 921   NORMALIZED FREE ENERGY PREDICTED BY IDOCK:   -3.23 KCAL/MOL
REMARK 922        TOTAL FREE ENERGY PREDICTED BY IDOCK:   -4.16 KCAL/MOL
REMARK 923 INTER-LIGAND FREE ENERGY PREDICTED BY IDOCK:   -3.53 KCAL/MOL
REMARK 924 INTRA-LIGAND FREE ENERGY PREDICTED BY IDOCK:   -0.63 KCAL/MOL
REMARK 927      BINDING AFFINITY PREDICTED BY RF-SCORE:    0.00 PKD
ROOT
HETATM    1  C   UNL     1     -11.072  15.807  67.186  1.00  0.00    -0.180 C  
HETATM    2  C   UNL     1     -10.911  16.711  68.388  1.00  0.00    -0.345 C  
HETATM    3  S   UNL     1      -9.180  17.227  68.440  1.00  0.00    -0.273 SA 
HETATM    4  C   UNL     1      -8.729  16.585  66.779  1.00  0.00    -0.226 C  
HETATM    5  C   UNL     1     -10.066  16.187  66.098  1.00  0.00    -0.338 C  
HETATM    6  O   UNL     1     -10.199  12.704  65.889  1.00  0.00    -0.264 OA 
HETATM    7  C   UNL     1     -10.327  13.880  66.166  1.00  0.00    -0.301 C  
HETATM    8  N   UNL     1     -10.018  14.957  65.343  1.00  0.00    -0.354 NA 
HETATM    9  N   UNL     1     -10.799  14.399  67.367  1.00  0.00    -0.287 NA 
ENDROOT
BRANCH   4  10
HETATM   10  C   UNL     1      -7.637  15.511  66.977  1.00  0.00    -0.228 C  
BRANCH  10  11
HETATM   11  C   UNL     1      -7.388  15.054  68.425  1.00  0.00    -0.112 C  
BRANCH  11  12
HETATM   12  C   UNL     1      -7.314  13.539  68.623  1.00  0.00    -0.112 C  
BRANCH  12  13
HETATM   13  C   UNL     1      -6.847  12.826  67.357  1.00  0.00    -0.137 C  
HETATM   14  C   UNL     1      -7.388  11.420  67.251  1.00  0.00    -0.130 C  
HETATM   15  O   UNL     1      -8.150  10.895  68.043  1.00  0.00    -0.112 OA 
HETATM   16  O   UNL     1      -6.935  10.790  66.142  1.00  0.00    -0.129 OA 
ENDBRANCH  12  13
ENDBRANCH  11  12
ENDBRANCH  10  11
ENDBRANCH   4  10
TORSDOF 4
ENDMDL
MODEL      170
REMARK 921   NORMALIZED FREE ENERGY PREDICTED BY IDOCK:   -3.22 KCAL/MOL
REMARK 922        TOTAL FREE ENERGY PREDICTED BY IDOCK:   -4.15 KCAL/MOL
REMARK 923 INTER-LIGAND FREE ENERGY PREDICTED BY IDOCK:   -3.64 KCAL/MOL
REMARK 924 INTRA-LIGAND FREE ENERGY PREDICTED BY IDOCK:   -0.51 KCAL/MOL
REMARK 927      BINDING AFFINITY PREDICTED BY RF-SCORE:    0.00 PKD
ROOT
HETATM    1  C   UNL     1      -9.640  11.852  68.066  1.00  0.00    -0.193 C  
HETATM    2  C   UNL     1      -8.189  11.430  68.006  1.00  0.00    -0.140 C  
HETATM    3  S   UNL     1      -8.116   9.907  67.036  1.00  0.00    -0.109 SA 
HETATM    4  C   UNL     1      -9.848   9.973  66.427  1.00  0.00    -0.224 C  
HETATM    5  C   UNL     1     -10.383  11.377  66.815  1.00  0.00    -0.234 C  
HETATM    6  O   UNL     1     -12.748  10.988  69.355  1.00  0.00    -0.279 OA 
HETATM    7  C   UNL     1     -11.765  11.205  68.675  1.00  0.00    -0.320 C  
HETATM    8  N   UNL     1     -11.744  11.394  67.298  1.00  0.00    -0.583 NA 
HETATM    9  N   UNL     1     -10.454  11.300  69.126  1.00  0.00    -0.195 NA 
ENDROOT
BRANCH   4  10
HETATM   10  C   UNL     1     -10.575   8.718  66.957  1.00  0.00    -0.283 C  
BRANCH  10  11
HETATM   11  C   UNL     1      -9.858   7.937  68.072  1.00  0.00    -0.195 C  
BRANCH  11  12
HETATM   12  C   UNL     1     -10.732   7.571  69.272  1.00  0.00    -0.185 C  
BRANCH  12  13
HETATM   13  C   UNL     1      -9.910   7.439  70.551  1.00  0.00    -0.180 C  
HETATM   14  C   UNL     1      -9.608   6.001  70.900  1.00  0.00    -0.169 C  
HETATM   15  O   UNL     1      -9.927   5.031  70.235  1.00  0.00    -0.214 OA 
HETATM   16  O   UNL     1      -8.910   5.901  72.055  1.00  0.00    -0.137 OA 
ENDBRANCH  12  13
ENDBRANCH  11  12
ENDBRANCH  10  11
ENDBRANCH   4  10
TORSDOF 4
ENDMDL
MODEL      171
REMARK 921   NORMALIZED FREE ENERGY PREDICTED BY IDOCK:   -3.21 KCAL/MOL
REMARK 922        TOTAL FREE ENERGY PREDICTED BY IDOCK:   -4.13 KCAL/MOL
REMARK 923 INTER-LIGAND FREE ENERGY PREDICTED BY IDOCK:   -3.77 KCAL/MOL
REMARK 924 INTRA-LIGAND FREE ENERGY PREDICTED BY IDOCK:   -0.36 KCAL/MOL
REMARK 927      BINDING AFFINITY PREDICTED BY RF-SCORE:    0.00 PKD
ROOT
HETATM    1  C   UNL     1      -7.047  11.619  69.007  1.00  0.00    -0.108 C  
HETATM    2  C   UNL     1      -7.746  10.393  69.551  1.00  0.00    -0.156 C  
HETATM    3  S   UNL     1      -8.155   9.342  68.139  1.00  0.00    -0.107 SA 
HETATM    4  C   UNL     1      -7.163  10.271  66.903  1.00  0.00    -0.093 C  
HETATM    5  C   UNL     1      -6.303  11.276  67.714  1.00  0.00    -0.056 C  
HETATM    6  O   UNL     1      -7.520  14.495  67.115  1.00  0.00    -0.153 OA 
HETATM    7  C   UNL     1      -7.227  13.403  67.560  1.00  0.00    -0.153 C  
HETATM    8  N   UNL     1      -6.188  12.589  67.123  1.00  0.00    -0.233 NA 
HETATM    9  N   UNL     1      -7.872  12.731  68.592  1.00  0.00    -0.090 NA 
ENDROOT
BRANCH   4  10
HETATM   10  C   UNL     1      -8.139  10.807  65.832  1.00  0.00    -0.148 C  
BRANCH  10  11
HETATM   11  C   UNL     1      -9.588  10.296  65.917  1.00  0.00    -0.263 C  
BRANCH  11  12
HETATM   12  C   UNL     1     -10.606  11.098  65.106  1.00  0.00    -0.319 C  
BRANCH  12  13
HETATM   13  C   UNL     1     -10.807  12.499  65.677  1.00  0.00    -0.311 C  
HETATM   14  C   UNL     1     -12.222  12.998  65.505  1.00  0.00    -0.469 C  
HETATM   15  O   UNL     1     -13.139  12.365  65.012  1.00  0.00    -0.678 OA 
HETATM   16  O   UNL     1     -12.374  14.255  65.984  1.00  0.00    -0.432 OA 
ENDBRANCH  12  13
ENDBRANCH  11  12
ENDBRANCH  10  11
ENDBRANCH   4  10
TORSDOF 4
ENDMDL
MODEL      172
REMARK 921   NORMALIZED FREE ENERGY PREDICTED BY IDOCK:   -3.20 KCAL/MOL
REMARK 922        TOTAL FREE ENERGY PREDICTED BY IDOCK:   -4.13 KCAL/MOL
REMARK 923 INTER-LIGAND FREE ENERGY PREDICTED BY IDOCK:   -3.89 KCAL/MOL
REMARK 924 INTRA-LIGAND FREE ENERGY PREDICTED BY IDOCK:   -0.23 KCAL/MOL
REMARK 927      BINDING AFFINITY PREDICTED BY RF-SCORE:    0.00 PKD
ROOT
HETATM    1  C   UNL     1      -7.725   4.674  69.206  1.00  0.00    -0.063 C  
HETATM    2  C   UNL     1      -7.843   3.314  69.856  1.00  0.00    -0.046 C  
HETATM    3  S   UNL     1      -9.433   3.267  70.713  1.00  0.00    -0.160 SA 
HETATM    4  C   UNL     1     -10.097   4.819  69.988  1.00  0.00    -0.238 C  
HETATM    5  C   UNL     1      -9.113   5.217  68.856  1.00  0.00    -0.107 C  
HETATM    6  O   UNL     1      -7.366   8.065  69.871  1.00  0.00    -0.064 OA 
HETATM    7  C   UNL     1      -7.742   6.947  69.580  1.00  0.00    -0.110 C  
HETATM    8  N   UNL     1      -8.827   6.630  68.771  1.00  0.00    -0.127 NA 
HETATM    9  N   UNL     1      -7.175   5.749  70.000  1.00  0.00    -0.067 NA 
ENDROOT
BRANCH   4  10
HETATM   10  C   UNL     1     -10.347   5.805  71.150  1.00  0.00    -0.286 C  
BRANCH  10  11
HETATM   11  C   UNL     1     -11.596   6.696  71.029  1.00  0.00    -0.399 C  
BRANCH  11  12
HETATM   12  C   UNL     1     -11.863   7.604  72.230  1.00  0.00    -0.354 C  
BRANCH  12  13
HETATM   13  C   UNL     1     -11.912   9.075  71.827  1.00  0.00    -0.438 C  
HETATM   14  C   UNL     1     -13.237   9.722  72.152  1.00  0.00    -0.436 C  
HETATM   15  O   UNL     1     -14.170   9.177  72.714  1.00  0.00    -0.552 OA 
HETATM   16  O   UNL     1     -13.275  11.016  71.755  1.00  0.00    -0.446 OA 
ENDBRANCH  12  13
ENDBRANCH  11  12
ENDBRANCH  10  11
ENDBRANCH   4  10
TORSDOF 4
ENDMDL
MODEL      173
REMARK 921   NORMALIZED FREE ENERGY PREDICTED BY IDOCK:   -3.19 KCAL/MOL
REMARK 922        TOTAL FREE ENERGY PREDICTED BY IDOCK:   -4.11 KCAL/MOL
REMARK 923 INTER-LIGAND FREE ENERGY PREDICTED BY IDOCK:   -3.96 KCAL/MOL
REMARK 924 INTRA-LIGAND FREE ENERGY PREDICTED BY IDOCK:   -0.15 KCAL/MOL
REMARK 927      BINDING AFFINITY PREDICTED BY RF-SCORE:    0.00 PKD
ROOT
HETATM    1  C   UNL     1     -12.007  13.866  67.468  1.00  0.00    -0.386 C  
HETATM    2  C   UNL     1     -11.374  15.130  66.932  1.00  0.00    -0.264 C  
HETATM    3  S   UNL     1     -10.001  14.631  65.868  1.00  0.00    -0.336 SA 
HETATM    4  C   UNL     1     -10.419  12.843  65.827  1.00  0.00    -0.278 C  
HETATM    5  C   UNL     1     -11.826  12.718  66.471  1.00  0.00    -0.405 C  
HETATM    6  O   UNL     1     -11.479  11.153  69.573  1.00  0.00    -0.249 OA 
HETATM    7  C   UNL     1     -11.627  11.922  68.644  1.00  0.00    -0.310 C  
HETATM    8  N   UNL     1     -11.993  11.582  67.347  1.00  0.00    -0.597 NA 
HETATM    9  N   UNL     1     -11.454  13.301  68.677  1.00  0.00    -0.280 NA 
ENDROOT
BRANCH   4  10
HETATM   10  C   UNL     1      -9.235  12.073  66.451  1.00  0.00    -0.216 C  
BRANCH  10  11
HETATM   11  C   UNL     1      -9.091  10.597  66.039  1.00  0.00    -0.201 C  
BRANCH  11  12
HETATM   12  C   UNL     1      -7.718  10.210  65.488  1.00  0.00    -0.145 C  
BRANCH  12  13
HETATM   13  C   UNL     1      -7.233   8.882  66.062  1.00  0.00    -0.089 C  
HETATM   14  C   UNL     1      -7.166   7.790  65.021  1.00  0.00    -0.065 C  
HETATM   15  O   UNL     1      -7.419   7.927  63.837  1.00  0.00    -0.095 OA 
HETATM   16  O   UNL     1      -6.769   6.611  65.554  1.00  0.00    -0.048 OA 
ENDBRANCH  12  13
ENDBRANCH  11  12
ENDBRANCH  10  11
ENDBRANCH   4  10
TORSDOF 4
ENDMDL
MODEL      174
REMARK 921   NORMALIZED FREE ENERGY PREDICTED BY IDOCK:   -3.18 KCAL/MOL
REMARK 922        TOTAL FREE ENERGY PREDICTED BY IDOCK:   -4.10 KCAL/MOL
REMARK 923 INTER-LIGAND FREE ENERGY PREDICTED BY IDOCK:   -3.90 KCAL/MOL
REMARK 924 INTRA-LIGAND FREE ENERGY PREDICTED BY IDOCK:   -0.20 KCAL/MOL
REMARK 927      BINDING AFFINITY PREDICTED BY RF-SCORE:    0.00 PKD
ROOT
HETATM    1  C   UNL     1      -8.139   9.455  68.391  1.00  0.00    -0.109 C  
HETATM    2  C   UNL     1      -7.223  10.606  68.041  1.00  0.00    -0.087 C  
HETATM    3  S   UNL     1      -8.265  12.061  67.788  1.00  0.00    -0.163 SA 
HETATM    4  C   UNL     1      -9.812  11.315  68.441  1.00  0.00    -0.199 C  
HETATM    5  C   UNL     1      -9.394   9.972  69.097  1.00  0.00    -0.193 C  
HETATM    6  O   UNL     1     -10.602   7.360  67.119  1.00  0.00    -0.295 OA 
HETATM    7  C   UNL     1      -9.944   8.206  67.692  1.00  0.00    -0.185 C  
HETATM    8  N   UNL     1     -10.301   8.873  68.858  1.00  0.00    -0.210 NA 
HETATM    9  N   UNL     1      -8.703   8.693  67.299  1.00  0.00    -0.128 NA 
ENDROOT
BRANCH   4  10
HETATM   10  C   UNL     1     -10.843  11.302  67.291  1.00  0.00    -0.317 C  
BRANCH  10  11
HETATM   11  C   UNL     1     -11.969  12.348  67.377  1.00  0.00    -0.246 C  
BRANCH  11  12
HETATM   12  C   UNL     1     -11.563  13.688  67.990  1.00  0.00    -0.368 C  
BRANCH  12  13
HETATM   13  C   UNL     1     -12.215  13.907  69.353  1.00  0.00    -0.338 C  
HETATM   14  C   UNL     1     -12.026  15.314  69.867  1.00  0.00    -0.343 C  
HETATM   15  O   UNL     1     -11.463  16.214  69.270  1.00  0.00    -0.334 OA 
HETATM   16  O   UNL     1     -12.579  15.480  71.091  1.00  0.00    -0.384 OA 
ENDBRANCH  12  13
ENDBRANCH  11  12
ENDBRANCH  10  11
ENDBRANCH   4  10
TORSDOF 4
ENDMDL
MODEL      175
REMARK 921   NORMALIZED FREE ENERGY PREDICTED BY IDOCK:   -3.15 KCAL/MOL
REMARK 922        TOTAL FREE ENERGY PREDICTED BY IDOCK:   -4.06 KCAL/MOL
REMARK 923 INTER-LIGAND FREE ENERGY PREDICTED BY IDOCK:   -3.56 KCAL/MOL
REMARK 924 INTRA-LIGAND FREE ENERGY PREDICTED BY IDOCK:   -0.50 KCAL/MOL
REMARK 927      BINDING AFFINITY PREDICTED BY RF-SCORE:    0.00 PKD
ROOT
HETATM    1  C   UNL     1      -8.393   8.542  68.231  1.00  0.00    -0.124 C  
HETATM    2  C   UNL     1      -9.738   8.028  67.768  1.00  0.00    -0.156 C  
HETATM    3  S   UNL     1     -10.555   9.383  66.894  1.00  0.00    -0.108 SA 
HETATM    4  C   UNL     1      -9.088  10.485  66.816  1.00  0.00    -0.151 C  
HETATM    5  C   UNL     1      -7.882   9.624  67.276  1.00  0.00    -0.095 C  
HETATM    6  O   UNL     1      -6.852  10.763  70.412  1.00  0.00    -0.278 OA 
HETATM    7  C   UNL     1      -7.320  10.165  69.465  1.00  0.00    -0.123 C  
HETATM    8  N   UNL     1      -6.942  10.307  68.134  1.00  0.00    -0.073 NA 
HETATM    9  N   UNL     1      -8.338   9.218  69.507  1.00  0.00    -0.122 NA 
ENDROOT
BRANCH   4  10
HETATM   10  C   UNL     1      -9.433  11.774  67.594  1.00  0.00    -0.180 C  
BRANCH  10  11
HETATM   11  C   UNL     1     -10.758  11.760  68.378  1.00  0.00    -0.249 C  
BRANCH  11  12
HETATM   12  C   UNL     1     -11.714  12.908  68.055  1.00  0.00    -0.401 C  
BRANCH  12  13
HETATM   13  C   UNL     1     -11.842  13.130  66.551  1.00  0.00    -0.456 C  
HETATM   14  C   UNL     1     -11.342  14.489  66.120  1.00  0.00    -0.348 C  
HETATM   15  O   UNL     1     -10.843  15.322  66.855  1.00  0.00    -0.310 OA 
HETATM   16  O   UNL     1     -11.497  14.683  64.790  1.00  0.00    -0.384 OA 
ENDBRANCH  12  13
ENDBRANCH  11  12
ENDBRANCH  10  11
ENDBRANCH   4  10
TORSDOF 4
ENDMDL
MODEL      176
REMARK 921   NORMALIZED FREE ENERGY PREDICTED BY IDOCK:   -3.14 KCAL/MOL
REMARK 922        TOTAL FREE ENERGY PREDICTED BY IDOCK:   -4.05 KCAL/MOL
REMARK 923 INTER-LIGAND FREE ENERGY PREDICTED BY IDOCK:   -3.75 KCAL/MOL
REMARK 924 INTRA-LIGAND FREE ENERGY PREDICTED BY IDOCK:   -0.30 KCAL/MOL
REMARK 927      BINDING AFFINITY PREDICTED BY RF-SCORE:    0.00 PKD
ROOT
HETATM    1  C   UNL     1      -9.077   9.011  66.381  1.00  0.00    -0.170 C  
HETATM    2  C   UNL     1      -8.809  10.477  66.638  1.00  0.00    -0.136 C  
HETATM    3  S   UNL     1      -8.586  10.676  68.420  1.00  0.00    -0.140 SA 
HETATM    4  C   UNL     1      -8.498   8.884  68.812  1.00  0.00    -0.131 C  
HETATM    5  C   UNL     1      -8.392   8.153  67.447  1.00  0.00    -0.122 C  
HETATM    6  O   UNL     1     -11.395   6.470  66.866  1.00  0.00    -0.330 OA 
HETATM    7  C   UNL     1     -10.450   7.231  66.887  1.00  0.00    -0.299 C  
HETATM    8  N   UNL     1      -9.171   6.940  67.348  1.00  0.00    -0.124 NA 
HETATM    9  N   UNL     1     -10.446   8.556  66.466  1.00  0.00    -0.179 NA 
ENDROOT
BRANCH   4  10
HETATM   10  C   UNL     1      -9.679   8.555  69.752  1.00  0.00    -0.179 C  
BRANCH  10  11
HETATM   11  C   UNL     1      -9.317   7.873  71.084  1.00  0.00    -0.171 C  
BRANCH  11  12
HETATM   12  C   UNL     1     -10.508   7.530  71.980  1.00  0.00    -0.245 C  
BRANCH  12  13
HETATM   13  C   UNL     1     -11.558   8.638  71.974  1.00  0.00    -0.440 C  
HETATM   14  C   UNL     1     -12.956   8.110  71.761  1.00  0.00    -0.342 C  
HETATM   15  O   UNL     1     -13.258   6.935  71.650  1.00  0.00    -0.354 OA 
HETATM   16  O   UNL     1     -13.870   9.108  71.722  1.00  0.00    -0.389 OA 
ENDBRANCH  12  13
ENDBRANCH  11  12
ENDBRANCH  10  11
ENDBRANCH   4  10
TORSDOF 4
ENDMDL
MODEL      177
REMARK 921   NORMALIZED FREE ENERGY PREDICTED BY IDOCK:   -3.14 KCAL/MOL
REMARK 922        TOTAL FREE ENERGY PREDICTED BY IDOCK:   -4.05 KCAL/MOL
REMARK 923 INTER-LIGAND FREE ENERGY PREDICTED BY IDOCK:   -3.74 KCAL/MOL
REMARK 924 INTRA-LIGAND FREE ENERGY PREDICTED BY IDOCK:   -0.31 KCAL/MOL
REMARK 927      BINDING AFFINITY PREDICTED BY RF-SCORE:    0.00 PKD
ROOT
HETATM    1  C   UNL     1      -8.255   5.043  70.218  1.00  0.00    -0.088 C  
HETATM    2  C   UNL     1      -8.167   5.142  71.725  1.00  0.00    -0.117 C  
HETATM    3  S   UNL     1      -9.784   5.690  72.319  1.00  0.00    -0.155 SA 
HETATM    4  C   UNL     1     -10.667   5.479  70.723  1.00  0.00    -0.224 C  
HETATM    5  C   UNL     1      -9.688   4.716  69.791  1.00  0.00    -0.209 C  
HETATM    6  O   UNL     1      -8.590   6.917  67.312  1.00  0.00    -0.120 OA 
HETATM    7  C   UNL     1      -8.726   6.196  68.280  1.00  0.00    -0.114 C  
HETATM    8  N   UNL     1      -9.666   5.182  68.424  1.00  0.00    -0.139 NA 
HETATM    9  N   UNL     1      -7.980   6.238  69.453  1.00  0.00    -0.107 NA 
ENDROOT
BRANCH   4  10
HETATM   10  C   UNL     1     -11.187   6.868  70.292  1.00  0.00    -0.363 C  
BRANCH  10  11
HETATM   11  C   UNL     1     -10.530   8.081  70.974  1.00  0.00    -0.229 C  
BRANCH  11  12
HETATM   12  C   UNL     1     -11.093   9.441  70.560  1.00  0.00    -0.330 C  
BRANCH  12  13
HETATM   13  C   UNL     1     -12.039  10.007  71.615  1.00  0.00    -0.420 C  
HETATM   14  C   UNL     1     -12.601  11.354  71.227  1.00  0.00    -0.374 C  
HETATM   15  O   UNL     1     -12.382  11.935  70.179  1.00  0.00    -0.248 OA 
HETATM   16  O   UNL     1     -13.409  11.858  72.190  1.00  0.00    -0.503 OA 
ENDBRANCH  12  13
ENDBRANCH  11  12
ENDBRANCH  10  11
ENDBRANCH   4  10
TORSDOF 4
ENDMDL
MODEL      178
REMARK 921   NORMALIZED FREE ENERGY PREDICTED BY IDOCK:   -3.14 KCAL/MOL
REMARK 922        TOTAL FREE ENERGY PREDICTED BY IDOCK:   -4.05 KCAL/MOL
REMARK 923 INTER-LIGAND FREE ENERGY PREDICTED BY IDOCK:   -3.75 KCAL/MOL
REMARK 924 INTRA-LIGAND FREE ENERGY PREDICTED BY IDOCK:   -0.30 KCAL/MOL
REMARK 927      BINDING AFFINITY PREDICTED BY RF-SCORE:    0.00 PKD
ROOT
HETATM    1  C   UNL     1      -9.412  16.863  68.424  1.00  0.00    -0.258 C  
HETATM    2  C   UNL     1     -10.887  16.964  68.105  1.00  0.00    -0.351 C  
HETATM    3  S   UNL     1     -11.550  15.283  68.101  1.00  0.00    -0.279 SA 
HETATM    4  C   UNL     1     -10.063  14.480  68.822  1.00  0.00    -0.239 C  
HETATM    5  C   UNL     1      -9.142  15.635  69.296  1.00  0.00    -0.270 C  
HETATM    6  O   UNL     1      -6.358  15.757  67.191  1.00  0.00    -0.305 OA 
HETATM    7  C   UNL     1      -7.407  15.931  67.780  1.00  0.00    -0.144 C  
HETATM    8  N   UNL     1      -7.735  15.435  69.036  1.00  0.00    -0.168 NA 
HETATM    9  N   UNL     1      -8.502  16.653  67.321  1.00  0.00    -0.189 NA 
ENDROOT
BRANCH   4  10
HETATM   10  C   UNL     1      -9.529  13.471  67.781  1.00  0.00    -0.216 C  
BRANCH  10  11
HETATM   11  C   UNL     1     -10.546  12.962  66.744  1.00  0.00    -0.268 C  
BRANCH  11  12
HETATM   12  C   UNL     1     -10.852  11.466  66.817  1.00  0.00    -0.336 C  
BRANCH  12  13
HETATM   13  C   UNL     1      -9.755  10.700  67.551  1.00  0.00    -0.189 C  
HETATM   14  C   UNL     1      -9.622   9.275  67.069  1.00  0.00    -0.171 C  
HETATM   15  O   UNL     1     -10.268   8.771  66.168  1.00  0.00    -0.233 OA 
HETATM   16  O   UNL     1      -8.670   8.599  67.755  1.00  0.00    -0.135 OA 
ENDBRANCH  12  13
ENDBRANCH  11  12
ENDBRANCH  10  11
ENDBRANCH   4  10
TORSDOF 4
ENDMDL
MODEL      179
REMARK 921   NORMALIZED FREE ENERGY PREDICTED BY IDOCK:   -3.13 KCAL/MOL
REMARK 922        TOTAL FREE ENERGY PREDICTED BY IDOCK:   -4.04 KCAL/MOL
REMARK 923 INTER-LIGAND FREE ENERGY PREDICTED BY IDOCK:   -3.69 KCAL/MOL
REMARK 924 INTRA-LIGAND FREE ENERGY PREDICTED BY IDOCK:   -0.36 KCAL/MOL
REMARK 927      BINDING AFFINITY PREDICTED BY RF-SCORE:    0.00 PKD
ROOT
HETATM    1  C   UNL     1      -8.615   5.404  70.649  1.00  0.00    -0.127 C  
HETATM    2  C   UNL     1      -8.250   5.904  72.029  1.00  0.00    -0.112 C  
HETATM    3  S   UNL     1      -9.705   6.746  72.694  1.00  0.00    -0.150 SA 
HETATM    4  C   UNL     1     -10.873   6.189  71.390  1.00  0.00    -0.265 C  
HETATM    5  C   UNL     1     -10.115   5.110  70.571  1.00  0.00    -0.256 C  
HETATM    6  O   UNL     1      -9.388   6.431  67.422  1.00  0.00    -0.116 OA 
HETATM    7  C   UNL     1      -9.378   6.020  68.565  1.00  0.00    -0.117 C  
HETATM    8  N   UNL     1     -10.321   5.178  69.143  1.00  0.00    -0.195 NA 
HETATM    9  N   UNL     1      -8.430   6.311  69.539  1.00  0.00    -0.127 NA 
ENDROOT
BRANCH   4  10
HETATM   10  C   UNL     1     -11.399   7.450  70.669  1.00  0.00    -0.304 C  
BRANCH  10  11
HETATM   11  C   UNL     1     -10.607   8.748  70.904  1.00  0.00    -0.276 C  
BRANCH  11  12
HETATM   12  C   UNL     1     -11.190   9.993  70.236  1.00  0.00    -0.379 C  
BRANCH  12  13
HETATM   13  C   UNL     1     -10.183  10.658  69.301  1.00  0.00    -0.235 C  
HETATM   14  C   UNL     1     -10.846  11.360  68.140  1.00  0.00    -0.213 C  
HETATM   15  O   UNL     1     -12.048  11.448  67.961  1.00  0.00    -0.629 OA 
HETATM   16  O   UNL     1      -9.937  11.913  67.303  1.00  0.00    -0.186 OA 
ENDBRANCH  12  13
ENDBRANCH  11  12
ENDBRANCH  10  11
ENDBRANCH   4  10
TORSDOF 4
ENDMDL
MODEL      180
REMARK 921   NORMALIZED FREE ENERGY PREDICTED BY IDOCK:   -3.12 KCAL/MOL
REMARK 922        TOTAL FREE ENERGY PREDICTED BY IDOCK:   -4.03 KCAL/MOL
REMARK 923 INTER-LIGAND FREE ENERGY PREDICTED BY IDOCK:   -3.75 KCAL/MOL
REMARK 924 INTRA-LIGAND FREE ENERGY PREDICTED BY IDOCK:   -0.28 KCAL/MOL
REMARK 927      BINDING AFFINITY PREDICTED BY RF-SCORE:    0.00 PKD
ROOT
HETATM    1  C   UNL     1      -8.243   6.440  65.808  1.00  0.00    -0.134 C  
HETATM    2  C   UNL     1      -8.661   7.821  65.357  1.00  0.00    -0.070 C  
HETATM    3  S   UNL     1      -9.798   8.469  66.605  1.00  0.00    -0.286 SA 
HETATM    4  C   UNL     1      -9.495   7.156  67.853  1.00  0.00    -0.130 C  
HETATM    5  C   UNL     1      -8.274   6.348  67.336  1.00  0.00    -0.116 C  
HETATM    6  O   UNL     1      -9.391   3.201  66.317  1.00  0.00    -0.157 OA 
HETATM    7  C   UNL     1      -8.994   4.345  66.405  1.00  0.00    -0.117 C  
HETATM    8  N   UNL     1      -8.376   4.918  67.510  1.00  0.00    -0.105 NA 
HETATM    9  N   UNL     1      -9.082   5.327  65.425  1.00  0.00    -0.148 NA 
ENDROOT
BRANCH   4  10
HETATM   10  C   UNL     1     -10.834   6.424  68.092  1.00  0.00    -0.386 C  
BRANCH  10  11
HETATM   11  C   UNL     1     -11.337   6.386  69.547  1.00  0.00    -0.460 C  
BRANCH  11  12
HETATM   12  C   UNL     1     -10.622   7.340  70.504  1.00  0.00    -0.237 C  
BRANCH  12  13
HETATM   13  C   UNL     1     -11.259   8.726  70.502  1.00  0.00    -0.278 C  
HETATM   14  C   UNL     1     -12.034   9.010  71.767  1.00  0.00    -0.368 C  
HETATM   15  O   UNL     1     -12.125   8.260  72.722  1.00  0.00    -0.353 OA 
HETATM   16  O   UNL     1     -12.623  10.229  71.733  1.00  0.00    -0.405 OA 
ENDBRANCH  12  13
ENDBRANCH  11  12
ENDBRANCH  10  11
ENDBRANCH   4  10
TORSDOF 4
ENDMDL
MODEL      181
REMARK 921   NORMALIZED FREE ENERGY PREDICTED BY IDOCK:   -3.09 KCAL/MOL
REMARK 922        TOTAL FREE ENERGY PREDICTED BY IDOCK:   -3.99 KCAL/MOL
REMARK 923 INTER-LIGAND FREE ENERGY PREDICTED BY IDOCK:   -3.74 KCAL/MOL
REMARK 924 INTRA-LIGAND FREE ENERGY PREDICTED BY IDOCK:   -0.26 KCAL/MOL
REMARK 927      BINDING AFFINITY PREDICTED BY RF-SCORE:    0.00 PKD
ROOT
HETATM    1  C   UNL     1     -10.078  12.426  66.741  1.00  0.00    -0.214 C  
HETATM    2  C   UNL     1     -10.889  12.839  67.949  1.00  0.00    -0.220 C  
HETATM    3  S   UNL     1     -11.124  11.363  68.965  1.00  0.00    -0.263 SA 
HETATM    4  C   UNL     1      -9.933  10.301  68.055  1.00  0.00    -0.153 C  
HETATM    5  C   UNL     1      -9.167  11.248  67.092  1.00  0.00    -0.163 C  
HETATM    6  O   UNL     1     -10.175  10.541  63.824  1.00  0.00    -0.281 OA 
HETATM    7  C   UNL     1      -9.986  11.003  64.932  1.00  0.00    -0.288 C  
HETATM    8  N   UNL     1      -8.923  10.705  65.776  1.00  0.00    -0.175 NA 
HETATM    9  N   UNL     1     -10.797  11.917  65.595  1.00  0.00    -0.278 NA 
ENDROOT
BRANCH   4  10
HETATM   10  C   UNL     1     -10.724   9.111  67.468  1.00  0.00    -0.255 C  
BRANCH  10  11
HETATM   11  C   UNL     1     -10.113   7.716  67.687  1.00  0.00    -0.249 C  
BRANCH  11  12
HETATM   12  C   UNL     1     -11.020   6.545  67.306  1.00  0.00    -0.475 C  
BRANCH  12  13
HETATM   13  C   UNL     1     -10.493   5.221  67.853  1.00  0.00    -0.154 C  
HETATM   14  C   UNL     1      -9.819   4.383  66.794  1.00  0.00    -0.218 C  
HETATM   15  O   UNL     1      -9.653   4.712  65.632  1.00  0.00    -0.162 OA 
HETATM   16  O   UNL     1      -9.390   3.197  67.288  1.00  0.00    -0.191 OA 
ENDBRANCH  12  13
ENDBRANCH  11  12
ENDBRANCH  10  11
ENDBRANCH   4  10
TORSDOF 4
ENDMDL
MODEL      182
REMARK 921   NORMALIZED FREE ENERGY PREDICTED BY IDOCK:   -3.07 KCAL/MOL
REMARK 922        TOTAL FREE ENERGY PREDICTED BY IDOCK:   -3.97 KCAL/MOL
REMARK 923 INTER-LIGAND FREE ENERGY PREDICTED BY IDOCK:   -3.66 KCAL/MOL
REMARK 924 INTRA-LIGAND FREE ENERGY PREDICTED BY IDOCK:   -0.31 KCAL/MOL
REMARK 927      BINDING AFFINITY PREDICTED BY RF-SCORE:    0.00 PKD
ROOT
HETATM    1  C   UNL     1      -7.445   5.947  67.671  1.00  0.00    -0.078 C  
HETATM    2  C   UNL     1      -7.922   4.900  66.689  1.00  0.00    -0.103 C  
HETATM    3  S   UNL     1      -9.704   4.713  66.932  1.00  0.00    -0.211 SA 
HETATM    4  C   UNL     1      -9.911   6.174  68.027  1.00  0.00    -0.141 C  
HETATM    5  C   UNL     1      -8.566   6.946  67.968  1.00  0.00    -0.123 C  
HETATM    6  O   UNL     1      -6.962   6.592  71.050  1.00  0.00    -0.064 OA 
HETATM    7  C   UNL     1      -7.338   6.531  69.897  1.00  0.00    -0.086 C  
HETATM    8  N   UNL     1      -8.116   7.474  69.235  1.00  0.00    -0.124 NA 
HETATM    9  N   UNL     1      -7.080   5.503  68.997  1.00  0.00    -0.066 NA 
ENDROOT
BRANCH   4  10
HETATM   10  C   UNL     1     -10.428   5.664  69.390  1.00  0.00    -0.367 C  
BRANCH  10  11
HETATM   11  C   UNL     1     -11.529   6.506  70.058  1.00  0.00    -0.476 C  
BRANCH  11  12
HETATM   12  C   UNL     1     -11.044   7.456  71.153  1.00  0.00    -0.271 C  
BRANCH  12  13
HETATM   13  C   UNL     1     -12.188   8.286  71.728  1.00  0.00    -0.367 C  
HETATM   14  C   UNL     1     -11.984   9.770  71.531  1.00  0.00    -0.407 C  
HETATM   15  O   UNL     1     -11.047  10.281  70.943  1.00  0.00    -0.315 OA 
HETATM   16  O   UNL     1     -12.988  10.493  72.079  1.00  0.00    -0.458 OA 
ENDBRANCH  12  13
ENDBRANCH  11  12
ENDBRANCH  10  11
ENDBRANCH   4  10
TORSDOF 4
ENDMDL
MODEL      183
REMARK 921   NORMALIZED FREE ENERGY PREDICTED BY IDOCK:   -3.04 KCAL/MOL
REMARK 922        TOTAL FREE ENERGY PREDICTED BY IDOCK:   -3.93 KCAL/MOL
REMARK 923 INTER-LIGAND FREE ENERGY PREDICTED BY IDOCK:   -3.68 KCAL/MOL
REMARK 924 INTRA-LIGAND FREE ENERGY PREDICTED BY IDOCK:   -0.25 KCAL/MOL
REMARK 927      BINDING AFFINITY PREDICTED BY RF-SCORE:    0.00 PKD
ROOT
HETATM    1  C   UNL     1      -9.353   4.660  67.642  1.00  0.00    -0.144 C  
HETATM    2  C   UNL     1      -9.949   4.840  69.020  1.00  0.00    -0.143 C  
HETATM    3  S   UNL     1     -11.000   6.309  68.960  1.00  0.00    -0.374 SA 
HETATM    4  C   UNL     1     -10.960   6.510  67.134  1.00  0.00    -0.408 C  
HETATM    5  C   UNL     1     -10.300   5.220  66.577  1.00  0.00    -0.285 C  
HETATM    6  O   UNL     1      -7.134   6.047  65.356  1.00  0.00    -0.062 OA 
HETATM    7  C   UNL     1      -8.095   5.657  65.989  1.00  0.00    -0.109 C  
HETATM    8  N   UNL     1      -9.373   5.435  65.490  1.00  0.00    -0.096 NA 
HETATM    9  N   UNL     1      -8.124   5.361  67.347  1.00  0.00    -0.101 NA 
ENDROOT
BRANCH   4  10
HETATM   10  C   UNL     1     -10.311   7.879  66.831  1.00  0.00    -0.400 C  
BRANCH  10  11
HETATM   11  C   UNL     1     -10.262   8.880  67.999  1.00  0.00    -0.262 C  
BRANCH  11  12
HETATM   12  C   UNL     1     -11.064  10.164  67.785  1.00  0.00    -0.293 C  
BRANCH  12  13
HETATM   13  C   UNL     1     -10.363  11.376  68.393  1.00  0.00    -0.209 C  
HETATM   14  C   UNL     1     -10.842  12.680  67.800  1.00  0.00    -0.221 C  
HETATM   15  O   UNL     1     -11.720  12.795  66.963  1.00  0.00    -0.342 OA 
HETATM   16  O   UNL     1     -10.185  13.742  68.323  1.00  0.00    -0.232 OA 
ENDBRANCH  12  13
ENDBRANCH  11  12
ENDBRANCH  10  11
ENDBRANCH   4  10
TORSDOF 4
ENDMDL
MODEL      184
REMARK 921   NORMALIZED FREE ENERGY PREDICTED BY IDOCK:   -3.04 KCAL/MOL
REMARK 922        TOTAL FREE ENERGY PREDICTED BY IDOCK:   -3.93 KCAL/MOL
REMARK 923 INTER-LIGAND FREE ENERGY PREDICTED BY IDOCK:   -3.31 KCAL/MOL
REMARK 924 INTRA-LIGAND FREE ENERGY PREDICTED BY IDOCK:   -0.62 KCAL/MOL
REMARK 927      BINDING AFFINITY PREDICTED BY RF-SCORE:    0.00 PKD
ROOT
HETATM    1  C   UNL     1      -8.407   8.208  68.714  1.00  0.00    -0.126 C  
HETATM    2  C   UNL     1      -7.396   7.085  68.638  1.00  0.00    -0.097 C  
HETATM    3  S   UNL     1      -8.320   5.532  68.655  1.00  0.00    -0.101 SA 
HETATM    4  C   UNL     1      -9.980   6.284  68.422  1.00  0.00    -0.140 C  
HETATM    5  C   UNL     1      -9.728   7.775  68.073  1.00  0.00    -0.154 C  
HETATM    6  O   UNL     1     -10.747   9.724  70.785  1.00  0.00    -0.303 OA 
HETATM    7  C   UNL     1     -10.144   9.099  69.937  1.00  0.00    -0.202 C  
HETATM    8  N   UNL     1     -10.639   8.705  68.699  1.00  0.00    -0.175 NA 
HETATM    9  N   UNL     1      -8.836   8.635  70.026  1.00  0.00    -0.138 NA 
ENDROOT
BRANCH   4  10
HETATM   10  C   UNL     1     -10.827   5.934  69.665  1.00  0.00    -0.444 C  
BRANCH  10  11
HETATM   11  C   UNL     1     -10.268   4.829  70.580  1.00  0.00    -0.252 C  
BRANCH  11  12
HETATM   12  C   UNL     1     -10.278   5.158  72.073  1.00  0.00    -0.260 C  
BRANCH  12  13
HETATM   13  C   UNL     1      -9.129   6.087  72.454  1.00  0.00    -0.136 C  
HETATM   14  C   UNL     1      -9.593   7.293  73.237  1.00  0.00    -0.212 C  
HETATM   15  O   UNL     1     -10.741   7.510  73.584  1.00  0.00    -0.343 OA 
HETATM   16  O   UNL     1      -8.567   8.124  73.535  1.00  0.00    -0.230 OA 
ENDBRANCH  12  13
ENDBRANCH  11  12
ENDBRANCH  10  11
ENDBRANCH   4  10
TORSDOF 4
ENDMDL
MODEL      185
REMARK 921   NORMALIZED FREE ENERGY PREDICTED BY IDOCK:   -3.03 KCAL/MOL
REMARK 922        TOTAL FREE ENERGY PREDICTED BY IDOCK:   -3.92 KCAL/MOL
REMARK 923 INTER-LIGAND FREE ENERGY PREDICTED BY IDOCK:   -3.38 KCAL/MOL
REMARK 924 INTRA-LIGAND FREE ENERGY PREDICTED BY IDOCK:   -0.54 KCAL/MOL
REMARK 927      BINDING AFFINITY PREDICTED BY RF-SCORE:    0.00 PKD
ROOT
HETATM    1  C   UNL     1     -11.117   6.696  72.623  1.00  0.00    -0.257 C  
HETATM    2  C   UNL     1     -12.232   6.624  71.604  1.00  0.00    -0.352 C  
HETATM    3  S   UNL     1     -11.463   6.376  69.987  1.00  0.00    -0.358 SA 
HETATM    4  C   UNL     1      -9.773   6.031  70.619  1.00  0.00    -0.174 C  
HETATM    5  C   UNL     1      -9.918   5.867  72.156  1.00  0.00    -0.170 C  
HETATM    6  O   UNL     1      -8.437   8.628  73.699  1.00  0.00    -0.353 OA 
HETATM    7  C   UNL     1      -9.184   7.795  73.224  1.00  0.00    -0.258 C  
HETATM    8  N   UNL     1      -8.862   6.475  72.932  1.00  0.00    -0.123 NA 
HETATM    9  N   UNL     1     -10.513   7.987  72.864  1.00  0.00    -0.349 NA 
ENDROOT
BRANCH   4  10
HETATM   10  C   UNL     1      -8.837   7.127  70.064  1.00  0.00    -0.142 C  
BRANCH  10  11
HETATM   11  C   UNL     1      -9.511   8.257  69.266  1.00  0.00    -0.155 C  
BRANCH  11  12
HETATM   12  C   UNL     1      -9.443   9.639  69.917  1.00  0.00    -0.260 C  
BRANCH  12  13
HETATM   13  C   UNL     1      -8.003  10.124  70.064  1.00  0.00    -0.108 C  
HETATM   14  C   UNL     1      -7.613  11.114  68.992  1.00  0.00    -0.119 C  
HETATM   15  O   UNL     1      -8.350  11.537  68.119  1.00  0.00    -0.137 OA 
HETATM   16  O   UNL     1      -6.323  11.506  69.116  1.00  0.00    -0.062 OA 
ENDBRANCH  12  13
ENDBRANCH  11  12
ENDBRANCH  10  11
ENDBRANCH   4  10
TORSDOF 4
ENDMDL
MODEL      186
REMARK 921   NORMALIZED FREE ENERGY PREDICTED BY IDOCK:   -3.03 KCAL/MOL
REMARK 922        TOTAL FREE ENERGY PREDICTED BY IDOCK:   -3.91 KCAL/MOL
REMARK 923 INTER-LIGAND FREE ENERGY PREDICTED BY IDOCK:   -3.62 KCAL/MOL
REMARK 924 INTRA-LIGAND FREE ENERGY PREDICTED BY IDOCK:   -0.29 KCAL/MOL
REMARK 927      BINDING AFFINITY PREDICTED BY RF-SCORE:    0.00 PKD
ROOT
HETATM    1  C   UNL     1     -11.966   8.407  72.138  1.00  0.00    -0.374 C  
HETATM    2  C   UNL     1     -11.808   9.748  71.458  1.00  0.00    -0.399 C  
HETATM    3  S   UNL     1     -10.918   9.462  69.911  1.00  0.00    -0.205 SA 
HETATM    4  C   UNL     1     -11.032   7.629  69.951  1.00  0.00    -0.200 C  
HETATM    5  C   UNL     1     -12.023   7.288  71.096  1.00  0.00    -0.328 C  
HETATM    6  O   UNL     1     -10.218   5.856  73.720  1.00  0.00    -0.201 OA 
HETATM    7  C   UNL     1     -10.845   6.573  72.967  1.00  0.00    -0.261 C  
HETATM    8  N   UNL     1     -11.643   6.155  71.908  1.00  0.00    -0.308 NA 
HETATM    9  N   UNL     1     -10.892   7.962  72.997  1.00  0.00    -0.385 NA 
ENDROOT
BRANCH   4  10
HETATM   10  C   UNL     1      -9.592   7.074  70.012  1.00  0.00    -0.164 C  
BRANCH  10  11
HETATM   11  C   UNL     1      -9.257   5.944  69.022  1.00  0.00    -0.132 C  
BRANCH  11  12
HETATM   12  C   UNL     1      -8.611   4.707  69.647  1.00  0.00    -0.099 C  
BRANCH  12  13
HETATM   13  C   UNL     1      -9.400   3.438  69.333  1.00  0.00    -0.237 C  
HETATM   14  C   UNL     1      -8.758   2.612  68.244  1.00  0.00    -0.102 C  
HETATM   15  O   UNL     1      -7.706   2.871  67.687  1.00  0.00    -0.064 OA 
HETATM   16  O   UNL     1      -9.489   1.510  67.953  1.00  0.00    -0.165 OA 
ENDBRANCH  12  13
ENDBRANCH  11  12
ENDBRANCH  10  11
ENDBRANCH   4  10
TORSDOF 4
ENDMDL
MODEL      187
REMARK 921   NORMALIZED FREE ENERGY PREDICTED BY IDOCK:   -3.03 KCAL/MOL
REMARK 922        TOTAL FREE ENERGY PREDICTED BY IDOCK:   -3.91 KCAL/MOL
REMARK 923 INTER-LIGAND FREE ENERGY PREDICTED BY IDOCK:   -3.52 KCAL/MOL
REMARK 924 INTRA-LIGAND FREE ENERGY PREDICTED BY IDOCK:   -0.40 KCAL/MOL
REMARK 927      BINDING AFFINITY PREDICTED BY RF-SCORE:    0.00 PKD
ROOT
HETATM    1  C   UNL     1      -8.342   8.403  67.967  1.00  0.00    -0.128 C  
HETATM    2  C   UNL     1      -9.504   8.116  67.043  1.00  0.00    -0.177 C  
HETATM    3  S   UNL     1     -10.378   9.677  66.783  1.00  0.00    -0.196 SA 
HETATM    4  C   UNL     1      -9.106  10.751  67.559  1.00  0.00    -0.139 C  
HETATM    5  C   UNL     1      -7.865   9.847  67.787  1.00  0.00    -0.094 C  
HETATM    6  O   UNL     1      -7.517   9.305  71.219  1.00  0.00    -0.284 OA 
HETATM    7  C   UNL     1      -7.736   9.240  70.026  1.00  0.00    -0.104 C  
HETATM    8  N   UNL     1      -7.186  10.056  69.044  1.00  0.00    -0.072 NA 
HETATM    9  N   UNL     1      -8.589   8.345  69.390  1.00  0.00    -0.128 NA 
ENDROOT
BRANCH   4  10
HETATM   10  C   UNL     1      -9.762  11.448  68.771  1.00  0.00    -0.155 C  
BRANCH  10  11
HETATM   11  C   UNL     1     -11.199  11.012  69.109  1.00  0.00    -0.318 C  
BRANCH  11  12
HETATM   12  C   UNL     1     -12.053  12.077  69.797  1.00  0.00    -0.317 C  
BRANCH  12  13
HETATM   13  C   UNL     1     -11.932  13.433  69.107  1.00  0.00    -0.363 C  
HETATM   14  C   UNL     1     -12.037  14.588  70.074  1.00  0.00    -0.339 C  
HETATM   15  O   UNL     1     -12.159  14.488  71.282  1.00  0.00    -0.331 OA 
HETATM   16  O   UNL     1     -11.964  15.782  69.441  1.00  0.00    -0.370 OA 
ENDBRANCH  12  13
ENDBRANCH  11  12
ENDBRANCH  10  11
ENDBRANCH   4  10
TORSDOF 4
ENDMDL
MODEL      188
REMARK 921   NORMALIZED FREE ENERGY PREDICTED BY IDOCK:   -3.03 KCAL/MOL
REMARK 922        TOTAL FREE ENERGY PREDICTED BY IDOCK:   -3.91 KCAL/MOL
REMARK 923 INTER-LIGAND FREE ENERGY PREDICTED BY IDOCK:   -3.62 KCAL/MOL
REMARK 924 INTRA-LIGAND FREE ENERGY PREDICTED BY IDOCK:   -0.29 KCAL/MOL
REMARK 927      BINDING AFFINITY PREDICTED BY RF-SCORE:    0.00 PKD
ROOT
HETATM    1  C   UNL     1     -12.133   8.203  72.010  1.00  0.00    -0.340 C  
HETATM    2  C   UNL     1     -12.119   9.663  71.614  1.00  0.00    -0.402 C  
HETATM    3  S   UNL     1     -10.864   9.855  70.327  1.00  0.00    -0.329 SA 
HETATM    4  C   UNL     1     -10.587   8.061  70.047  1.00  0.00    -0.242 C  
HETATM    5  C   UNL     1     -11.712   7.329  70.826  1.00  0.00    -0.299 C  
HETATM    6  O   UNL     1     -10.277   5.715  73.570  1.00  0.00    -0.184 OA 
HETATM    7  C   UNL     1     -10.859   6.455  72.803  1.00  0.00    -0.248 C  
HETATM    8  N   UNL     1     -11.290   6.135  71.520  1.00  0.00    -0.290 NA 
HETATM    9  N   UNL     1     -11.209   7.780  73.038  1.00  0.00    -0.392 NA 
ENDROOT
BRANCH   4  10
HETATM   10  C   UNL     1      -9.112   7.759  70.393  1.00  0.00    -0.155 C  
BRANCH  10  11
HETATM   11  C   UNL     1      -8.184   7.455  69.204  1.00  0.00    -0.121 C  
BRANCH  11  12
HETATM   12  C   UNL     1      -8.460   8.273  67.942  1.00  0.00    -0.132 C  
BRANCH  12  13
HETATM   13  C   UNL     1      -7.396   9.345  67.720  1.00  0.00    -0.083 C  
HETATM   14  C   UNL     1      -7.958  10.598  67.091  1.00  0.00    -0.121 C  
HETATM   15  O   UNL     1      -9.131  10.787  66.821  1.00  0.00    -0.151 OA 
HETATM   16  O   UNL     1      -6.996  11.523  66.868  1.00  0.00    -0.131 OA 
ENDBRANCH  12  13
ENDBRANCH  11  12
ENDBRANCH  10  11
ENDBRANCH   4  10
TORSDOF 4
ENDMDL
MODEL      189
REMARK 921   NORMALIZED FREE ENERGY PREDICTED BY IDOCK:   -3.02 KCAL/MOL
REMARK 922        TOTAL FREE ENERGY PREDICTED BY IDOCK:   -3.91 KCAL/MOL
REMARK 923 INTER-LIGAND FREE ENERGY PREDICTED BY IDOCK:   -3.64 KCAL/MOL
REMARK 924 INTRA-LIGAND FREE ENERGY PREDICTED BY IDOCK:   -0.26 KCAL/MOL
REMARK 927      BINDING AFFINITY PREDICTED BY RF-SCORE:    0.00 PKD
ROOT
HETATM    1  C   UNL     1     -10.478  16.120  68.772  1.00  0.00    -0.264 C  
HETATM    2  C   UNL     1     -11.780  15.731  69.436  1.00  0.00    -0.370 C  
HETATM    3  S   UNL     1     -11.920  13.932  69.324  1.00  0.00    -0.352 SA 
HETATM    4  C   UNL     1     -10.203  13.633  68.744  1.00  0.00    -0.149 C  
HETATM    5  C   UNL     1      -9.458  14.986  68.899  1.00  0.00    -0.211 C  
HETATM    6  O   UNL     1      -8.840  16.272  65.712  1.00  0.00    -0.411 OA 
HETATM    7  C   UNL     1      -9.252  16.012  66.825  1.00  0.00    -0.240 C  
HETATM    8  N   UNL     1      -8.565  15.314  67.812  1.00  0.00    -0.154 NA 
HETATM    9  N   UNL     1     -10.497  16.347  67.344  1.00  0.00    -0.306 NA 
ENDROOT
BRANCH   4  10
HETATM   10  C   UNL     1     -10.290  12.978  67.348  1.00  0.00    -0.234 C  
BRANCH  10  11
HETATM   11  C   UNL     1      -9.537  11.648  67.174  1.00  0.00    -0.185 C  
BRANCH  11  12
HETATM   12  C   UNL     1      -8.715  11.532  65.889  1.00  0.00    -0.058 C  
BRANCH  12  13
HETATM   13  C   UNL     1      -9.590  11.661  64.645  1.00  0.00    -0.149 C  
HETATM   14  C   UNL     1      -9.501  10.452  63.746  1.00  0.00    -0.305 C  
HETATM   15  O   UNL     1      -8.851   9.447  63.976  1.00  0.00    -0.215 OA 
HETATM   16  O   UNL     1     -10.254  10.598  62.630  1.00  0.00    -0.040 OA 
ENDBRANCH  12  13
ENDBRANCH  11  12
ENDBRANCH  10  11
ENDBRANCH   4  10
TORSDOF 4
ENDMDL
MODEL      190
REMARK 921   NORMALIZED FREE ENERGY PREDICTED BY IDOCK:   -3.01 KCAL/MOL
REMARK 922        TOTAL FREE ENERGY PREDICTED BY IDOCK:   -3.89 KCAL/MOL
REMARK 923 INTER-LIGAND FREE ENERGY PREDICTED BY IDOCK:   -3.50 KCAL/MOL
REMARK 924 INTRA-LIGAND FREE ENERGY PREDICTED BY IDOCK:   -0.40 KCAL/MOL
REMARK 927      BINDING AFFINITY PREDICTED BY RF-SCORE:    0.00 PKD
ROOT
HETATM    1  C   UNL     1     -11.628  13.301  66.469  1.00  0.00    -0.350 C  
HETATM    2  C   UNL     1     -11.713  13.407  67.975  1.00  0.00    -0.356 C  
HETATM    3  S   UNL     1     -10.286  14.373  68.524  1.00  0.00    -0.252 SA 
HETATM    4  C   UNL     1      -9.764  14.926  66.852  1.00  0.00    -0.240 C  
HETATM    5  C   UNL     1     -10.915  14.526  65.890  1.00  0.00    -0.320 C  
HETATM    6  O   UNL     1      -9.796  11.910  63.866  1.00  0.00    -0.292 OA 
HETATM    7  C   UNL     1     -10.319  12.622  64.700  1.00  0.00    -0.330 C  
HETATM    8  N   UNL     1     -10.485  14.000  64.616  1.00  0.00    -0.430 NA 
HETATM    9  N   UNL     1     -10.852  12.214  65.917  1.00  0.00    -0.268 NA 
ENDROOT
BRANCH   4  10
HETATM   10  C   UNL     1      -8.345  14.369  66.600  1.00  0.00     0.134 C  
BRANCH  10  11
HETATM   11  C   UNL     1      -7.407  14.325  67.819  1.00  0.00    -0.185 C  
BRANCH  11  12
HETATM   12  C   UNL     1      -6.437  13.144  67.847  1.00  0.00    -0.138 C  
BRANCH  12  13
HETATM   13  C   UNL     1      -6.546  12.354  69.149  1.00  0.00    -0.099 C  
HETATM   14  C   UNL     1      -7.534  11.216  69.056  1.00  0.00    -0.124 C  
HETATM   15  O   UNL     1      -8.160  10.904  68.058  1.00  0.00    -0.112 OA 
HETATM   16  O   UNL     1      -7.645  10.550  70.229  1.00  0.00    -0.132 OA 
ENDBRANCH  12  13
ENDBRANCH  11  12
ENDBRANCH  10  11
ENDBRANCH   4  10
TORSDOF 4
ENDMDL
MODEL      191
REMARK 921   NORMALIZED FREE ENERGY PREDICTED BY IDOCK:   -3.00 KCAL/MOL
REMARK 922        TOTAL FREE ENERGY PREDICTED BY IDOCK:   -3.88 KCAL/MOL
REMARK 923 INTER-LIGAND FREE ENERGY PREDICTED BY IDOCK:   -3.40 KCAL/MOL
REMARK 924 INTRA-LIGAND FREE ENERGY PREDICTED BY IDOCK:   -0.47 KCAL/MOL
REMARK 927      BINDING AFFINITY PREDICTED BY RF-SCORE:    0.00 PKD
ROOT
HETATM    1  C   UNL     1     -11.011  12.096  68.088  1.00  0.00    -0.230 C  
HETATM    2  C   UNL     1     -11.399  10.924  68.962  1.00  0.00    -0.281 C  
HETATM    3  S   UNL     1     -10.008   9.770  68.956  1.00  0.00    -0.195 SA 
HETATM    4  C   UNL     1      -8.815  10.898  68.133  1.00  0.00    -0.137 C  
HETATM    5  C   UNL     1      -9.494  12.294  68.109  1.00  0.00    -0.213 C  
HETATM    6  O   UNL     1     -10.358  13.037  64.808  1.00  0.00    -0.327 OA 
HETATM    7  C   UNL     1     -10.323  12.727  65.982  1.00  0.00    -0.276 C  
HETATM    8  N   UNL     1      -9.310  13.035  66.883  1.00  0.00    -0.235 NA 
HETATM    9  N   UNL     1     -11.280  11.991  66.671  1.00  0.00    -0.310 NA 
ENDROOT
BRANCH   4  10
HETATM   10  C   UNL     1      -8.398  10.241  66.799  1.00  0.00    -0.124 C  
BRANCH  10  11
HETATM   11  C   UNL     1      -9.245   9.041  66.339  1.00  0.00    -0.239 C  
BRANCH  11  12
HETATM   12  C   UNL     1      -8.781   8.381  65.040  1.00  0.00    -0.092 C  
BRANCH  12  13
HETATM   13  C   UNL     1      -7.792   9.261  64.281  1.00  0.00    -0.125 C  
HETATM   14  C   UNL     1      -8.459  10.095  63.213  1.00  0.00    -0.184 C  
HETATM   15  O   UNL     1      -9.656  10.124  62.985  1.00  0.00    -0.299 OA 
HETATM   16  O   UNL     1      -7.563  10.841  62.526  1.00  0.00    -0.137 OA 
ENDBRANCH  12  13
ENDBRANCH  11  12
ENDBRANCH  10  11
ENDBRANCH   4  10
TORSDOF 4
ENDMDL
MODEL      192
REMARK 921   NORMALIZED FREE ENERGY PREDICTED BY IDOCK:   -2.99 KCAL/MOL
REMARK 922        TOTAL FREE ENERGY PREDICTED BY IDOCK:   -3.87 KCAL/MOL
REMARK 923 INTER-LIGAND FREE ENERGY PREDICTED BY IDOCK:   -3.47 KCAL/MOL
REMARK 924 INTRA-LIGAND FREE ENERGY PREDICTED BY IDOCK:   -0.39 KCAL/MOL
REMARK 927      BINDING AFFINITY PREDICTED BY RF-SCORE:    0.00 PKD
ROOT
HETATM    1  C   UNL     1     -12.726   7.008  71.257  1.00  0.00    -0.351 C  
HETATM    2  C   UNL     1     -13.464   8.248  71.710  1.00  0.00    -0.352 C  
HETATM    3  S   UNL     1     -12.315   9.636  71.568  1.00  0.00    -0.415 SA 
HETATM    4  C   UNL     1     -11.021   8.729  70.632  1.00  0.00    -0.238 C  
HETATM    5  C   UNL     1     -11.659   7.375  70.223  1.00  0.00    -0.128 C  
HETATM    6  O   UNL     1     -10.141   4.839  72.083  1.00  0.00    -0.179 OA 
HETATM    7  C   UNL     1     -10.874   5.685  71.611  1.00  0.00    -0.237 C  
HETATM    8  N   UNL     1     -10.782   6.233  70.336  1.00  0.00    -0.249 NA 
HETATM    9  N   UNL     1     -11.951   6.292  72.245  1.00  0.00    -0.293 NA 
ENDROOT
BRANCH   4  10
HETATM   10  C   UNL     1      -9.739   8.727  71.494  1.00  0.00    -0.361 C  
BRANCH  10  11
HETATM   11  C   UNL     1      -8.433   9.100  70.771  1.00  0.00    -0.256 C  
BRANCH  11  12
HETATM   12  C   UNL     1      -7.769   7.957  70.003  1.00  0.00    -0.089 C  
BRANCH  12  13
HETATM   13  C   UNL     1      -8.081   8.023  68.510  1.00  0.00    -0.125 C  
HETATM   14  C   UNL     1      -7.008   8.739  67.725  1.00  0.00    -0.075 C  
HETATM   15  O   UNL     1      -5.974   9.187  68.188  1.00  0.00    -0.045 OA 
HETATM   16  O   UNL     1      -7.318   8.820  66.409  1.00  0.00    -0.082 OA 
ENDBRANCH  12  13
ENDBRANCH  11  12
ENDBRANCH  10  11
ENDBRANCH   4  10
TORSDOF 4
ENDMDL
MODEL      193
REMARK 921   NORMALIZED FREE ENERGY PREDICTED BY IDOCK:   -2.96 KCAL/MOL
REMARK 922        TOTAL FREE ENERGY PREDICTED BY IDOCK:   -3.83 KCAL/MOL
REMARK 923 INTER-LIGAND FREE ENERGY PREDICTED BY IDOCK:   -3.58 KCAL/MOL
REMARK 924 INTRA-LIGAND FREE ENERGY PREDICTED BY IDOCK:   -0.26 KCAL/MOL
REMARK 927      BINDING AFFINITY PREDICTED BY RF-SCORE:    0.00 PKD
ROOT
HETATM    1  C   UNL     1      -8.778   6.725  68.322  1.00  0.00    -0.123 C  
HETATM    2  C   UNL     1      -9.623   7.665  69.152  1.00  0.00    -0.155 C  
HETATM    3  S   UNL     1     -10.239   8.951  68.040  1.00  0.00    -0.221 SA 
HETATM    4  C   UNL     1      -9.718   8.133  66.480  1.00  0.00    -0.239 C  
HETATM    5  C   UNL     1      -9.278   6.698  66.876  1.00  0.00    -0.142 C  
HETATM    6  O   UNL     1      -5.810   6.478  66.534  1.00  0.00    -0.017 OA 
HETATM    7  C   UNL     1      -6.959   6.570  66.918  1.00  0.00    -0.067 C  
HETATM    8  N   UNL     1      -8.096   6.218  66.199  1.00  0.00    -0.112 NA 
HETATM    9  N   UNL     1      -7.382   7.055  68.150  1.00  0.00    -0.094 NA 
ENDROOT
BRANCH   4  10
HETATM   10  C   UNL     1      -8.702   9.066  65.783  1.00  0.00    -0.197 C  
BRANCH  10  11
HETATM   11  C   UNL     1      -9.196   9.777  64.511  1.00  0.00    -0.310 C  
BRANCH  11  12
HETATM   12  C   UNL     1      -9.551  11.253  64.691  1.00  0.00    -0.265 C  
BRANCH  12  13
HETATM   13  C   UNL     1     -10.470  11.753  63.579  1.00  0.00    -0.500 C  
HETATM   14  C   UNL     1     -11.887  11.972  64.053  1.00  0.00    -0.408 C  
HETATM   15  O   UNL     1     -12.281  11.822  65.196  1.00  0.00    -0.241 OA 
HETATM   16  O   UNL     1     -12.696  12.380  63.047  1.00  0.00    -0.485 OA 
ENDBRANCH  12  13
ENDBRANCH  11  12
ENDBRANCH  10  11
ENDBRANCH   4  10
TORSDOF 4
ENDMDL
MODEL      194
REMARK 921   NORMALIZED FREE ENERGY PREDICTED BY IDOCK:   -2.94 KCAL/MOL
REMARK 922        TOTAL FREE ENERGY PREDICTED BY IDOCK:   -3.80 KCAL/MOL
REMARK 923 INTER-LIGAND FREE ENERGY PREDICTED BY IDOCK:   -3.32 KCAL/MOL
REMARK 924 INTRA-LIGAND FREE ENERGY PREDICTED BY IDOCK:   -0.48 KCAL/MOL
REMARK 927      BINDING AFFINITY PREDICTED BY RF-SCORE:    0.00 PKD
ROOT
HETATM    1  C   UNL     1     -12.785   6.901  71.435  1.00  0.00    -0.334 C  
HETATM    2  C   UNL     1     -13.413   8.229  71.795  1.00  0.00    -0.352 C  
HETATM    3  S   UNL     1     -12.171   9.507  71.493  1.00  0.00    -0.410 SA 
HETATM    4  C   UNL     1     -10.981   8.424  70.605  1.00  0.00    -0.243 C  
HETATM    5  C   UNL     1     -11.732   7.092  70.340  1.00  0.00    -0.279 C  
HETATM    6  O   UNL     1     -10.338   4.623  72.378  1.00  0.00    -0.193 OA 
HETATM    7  C   UNL     1     -11.023   5.477  71.853  1.00  0.00    -0.199 C  
HETATM    8  N   UNL     1     -10.937   5.901  70.532  1.00  0.00    -0.303 NA 
HETATM    9  N   UNL     1     -12.029   6.218  72.461  1.00  0.00    -0.172 NA 
ENDROOT
BRANCH   4  10
HETATM   10  C   UNL     1      -9.673   8.401  71.426  1.00  0.00    -0.260 C  
BRANCH  10  11
HETATM   11  C   UNL     1      -8.483   9.173  70.829  1.00  0.00    -0.256 C  
BRANCH  11  12
HETATM   12  C   UNL     1      -7.227   8.337  70.581  1.00  0.00    -0.049 C  
BRANCH  12  13
HETATM   13  C   UNL     1      -7.569   6.883  70.267  1.00  0.00    -0.091 C  
HETATM   14  C   UNL     1      -7.088   5.930  71.335  1.00  0.00    -0.077 C  
HETATM   15  O   UNL     1      -6.527   6.253  72.367  1.00  0.00    -0.056 OA 
HETATM   16  O   UNL     1      -7.367   4.643  71.023  1.00  0.00    -0.049 OA 
ENDBRANCH  12  13
ENDBRANCH  11  12
ENDBRANCH  10  11
ENDBRANCH   4  10
TORSDOF 4
ENDMDL
MODEL      195
REMARK 921   NORMALIZED FREE ENERGY PREDICTED BY IDOCK:   -2.90 KCAL/MOL
REMARK 922        TOTAL FREE ENERGY PREDICTED BY IDOCK:   -3.75 KCAL/MOL
REMARK 923 INTER-LIGAND FREE ENERGY PREDICTED BY IDOCK:   -3.47 KCAL/MOL
REMARK 924 INTRA-LIGAND FREE ENERGY PREDICTED BY IDOCK:   -0.28 KCAL/MOL
REMARK 927      BINDING AFFINITY PREDICTED BY RF-SCORE:    0.00 PKD
ROOT
HETATM    1  C   UNL     1     -10.084   8.585  71.994  1.00  0.00    -0.316 C  
HETATM    2  C   UNL     1      -8.915   8.572  72.953  1.00  0.00    -0.101 C  
HETATM    3  S   UNL     1      -8.168   6.928  72.862  1.00  0.00    -0.107 SA 
HETATM    4  C   UNL     1      -9.106   6.363  71.388  1.00  0.00    -0.145 C  
HETATM    5  C   UNL     1      -9.829   7.619  70.833  1.00  0.00    -0.176 C  
HETATM    6  O   UNL     1     -13.251   7.272  71.433  1.00  0.00    -0.380 OA 
HETATM    7  C   UNL     1     -12.072   7.564  71.434  1.00  0.00    -0.327 C  
HETATM    8  N   UNL     1     -11.181   7.390  70.382  1.00  0.00    -0.269 NA 
HETATM    9  N   UNL     1     -11.362   8.125  72.489  1.00  0.00    -0.391 NA 
ENDROOT
BRANCH   4  10
HETATM   10  C   UNL     1      -9.946   5.138  71.813  1.00  0.00    -0.244 C  
BRANCH  10  11
HETATM   11  C   UNL     1      -9.889   3.918  70.876  1.00  0.00    -0.213 C  
BRANCH  11  12
HETATM   12  C   UNL     1      -8.674   3.868  69.950  1.00  0.00    -0.123 C  
BRANCH  12  13
HETATM   13  C   UNL     1      -9.012   4.363  68.546  1.00  0.00    -0.151 C  
HETATM   14  C   UNL     1      -9.478   3.251  67.636  1.00  0.00    -0.165 C  
HETATM   15  O   UNL     1      -9.625   2.087  67.962  1.00  0.00    -0.194 OA 
HETATM   16  O   UNL     1      -9.739   3.701  66.386  1.00  0.00    -0.174 OA 
ENDBRANCH  12  13
ENDBRANCH  11  12
ENDBRANCH  10  11
ENDBRANCH   4  10
TORSDOF 4
ENDMDL
MODEL      196
REMARK 921   NORMALIZED FREE ENERGY PREDICTED BY IDOCK:   -2.89 KCAL/MOL
REMARK 922        TOTAL FREE ENERGY PREDICTED BY IDOCK:   -3.75 KCAL/MOL
REMARK 923 INTER-LIGAND FREE ENERGY PREDICTED BY IDOCK:   -3.44 KCAL/MOL
REMARK 924 INTRA-LIGAND FREE ENERGY PREDICTED BY IDOCK:   -0.30 KCAL/MOL
REMARK 927      BINDING AFFINITY PREDICTED BY RF-SCORE:    0.00 PKD
ROOT
HETATM    1  C   UNL     1     -10.976   7.635  72.735  1.00  0.00    -0.377 C  
HETATM    2  C   UNL     1     -10.868   6.127  72.746  1.00  0.00    -0.250 C  
HETATM    3  S   UNL     1     -10.293   5.620  71.110  1.00  0.00    -0.242 SA 
HETATM    4  C   UNL     1      -9.869   7.306  70.515  1.00  0.00    -0.183 C  
HETATM    5  C   UNL     1      -9.961   8.232  71.757  1.00  0.00    -0.217 C  
HETATM    6  O   UNL     1     -12.751  10.299  71.383  1.00  0.00    -0.367 OA 
HETATM    7  C   UNL     1     -11.940   9.447  71.688  1.00  0.00    -0.393 C  
HETATM    8  N   UNL     1     -10.564   9.521  71.509  1.00  0.00    -0.265 NA 
HETATM    9  N   UNL     1     -12.216   8.214  72.269  1.00  0.00    -0.349 NA 
ENDROOT
BRANCH   4  10
HETATM   10  C   UNL     1     -10.758   7.603  69.288  1.00  0.00    -0.169 C  
BRANCH  10  11
HETATM   11  C   UNL     1     -10.020   7.935  67.978  1.00  0.00    -0.213 C  
BRANCH  11  12
HETATM   12  C   UNL     1      -9.189   9.218  68.010  1.00  0.00    -0.138 C  
BRANCH  12  13
HETATM   13  C   UNL     1      -8.128   9.232  66.914  1.00  0.00    -0.108 C  
HETATM   14  C   UNL     1      -6.779   9.689  67.418  1.00  0.00    -0.071 C  
HETATM   15  O   UNL     1      -6.518   9.978  68.573  1.00  0.00    -0.049 OA 
HETATM   16  O   UNL     1      -5.859   9.730  66.426  1.00  0.00    -0.052 OA 
ENDBRANCH  12  13
ENDBRANCH  11  12
ENDBRANCH  10  11
ENDBRANCH   4  10
TORSDOF 4
ENDMDL
MODEL      197
REMARK 921   NORMALIZED FREE ENERGY PREDICTED BY IDOCK:   -2.85 KCAL/MOL
REMARK 922        TOTAL FREE ENERGY PREDICTED BY IDOCK:   -3.70 KCAL/MOL
REMARK 923 INTER-LIGAND FREE ENERGY PREDICTED BY IDOCK:   -3.28 KCAL/MOL
REMARK 924 INTRA-LIGAND FREE ENERGY PREDICTED BY IDOCK:   -0.42 KCAL/MOL
REMARK 927      BINDING AFFINITY PREDICTED BY RF-SCORE:    0.00 PKD
ROOT
HETATM    1  C   UNL     1      -8.975   6.819  68.281  1.00  0.00    -0.123 C  
HETATM    2  C   UNL     1      -9.470   7.681  69.420  1.00  0.00    -0.152 C  
HETATM    3  S   UNL     1     -10.293   9.113  68.688  1.00  0.00    -0.203 SA 
HETATM    4  C   UNL     1     -10.313   8.474  66.966  1.00  0.00    -0.309 C  
HETATM    5  C   UNL     1      -9.879   6.987  67.057  1.00  0.00    -0.183 C  
HETATM    6  O   UNL     1      -6.690   6.686  65.667  1.00  0.00    -0.048 OA 
HETATM    7  C   UNL     1      -7.665   6.771  66.386  1.00  0.00    -0.098 C  
HETATM    8  N   UNL     1      -8.985   6.552  66.009  1.00  0.00    -0.149 NA 
HETATM    9  N   UNL     1      -7.671   7.117  67.733  1.00  0.00    -0.110 NA 
ENDROOT
BRANCH   4  10
HETATM   10  C   UNL     1      -9.484   9.448  66.099  1.00  0.00    -0.287 C  
BRANCH  10  11
HETATM   11  C   UNL     1     -10.285  10.419  65.213  1.00  0.00    -0.332 C  
BRANCH  11  12
HETATM   12  C   UNL     1      -9.933  11.896  65.388  1.00  0.00    -0.281 C  
BRANCH  12  13
HETATM   13  C   UNL     1     -10.997  12.639  66.192  1.00  0.00    -0.313 C  
HETATM   14  C   UNL     1     -10.555  12.932  67.607  1.00  0.00    -0.223 C  
HETATM   15  O   UNL     1      -9.464  12.661  68.076  1.00  0.00    -0.197 OA 
HETATM   16  O   UNL     1     -11.524  13.558  68.316  1.00  0.00    -0.271 OA 
ENDBRANCH  12  13
ENDBRANCH  11  12
ENDBRANCH  10  11
ENDBRANCH   4  10
TORSDOF 4
ENDMDL
MODEL      198
REMARK 921   NORMALIZED FREE ENERGY PREDICTED BY IDOCK:   -2.85 KCAL/MOL
REMARK 922        TOTAL FREE ENERGY PREDICTED BY IDOCK:   -3.69 KCAL/MOL
REMARK 923 INTER-LIGAND FREE ENERGY PREDICTED BY IDOCK:   -3.54 KCAL/MOL
REMARK 924 INTRA-LIGAND FREE ENERGY PREDICTED BY IDOCK:   -0.15 KCAL/MOL
REMARK 927      BINDING AFFINITY PREDICTED BY RF-SCORE:    0.00 PKD
ROOT
HETATM    1  C   UNL     1     -10.039  10.554  67.831  1.00  0.00    -0.176 C  
HETATM    2  C   UNL     1     -10.971  11.658  68.279  1.00  0.00    -0.226 C  
HETATM    3  S   UNL     1     -11.543  11.233  69.940  1.00  0.00    -0.334 SA 
HETATM    4  C   UNL     1     -10.364   9.850  70.210  1.00  0.00    -0.281 C  
HETATM    5  C   UNL     1      -9.346   9.922  69.041  1.00  0.00    -0.174 C  
HETATM    6  O   UNL     1      -9.911   7.204  66.923  1.00  0.00    -0.194 OA 
HETATM    7  C   UNL     1      -9.842   8.289  67.465  1.00  0.00    -0.177 C  
HETATM    8  N   UNL     1      -8.969   8.642  68.487  1.00  0.00    -0.139 NA 
HETATM    9  N   UNL     1     -10.627   9.402  67.187  1.00  0.00    -0.250 NA 
ENDROOT
BRANCH   4  10
HETATM   10  C   UNL     1     -11.196   8.563  70.406  1.00  0.00    -0.224 C  
BRANCH  10  11
HETATM   11  C   UNL     1     -10.504   7.416  71.164  1.00  0.00    -0.220 C  
BRANCH  11  12
HETATM   12  C   UNL     1     -11.042   7.154  72.572  1.00  0.00    -0.317 C  
BRANCH  12  13
HETATM   13  C   UNL     1     -11.352   5.676  72.792  1.00  0.00    -0.350 C  
HETATM   14  C   UNL     1     -10.269   4.966  73.569  1.00  0.00    -0.184 C  
HETATM   15  O   UNL     1      -9.268   5.490  74.025  1.00  0.00    -0.125 OA 
HETATM   16  O   UNL     1     -10.543   3.649  73.724  1.00  0.00    -0.167 OA 
ENDBRANCH  12  13
ENDBRANCH  11  12
ENDBRANCH  10  11
ENDBRANCH   4  10
TORSDOF 4
ENDMDL
MODEL      199
REMARK 921   NORMALIZED FREE ENERGY PREDICTED BY IDOCK:   -2.84 KCAL/MOL
REMARK 922        TOTAL FREE ENERGY PREDICTED BY IDOCK:   -3.68 KCAL/MOL
REMARK 923 INTER-LIGAND FREE ENERGY PREDICTED BY IDOCK:   -3.28 KCAL/MOL
REMARK 924 INTRA-LIGAND FREE ENERGY PREDICTED BY IDOCK:   -0.40 KCAL/MOL
REMARK 927      BINDING AFFINITY PREDICTED BY RF-SCORE:    0.00 PKD
ROOT
HETATM    1  C   UNL     1      -8.231   7.021  65.924  1.00  0.00    -0.133 C  
HETATM    2  C   UNL     1      -7.690   7.490  64.592  1.00  0.00    -0.122 C  
HETATM    3  S   UNL     1      -8.101   9.243  64.435  1.00  0.00    -0.152 SA 
HETATM    4  C   UNL     1      -8.655   9.475  66.171  1.00  0.00    -0.131 C  
HETATM    5  C   UNL     1      -8.252   8.180  66.925  1.00  0.00    -0.111 C  
HETATM    6  O   UNL     1     -11.159   6.402  67.687  1.00  0.00    -0.339 OA 
HETATM    7  C   UNL     1     -10.121   6.833  67.228  1.00  0.00    -0.182 C  
HETATM    8  N   UNL     1      -9.235   7.695  67.865  1.00  0.00    -0.137 NA 
HETATM    9  N   UNL     1      -9.601   6.564  65.966  1.00  0.00     0.024 NA 
ENDROOT
BRANCH   4  10
HETATM   10  C   UNL     1     -10.142   9.891  66.132  1.00  0.00    -0.315 C  
BRANCH  10  11
HETATM   11  C   UNL     1     -10.464  11.309  66.637  1.00  0.00    -0.292 C  
BRANCH  11  12
HETATM   12  C   UNL     1      -9.857  11.667  67.994  1.00  0.00    -0.193 C  
BRANCH  12  13
HETATM   13  C   UNL     1     -10.504  10.876  69.128  1.00  0.00    -0.248 C  
HETATM   14  C   UNL     1     -11.618  11.640  69.805  1.00  0.00    -0.315 C  
HETATM   15  O   UNL     1     -12.015  12.745  69.480  1.00  0.00    -0.309 OA 
HETATM   16  O   UNL     1     -12.156  10.939  70.831  1.00  0.00    -0.332 OA 
ENDBRANCH  12  13
ENDBRANCH  11  12
ENDBRANCH  10  11
ENDBRANCH   4  10
TORSDOF 4
ENDMDL
MODEL      200
REMARK 921   NORMALIZED FREE ENERGY PREDICTED BY IDOCK:   -2.84 KCAL/MOL
REMARK 922        TOTAL FREE ENERGY PREDICTED BY IDOCK:   -3.68 KCAL/MOL
REMARK 923 INTER-LIGAND FREE ENERGY PREDICTED BY IDOCK:   -3.48 KCAL/MOL
REMARK 924 INTRA-LIGAND FREE ENERGY PREDICTED BY IDOCK:   -0.19 KCAL/MOL
REMARK 927      BINDING AFFINITY PREDICTED BY RF-SCORE:    0.00 PKD
ROOT
HETATM    1  C   UNL     1     -10.165  11.422  67.564  1.00  0.00    -0.185 C  
HETATM    2  C   UNL     1     -11.599  11.753  67.912  1.00  0.00    -0.307 C  
HETATM    3  S   UNL     1     -11.768  13.551  67.825  1.00  0.00    -0.366 SA 
HETATM    4  C   UNL     1     -10.141  13.867  67.033  1.00  0.00    -0.256 C  
HETATM    5  C   UNL     1      -9.593  12.477  66.614  1.00  0.00    -0.239 C  
HETATM    6  O   UNL     1      -6.886  11.698  68.678  1.00  0.00    -0.067 OA 
HETATM    7  C   UNL     1      -7.959  11.792  68.117  1.00  0.00    -0.146 C  
HETATM    8  N   UNL     1      -8.178  12.292  66.839  1.00  0.00    -0.151 NA 
HETATM    9  N   UNL     1      -9.197  11.430  68.637  1.00  0.00    -0.174 NA 
ENDROOT
BRANCH   4  10
HETATM   10  C   UNL     1      -9.315  14.742  68.002  1.00  0.00    -0.196 C  
BRANCH  10  11
HETATM   11  C   UNL     1      -9.317  16.255  67.721  1.00  0.00    -0.216 C  
BRANCH  11  12
HETATM   12  C   UNL     1      -7.947  16.858  67.412  1.00  0.00    -0.190 C  
BRANCH  12  13
HETATM   13  C   UNL     1      -7.905  18.353  67.718  1.00  0.00    -0.249 C  
HETATM   14  C   UNL     1      -6.674  18.751  68.497  1.00  0.00    -0.259 C  
HETATM   15  O   UNL     1      -5.771  18.001  68.822  1.00  0.00    -0.175 OA 
HETATM   16  O   UNL     1      -6.671  20.072  68.791  1.00  0.00    -0.307 OA 
ENDBRANCH  12  13
ENDBRANCH  11  12
ENDBRANCH  10  11
ENDBRANCH   4  10
TORSDOF 4
ENDMDL
MODEL      201
REMARK 921   NORMALIZED FREE ENERGY PREDICTED BY IDOCK:   -2.83 KCAL/MOL
REMARK 922        TOTAL FREE ENERGY PREDICTED BY IDOCK:   -3.66 KCAL/MOL
REMARK 923 INTER-LIGAND FREE ENERGY PREDICTED BY IDOCK:   -4.00 KCAL/MOL
REMARK 924 INTRA-LIGAND FREE ENERGY PREDICTED BY IDOCK:    0.34 KCAL/MOL
REMARK 927      BINDING AFFINITY PREDICTED BY RF-SCORE:    0.00 PKD
ROOT
HETATM    1  C   UNL     1      -8.556  10.720  68.659  1.00  0.00    -0.151 C  
HETATM    2  C   UNL     1      -9.361  10.179  69.819  1.00  0.00    -0.150 C  
HETATM    3  S   UNL     1     -10.934  11.069  69.838  1.00  0.00    -0.062 SA 
HETATM    4  C   UNL     1     -10.725  11.881  68.204  1.00  0.00    -0.215 C  
HETATM    5  C   UNL     1      -9.488  11.210  67.549  1.00  0.00    -0.168 C  
HETATM    6  O   UNL     1      -6.879  13.530  67.492  1.00  0.00    -0.166 OA 
HETATM    7  C   UNL     1      -7.647  12.617  67.719  1.00  0.00    -0.141 C  
HETATM    8  N   UNL     1      -8.607  12.115  66.848  1.00  0.00    -0.196 NA 
HETATM    9  N   UNL     1      -7.737  11.887  68.899  1.00  0.00    -0.069 NA 
ENDROOT
BRANCH   4  10
HETATM   10  C   UNL     1     -10.715  13.408  68.441  1.00  0.00    -0.271 C  
BRANCH  10  11
HETATM   11  C   UNL     1     -11.162  14.282  67.257  1.00  0.00    -0.330 C  
BRANCH  11  12
HETATM   12  C   UNL     1     -12.381  13.763  66.493  1.00  0.00    -0.432 C  
BRANCH  12  13
HETATM   13  C   UNL     1     -11.980  12.805  65.374  1.00  0.00    -0.482 C  
HETATM   14  C   UNL     1     -11.012  13.428  64.397  1.00  0.00    -0.395 C  
HETATM   15  O   UNL     1     -10.544  14.550  64.484  1.00  0.00    -0.350 OA 
HETATM   16  O   UNL     1     -10.696  12.578  63.392  1.00  0.00    -0.426 OA 
ENDBRANCH  12  13
ENDBRANCH  11  12
ENDBRANCH  10  11
ENDBRANCH   4  10
TORSDOF 4
ENDMDL
MODEL      202
REMARK 921   NORMALIZED FREE ENERGY PREDICTED BY IDOCK:   -2.82 KCAL/MOL
REMARK 922        TOTAL FREE ENERGY PREDICTED BY IDOCK:   -3.66 KCAL/MOL
REMARK 923 INTER-LIGAND FREE ENERGY PREDICTED BY IDOCK:   -3.11 KCAL/MOL
REMARK 924 INTRA-LIGAND FREE ENERGY PREDICTED BY IDOCK:   -0.55 KCAL/MOL
REMARK 927      BINDING AFFINITY PREDICTED BY RF-SCORE:    0.00 PKD
ROOT
HETATM    1  C   UNL     1      -8.647   9.329  65.685  1.00  0.00    -0.153 C  
HETATM    2  C   UNL     1     -10.034   9.882  65.449  1.00  0.00    -0.279 C  
HETATM    3  S   UNL     1     -10.264  11.257  66.599  1.00  0.00    -0.237 SA 
HETATM    4  C   UNL     1      -8.513  11.356  67.145  1.00  0.00    -0.153 C  
HETATM    5  C   UNL     1      -7.714  10.434  66.187  1.00  0.00    -0.129 C  
HETATM    6  O   UNL     1      -6.673   7.625  67.981  1.00  0.00    -0.059 OA 
HETATM    7  C   UNL     1      -7.220   8.431  67.255  1.00  0.00    -0.084 C  
HETATM    8  N   UNL     1      -6.689   9.641  66.825  1.00  0.00    -0.074 NA 
HETATM    9  N   UNL     1      -8.494   8.320  66.709  1.00  0.00    -0.119 NA 
ENDROOT
BRANCH   4  10
HETATM   10  C   UNL     1      -8.484  11.072  68.663  1.00  0.00    -0.157 C  
BRANCH  10  11
HETATM   11  C   UNL     1      -9.741  10.410  69.255  1.00  0.00    -0.231 C  
BRANCH  11  12
HETATM   12  C   UNL     1      -9.474   9.205  70.157  1.00  0.00    -0.235 C  
BRANCH  12  13
HETATM   13  C   UNL     1     -10.426   8.050  69.854  1.00  0.00    -0.233 C  
HETATM   14  C   UNL     1     -11.471   7.863  70.928  1.00  0.00    -0.281 C  
HETATM   15  O   UNL     1     -11.601   8.563  71.917  1.00  0.00    -0.295 OA 
HETATM   16  O   UNL     1     -12.283   6.813  70.661  1.00  0.00    -0.386 OA 
ENDBRANCH  12  13
ENDBRANCH  11  12
ENDBRANCH  10  11
ENDBRANCH   4  10
TORSDOF 4
ENDMDL
MODEL      203
REMARK 921   NORMALIZED FREE ENERGY PREDICTED BY IDOCK:   -2.82 KCAL/MOL
REMARK 922        TOTAL FREE ENERGY PREDICTED BY IDOCK:   -3.66 KCAL/MOL
REMARK 923 INTER-LIGAND FREE ENERGY PREDICTED BY IDOCK:   -3.69 KCAL/MOL
REMARK 924 INTRA-LIGAND FREE ENERGY PREDICTED BY IDOCK:    0.04 KCAL/MOL
REMARK 927      BINDING AFFINITY PREDICTED BY RF-SCORE:    0.00 PKD
ROOT
HETATM    1  C   UNL     1      -9.055   5.940  67.424  1.00  0.00    -0.110 C  
HETATM    2  C   UNL     1      -8.118   5.333  68.443  1.00  0.00    -0.091 C  
HETATM    3  S   UNL     1      -9.029   5.208  69.999  1.00  0.00    -0.125 SA 
HETATM    4  C   UNL     1     -10.679   5.605  69.297  1.00  0.00    -0.280 C  
HETATM    5  C   UNL     1     -10.505   5.579  67.756  1.00  0.00    -0.180 C  
HETATM    6  O   UNL     1     -10.742   8.854  66.568  1.00  0.00    -0.115 OA 
HETATM    7  C   UNL     1     -10.394   7.752  66.941  1.00  0.00    -0.326 C  
HETATM    8  N   UNL     1     -11.204   6.628  67.049  1.00  0.00    -0.347 NA 
HETATM    9  N   UNL     1      -9.116   7.382  67.346  1.00  0.00    -0.121 NA 
ENDROOT
BRANCH   4  10
HETATM   10  C   UNL     1     -11.174   6.901  69.977  1.00  0.00    -0.347 C  
BRANCH  10  11
HETATM   11  C   UNL     1     -12.078   6.719  71.210  1.00  0.00    -0.421 C  
BRANCH  11  12
HETATM   12  C   UNL     1     -11.596   7.426  72.477  1.00  0.00    -0.319 C  
BRANCH  12  13
HETATM   13  C   UNL     1     -10.465   6.659  73.157  1.00  0.00    -0.277 C  
HETATM   14  C   UNL     1     -10.867   5.256  73.543  1.00  0.00    -0.304 C  
HETATM   15  O   UNL     1     -11.948   4.742  73.314  1.00  0.00    -0.194 OA 
HETATM   16  O   UNL     1      -9.865   4.603  74.177  1.00  0.00    -0.138 OA 
ENDBRANCH  12  13
ENDBRANCH  11  12
ENDBRANCH  10  11
ENDBRANCH   4  10
TORSDOF 4
ENDMDL
MODEL      204
REMARK 921   NORMALIZED FREE ENERGY PREDICTED BY IDOCK:   -2.82 KCAL/MOL
REMARK 922        TOTAL FREE ENERGY PREDICTED BY IDOCK:   -3.65 KCAL/MOL
REMARK 923 INTER-LIGAND FREE ENERGY PREDICTED BY IDOCK:   -3.97 KCAL/MOL
REMARK 924 INTRA-LIGAND FREE ENERGY PREDICTED BY IDOCK:    0.32 KCAL/MOL
REMARK 927      BINDING AFFINITY PREDICTED BY RF-SCORE:    0.00 PKD
ROOT
HETATM    1  C   UNL     1      -8.662  17.540  68.343  1.00  0.00    -0.276 C  
HETATM    2  C   UNL     1     -10.077  17.185  68.741  1.00  0.00    -0.329 C  
HETATM    3  S   UNL     1     -10.070  15.449  69.247  1.00  0.00    -0.268 SA 
HETATM    4  C   UNL     1      -8.243  15.258  69.279  1.00  0.00    -0.244 C  
HETATM    5  C   UNL     1      -7.661  16.688  69.127  1.00  0.00    -0.186 C  
HETATM    6  O   UNL     1      -6.196  16.949  65.968  1.00  0.00    -0.109 OA 
HETATM    7  C   UNL     1      -6.905  17.003  66.953  1.00  0.00    -0.212 C  
HETATM    8  N   UNL     1      -6.505  16.784  68.266  1.00  0.00    -0.138 NA 
HETATM    9  N   UNL     1      -8.267  17.284  66.977  1.00  0.00    -0.199 NA 
ENDROOT
BRANCH   4  10
HETATM   10  C   UNL     1      -7.871  14.179  68.238  1.00  0.00    -0.138 C  
BRANCH  10  11
HETATM   11  C   UNL     1      -8.720  12.896  68.255  1.00  0.00    -0.168 C  
BRANCH  11  12
HETATM   12  C   UNL     1      -9.997  12.953  67.416  1.00  0.00    -0.217 C  
BRANCH  12  13
HETATM   13  C   UNL     1      -9.863  12.145  66.128  1.00  0.00    -0.254 C  
HETATM   14  C   UNL     1     -11.178  11.995  65.399  1.00  0.00    -0.322 C  
HETATM   15  O   UNL     1     -12.237  12.487  65.745  1.00  0.00    -0.578 OA 
HETATM   16  O   UNL     1     -11.048  11.246  64.279  1.00  0.00    -0.333 OA 
ENDBRANCH  12  13
ENDBRANCH  11  12
ENDBRANCH  10  11
ENDBRANCH   4  10
TORSDOF 4
ENDMDL
MODEL      205
REMARK 921   NORMALIZED FREE ENERGY PREDICTED BY IDOCK:   -2.78 KCAL/MOL
REMARK 922        TOTAL FREE ENERGY PREDICTED BY IDOCK:   -3.60 KCAL/MOL
REMARK 923 INTER-LIGAND FREE ENERGY PREDICTED BY IDOCK:   -3.19 KCAL/MOL
REMARK 924 INTRA-LIGAND FREE ENERGY PREDICTED BY IDOCK:   -0.41 KCAL/MOL
REMARK 927      BINDING AFFINITY PREDICTED BY RF-SCORE:    0.00 PKD
ROOT
HETATM    1  C   UNL     1      -7.190  10.733  66.281  1.00  0.00    -0.137 C  
HETATM    2  C   UNL     1      -7.013   9.948  65.001  1.00  0.00    -0.130 C  
HETATM    3  S   UNL     1      -8.626   9.250  64.576  1.00  0.00    -0.185 SA 
HETATM    4  C   UNL     1      -9.591  10.208  65.810  1.00  0.00    -0.230 C  
HETATM    5  C   UNL     1      -8.618  11.276  66.377  1.00  0.00    -0.174 C  
HETATM    6  O   UNL     1      -7.855  10.426  69.677  1.00  0.00    -0.156 OA 
HETATM    7  C   UNL     1      -7.872  10.624  68.479  1.00  0.00    -0.115 C  
HETATM    8  N   UNL     1      -8.720  11.493  67.802  1.00  0.00    -0.138 NA 
HETATM    9  N   UNL     1      -7.058  10.017  67.530  1.00  0.00    -0.087 NA 
ENDROOT
BRANCH   4  10
HETATM   10  C   UNL     1     -10.243   9.196  66.777  1.00  0.00    -0.331 C  
BRANCH  10  11
HETATM   11  C   UNL     1      -9.764   7.738  66.660  1.00  0.00    -0.292 C  
BRANCH  11  12
HETATM   12  C   UNL     1     -10.787   6.684  67.084  1.00  0.00    -0.471 C  
BRANCH  12  13
HETATM   13  C   UNL     1     -10.153   5.302  67.214  1.00  0.00    -0.234 C  
HETATM   14  C   UNL     1      -9.981   4.876  68.653  1.00  0.00    -0.125 C  
HETATM   15  O   UNL     1     -10.337   5.517  69.626  1.00  0.00    -0.237 OA 
HETATM   16  O   UNL     1      -9.385   3.665  68.751  1.00  0.00    -0.149 OA 
ENDBRANCH  12  13
ENDBRANCH  11  12
ENDBRANCH  10  11
ENDBRANCH   4  10
TORSDOF 4
ENDMDL
MODEL      206
REMARK 921   NORMALIZED FREE ENERGY PREDICTED BY IDOCK:   -2.76 KCAL/MOL
REMARK 922        TOTAL FREE ENERGY PREDICTED BY IDOCK:   -3.58 KCAL/MOL
REMARK 923 INTER-LIGAND FREE ENERGY PREDICTED BY IDOCK:   -3.38 KCAL/MOL
REMARK 924 INTRA-LIGAND FREE ENERGY PREDICTED BY IDOCK:   -0.20 KCAL/MOL
REMARK 927      BINDING AFFINITY PREDICTED BY RF-SCORE:    0.00 PKD
ROOT
HETATM    1  C   UNL     1     -10.769  14.015  66.799  1.00  0.00    -0.285 C  
HETATM    2  C   UNL     1     -11.605  14.132  65.544  1.00  0.00    -0.337 C  
HETATM    3  S   UNL     1     -11.704  12.482  64.812  1.00  0.00    -0.376 SA 
HETATM    4  C   UNL     1     -10.983  11.584  66.243  1.00  0.00    -0.275 C  
HETATM    5  C   UNL     1     -10.911  12.615  67.401  1.00  0.00    -0.254 C  
HETATM    6  O   UNL     1      -7.556  13.400  67.967  1.00  0.00    -0.114 OA 
HETATM    7  C   UNL     1      -8.727  13.369  67.648  1.00  0.00    -0.198 C  
HETATM    8  N   UNL     1      -9.707  12.549  68.196  1.00  0.00    -0.218 NA 
HETATM    9  N   UNL     1      -9.336  14.138  66.662  1.00  0.00    -0.283 NA 
ENDROOT
BRANCH   4  10
HETATM   10  C   UNL     1      -9.683  10.905  65.759  1.00  0.00    -0.270 C  
BRANCH  10  11
HETATM   11  C   UNL     1      -9.304   9.587  66.457  1.00  0.00    -0.220 C  
BRANCH  11  12
HETATM   12  C   UNL     1      -8.082   8.874  65.878  1.00  0.00    -0.109 C  
BRANCH  12  13
HETATM   13  C   UNL     1      -8.241   8.605  64.383  1.00  0.00    -0.163 C  
HETATM   14  C   UNL     1      -8.004   7.157  64.027  1.00  0.00    -0.078 C  
HETATM   15  O   UNL     1      -7.758   6.265  64.820  1.00  0.00    -0.087 OA 
HETATM   16  O   UNL     1      -8.113   6.943  62.695  1.00  0.00    -0.112 OA 
ENDBRANCH  12  13
ENDBRANCH  11  12
ENDBRANCH  10  11
ENDBRANCH   4  10
TORSDOF 4
ENDMDL
MODEL      207
REMARK 921   NORMALIZED FREE ENERGY PREDICTED BY IDOCK:   -2.75 KCAL/MOL
REMARK 922        TOTAL FREE ENERGY PREDICTED BY IDOCK:   -3.57 KCAL/MOL
REMARK 923 INTER-LIGAND FREE ENERGY PREDICTED BY IDOCK:   -3.18 KCAL/MOL
REMARK 924 INTRA-LIGAND FREE ENERGY PREDICTED BY IDOCK:   -0.39 KCAL/MOL
REMARK 927      BINDING AFFINITY PREDICTED BY RF-SCORE:    0.00 PKD
ROOT
HETATM    1  C   UNL     1      -7.458   4.345  68.890  1.00  0.00    -0.056 C  
HETATM    2  C   UNL     1      -7.602   3.018  69.602  1.00  0.00    -0.044 C  
HETATM    3  S   UNL     1      -9.282   2.949  70.266  1.00  0.00    -0.144 SA 
HETATM    4  C   UNL     1      -9.911   4.427  69.375  1.00  0.00    -0.168 C  
HETATM    5  C   UNL     1      -8.812   4.805  68.346  1.00  0.00    -0.104 C  
HETATM    6  O   UNL     1      -7.309   7.780  69.388  1.00  0.00    -0.081 OA 
HETATM    7  C   UNL     1      -7.605   6.632  69.122  1.00  0.00    -0.100 C  
HETATM    8  N   UNL     1      -8.572   6.223  68.211  1.00  0.00    -0.117 NA 
HETATM    9  N   UNL     1      -7.048   5.485  69.678  1.00  0.00    -0.062 NA 
ENDROOT
BRANCH   4  10
HETATM   10  C   UNL     1     -10.336   5.464  70.438  1.00  0.00    -0.353 C  
BRANCH  10  11
HETATM   11  C   UNL     1     -11.625   6.251  70.143  1.00  0.00    -0.385 C  
BRANCH  11  12
HETATM   12  C   UNL     1     -11.845   7.486  71.017  1.00  0.00    -0.319 C  
BRANCH  12  13
HETATM   13  C   UNL     1     -10.791   7.596  72.116  1.00  0.00    -0.293 C  
HETATM   14  C   UNL     1      -9.833   8.740  71.887  1.00  0.00    -0.324 C  
HETATM   15  O   UNL     1      -9.890   9.536  70.966  1.00  0.00    -0.268 OA 
HETATM   16  O   UNL     1      -8.884   8.800  72.851  1.00  0.00    -0.362 OA 
ENDBRANCH  12  13
ENDBRANCH  11  12
ENDBRANCH  10  11
ENDBRANCH   4  10
TORSDOF 4
ENDMDL
MODEL      208
REMARK 921   NORMALIZED FREE ENERGY PREDICTED BY IDOCK:   -2.74 KCAL/MOL
REMARK 922        TOTAL FREE ENERGY PREDICTED BY IDOCK:   -3.56 KCAL/MOL
REMARK 923 INTER-LIGAND FREE ENERGY PREDICTED BY IDOCK:   -3.25 KCAL/MOL
REMARK 924 INTRA-LIGAND FREE ENERGY PREDICTED BY IDOCK:   -0.31 KCAL/MOL
REMARK 927      BINDING AFFINITY PREDICTED BY RF-SCORE:    0.00 PKD
ROOT
HETATM    1  C   UNL     1     -10.904   8.086  72.480  1.00  0.00    -0.349 C  
HETATM    2  C   UNL     1     -12.041   8.055  71.484  1.00  0.00    -0.298 C  
HETATM    3  S   UNL     1     -11.739   6.663  70.371  1.00  0.00    -0.325 SA 
HETATM    4  C   UNL     1     -10.373   5.919  71.348  1.00  0.00    -0.218 C  
HETATM    5  C   UNL     1     -10.356   6.674  72.704  1.00  0.00    -0.196 C  
HETATM    6  O   UNL     1      -7.496   8.674  72.811  1.00  0.00    -0.327 OA 
HETATM    7  C   UNL     1      -8.617   8.214  72.724  1.00  0.00    -0.206 C  
HETATM    8  N   UNL     1      -9.039   6.982  73.209  1.00  0.00    -0.130 NA 
HETATM    9  N   UNL     1      -9.711   8.814  72.112  1.00  0.00    -0.306 NA 
ENDROOT
BRANCH   4  10
HETATM   10  C   UNL     1      -9.107   5.933  70.462  1.00  0.00    -0.158 C  
BRANCH  10  11
HETATM   11  C   UNL     1      -9.162   5.077  69.185  1.00  0.00    -0.154 C  
BRANCH  11  12
HETATM   12  C   UNL     1      -7.966   5.236  68.246  1.00  0.00    -0.088 C  
BRANCH  12  13
HETATM   13  C   UNL     1      -8.382   5.802  66.891  1.00  0.00    -0.108 C  
HETATM   14  C   UNL     1      -8.252   7.305  66.826  1.00  0.00    -0.121 C  
HETATM   15  O   UNL     1      -7.824   8.016  67.718  1.00  0.00    -0.121 OA 
HETATM   16  O   UNL     1      -8.659   7.793  65.631  1.00  0.00    -0.144 OA 
ENDBRANCH  12  13
ENDBRANCH  11  12
ENDBRANCH  10  11
ENDBRANCH   4  10
TORSDOF 4
ENDMDL
MODEL      209
REMARK 921   NORMALIZED FREE ENERGY PREDICTED BY IDOCK:   -2.72 KCAL/MOL
REMARK 922        TOTAL FREE ENERGY PREDICTED BY IDOCK:   -3.53 KCAL/MOL
REMARK 923 INTER-LIGAND FREE ENERGY PREDICTED BY IDOCK:   -3.02 KCAL/MOL
REMARK 924 INTRA-LIGAND FREE ENERGY PREDICTED BY IDOCK:   -0.52 KCAL/MOL
REMARK 927      BINDING AFFINITY PREDICTED BY RF-SCORE:    0.00 PKD
ROOT
HETATM    1  C   UNL     1      -7.530   7.248  67.040  1.00  0.00    -0.105 C  
HETATM    2  C   UNL     1      -7.162   5.941  67.704  1.00  0.00    -0.076 C  
HETATM    3  S   UNL     1      -8.655   4.922  67.741  1.00  0.00    -0.103 SA 
HETATM    4  C   UNL     1      -9.655   5.992  66.632  1.00  0.00    -0.154 C  
HETATM    5  C   UNL     1      -8.668   7.033  66.040  1.00  0.00    -0.144 C  
HETATM    6  O   UNL     1      -9.396  10.152  67.431  1.00  0.00    -0.146 OA 
HETATM    7  C   UNL     1      -8.935   9.072  67.121  1.00  0.00    -0.130 C  
HETATM    8  N   UNL     1      -9.190   8.377  65.945  1.00  0.00    -0.184 NA 
HETATM    9  N   UNL     1      -8.062   8.299  67.878  1.00  0.00    -0.125 NA 
ENDROOT
BRANCH   4  10
HETATM   10  C   UNL     1     -10.875   6.486  67.440  1.00  0.00    -0.449 C  
BRANCH  10  11
HETATM   11  C   UNL     1     -11.018   5.925  68.866  1.00  0.00    -0.337 C  
BRANCH  11  12
HETATM   12  C   UNL     1     -11.104   6.978  69.971  1.00  0.00    -0.316 C  
BRANCH  12  13
HETATM   13  C   UNL     1      -9.858   6.977  70.851  1.00  0.00    -0.190 C  
HETATM   14  C   UNL     1     -10.056   6.209  72.137  1.00  0.00    -0.183 C  
HETATM   15  O   UNL     1     -11.068   5.607  72.450  1.00  0.00    -0.248 OA 
HETATM   16  O   UNL     1      -8.954   6.249  72.921  1.00  0.00    -0.126 OA 
ENDBRANCH  12  13
ENDBRANCH  11  12
ENDBRANCH  10  11
ENDBRANCH   4  10
TORSDOF 4
ENDMDL
MODEL      210
REMARK 921   NORMALIZED FREE ENERGY PREDICTED BY IDOCK:   -2.71 KCAL/MOL
REMARK 922        TOTAL FREE ENERGY PREDICTED BY IDOCK:   -3.52 KCAL/MOL
REMARK 923 INTER-LIGAND FREE ENERGY PREDICTED BY IDOCK:   -3.56 KCAL/MOL
REMARK 924 INTRA-LIGAND FREE ENERGY PREDICTED BY IDOCK:    0.04 KCAL/MOL
REMARK 927      BINDING AFFINITY PREDICTED BY RF-SCORE:    0.00 PKD
ROOT
HETATM    1  C   UNL     1      -9.496   9.392  70.596  1.00  0.00    -0.262 C  
HETATM    2  C   UNL     1      -8.236   9.330  69.762  1.00  0.00    -0.131 C  
HETATM    3  S   UNL     1      -8.473   8.025  68.534  1.00  0.00    -0.127 SA 
HETATM    4  C   UNL     1     -10.266   7.780  68.846  1.00  0.00    -0.211 C  
HETATM    5  C   UNL     1     -10.704   8.949  69.767  1.00  0.00    -0.225 C  
HETATM    6  O   UNL     1     -11.383   7.654  72.938  1.00  0.00    -0.369 OA 
HETATM    7  C   UNL     1     -10.917   8.190  71.953  1.00  0.00    -0.275 C  
HETATM    8  N   UNL     1     -11.622   8.580  70.820  1.00  0.00    -0.262 NA 
HETATM    9  N   UNL     1      -9.582   8.517  71.743  1.00  0.00    -0.239 NA 
ENDROOT
BRANCH   4  10
HETATM   10  C   UNL     1     -10.459   6.326  69.331  1.00  0.00    -0.298 C  
BRANCH  10  11
HETATM   11  C   UNL     1     -10.483   5.242  68.238  1.00  0.00    -0.140 C  
BRANCH  11  12
HETATM   12  C   UNL     1     -10.589   5.769  66.807  1.00  0.00    -0.373 C  
BRANCH  12  13
HETATM   13  C   UNL     1     -10.450   4.647  65.781  1.00  0.00    -0.290 C  
HETATM   14  C   UNL     1      -9.040   4.114  65.692  1.00  0.00    -0.137 C  
HETATM   15  O   UNL     1      -8.102   4.480  66.379  1.00  0.00    -0.102 OA 
HETATM   16  O   UNL     1      -8.926   3.146  64.753  1.00  0.00    -0.120 OA 
ENDBRANCH  12  13
ENDBRANCH  11  12
ENDBRANCH  10  11
ENDBRANCH   4  10
TORSDOF 4
ENDMDL
MODEL      211
REMARK 921   NORMALIZED FREE ENERGY PREDICTED BY IDOCK:   -2.69 KCAL/MOL
REMARK 922        TOTAL FREE ENERGY PREDICTED BY IDOCK:   -3.49 KCAL/MOL
REMARK 923 INTER-LIGAND FREE ENERGY PREDICTED BY IDOCK:   -4.28 KCAL/MOL
REMARK 924 INTRA-LIGAND FREE ENERGY PREDICTED BY IDOCK:    0.78 KCAL/MOL
REMARK 927      BINDING AFFINITY PREDICTED BY RF-SCORE:    0.00 PKD
ROOT
HETATM    1  C   UNL     1     -11.510  13.922  66.053  1.00  0.00    -0.340 C  
HETATM    2  C   UNL     1     -11.235  15.067  65.104  1.00  0.00    -0.388 C  
HETATM    3  S   UNL     1      -9.738  15.895  65.686  1.00  0.00    -0.192 SA 
HETATM    4  C   UNL     1      -9.267  14.617  66.919  1.00  0.00    -0.249 C  
HETATM    5  C   UNL     1     -10.201  13.405  66.655  1.00  0.00    -0.274 C  
HETATM    6  O   UNL     1     -12.458  13.159  69.307  1.00  0.00    -0.071 OA 
HETATM    7  C   UNL     1     -11.886  13.349  68.253  1.00  0.00    -0.358 C  
HETATM    8  N   UNL     1     -10.698  12.754  67.844  1.00  0.00    -0.215 NA 
HETATM    9  N   UNL     1     -12.290  14.207  67.236  1.00  0.00    -0.269 NA 
ENDROOT
BRANCH   4  10
HETATM   10  C   UNL     1      -9.279  15.287  68.311  1.00  0.00    -0.189 C  
BRANCH  10  11
HETATM   11  C   UNL     1      -8.242  16.401  68.537  1.00  0.00    -0.201 C  
BRANCH  11  12
HETATM   12  C   UNL     1      -8.106  17.402  67.389  1.00  0.00    -0.213 C  
BRANCH  12  13
HETATM   13  C   UNL     1      -8.163  18.844  67.887  1.00  0.00    -0.305 C  
HETATM   14  C   UNL     1      -7.847  19.845  66.802  1.00  0.00    -0.302 C  
HETATM   15  O   UNL     1      -7.613  19.574  65.637  1.00  0.00    -0.412 OA 
HETATM   16  O   UNL     1      -7.866  21.115  67.269  1.00  0.00    -0.299 OA 
ENDBRANCH  12  13
ENDBRANCH  11  12
ENDBRANCH  10  11
ENDBRANCH   4  10
TORSDOF 4
ENDMDL
MODEL      212
REMARK 921   NORMALIZED FREE ENERGY PREDICTED BY IDOCK:   -2.68 KCAL/MOL
REMARK 922        TOTAL FREE ENERGY PREDICTED BY IDOCK:   -3.48 KCAL/MOL
REMARK 923 INTER-LIGAND FREE ENERGY PREDICTED BY IDOCK:   -2.96 KCAL/MOL
REMARK 924 INTRA-LIGAND FREE ENERGY PREDICTED BY IDOCK:   -0.52 KCAL/MOL
REMARK 927      BINDING AFFINITY PREDICTED BY RF-SCORE:    0.00 PKD
ROOT
HETATM    1  C   UNL     1      -8.140   6.799  65.990  1.00  0.00    -0.119 C  
HETATM    2  C   UNL     1      -8.739   8.109  65.533  1.00  0.00    -0.120 C  
HETATM    3  S   UNL     1     -10.026   8.553  66.723  1.00  0.00    -0.301 SA 
HETATM    4  C   UNL     1      -9.592   7.276  67.971  1.00  0.00    -0.139 C  
HETATM    5  C   UNL     1      -8.238   6.674  67.513  1.00  0.00    -0.122 C  
HETATM    6  O   UNL     1      -8.806   3.414  66.398  1.00  0.00    -0.120 OA 
HETATM    7  C   UNL     1      -8.594   4.603  66.520  1.00  0.00    -0.112 C  
HETATM    8  N   UNL     1      -8.129   5.241  67.665  1.00  0.00    -0.100 NA 
HETATM    9  N   UNL     1      -8.778   5.580  65.548  1.00  0.00    -0.153 NA 
ENDROOT
BRANCH   4  10
HETATM   10  C   UNL     1     -10.816   6.346  68.128  1.00  0.00    -0.386 C  
BRANCH  10  11
HETATM   11  C   UNL     1     -11.524   6.380  69.493  1.00  0.00    -0.412 C  
BRANCH  11  12
HETATM   12  C   UNL     1     -10.595   6.324  70.706  1.00  0.00    -0.297 C  
BRANCH  12  13
HETATM   13  C   UNL     1     -10.070   4.912  70.952  1.00  0.00    -0.292 C  
HETATM   14  C   UNL     1      -8.575   4.879  71.166  1.00  0.00    -0.122 C  
HETATM   15  O   UNL     1      -7.844   5.853  71.192  1.00  0.00    -0.106 OA 
HETATM   16  O   UNL     1      -8.121   3.616  71.345  1.00  0.00    -0.060 OA 
ENDBRANCH  12  13
ENDBRANCH  11  12
ENDBRANCH  10  11
ENDBRANCH   4  10
TORSDOF 4
ENDMDL
MODEL      213
REMARK 921   NORMALIZED FREE ENERGY PREDICTED BY IDOCK:   -2.68 KCAL/MOL
REMARK 922        TOTAL FREE ENERGY PREDICTED BY IDOCK:   -3.48 KCAL/MOL
REMARK 923 INTER-LIGAND FREE ENERGY PREDICTED BY IDOCK:   -2.92 KCAL/MOL
REMARK 924 INTRA-LIGAND FREE ENERGY PREDICTED BY IDOCK:   -0.56 KCAL/MOL
REMARK 927      BINDING AFFINITY PREDICTED BY RF-SCORE:    0.00 PKD
ROOT
HETATM    1  C   UNL     1      -9.712   5.956  66.271  1.00  0.00    -0.096 C  
HETATM    2  C   UNL     1     -10.469   7.113  66.881  1.00  0.00    -0.294 C  
HETATM    3  S   UNL     1      -9.859   7.321  68.570  1.00  0.00    -0.161 SA 
HETATM    4  C   UNL     1      -8.428   6.181  68.407  1.00  0.00    -0.114 C  
HETATM    5  C   UNL     1      -8.318   5.846  66.895  1.00  0.00    -0.108 C  
HETATM    6  O   UNL     1      -9.261   2.515  66.437  1.00  0.00    -0.123 OA 
HETATM    7  C   UNL     1      -9.179   3.726  66.496  1.00  0.00    -0.167 C  
HETATM    8  N   UNL     1      -8.008   4.466  66.602  1.00  0.00    -0.098 NA 
HETATM    9  N   UNL     1     -10.238   4.626  66.480  1.00  0.00    -0.253 NA 
ENDROOT
BRANCH   4  10
HETATM   10  C   UNL     1      -8.631   5.032  69.420  1.00  0.00    -0.097 C  
BRANCH  10  11
HETATM   11  C   UNL     1     -10.021   4.941  70.073  1.00  0.00    -0.323 C  
BRANCH  11  12
HETATM   12  C   UNL     1     -10.014   4.821  71.598  1.00  0.00    -0.257 C  
BRANCH  12  13
HETATM   13  C   UNL     1     -10.725   5.997  72.261  1.00  0.00    -0.272 C  
HETATM   14  C   UNL     1      -9.791   7.147  72.557  1.00  0.00    -0.155 C  
HETATM   15  O   UNL     1      -8.607   7.187  72.272  1.00  0.00    -0.116 OA 
HETATM   16  O   UNL     1     -10.430   8.166  73.178  1.00  0.00    -0.285 OA 
ENDBRANCH  12  13
ENDBRANCH  11  12
ENDBRANCH  10  11
ENDBRANCH   4  10
TORSDOF 4
ENDMDL
MODEL      214
REMARK 921   NORMALIZED FREE ENERGY PREDICTED BY IDOCK:   -2.67 KCAL/MOL
REMARK 922        TOTAL FREE ENERGY PREDICTED BY IDOCK:   -3.48 KCAL/MOL
REMARK 923 INTER-LIGAND FREE ENERGY PREDICTED BY IDOCK:   -3.18 KCAL/MOL
REMARK 924 INTRA-LIGAND FREE ENERGY PREDICTED BY IDOCK:   -0.30 KCAL/MOL
REMARK 927      BINDING AFFINITY PREDICTED BY RF-SCORE:    0.00 PKD
ROOT
HETATM    1  C   UNL     1      -9.395  10.477  69.021  1.00  0.00    -0.196 C  
HETATM    2  C   UNL     1      -8.289  10.185  68.032  1.00  0.00    -0.117 C  
HETATM    3  S   UNL     1      -8.766   8.699  67.120  1.00  0.00    -0.129 SA 
HETATM    4  C   UNL     1     -10.494   8.631  67.739  1.00  0.00    -0.224 C  
HETATM    5  C   UNL     1     -10.735   9.972  68.482  1.00  0.00    -0.231 C  
HETATM    6  O   UNL     1     -10.943   9.310  71.904  1.00  0.00    -0.363 OA 
HETATM    7  C   UNL     1     -10.623   9.630  70.777  1.00  0.00    -0.322 C  
HETATM    8  N   UNL     1     -11.485   9.857  69.711  1.00  0.00    -0.189 NA 
HETATM    9  N   UNL     1      -9.328   9.827  70.311  1.00  0.00    -0.234 NA 
ENDROOT
BRANCH   4  10
HETATM   10  C   UNL     1     -10.659   7.302  68.511  1.00  0.00    -0.207 C  
BRANCH  10  11
HETATM   11  C   UNL     1      -9.423   6.387  68.560  1.00  0.00    -0.120 C  
BRANCH  11  12
HETATM   12  C   UNL     1      -9.559   5.073  67.790  1.00  0.00    -0.178 C  
BRANCH  12  13
HETATM   13  C   UNL     1      -9.639   3.873  68.730  1.00  0.00    -0.187 C  
HETATM   14  C   UNL     1      -9.384   2.564  68.021  1.00  0.00    -0.202 C  
HETATM   15  O   UNL     1      -9.099   2.443  66.843  1.00  0.00    -0.139 OA 
HETATM   16  O   UNL     1      -9.495   1.508  68.861  1.00  0.00    -0.142 OA 
ENDBRANCH  12  13
ENDBRANCH  11  12
ENDBRANCH  10  11
ENDBRANCH   4  10
TORSDOF 4
ENDMDL
MODEL      215
REMARK 921   NORMALIZED FREE ENERGY PREDICTED BY IDOCK:   -2.65 KCAL/MOL
REMARK 922        TOTAL FREE ENERGY PREDICTED BY IDOCK:   -3.44 KCAL/MOL
REMARK 923 INTER-LIGAND FREE ENERGY PREDICTED BY IDOCK:   -3.24 KCAL/MOL
REMARK 924 INTRA-LIGAND FREE ENERGY PREDICTED BY IDOCK:   -0.21 KCAL/MOL
REMARK 927      BINDING AFFINITY PREDICTED BY RF-SCORE:    0.00 PKD
ROOT
HETATM    1  C   UNL     1      -7.805   8.000  66.468  1.00  0.00    -0.097 C  
HETATM    2  C   UNL     1      -7.411   9.435  66.198  1.00  0.00    -0.096 C  
HETATM    3  S   UNL     1      -7.966  10.416  67.612  1.00  0.00    -0.106 SA 
HETATM    4  C   UNL     1      -8.394   8.991  68.689  1.00  0.00    -0.123 C  
HETATM    5  C   UNL     1      -7.834   7.732  67.974  1.00  0.00    -0.124 C  
HETATM    6  O   UNL     1     -10.526   5.862  66.772  1.00  0.00    -0.233 OA 
HETATM    7  C   UNL     1      -9.564   6.586  66.930  1.00  0.00    -0.158 C  
HETATM    8  N   UNL     1      -8.698   6.576  68.018  1.00  0.00    -0.117 NA 
HETATM    9  N   UNL     1      -9.129   7.583  66.065  1.00  0.00    -0.137 NA 
ENDROOT
BRANCH   4  10
HETATM   10  C   UNL     1      -9.907   9.074  68.991  1.00  0.00    -0.178 C  
BRANCH  10  11
HETATM   11  C   UNL     1     -10.380  10.326  69.750  1.00  0.00    -0.287 C  
BRANCH  11  12
HETATM   12  C   UNL     1     -11.896  10.518  69.801  1.00  0.00    -0.329 C  
BRANCH  12  13
HETATM   13  C   UNL     1     -12.345  11.114  71.133  1.00  0.00    -0.451 C  
HETATM   14  C   UNL     1     -12.431  12.621  71.095  1.00  0.00    -0.228 C  
HETATM   15  O   UNL     1     -12.218  13.316  70.116  1.00  0.00    -0.334 OA 
HETATM   16  O   UNL     1     -12.795  13.135  72.293  1.00  0.00    -0.236 OA 
ENDBRANCH  12  13
ENDBRANCH  11  12
ENDBRANCH  10  11
ENDBRANCH   4  10
TORSDOF 4
ENDMDL
MODEL      216
REMARK 921   NORMALIZED FREE ENERGY PREDICTED BY IDOCK:   -2.64 KCAL/MOL
REMARK 922        TOTAL FREE ENERGY PREDICTED BY IDOCK:   -3.43 KCAL/MOL
REMARK 923 INTER-LIGAND FREE ENERGY PREDICTED BY IDOCK:   -3.21 KCAL/MOL
REMARK 924 INTRA-LIGAND FREE ENERGY PREDICTED BY IDOCK:   -0.22 KCAL/MOL
REMARK 927      BINDING AFFINITY PREDICTED BY RF-SCORE:    0.00 PKD
ROOT
HETATM    1  C   UNL     1      -9.189   7.274  68.201  1.00  0.00    -0.132 C  
HETATM    2  C   UNL     1      -8.704   7.346  69.631  1.00  0.00    -0.137 C  
HETATM    3  S   UNL     1      -9.110   8.994  70.251  1.00  0.00    -0.222 SA 
HETATM    4  C   UNL     1     -10.179   9.482  68.838  1.00  0.00    -0.199 C  
HETATM    5  C   UNL     1     -10.398   8.192  68.004  1.00  0.00    -0.211 C  
HETATM    6  O   UNL     1      -8.644   8.514  65.001  1.00  0.00    -0.179 OA 
HETATM    7  C   UNL     1      -9.048   8.239  66.114  1.00  0.00    -0.189 C  
HETATM    8  N   UNL     1     -10.352   8.381  66.573  1.00  0.00    -0.234 NA 
HETATM    9  N   UNL     1      -8.292   7.735  67.166  1.00  0.00    -0.117 NA 
ENDROOT
BRANCH   4  10
HETATM   10  C   UNL     1      -9.529  10.711  68.166  1.00  0.00    -0.158 C  
BRANCH  10  11
HETATM   11  C   UNL     1      -9.993  12.088  68.674  1.00  0.00    -0.151 C  
BRANCH  11  12
HETATM   12  C   UNL     1     -11.386  12.514  68.209  1.00  0.00    -0.331 C  
BRANCH  12  13
HETATM   13  C   UNL     1     -12.215  13.087  69.356  1.00  0.00    -0.167 C  
HETATM   14  C   UNL     1     -12.322  14.592  69.297  1.00  0.00    -0.125 C  
HETATM   15  O   UNL     1     -11.852  15.300  68.423  1.00  0.00    -0.339 OA 
HETATM   16  O   UNL     1     -13.028  15.087  70.340  1.00  0.00    -0.319 OA 
ENDBRANCH  12  13
ENDBRANCH  11  12
ENDBRANCH  10  11
ENDBRANCH   4  10
TORSDOF 4
ENDMDL
MODEL      217
REMARK 921   NORMALIZED FREE ENERGY PREDICTED BY IDOCK:   -2.62 KCAL/MOL
REMARK 922        TOTAL FREE ENERGY PREDICTED BY IDOCK:   -3.42 KCAL/MOL
REMARK 923 INTER-LIGAND FREE ENERGY PREDICTED BY IDOCK:   -3.03 KCAL/MOL
REMARK 924 INTRA-LIGAND FREE ENERGY PREDICTED BY IDOCK:   -0.39 KCAL/MOL
REMARK 927      BINDING AFFINITY PREDICTED BY RF-SCORE:    0.00 PKD
ROOT
HETATM    1  C   UNL     1      -6.739   7.474  71.926  1.00  0.00    -0.054 C  
HETATM    2  C   UNL     1      -7.228   7.869  73.301  1.00  0.00    -0.107 C  
HETATM    3  S   UNL     1      -9.024   7.662  73.309  1.00  0.00    -0.233 SA 
HETATM    4  C   UNL     1      -9.130   6.769  71.707  1.00  0.00    -0.140 C  
HETATM    5  C   UNL     1      -7.669   6.424  71.314  1.00  0.00    -0.095 C  
HETATM    6  O   UNL     1      -6.773   8.399  68.577  1.00  0.00    -0.061 OA 
HETATM    7  C   UNL     1      -6.932   7.888  69.668  1.00  0.00    -0.053 C  
HETATM    8  N   UNL     1      -7.365   6.590  69.911  1.00  0.00    -0.084 NA 
HETATM    9  N   UNL     1      -6.725   8.494  70.902  1.00  0.00    -0.042 NA 
ENDROOT
BRANCH   4  10
HETATM   10  C   UNL     1      -9.984   7.631  70.751  1.00  0.00    -0.181 C  
BRANCH  10  11
HETATM   11  C   UNL     1     -10.738   8.811  71.390  1.00  0.00    -0.356 C  
BRANCH  11  12
HETATM   12  C   UNL     1     -11.222   9.878  70.407  1.00  0.00    -0.379 C  
BRANCH  12  13
HETATM   13  C   UNL     1     -10.275  10.023  69.219  1.00  0.00    -0.229 C  
HETATM   14  C   UNL     1     -10.960  10.589  67.998  1.00  0.00    -0.290 C  
HETATM   15  O   UNL     1     -12.124  10.946  67.943  1.00  0.00    -0.527 OA 
HETATM   16  O   UNL     1     -10.116  10.677  66.943  1.00  0.00    -0.198 OA 
ENDBRANCH  12  13
ENDBRANCH  11  12
ENDBRANCH  10  11
ENDBRANCH   4  10
TORSDOF 4
ENDMDL
MODEL      218
REMARK 921   NORMALIZED FREE ENERGY PREDICTED BY IDOCK:   -2.61 KCAL/MOL
REMARK 922        TOTAL FREE ENERGY PREDICTED BY IDOCK:   -3.39 KCAL/MOL
REMARK 923 INTER-LIGAND FREE ENERGY PREDICTED BY IDOCK:   -3.17 KCAL/MOL
REMARK 924 INTRA-LIGAND FREE ENERGY PREDICTED BY IDOCK:   -0.22 KCAL/MOL
REMARK 927      BINDING AFFINITY PREDICTED BY RF-SCORE:    0.00 PKD
ROOT
HETATM    1  C   UNL     1      -7.532   8.664  64.479  1.00  0.00    -0.107 C  
HETATM    2  C   UNL     1      -6.145   8.217  64.884  1.00  0.00    -0.048 C  
HETATM    3  S   UNL     1      -6.069   8.282  66.689  1.00  0.00    -0.054 SA 
HETATM    4  C   UNL     1      -7.868   8.546  66.956  1.00  0.00    -0.096 C  
HETATM    5  C   UNL     1      -8.542   8.319  65.577  1.00  0.00    -0.159 C  
HETATM    6  O   UNL     1      -9.668  11.402  64.384  1.00  0.00    -0.237 OA 
HETATM    7  C   UNL     1      -9.078  10.366  64.617  1.00  0.00    -0.222 C  
HETATM    8  N   UNL     1      -9.600   9.250  65.260  1.00  0.00    -0.192 NA 
HETATM    9  N   UNL     1      -7.754  10.081  64.303  1.00  0.00    -0.139 NA 
ENDROOT
BRANCH   4  10
HETATM   10  C   UNL     1      -8.037   9.910  67.661  1.00  0.00    -0.110 C  
BRANCH  10  11
HETATM   11  C   UNL     1      -8.590   9.869  69.097  1.00  0.00    -0.157 C  
BRANCH  11  12
HETATM   12  C   UNL     1     -10.017  10.393  69.257  1.00  0.00    -0.246 C  
BRANCH  12  13
HETATM   13  C   UNL     1     -10.729   9.742  70.440  1.00  0.00    -0.368 C  
HETATM   14  C   UNL     1     -12.005  10.458  70.813  1.00  0.00    -0.363 C  
HETATM   15  O   UNL     1     -12.471  11.422  70.231  1.00  0.00    -0.282 OA 
HETATM   16  O   UNL     1     -12.605   9.890  71.886  1.00  0.00    -0.388 OA 
ENDBRANCH  12  13
ENDBRANCH  11  12
ENDBRANCH  10  11
ENDBRANCH   4  10
TORSDOF 4
ENDMDL
MODEL      219
REMARK 921   NORMALIZED FREE ENERGY PREDICTED BY IDOCK:   -2.58 KCAL/MOL
REMARK 922        TOTAL FREE ENERGY PREDICTED BY IDOCK:   -3.35 KCAL/MOL
REMARK 923 INTER-LIGAND FREE ENERGY PREDICTED BY IDOCK:   -3.10 KCAL/MOL
REMARK 924 INTRA-LIGAND FREE ENERGY PREDICTED BY IDOCK:   -0.25 KCAL/MOL
REMARK 927      BINDING AFFINITY PREDICTED BY RF-SCORE:    0.00 PKD
ROOT
HETATM    1  C   UNL     1      -8.218   6.554  70.119  1.00  0.00    -0.129 C  
HETATM    2  C   UNL     1      -8.562   7.365  71.348  1.00  0.00    -0.117 C  
HETATM    3  S   UNL     1      -8.855   9.063  70.803  1.00  0.00    -0.247 SA 
HETATM    4  C   UNL     1      -8.875   8.695  69.004  1.00  0.00    -0.138 C  
HETATM    5  C   UNL     1      -8.900   7.148  68.884  1.00  0.00    -0.130 C  
HETATM    6  O   UNL     1      -5.803   6.090  67.665  1.00  0.00    -0.015 OA 
HETATM    7  C   UNL     1      -6.784   6.368  68.326  1.00  0.00    -0.068 C  
HETATM    8  N   UNL     1      -8.063   6.607  67.838  1.00  0.00    -0.112 NA 
HETATM    9  N   UNL     1      -6.833   6.517  69.708  1.00  0.00    -0.056 NA 
ENDROOT
BRANCH   4  10
HETATM   10  C   UNL     1      -7.713   9.481  68.356  1.00  0.00    -0.085 C  
BRANCH  10  11
HETATM   11  C   UNL     1      -8.113  10.663  67.454  1.00  0.00    -0.112 C  
BRANCH  11  12
HETATM   12  C   UNL     1      -9.359  11.426  67.901  1.00  0.00    -0.164 C  
BRANCH  12  13
HETATM   13  C   UNL     1     -10.157  11.953  66.711  1.00  0.00    -0.225 C  
HETATM   14  C   UNL     1     -11.647  11.922  66.952  1.00  0.00    -0.285 C  
HETATM   15  O   UNL     1     -12.188  11.566  67.985  1.00  0.00    -0.582 OA 
HETATM   16  O   UNL     1     -12.340  12.358  65.874  1.00  0.00    -0.638 OA 
ENDBRANCH  12  13
ENDBRANCH  11  12
ENDBRANCH  10  11
ENDBRANCH   4  10
TORSDOF 4
ENDMDL
MODEL      220
REMARK 921   NORMALIZED FREE ENERGY PREDICTED BY IDOCK:   -2.55 KCAL/MOL
REMARK 922        TOTAL FREE ENERGY PREDICTED BY IDOCK:   -3.33 KCAL/MOL
REMARK 923 INTER-LIGAND FREE ENERGY PREDICTED BY IDOCK:   -3.07 KCAL/MOL
REMARK 924 INTRA-LIGAND FREE ENERGY PREDICTED BY IDOCK:   -0.26 KCAL/MOL
REMARK 927      BINDING AFFINITY PREDICTED BY RF-SCORE:    0.00 PKD
ROOT
HETATM    1  C   UNL     1     -10.348   6.219  73.188  1.00  0.00    -0.222 C  
HETATM    2  C   UNL     1     -10.551   4.749  73.481  1.00  0.00    -0.244 C  
HETATM    3  S   UNL     1     -10.007   3.833  72.021  1.00  0.00    -0.142 SA 
HETATM    4  C   UNL     1      -9.218   5.259  71.173  1.00  0.00    -0.145 C  
HETATM    5  C   UNL     1      -9.183   6.410  72.214  1.00  0.00    -0.139 C  
HETATM    6  O   UNL     1     -11.470   8.856  71.225  1.00  0.00    -0.262 OA 
HETATM    7  C   UNL     1     -10.867   7.941  71.749  1.00  0.00    -0.237 C  
HETATM    8  N   UNL     1      -9.497   7.716  71.684  1.00  0.00    -0.145 NA 
HETATM    9  N   UNL     1     -11.418   6.921  72.517  1.00  0.00    -0.255 NA 
ENDROOT
BRANCH   4  10
HETATM   10  C   UNL     1      -9.963   5.476  69.837  1.00  0.00    -0.282 C  
BRANCH  10  11
HETATM   11  C   UNL     1      -9.082   5.735  68.602  1.00  0.00    -0.116 C  
BRANCH  11  12
HETATM   12  C   UNL     1      -8.603   4.479  67.873  1.00  0.00    -0.108 C  
BRANCH  12  13
HETATM   13  C   UNL     1      -9.637   3.981  66.867  1.00  0.00    -0.232 C  
HETATM   14  C   UNL     1      -9.459   4.598  65.500  1.00  0.00    -0.173 C  
HETATM   15  O   UNL     1      -8.574   5.374  65.185  1.00  0.00    -0.147 OA 
HETATM   16  O   UNL     1     -10.406   4.173  64.630  1.00  0.00    -0.217 OA 
ENDBRANCH  12  13
ENDBRANCH  11  12
ENDBRANCH  10  11
ENDBRANCH   4  10
TORSDOF 4
ENDMDL
MODEL      221
REMARK 921   NORMALIZED FREE ENERGY PREDICTED BY IDOCK:   -2.53 KCAL/MOL
REMARK 922        TOTAL FREE ENERGY PREDICTED BY IDOCK:   -3.30 KCAL/MOL
REMARK 923 INTER-LIGAND FREE ENERGY PREDICTED BY IDOCK:   -3.03 KCAL/MOL
REMARK 924 INTRA-LIGAND FREE ENERGY PREDICTED BY IDOCK:   -0.27 KCAL/MOL
REMARK 927      BINDING AFFINITY PREDICTED BY RF-SCORE:    0.00 PKD
ROOT
HETATM    1  C   UNL     1      -9.568   6.387  73.614  1.00  0.00    -0.164 C  
HETATM    2  C   UNL     1      -8.590   5.253  73.825  1.00  0.00    -0.113 C  
HETATM    3  S   UNL     1      -7.558   5.154  72.345  1.00  0.00    -0.098 SA 
HETATM    4  C   UNL     1      -8.124   6.735  71.600  1.00  0.00    -0.106 C  
HETATM    5  C   UNL     1      -8.957   7.450  72.697  1.00  0.00    -0.137 C  
HETATM    6  O   UNL     1     -12.314   7.393  71.739  1.00  0.00    -0.308 OA 
HETATM    7  C   UNL     1     -11.223   7.215  72.242  1.00  0.00    -0.261 C  
HETATM    8  N   UNL     1     -10.153   8.103  72.220  1.00  0.00    -0.242 NA 
HETATM    9  N   UNL     1     -10.807   6.084  72.935  1.00  0.00    -0.245 NA 
ENDROOT
BRANCH   4  10
HETATM   10  C   UNL     1      -8.791   6.400  70.248  1.00  0.00    -0.151 C  
BRANCH  10  11
HETATM   11  C   UNL     1      -8.860   7.545  69.222  1.00  0.00    -0.136 C  
BRANCH  11  12
HETATM   12  C   UNL     1     -10.112   7.553  68.344  1.00  0.00    -0.200 C  
BRANCH  12  13
HETATM   13  C   UNL     1     -10.808   8.911  68.365  1.00  0.00    -0.043 C  
HETATM   14  C   UNL     1     -10.595   9.691  67.089  1.00  0.00    -0.228 C  
HETATM   15  O   UNL     1      -9.982   9.296  66.114  1.00  0.00    -0.279 OA 
HETATM   16  O   UNL     1     -11.188  10.907  67.139  1.00  0.00    -0.316 OA 
ENDBRANCH  12  13
ENDBRANCH  11  12
ENDBRANCH  10  11
ENDBRANCH   4  10
TORSDOF 4
ENDMDL
MODEL      222
REMARK 921   NORMALIZED FREE ENERGY PREDICTED BY IDOCK:   -2.52 KCAL/MOL
REMARK 922        TOTAL FREE ENERGY PREDICTED BY IDOCK:   -3.28 KCAL/MOL
REMARK 923 INTER-LIGAND FREE ENERGY PREDICTED BY IDOCK:   -3.16 KCAL/MOL
REMARK 924 INTRA-LIGAND FREE ENERGY PREDICTED BY IDOCK:   -0.12 KCAL/MOL
REMARK 927      BINDING AFFINITY PREDICTED BY RF-SCORE:    0.00 PKD
ROOT
HETATM    1  C   UNL     1      -8.649   9.972  66.402  1.00  0.00    -0.129 C  
HETATM    2  C   UNL     1      -9.782   9.695  65.440  1.00  0.00    -0.295 C  
HETATM    3  S   UNL     1     -10.714  11.232  65.254  1.00  0.00    -0.196 SA 
HETATM    4  C   UNL     1      -9.499  12.308  66.115  1.00  0.00    -0.217 C  
HETATM    5  C   UNL     1      -8.227  11.441  66.315  1.00  0.00    -0.088 C  
HETATM    6  O   UNL     1      -7.917  10.713  69.716  1.00  0.00    -0.083 OA 
HETATM    7  C   UNL     1      -8.112  10.710  68.517  1.00  0.00    -0.125 C  
HETATM    8  N   UNL     1      -7.579  11.603  67.595  1.00  0.00    -0.120 NA 
HETATM    9  N   UNL     1      -8.918   9.821  67.814  1.00  0.00    -0.128 NA 
ENDROOT
BRANCH   4  10
HETATM   10  C   UNL     1     -10.204  12.907  67.353  1.00  0.00    -0.230 C  
BRANCH  10  11
HETATM   11  C   UNL     1     -10.062  14.427  67.545  1.00  0.00    -0.232 C  
BRANCH  11  12
HETATM   12  C   UNL     1      -9.236  14.852  68.760  1.00  0.00    -0.193 C  
BRANCH  12  13
HETATM   13  C   UNL     1      -8.926  16.346  68.738  1.00  0.00    -0.245 C  
HETATM   14  C   UNL     1     -10.145  17.195  69.011  1.00  0.00    -0.297 C  
HETATM   15  O   UNL     1     -11.257  16.770  69.269  1.00  0.00    -0.205 OA 
HETATM   16  O   UNL     1      -9.860  18.517  68.952  1.00  0.00    -0.377 OA 
ENDBRANCH  12  13
ENDBRANCH  11  12
ENDBRANCH  10  11
ENDBRANCH   4  10
TORSDOF 4
ENDMDL
MODEL      223
REMARK 921   NORMALIZED FREE ENERGY PREDICTED BY IDOCK:   -2.51 KCAL/MOL
REMARK 922        TOTAL FREE ENERGY PREDICTED BY IDOCK:   -3.28 KCAL/MOL
REMARK 923 INTER-LIGAND FREE ENERGY PREDICTED BY IDOCK:   -2.97 KCAL/MOL
REMARK 924 INTRA-LIGAND FREE ENERGY PREDICTED BY IDOCK:   -0.31 KCAL/MOL
REMARK 927      BINDING AFFINITY PREDICTED BY RF-SCORE:    0.00 PKD
ROOT
HETATM    1  C   UNL     1      -8.767   8.741  71.273  1.00  0.00    -0.215 C  
HETATM    2  C   UNL     1      -7.333   8.268  71.202  1.00  0.00    -0.070 C  
HETATM    3  S   UNL     1      -7.348   6.629  70.438  1.00  0.00    -0.083 SA 
HETATM    4  C   UNL     1      -9.105   6.673  69.905  1.00  0.00    -0.143 C  
HETATM    5  C   UNL     1      -9.583   8.132  70.130  1.00  0.00    -0.168 C  
HETATM    6  O   UNL     1     -11.829   8.153  72.804  1.00  0.00    -0.389 OA 
HETATM    7  C   UNL     1     -10.876   8.248  72.057  1.00  0.00    -0.301 C  
HETATM    8  N   UNL     1     -10.918   8.256  70.668  1.00  0.00    -0.237 NA 
HETATM    9  N   UNL     1      -9.542   8.357  72.431  1.00  0.00    -0.290 NA 
ENDROOT
BRANCH   4  10
HETATM   10  C   UNL     1      -9.839   5.521  70.627  1.00  0.00    -0.252 C  
BRANCH  10  11
HETATM   11  C   UNL     1      -9.566   4.103  70.094  1.00  0.00    -0.272 C  
BRANCH  11  12
HETATM   12  C   UNL     1      -9.653   2.991  71.140  1.00  0.00    -0.229 C  
BRANCH  12  13
HETATM   13  C   UNL     1      -8.456   3.009  72.086  1.00  0.00    -0.084 C  
HETATM   14  C   UNL     1      -8.863   2.927  73.538  1.00  0.00    -0.076 C  
HETATM   15  O   UNL     1     -10.006   2.811  73.945  1.00  0.00    -0.098 OA 
HETATM   16  O   UNL     1      -7.792   2.981  74.364  1.00  0.00    -0.058 OA 
ENDBRANCH  12  13
ENDBRANCH  11  12
ENDBRANCH  10  11
ENDBRANCH   4  10
TORSDOF 4
ENDMDL
MODEL      224
REMARK 921   NORMALIZED FREE ENERGY PREDICTED BY IDOCK:   -2.48 KCAL/MOL
REMARK 922        TOTAL FREE ENERGY PREDICTED BY IDOCK:   -3.24 KCAL/MOL
REMARK 923 INTER-LIGAND FREE ENERGY PREDICTED BY IDOCK:   -2.91 KCAL/MOL
REMARK 924 INTRA-LIGAND FREE ENERGY PREDICTED BY IDOCK:   -0.33 KCAL/MOL
REMARK 927      BINDING AFFINITY PREDICTED BY RF-SCORE:    0.00 PKD
ROOT
HETATM    1  C   UNL     1      -9.407   6.229  73.890  1.00  0.00    -0.140 C  
HETATM    2  C   UNL     1      -8.917   4.804  74.019  1.00  0.00    -0.112 C  
HETATM    3  S   UNL     1      -8.549   4.213  72.351  1.00  0.00    -0.104 SA 
HETATM    4  C   UNL     1      -8.690   5.847  71.524  1.00  0.00    -0.132 C  
HETATM    5  C   UNL     1      -8.781   6.896  72.663  1.00  0.00    -0.120 C  
HETATM    6  O   UNL     1     -12.026   8.186  72.714  1.00  0.00    -0.365 OA 
HETATM    7  C   UNL     1     -10.982   7.597  72.913  1.00  0.00    -0.400 C  
HETATM    8  N   UNL     1      -9.729   7.961  72.432  1.00  0.00    -0.193 NA 
HETATM    9  N   UNL     1     -10.819   6.432  73.653  1.00  0.00    -0.197 NA 
ENDROOT
BRANCH   4  10
HETATM   10  C   UNL     1      -9.840   5.749  70.497  1.00  0.00    -0.240 C  
BRANCH  10  11
HETATM   11  C   UNL     1      -9.870   4.479  69.628  1.00  0.00    -0.288 C  
BRANCH  11  12
HETATM   12  C   UNL     1      -9.525   4.695  68.154  1.00  0.00    -0.195 C  
BRANCH  12  13
HETATM   13  C   UNL     1      -9.526   6.175  67.784  1.00  0.00    -0.115 C  
HETATM   14  C   UNL     1      -8.167   6.663  67.340  1.00  0.00    -0.121 C  
HETATM   15  O   UNL     1      -7.170   5.972  67.233  1.00  0.00    -0.072 OA 
HETATM   16  O   UNL     1      -8.178   7.985  67.051  1.00  0.00    -0.113 OA 
ENDBRANCH  12  13
ENDBRANCH  11  12
ENDBRANCH  10  11
ENDBRANCH   4  10
TORSDOF 4
ENDMDL
MODEL      225
REMARK 921   NORMALIZED FREE ENERGY PREDICTED BY IDOCK:   -2.46 KCAL/MOL
REMARK 922        TOTAL FREE ENERGY PREDICTED BY IDOCK:   -3.21 KCAL/MOL
REMARK 923 INTER-LIGAND FREE ENERGY PREDICTED BY IDOCK:   -3.00 KCAL/MOL
REMARK 924 INTRA-LIGAND FREE ENERGY PREDICTED BY IDOCK:   -0.21 KCAL/MOL
REMARK 927      BINDING AFFINITY PREDICTED BY RF-SCORE:    0.00 PKD
ROOT
HETATM    1  C   UNL     1      -6.313   7.443  72.393  1.00  0.00    -0.050 C  
HETATM    2  C   UNL     1      -6.868   6.408  73.345  1.00  0.00    -0.074 C  
HETATM    3  S   UNL     1      -8.211   5.556  72.486  1.00  0.00    -0.114 SA 
HETATM    4  C   UNL     1      -7.864   6.261  70.825  1.00  0.00    -0.106 C  
HETATM    5  C   UNL     1      -6.495   6.982  70.944  1.00  0.00    -0.044 C  
HETATM    6  O   UNL     1      -7.049  10.425  70.770  1.00  0.00    -0.269 OA 
HETATM    7  C   UNL     1      -6.827   9.277  71.096  1.00  0.00    -0.063 C  
HETATM    8  N   UNL     1      -6.417   8.249  70.255  1.00  0.00    -0.035 NA 
HETATM    9  N   UNL     1      -6.944   8.743  72.374  1.00  0.00    -0.294 NA 
ENDROOT
BRANCH   4  10
HETATM   10  C   UNL     1      -9.107   7.071  70.396  1.00  0.00    -0.156 C  
BRANCH  10  11
HETATM   11  C   UNL     1     -10.221   7.215  71.449  1.00  0.00    -0.203 C  
BRANCH  11  12
HETATM   12  C   UNL     1     -11.641   7.009  70.921  1.00  0.00    -0.370 C  
BRANCH  12  13
HETATM   13  C   UNL     1     -12.691   7.413  71.953  1.00  0.00    -0.310 C  
HETATM   14  C   UNL     1     -12.732   8.905  72.185  1.00  0.00    -0.405 C  
HETATM   15  O   UNL     1     -12.051   9.729  71.601  1.00  0.00    -0.378 OA 
HETATM   16  O   UNL     1     -13.642   9.242  73.128  1.00  0.00    -0.129 OA 
ENDBRANCH  12  13
ENDBRANCH  11  12
ENDBRANCH  10  11
ENDBRANCH   4  10
TORSDOF 4
ENDMDL
MODEL      226
REMARK 921   NORMALIZED FREE ENERGY PREDICTED BY IDOCK:   -2.43 KCAL/MOL
REMARK 922        TOTAL FREE ENERGY PREDICTED BY IDOCK:   -3.17 KCAL/MOL
REMARK 923 INTER-LIGAND FREE ENERGY PREDICTED BY IDOCK:   -2.86 KCAL/MOL
REMARK 924 INTRA-LIGAND FREE ENERGY PREDICTED BY IDOCK:   -0.31 KCAL/MOL
REMARK 927      BINDING AFFINITY PREDICTED BY RF-SCORE:    0.00 PKD
ROOT
HETATM    1  C   UNL     1      -5.899   7.775  72.910  1.00  0.00    -0.045 C  
HETATM    2  C   UNL     1      -6.316   8.576  74.123  1.00  0.00    -0.126 C  
HETATM    3  S   UNL     1      -8.021   8.114  74.508  1.00  0.00    -0.194 SA 
HETATM    4  C   UNL     1      -8.104   6.681  73.362  1.00  0.00    -0.107 C  
HETATM    5  C   UNL     1      -6.651   6.442  72.871  1.00  0.00    -0.065 C  
HETATM    6  O   UNL     1      -6.464   7.361  69.507  1.00  0.00    -0.035 OA 
HETATM    7  C   UNL     1      -6.402   7.278  70.717  1.00  0.00    -0.039 C  
HETATM    8  N   UNL     1      -6.532   6.116  71.469  1.00  0.00    -0.049 NA 
HETATM    9  N   UNL     1      -6.200   8.326  71.608  1.00  0.00    -0.043 NA 
ENDROOT
BRANCH   4  10
HETATM   10  C   UNL     1      -9.210   6.979  72.325  1.00  0.00    -0.147 C  
BRANCH  10  11
HETATM   11  C   UNL     1     -10.147   8.156  72.651  1.00  0.00    -0.379 C  
BRANCH  11  12
HETATM   12  C   UNL     1     -10.645   8.942  71.439  1.00  0.00    -0.374 C  
BRANCH  12  13
HETATM   13  C   UNL     1     -12.018   8.461  70.976  1.00  0.00    -0.255 C  
HETATM   14  C   UNL     1     -13.142   9.317  71.508  1.00  0.00    -0.363 C  
HETATM   15  O   UNL     1     -13.006  10.316  72.193  1.00  0.00    -0.416 OA 
HETATM   16  O   UNL     1     -14.353   8.855  71.119  1.00  0.00    -0.226 OA 
ENDBRANCH  12  13
ENDBRANCH  11  12
ENDBRANCH  10  11
ENDBRANCH   4  10
TORSDOF 4
ENDMDL
MODEL      227
REMARK 921   NORMALIZED FREE ENERGY PREDICTED BY IDOCK:   -2.42 KCAL/MOL
REMARK 922        TOTAL FREE ENERGY PREDICTED BY IDOCK:   -3.16 KCAL/MOL
REMARK 923 INTER-LIGAND FREE ENERGY PREDICTED BY IDOCK:   -2.85 KCAL/MOL
REMARK 924 INTRA-LIGAND FREE ENERGY PREDICTED BY IDOCK:   -0.31 KCAL/MOL
REMARK 927      BINDING AFFINITY PREDICTED BY RF-SCORE:    0.00 PKD
ROOT
HETATM    1  C   UNL     1      -8.638   2.599  67.138  1.00  0.00    -0.108 C  
HETATM    2  C   UNL     1      -9.236   2.880  65.778  1.00  0.00    -0.111 C  
HETATM    3  S   UNL     1      -9.879   4.569  65.814  1.00  0.00    -0.239 SA 
HETATM    4  C   UNL     1      -9.110   5.041  67.414  1.00  0.00    -0.115 C  
HETATM    5  C   UNL     1      -8.124   3.896  67.769  1.00  0.00    -0.089 C  
HETATM    6  O   UNL     1      -9.422   2.134  70.491  1.00  0.00    -0.124 OA 
HETATM    7  C   UNL     1      -9.059   2.533  69.402  1.00  0.00    -0.121 C  
HETATM    8  N   UNL     1      -8.110   3.520  69.164  1.00  0.00    -0.057 NA 
HETATM    9  N   UNL     1      -9.521   2.096  68.166  1.00  0.00    -0.208 NA 
ENDROOT
BRANCH   4  10
HETATM   10  C   UNL     1     -10.252   5.383  68.396  1.00  0.00    -0.229 C  
BRANCH  10  11
HETATM   11  C   UNL     1     -10.271   6.821  68.943  1.00  0.00    -0.186 C  
BRANCH  11  12
HETATM   12  C   UNL     1      -9.568   7.012  70.287  1.00  0.00    -0.168 C  
BRANCH  12  13
HETATM   13  C   UNL     1     -10.301   8.018  71.171  1.00  0.00    -0.229 C  
HETATM   14  C   UNL     1     -11.267   7.357  72.125  1.00  0.00    -0.262 C  
HETATM   15  O   UNL     1     -11.436   6.155  72.238  1.00  0.00    -0.285 OA 
HETATM   16  O   UNL     1     -11.934   8.265  72.874  1.00  0.00    -0.316 OA 
ENDBRANCH  12  13
ENDBRANCH  11  12
ENDBRANCH  10  11
ENDBRANCH   4  10
TORSDOF 4
ENDMDL
MODEL      228
REMARK 921   NORMALIZED FREE ENERGY PREDICTED BY IDOCK:   -2.41 KCAL/MOL
REMARK 922        TOTAL FREE ENERGY PREDICTED BY IDOCK:   -3.15 KCAL/MOL
REMARK 923 INTER-LIGAND FREE ENERGY PREDICTED BY IDOCK:   -2.81 KCAL/MOL
REMARK 924 INTRA-LIGAND FREE ENERGY PREDICTED BY IDOCK:   -0.35 KCAL/MOL
REMARK 927      BINDING AFFINITY PREDICTED BY RF-SCORE:    0.00 PKD
ROOT
HETATM    1  C   UNL     1     -11.361   7.885  70.394  1.00  0.00    -0.194 C  
HETATM    2  C   UNL     1     -12.385   7.016  71.088  1.00  0.00    -0.378 C  
HETATM    3  S   UNL     1     -11.537   6.167  72.440  1.00  0.00    -0.256 SA 
HETATM    4  C   UNL     1      -9.985   7.144  72.348  1.00  0.00    -0.166 C  
HETATM    5  C   UNL     1     -10.280   8.325  71.384  1.00  0.00    -0.207 C  
HETATM    6  O   UNL     1      -8.499   7.799  68.426  1.00  0.00    -0.124 OA 
HETATM    7  C   UNL     1      -9.330   7.899  69.307  1.00  0.00    -0.148 C  
HETATM    8  N   UNL     1      -9.206   8.645  70.473  1.00  0.00    -0.165 NA 
HETATM    9  N   UNL     1     -10.576   7.282  69.341  1.00  0.00    -0.227 NA 
ENDROOT
BRANCH   4  10
HETATM   10  C   UNL     1      -8.838   6.165  72.010  1.00  0.00    -0.139 C  
BRANCH  10  11
HETATM   11  C   UNL     1      -8.843   4.826  72.768  1.00  0.00    -0.120 C  
BRANCH  11  12
HETATM   12  C   UNL     1      -8.678   3.585  71.892  1.00  0.00    -0.123 C  
BRANCH  12  13
HETATM   13  C   UNL     1      -9.576   3.640  70.658  1.00  0.00    -0.254 C  
HETATM   14  C   UNL     1      -8.800   3.509  69.370  1.00  0.00    -0.095 C  
HETATM   15  O   UNL     1      -7.597   3.331  69.285  1.00  0.00    -0.048 OA 
HETATM   16  O   UNL     1      -9.606   3.596  68.286  1.00  0.00    -0.165 OA 
ENDBRANCH  12  13
ENDBRANCH  11  12
ENDBRANCH  10  11
ENDBRANCH   4  10
TORSDOF 4
ENDMDL
MODEL      229
REMARK 921   NORMALIZED FREE ENERGY PREDICTED BY IDOCK:   -2.41 KCAL/MOL
REMARK 922        TOTAL FREE ENERGY PREDICTED BY IDOCK:   -3.15 KCAL/MOL
REMARK 923 INTER-LIGAND FREE ENERGY PREDICTED BY IDOCK:   -2.77 KCAL/MOL
REMARK 924 INTRA-LIGAND FREE ENERGY PREDICTED BY IDOCK:   -0.39 KCAL/MOL
REMARK 927      BINDING AFFINITY PREDICTED BY RF-SCORE:    0.00 PKD
ROOT
HETATM    1  C   UNL     1      -7.146   4.572  70.289  1.00  0.00    -0.048 C  
HETATM    2  C   UNL     1      -7.858   5.032  69.037  1.00  0.00    -0.080 C  
HETATM    3  S   UNL     1      -8.347   6.752  69.302  1.00  0.00    -0.125 SA 
HETATM    4  C   UNL     1      -7.374   7.003  70.840  1.00  0.00    -0.077 C  
HETATM    5  C   UNL     1      -6.458   5.757  70.974  1.00  0.00    -0.040 C  
HETATM    6  O   UNL     1      -7.606   3.833  73.653  1.00  0.00    -0.067 OA 
HETATM    7  C   UNL     1      -7.327   4.311  72.571  1.00  0.00    -0.072 C  
HETATM    8  N   UNL     1      -6.328   5.242  72.317  1.00  0.00    -0.034 NA 
HETATM    9  N   UNL     1      -7.954   4.036  71.361  1.00  0.00    -0.071 NA 
ENDROOT
BRANCH   4  10
HETATM   10  C   UNL     1      -8.372   7.328  71.973  1.00  0.00    -0.114 C  
BRANCH  10  11
HETATM   11  C   UNL     1      -9.857   7.068  71.666  1.00  0.00    -0.169 C  
BRANCH  11  12
HETATM   12  C   UNL     1     -10.831   7.499  72.763  1.00  0.00    -0.397 C  
BRANCH  12  13
HETATM   13  C   UNL     1     -11.715   8.658  72.311  1.00  0.00    -0.428 C  
HETATM   14  C   UNL     1     -13.066   8.199  71.817  1.00  0.00    -0.345 C  
HETATM   15  O   UNL     1     -13.460   7.046  71.808  1.00  0.00    -0.349 OA 
HETATM   16  O   UNL     1     -13.822   9.236  71.386  1.00  0.00    -0.350 OA 
ENDBRANCH  12  13
ENDBRANCH  11  12
ENDBRANCH  10  11
ENDBRANCH   4  10
TORSDOF 4
ENDMDL
MODEL      230
REMARK 921   NORMALIZED FREE ENERGY PREDICTED BY IDOCK:   -2.37 KCAL/MOL
REMARK 922        TOTAL FREE ENERGY PREDICTED BY IDOCK:   -3.10 KCAL/MOL
REMARK 923 INTER-LIGAND FREE ENERGY PREDICTED BY IDOCK:   -2.61 KCAL/MOL
REMARK 924 INTRA-LIGAND FREE ENERGY PREDICTED BY IDOCK:   -0.48 KCAL/MOL
REMARK 927      BINDING AFFINITY PREDICTED BY RF-SCORE:    0.00 PKD
ROOT
HETATM    1  C   UNL     1      -8.797   7.416  68.898  1.00  0.00    -0.131 C  
HETATM    2  C   UNL     1      -7.316   7.112  68.892  1.00  0.00    -0.093 C  
HETATM    3  S   UNL     1      -7.116   5.442  68.230  1.00  0.00    -0.067 SA 
HETATM    4  C   UNL     1      -8.849   5.246  67.653  1.00  0.00    -0.105 C  
HETATM    5  C   UNL     1      -9.501   6.650  67.775  1.00  0.00    -0.120 C  
HETATM    6  O   UNL     1     -11.818   6.561  70.386  1.00  0.00    -0.400 OA 
HETATM    7  C   UNL     1     -10.859   6.724  69.659  1.00  0.00    -0.271 C  
HETATM    8  N   UNL     1     -10.858   6.646  68.271  1.00  0.00    -0.254 NA 
HETATM    9  N   UNL     1      -9.559   7.012  70.058  1.00  0.00    -0.164 NA 
ENDROOT
BRANCH   4  10
HETATM   10  C   UNL     1      -9.466   4.060  68.426  1.00  0.00    -0.211 C  
BRANCH  10  11
HETATM   11  C   UNL     1      -8.481   3.175  69.211  1.00  0.00    -0.098 C  
BRANCH  11  12
HETATM   12  C   UNL     1      -8.868   2.911  70.667  1.00  0.00    -0.148 C  
BRANCH  12  13
HETATM   13  C   UNL     1      -8.586   4.119  71.555  1.00  0.00    -0.126 C  
HETATM   14  C   UNL     1      -9.566   4.240  72.698  1.00  0.00    -0.131 C  
HETATM   15  O   UNL     1     -10.465   3.455  72.943  1.00  0.00    -0.161 OA 
HETATM   16  O   UNL     1      -9.323   5.336  73.454  1.00  0.00    -0.134 OA 
ENDBRANCH  12  13
ENDBRANCH  11  12
ENDBRANCH  10  11
ENDBRANCH   4  10
TORSDOF 4
ENDMDL
MODEL      231
REMARK 921   NORMALIZED FREE ENERGY PREDICTED BY IDOCK:   -2.34 KCAL/MOL
REMARK 922        TOTAL FREE ENERGY PREDICTED BY IDOCK:   -3.06 KCAL/MOL
REMARK 923 INTER-LIGAND FREE ENERGY PREDICTED BY IDOCK:   -2.80 KCAL/MOL
REMARK 924 INTRA-LIGAND FREE ENERGY PREDICTED BY IDOCK:   -0.26 KCAL/MOL
REMARK 927      BINDING AFFINITY PREDICTED BY RF-SCORE:    0.00 PKD
ROOT
HETATM    1  C   UNL     1      -8.913   5.975  67.304  1.00  0.00    -0.109 C  
HETATM    2  C   UNL     1      -7.646   5.157  67.416  1.00  0.00    -0.088 C  
HETATM    3  S   UNL     1      -7.907   3.944  68.730  1.00  0.00    -0.063 SA 
HETATM    4  C   UNL     1      -9.711   4.237  68.916  1.00  0.00    -0.125 C  
HETATM    5  C   UNL     1     -10.123   5.137  67.721  1.00  0.00    -0.144 C  
HETATM    6  O   UNL     1     -10.880   8.316  68.951  1.00  0.00    -0.116 OA 
HETATM    7  C   UNL     1     -10.387   7.330  68.444  1.00  0.00    -0.185 C  
HETATM    8  N   UNL     1     -11.065   6.183  68.047  1.00  0.00    -0.308 NA 
HETATM    9  N   UNL     1      -9.040   7.133  68.160  1.00  0.00    -0.134 NA 
ENDROOT
BRANCH   4  10
HETATM   10  C   UNL     1      -9.955   4.739  70.356  1.00  0.00    -0.315 C  
BRANCH  10  11
HETATM   11  C   UNL     1      -9.632   3.745  71.486  1.00  0.00    -0.232 C  
BRANCH  11  12
HETATM   12  C   UNL     1      -9.239   4.384  72.818  1.00  0.00    -0.145 C  
BRANCH  12  13
HETATM   13  C   UNL     1     -10.344   5.289  73.359  1.00  0.00    -0.242 C  
HETATM   14  C   UNL     1      -9.969   6.751  73.313  1.00  0.00    -0.203 C  
HETATM   15  O   UNL     1      -8.930   7.200  72.861  1.00  0.00    -0.127 OA 
HETATM   16  O   UNL     1     -10.944   7.536  73.829  1.00  0.00    -0.266 OA 
ENDBRANCH  12  13
ENDBRANCH  11  12
ENDBRANCH  10  11
ENDBRANCH   4  10
TORSDOF 4
ENDMDL
MODEL      232
REMARK 921   NORMALIZED FREE ENERGY PREDICTED BY IDOCK:   -2.31 KCAL/MOL
REMARK 922        TOTAL FREE ENERGY PREDICTED BY IDOCK:   -3.03 KCAL/MOL
REMARK 923 INTER-LIGAND FREE ENERGY PREDICTED BY IDOCK:   -3.12 KCAL/MOL
REMARK 924 INTRA-LIGAND FREE ENERGY PREDICTED BY IDOCK:    0.09 KCAL/MOL
REMARK 927      BINDING AFFINITY PREDICTED BY RF-SCORE:    0.00 PKD
ROOT
HETATM    1  C   UNL     1      -5.785  17.709  69.368  1.00  0.00    -0.217 C  
HETATM    2  C   UNL     1      -5.756  16.407  70.136  1.00  0.00    -0.187 C  
HETATM    3  S   UNL     1      -6.475  15.140  69.065  1.00  0.00    -0.113 SA 
HETATM    4  C   UNL     1      -6.507  16.162  67.539  1.00  0.00    -0.172 C  
HETATM    5  C   UNL     1      -5.690  17.441  67.864  1.00  0.00    -0.132 C  
HETATM    6  O   UNL     1      -7.900  20.136  68.064  1.00  0.00    -0.281 OA 
HETATM    7  C   UNL     1      -7.134  19.216  68.265  1.00  0.00    -0.273 C  
HETATM    8  N   UNL     1      -6.250  18.666  67.344  1.00  0.00    -0.184 NA 
HETATM    9  N   UNL     1      -6.985  18.511  69.454  1.00  0.00    -0.177 NA 
ENDROOT
BRANCH   4  10
HETATM   10  C   UNL     1      -7.983  16.302  67.105  1.00  0.00    -0.220 C  
BRANCH  10  11
HETATM   11  C   UNL     1      -8.600  15.085  66.394  1.00  0.00    -0.083 C  
BRANCH  11  12
HETATM   12  C   UNL     1      -9.065  13.960  67.319  1.00  0.00    -0.230 C  
BRANCH  12  13
HETATM   13  C   UNL     1      -9.742  12.833  66.544  1.00  0.00    -0.255 C  
HETATM   14  C   UNL     1      -9.829  11.553  67.340  1.00  0.00    -0.186 C  
HETATM   15  O   UNL     1      -9.455  11.410  68.491  1.00  0.00    -0.182 OA 
HETATM   16  O   UNL     1     -10.399  10.555  66.625  1.00  0.00    -0.228 OA 
ENDBRANCH  12  13
ENDBRANCH  11  12
ENDBRANCH  10  11
ENDBRANCH   4  10
TORSDOF 4
ENDMDL
MODEL      233
REMARK 921   NORMALIZED FREE ENERGY PREDICTED BY IDOCK:   -2.29 KCAL/MOL
REMARK 922        TOTAL FREE ENERGY PREDICTED BY IDOCK:   -3.00 KCAL/MOL
REMARK 923 INTER-LIGAND FREE ENERGY PREDICTED BY IDOCK:   -2.60 KCAL/MOL
REMARK 924 INTRA-LIGAND FREE ENERGY PREDICTED BY IDOCK:   -0.40 KCAL/MOL
REMARK 927      BINDING AFFINITY PREDICTED BY RF-SCORE:    0.00 PKD
ROOT
HETATM    1  C   UNL     1      -9.040   3.205  66.108  1.00  0.00    -0.149 C  
HETATM    2  C   UNL     1      -9.227   3.611  64.663  1.00  0.00    -0.143 C  
HETATM    3  S   UNL     1      -8.275   5.126  64.408  1.00  0.00    -0.133 SA 
HETATM    4  C   UNL     1      -7.378   5.073  66.010  1.00  0.00    -0.078 C  
HETATM    5  C   UNL     1      -7.678   3.677  66.620  1.00  0.00    -0.081 C  
HETATM    6  O   UNL     1      -9.772   4.112  69.381  1.00  0.00    -0.192 OA 
HETATM    7  C   UNL     1      -9.272   3.879  68.299  1.00  0.00    -0.155 C  
HETATM    8  N   UNL     1      -7.920   3.679  68.044  1.00  0.00    -0.075 NA 
HETATM    9  N   UNL     1      -9.941   3.774  67.085  1.00  0.00     0.021 NA 
ENDROOT
BRANCH   4  10
HETATM   10  C   UNL     1      -7.767   6.340  66.803  1.00  0.00    -0.100 C  
BRANCH  10  11
HETATM   11  C   UNL     1      -9.041   7.068  66.338  1.00  0.00    -0.189 C  
BRANCH  11  12
HETATM   12  C   UNL     1      -8.851   8.543  65.982  1.00  0.00    -0.208 C  
BRANCH  12  13
HETATM   13  C   UNL     1     -10.146   9.334  66.143  1.00  0.00    -0.304 C  
HETATM   14  C   UNL     1     -10.257   9.996  67.496  1.00  0.00    -0.212 C  
HETATM   15  O   UNL     1      -9.408   9.962  68.370  1.00  0.00    -0.132 OA 
HETATM   16  O   UNL     1     -11.426  10.663  67.636  1.00  0.00    -0.474 OA 
ENDBRANCH  12  13
ENDBRANCH  11  12
ENDBRANCH  10  11
ENDBRANCH   4  10
TORSDOF 4
ENDMDL
MODEL      234
REMARK 921   NORMALIZED FREE ENERGY PREDICTED BY IDOCK:   -2.28 KCAL/MOL
REMARK 922        TOTAL FREE ENERGY PREDICTED BY IDOCK:   -3.00 KCAL/MOL
REMARK 923 INTER-LIGAND FREE ENERGY PREDICTED BY IDOCK:   -2.84 KCAL/MOL
REMARK 924 INTRA-LIGAND FREE ENERGY PREDICTED BY IDOCK:   -0.15 KCAL/MOL
REMARK 927      BINDING AFFINITY PREDICTED BY RF-SCORE:    0.00 PKD
ROOT
HETATM    1  C   UNL     1      -8.227   8.812  68.181  1.00  0.00    -0.114 C  
HETATM    2  C   UNL     1      -9.351   8.962  67.180  1.00  0.00    -0.145 C  
HETATM    3  S   UNL     1      -8.960  10.393  66.148  1.00  0.00    -0.162 SA 
HETATM    4  C   UNL     1      -7.236  10.606  66.746  1.00  0.00    -0.119 C  
HETATM    5  C   UNL     1      -6.919   9.344  67.591  1.00  0.00    -0.081 C  
HETATM    6  O   UNL     1      -6.735  10.290  70.948  1.00  0.00    -0.340 OA 
HETATM    7  C   UNL     1      -7.041   9.863  69.853  1.00  0.00    -0.118 C  
HETATM    8  N   UNL     1      -6.172   9.599  68.801  1.00  0.00    -0.043 NA 
HETATM    9  N   UNL     1      -8.325   9.558  69.415  1.00  0.00    -0.128 NA 
ENDROOT
BRANCH   4  10
HETATM   10  C   UNL     1      -7.143  11.999  67.407  1.00  0.00    -0.136 C  
BRANCH  10  11
HETATM   11  C   UNL     1      -8.446  12.554  68.009  1.00  0.00    -0.173 C  
BRANCH  11  12
HETATM   12  C   UNL     1      -8.865  13.930  67.489  1.00  0.00    -0.196 C  
BRANCH  12  13
HETATM   13  C   UNL     1      -9.885  14.595  68.409  1.00  0.00    -0.220 C  
HETATM   14  C   UNL     1     -11.289  14.085  68.183  1.00  0.00    -0.292 C  
HETATM   15  O   UNL     1     -11.604  13.209  67.397  1.00  0.00    -0.314 OA 
HETATM   16  O   UNL     1     -12.185  14.712  68.981  1.00  0.00    -0.261 OA 
ENDBRANCH  12  13
ENDBRANCH  11  12
ENDBRANCH  10  11
ENDBRANCH   4  10
TORSDOF 4
ENDMDL
MODEL      235
REMARK 921   NORMALIZED FREE ENERGY PREDICTED BY IDOCK:   -2.20 KCAL/MOL
REMARK 922        TOTAL FREE ENERGY PREDICTED BY IDOCK:   -2.90 KCAL/MOL
REMARK 923 INTER-LIGAND FREE ENERGY PREDICTED BY IDOCK:   -2.54 KCAL/MOL
REMARK 924 INTRA-LIGAND FREE ENERGY PREDICTED BY IDOCK:   -0.36 KCAL/MOL
REMARK 927      BINDING AFFINITY PREDICTED BY RF-SCORE:    0.00 PKD
ROOT
HETATM    1  C   UNL     1      -8.583   9.792  67.376  1.00  0.00    -0.128 C  
HETATM    2  C   UNL     1      -8.841   8.718  66.342  1.00  0.00    -0.147 C  
HETATM    3  S   UNL     1     -10.318   7.817  66.865  1.00  0.00    -0.292 SA 
HETATM    4  C   UNL     1     -10.807   8.987  68.194  1.00  0.00    -0.027 C  
HETATM    5  C   UNL     1      -9.900  10.234  68.020  1.00  0.00    -0.150 C  
HETATM    6  O   UNL     1      -7.633  10.322  70.675  1.00  0.00    -0.152 OA 
HETATM    7  C   UNL     1      -8.207  10.202  69.611  1.00  0.00    -0.165 C  
HETATM    8  N   UNL     1      -9.409  10.802  69.254  1.00  0.00    -0.126 NA 
HETATM    9  N   UNL     1      -7.791   9.433  68.530  1.00  0.00    -0.089 NA 
ENDROOT
BRANCH   4  10
HETATM   10  C   UNL     1     -10.774   8.212  69.530  1.00  0.00    -0.180 C  
BRANCH  10  11
HETATM   11  C   UNL     1     -10.445   6.711  69.437  1.00  0.00    -0.254 C  
BRANCH  11  12
HETATM   12  C   UNL     1      -9.735   6.127  70.659  1.00  0.00    -0.203 C  
BRANCH  12  13
HETATM   13  C   UNL     1     -10.429   4.866  71.166  1.00  0.00    -0.161 C  
HETATM   14  C   UNL     1     -10.939   5.014  72.580  1.00  0.00    -0.177 C  
HETATM   15  O   UNL     1     -10.865   6.025  73.255  1.00  0.00    -0.254 OA 
HETATM   16  O   UNL     1     -11.519   3.875  73.027  1.00  0.00    -0.032 OA 
ENDBRANCH  12  13
ENDBRANCH  11  12
ENDBRANCH  10  11
ENDBRANCH   4  10
TORSDOF 4
ENDMDL
MODEL      236
REMARK 921   NORMALIZED FREE ENERGY PREDICTED BY IDOCK:   -2.20 KCAL/MOL
REMARK 922        TOTAL FREE ENERGY PREDICTED BY IDOCK:   -2.89 KCAL/MOL
REMARK 923 INTER-LIGAND FREE ENERGY PREDICTED BY IDOCK:   -2.54 KCAL/MOL
REMARK 924 INTRA-LIGAND FREE ENERGY PREDICTED BY IDOCK:   -0.35 KCAL/MOL
REMARK 927      BINDING AFFINITY PREDICTED BY RF-SCORE:    0.00 PKD
ROOT
HETATM    1  C   UNL     1      -7.197   5.054  67.876  1.00  0.00    -0.067 C  
HETATM    2  C   UNL     1      -7.710   5.950  66.771  1.00  0.00    -0.100 C  
HETATM    3  S   UNL     1      -7.809   7.625  67.443  1.00  0.00    -0.120 SA 
HETATM    4  C   UNL     1      -6.898   7.271  68.998  1.00  0.00    -0.064 C  
HETATM    5  C   UNL     1      -6.300   5.849  68.829  1.00  0.00    -0.037 C  
HETATM    6  O   UNL     1      -8.013   3.676  70.959  1.00  0.00    -0.060 OA 
HETATM    7  C   UNL     1      -7.569   4.315  70.026  1.00  0.00    -0.049 C  
HETATM    8  N   UNL     1      -6.370   5.018  70.008  1.00  0.00    -0.026 NA 
HETATM    9  N   UNL     1      -8.169   4.487  68.784  1.00  0.00    -0.081 NA 
ENDROOT
BRANCH   4  10
HETATM   10  C   UNL     1      -7.861   7.547  70.174  1.00  0.00    -0.098 C  
BRANCH  10  11
HETATM   11  C   UNL     1      -9.321   7.855  69.798  1.00  0.00    -0.153 C  
BRANCH  11  12
HETATM   12  C   UNL     1     -10.226   8.235  70.971  1.00  0.00    -0.230 C  
BRANCH  12  13
HETATM   13  C   UNL     1     -10.623   9.708  70.924  1.00  0.00    -0.386 C  
HETATM   14  C   UNL     1     -12.097   9.919  71.178  1.00  0.00    -0.374 C  
HETATM   15  O   UNL     1     -12.901   9.041  71.439  1.00  0.00    -0.320 OA 
HETATM   16  O   UNL     1     -12.439  11.226  71.097  1.00  0.00    -0.379 OA 
ENDBRANCH  12  13
ENDBRANCH  11  12
ENDBRANCH  10  11
ENDBRANCH   4  10
TORSDOF 4
ENDMDL
MODEL      237
REMARK 921   NORMALIZED FREE ENERGY PREDICTED BY IDOCK:   -2.14 KCAL/MOL
REMARK 922        TOTAL FREE ENERGY PREDICTED BY IDOCK:   -2.81 KCAL/MOL
REMARK 923 INTER-LIGAND FREE ENERGY PREDICTED BY IDOCK:   -2.37 KCAL/MOL
REMARK 924 INTRA-LIGAND FREE ENERGY PREDICTED BY IDOCK:   -0.45 KCAL/MOL
REMARK 927      BINDING AFFINITY PREDICTED BY RF-SCORE:    0.00 PKD
ROOT
HETATM    1  C   UNL     1      -8.100   6.278  66.924  1.00  0.00    -0.109 C  
HETATM    2  C   UNL     1      -6.999   5.376  67.433  1.00  0.00    -0.065 C  
HETATM    3  S   UNL     1      -7.750   4.225  68.607  1.00  0.00    -0.066 SA 
HETATM    4  C   UNL     1      -9.494   4.651  68.216  1.00  0.00    -0.147 C  
HETATM    5  C   UNL     1      -9.442   5.541  66.946  1.00  0.00    -0.135 C  
HETATM    6  O   UNL     1     -10.297   8.802  67.855  1.00  0.00    -0.208 OA 
HETATM    7  C   UNL     1      -9.747   7.768  67.534  1.00  0.00    -0.158 C  
HETATM    8  N   UNL     1     -10.354   6.661  66.953  1.00  0.00    -0.242 NA 
HETATM    9  N   UNL     1      -8.399   7.467  67.689  1.00  0.00    -0.117 NA 
ENDROOT
BRANCH   4  10
HETATM   10  C   UNL     1     -10.135   5.213  69.504  1.00  0.00    -0.316 C  
BRANCH  10  11
HETATM   11  C   UNL     1      -9.206   5.344  70.724  1.00  0.00    -0.183 C  
BRANCH  11  12
HETATM   12  C   UNL     1      -8.921   6.778  71.170  1.00  0.00    -0.147 C  
BRANCH  12  13
HETATM   13  C   UNL     1      -7.494   7.202  70.830  1.00  0.00    -0.080 C  
HETATM   14  C   UNL     1      -7.289   8.693  70.949  1.00  0.00    -0.077 C  
HETATM   15  O   UNL     1      -8.130   9.495  71.316  1.00  0.00    -0.284 OA 
HETATM   16  O   UNL     1      -6.030   9.056  70.609  1.00  0.00    -0.032 OA 
ENDBRANCH  12  13
ENDBRANCH  11  12
ENDBRANCH  10  11
ENDBRANCH   4  10
TORSDOF 4
ENDMDL
MODEL      238
REMARK 921   NORMALIZED FREE ENERGY PREDICTED BY IDOCK:   -2.13 KCAL/MOL
REMARK 922        TOTAL FREE ENERGY PREDICTED BY IDOCK:   -2.80 KCAL/MOL
REMARK 923 INTER-LIGAND FREE ENERGY PREDICTED BY IDOCK:   -2.62 KCAL/MOL
REMARK 924 INTRA-LIGAND FREE ENERGY PREDICTED BY IDOCK:   -0.18 KCAL/MOL
REMARK 927      BINDING AFFINITY PREDICTED BY RF-SCORE:    0.00 PKD
ROOT
HETATM    1  C   UNL     1     -10.097   6.767  68.461  1.00  0.00    -0.162 C  
HETATM    2  C   UNL     1      -9.616   5.481  67.827  1.00  0.00    -0.123 C  
HETATM    3  S   UNL     1      -7.860   5.694  67.452  1.00  0.00    -0.102 SA 
HETATM    4  C   UNL     1      -7.645   7.262  68.386  1.00  0.00    -0.118 C  
HETATM    5  C   UNL     1      -8.949   7.453  69.206  1.00  0.00    -0.136 C  
HETATM    6  O   UNL     1     -10.728  10.125  67.833  1.00  0.00    -0.230 OA 
HETATM    7  C   UNL     1     -10.295   9.045  68.182  1.00  0.00    -0.214 C  
HETATM    8  N   UNL     1      -9.441   8.810  69.253  1.00  0.00    -0.160 NA 
HETATM    9  N   UNL     1     -10.552   7.819  67.580  1.00  0.00    -0.262 NA 
ENDROOT
BRANCH   4  10
HETATM   10  C   UNL     1      -7.226   8.351  67.374  1.00  0.00    -0.088 C  
BRANCH  10  11
HETATM   11  C   UNL     1      -7.203   7.931  65.894  1.00  0.00    -0.072 C  
BRANCH  11  12
HETATM   12  C   UNL     1      -8.514   8.151  65.139  1.00  0.00    -0.134 C  
BRANCH  12  13
HETATM   13  C   UNL     1      -8.635   9.581  64.619  1.00  0.00    -0.207 C  
HETATM   14  C   UNL     1      -8.859   9.639  63.127  1.00  0.00    -0.240 C  
HETATM   15  O   UNL     1      -8.981   8.674  62.393  1.00  0.00    -0.115 OA 
HETATM   16  O   UNL     1      -8.927  10.914  62.678  1.00  0.00    -0.261 OA 
ENDBRANCH  12  13
ENDBRANCH  11  12
ENDBRANCH  10  11
ENDBRANCH   4  10
TORSDOF 4
ENDMDL
MODEL      239
REMARK 921   NORMALIZED FREE ENERGY PREDICTED BY IDOCK:   -2.09 KCAL/MOL
REMARK 922        TOTAL FREE ENERGY PREDICTED BY IDOCK:   -2.75 KCAL/MOL
REMARK 923 INTER-LIGAND FREE ENERGY PREDICTED BY IDOCK:   -2.39 KCAL/MOL
REMARK 924 INTRA-LIGAND FREE ENERGY PREDICTED BY IDOCK:   -0.37 KCAL/MOL
REMARK 927      BINDING AFFINITY PREDICTED BY RF-SCORE:    0.00 PKD
ROOT
HETATM    1  C   UNL     1     -11.328   7.870  70.371  1.00  0.00    -0.194 C  
HETATM    2  C   UNL     1     -12.246   6.959  71.154  1.00  0.00    -0.379 C  
HETATM    3  S   UNL     1     -11.281   6.273  72.520  1.00  0.00    -0.276 SA 
HETATM    4  C   UNL     1      -9.827   7.376  72.311  1.00  0.00    -0.167 C  
HETATM    5  C   UNL     1     -10.258   8.464  71.292  1.00  0.00    -0.212 C  
HETATM    6  O   UNL     1      -8.536   7.915  68.304  1.00  0.00    -0.124 OA 
HETATM    7  C   UNL     1      -9.343   7.996  69.208  1.00  0.00    -0.151 C  
HETATM    8  N   UNL     1      -9.248   8.821  70.323  1.00  0.00    -0.164 NA 
HETATM    9  N   UNL     1     -10.526   7.275  69.326  1.00  0.00    -0.212 NA 
ENDROOT
BRANCH   4  10
HETATM   10  C   UNL     1      -8.608   6.483  71.987  1.00  0.00    -0.125 C  
BRANCH  10  11
HETATM   11  C   UNL     1      -7.397   6.620  72.927  1.00  0.00    -0.081 C  
BRANCH  11  12
HETATM   12  C   UNL     1      -6.775   5.299  73.378  1.00  0.00    -0.074 C  
BRANCH  12  13
HETATM   13  C   UNL     1      -7.839   4.283  73.785  1.00  0.00    -0.085 C  
HETATM   14  C   UNL     1      -7.724   2.985  73.021  1.00  0.00    -0.055 C  
HETATM   15  O   UNL     1      -6.864   2.724  72.198  1.00  0.00    -0.021 OA 
HETATM   16  O   UNL     1      -8.696   2.110  73.368  1.00  0.00    -0.068 OA 
ENDBRANCH  12  13
ENDBRANCH  11  12
ENDBRANCH  10  11
ENDBRANCH   4  10
TORSDOF 4
ENDMDL
MODEL      240
REMARK 921   NORMALIZED FREE ENERGY PREDICTED BY IDOCK:   -2.01 KCAL/MOL
REMARK 922        TOTAL FREE ENERGY PREDICTED BY IDOCK:   -2.66 KCAL/MOL
REMARK 923 INTER-LIGAND FREE ENERGY PREDICTED BY IDOCK:   -2.32 KCAL/MOL
REMARK 924 INTRA-LIGAND FREE ENERGY PREDICTED BY IDOCK:   -0.34 KCAL/MOL
REMARK 927      BINDING AFFINITY PREDICTED BY RF-SCORE:    0.00 PKD
ROOT
HETATM    1  C   UNL     1      -7.915   2.390  66.057  1.00  0.00    -0.082 C  
HETATM    2  C   UNL     1      -9.208   2.519  65.284  1.00  0.00    -0.107 C  
HETATM    3  S   UNL     1      -9.505   4.284  65.031  1.00  0.00    -0.177 SA 
HETATM    4  C   UNL     1      -7.852   4.849  65.599  1.00  0.00    -0.095 C  
HETATM    5  C   UNL     1      -6.989   3.567  65.743  1.00  0.00    -0.058 C  
HETATM    6  O   UNL     1      -6.435   2.991  69.142  1.00  0.00    -0.029 OA 
HETATM    7  C   UNL     1      -6.807   2.990  67.986  1.00  0.00    -0.049 C  
HETATM    8  N   UNL     1      -6.131   3.542  66.904  1.00  0.00    -0.024 NA 
HETATM    9  N   UNL     1      -7.990   2.445  67.500  1.00  0.00    -0.064 NA 
ENDROOT
BRANCH   4  10
HETATM   10  C   UNL     1      -8.069   5.753  66.833  1.00  0.00    -0.102 C  
BRANCH  10  11
HETATM   11  C   UNL     1      -9.530   5.977  67.262  1.00  0.00    -0.119 C  
BRANCH  11  12
HETATM   12  C   UNL     1      -9.709   6.664  68.616  1.00  0.00    -0.129 C  
BRANCH  12  13
HETATM   13  C   UNL     1     -11.059   6.331  69.246  1.00  0.00    -0.461 C  
HETATM   14  C   UNL     1     -11.172   6.821  70.670  1.00  0.00    -0.312 C  
HETATM   15  O   UNL     1     -10.320   7.455  71.267  1.00  0.00    -0.194 OA 
HETATM   16  O   UNL     1     -12.360   6.485  71.224  1.00  0.00    -0.317 OA 
ENDBRANCH  12  13
ENDBRANCH  11  12
ENDBRANCH  10  11
ENDBRANCH   4  10
TORSDOF 4
ENDMDL
MODEL      241
REMARK 921   NORMALIZED FREE ENERGY PREDICTED BY IDOCK:   -1.98 KCAL/MOL
REMARK 922        TOTAL FREE ENERGY PREDICTED BY IDOCK:   -2.61 KCAL/MOL
REMARK 923 INTER-LIGAND FREE ENERGY PREDICTED BY IDOCK:   -2.55 KCAL/MOL
REMARK 924 INTRA-LIGAND FREE ENERGY PREDICTED BY IDOCK:   -0.06 KCAL/MOL
REMARK 927      BINDING AFFINITY PREDICTED BY RF-SCORE:    0.00 PKD
ROOT
HETATM    1  C   UNL     1      -8.692   9.932  67.225  1.00  0.00    -0.128 C  
HETATM    2  C   UNL     1      -9.641   9.184  66.316  1.00  0.00    -0.255 C  
HETATM    3  S   UNL     1     -10.551   8.009  67.345  1.00  0.00    -0.214 SA 
HETATM    4  C   UNL     1      -9.987   8.678  68.960  1.00  0.00    -0.192 C  
HETATM    5  C   UNL     1      -9.268  10.016  68.640  1.00  0.00    -0.152 C  
HETATM    6  O   UNL     1      -5.847   9.583  69.187  1.00  0.00    -0.036 OA 
HETATM    7  C   UNL     1      -6.967   9.714  68.735  1.00  0.00    -0.066 C  
HETATM    8  N   UNL     1      -8.063  10.252  69.400  1.00  0.00    -0.154 NA 
HETATM    9  N   UNL     1      -7.393   9.345  67.465  1.00  0.00    -0.083 NA 
ENDROOT
BRANCH   4  10
HETATM   10  C   UNL     1      -9.205   7.557  69.680  1.00  0.00    -0.146 C  
BRANCH  10  11
HETATM   11  C   UNL     1      -9.835   6.153  69.636  1.00  0.00    -0.196 C  
BRANCH  11  12
HETATM   12  C   UNL     1      -9.129   5.154  68.720  1.00  0.00    -0.140 C  
BRANCH  12  13
HETATM   13  C   UNL     1      -9.389   3.712  69.147  1.00  0.00    -0.244 C  
HETATM   14  C   UNL     1      -9.365   2.749  67.984  1.00  0.00    -0.204 C  
HETATM   15  O   UNL     1      -9.123   3.045  66.827  1.00  0.00    -0.151 OA 
HETATM   16  O   UNL     1      -9.634   1.482  68.376  1.00  0.00    -0.189 OA 
ENDBRANCH  12  13
ENDBRANCH  11  12
ENDBRANCH  10  11
ENDBRANCH   4  10
TORSDOF 4
ENDMDL
MODEL      242
REMARK 921   NORMALIZED FREE ENERGY PREDICTED BY IDOCK:   -1.95 KCAL/MOL
REMARK 922        TOTAL FREE ENERGY PREDICTED BY IDOCK:   -2.58 KCAL/MOL
REMARK 923 INTER-LIGAND FREE ENERGY PREDICTED BY IDOCK:   -2.34 KCAL/MOL
REMARK 924 INTRA-LIGAND FREE ENERGY PREDICTED BY IDOCK:   -0.24 KCAL/MOL
REMARK 927      BINDING AFFINITY PREDICTED BY RF-SCORE:    0.00 PKD
ROOT
HETATM    1  C   UNL     1     -10.184   7.494  70.211  1.00  0.00    -0.204 C  
HETATM    2  C   UNL     1     -10.958   6.309  70.745  1.00  0.00    -0.297 C  
HETATM    3  S   UNL     1      -9.802   4.924  70.859  1.00  0.00    -0.219 SA 
HETATM    4  C   UNL     1      -8.280   5.907  70.557  1.00  0.00    -0.119 C  
HETATM    5  C   UNL     1      -8.714   7.396  70.624  1.00  0.00    -0.142 C  
HETATM    6  O   UNL     1      -8.560   8.732  67.401  1.00  0.00    -0.124 OA 
HETATM    7  C   UNL     1      -8.881   8.264  68.475  1.00  0.00    -0.137 C  
HETATM    8  N   UNL     1      -8.106   8.249  69.629  1.00  0.00    -0.114 NA 
HETATM    9  N   UNL     1     -10.084   7.636  68.776  1.00  0.00    -0.189 NA 
ENDROOT
BRANCH   4  10
HETATM   10  C   UNL     1      -7.630   5.371  69.262  1.00  0.00    -0.077 C  
BRANCH  10  11
HETATM   11  C   UNL     1      -8.102   3.984  68.789  1.00  0.00    -0.075 C  
BRANCH  11  12
HETATM   12  C   UNL     1      -8.935   3.986  67.508  1.00  0.00    -0.148 C  
BRANCH  12  13
HETATM   13  C   UNL     1      -8.056   4.054  66.262  1.00  0.00    -0.098 C  
HETATM   14  C   UNL     1      -8.847   3.893  64.985  1.00  0.00    -0.126 C  
HETATM   15  O   UNL     1     -10.057   3.767  64.915  1.00  0.00    -0.185 OA 
HETATM   16  O   UNL     1      -8.048   3.919  63.893  1.00  0.00    -0.087 OA 
ENDBRANCH  12  13
ENDBRANCH  11  12
ENDBRANCH  10  11
ENDBRANCH   4  10
TORSDOF 4
ENDMDL
MODEL      243
REMARK 921   NORMALIZED FREE ENERGY PREDICTED BY IDOCK:   -1.84 KCAL/MOL
REMARK 922        TOTAL FREE ENERGY PREDICTED BY IDOCK:   -2.44 KCAL/MOL
REMARK 923 INTER-LIGAND FREE ENERGY PREDICTED BY IDOCK:   -2.21 KCAL/MOL
REMARK 924 INTRA-LIGAND FREE ENERGY PREDICTED BY IDOCK:   -0.24 KCAL/MOL
REMARK 927      BINDING AFFINITY PREDICTED BY RF-SCORE:    0.00 PKD
ROOT
HETATM    1  C   UNL     1      -7.834   6.026  72.013  1.00  0.00    -0.106 C  
HETATM    2  C   UNL     1      -8.917   6.585  72.909  1.00  0.00    -0.129 C  
HETATM    3  S   UNL     1     -10.497   6.302  72.079  1.00  0.00    -0.213 SA 
HETATM    4  C   UNL     1      -9.840   5.193  70.770  1.00  0.00    -0.202 C  
HETATM    5  C   UNL     1      -8.382   4.862  71.184  1.00  0.00    -0.113 C  
HETATM    6  O   UNL     1      -6.218   6.479  68.971  1.00  0.00    -0.028 OA 
HETATM    7  C   UNL     1      -6.899   6.117  69.909  1.00  0.00    -0.058 C  
HETATM    8  N   UNL     1      -7.432   4.847  70.095  1.00  0.00    -0.058 NA 
HETATM    9  N   UNL     1      -7.298   6.895  70.990  1.00  0.00    -0.076 NA 
ENDROOT
BRANCH   4  10
HETATM   10  C   UNL     1     -10.100   5.876  69.409  1.00  0.00    -0.260 C  
BRANCH  10  11
HETATM   11  C   UNL     1     -10.410   4.940  68.227  1.00  0.00    -0.032 C  
BRANCH  11  12
HETATM   12  C   UNL     1     -10.184   5.548  66.843  1.00  0.00    -0.275 C  
BRANCH  12  13
HETATM   13  C   UNL     1     -10.456   4.538  65.731  1.00  0.00    -0.268 C  
HETATM   14  C   UNL     1      -9.223   3.755  65.346  1.00  0.00    -0.152 C  
HETATM   15  O   UNL     1      -8.129   3.857  65.872  1.00  0.00    -0.099 OA 
HETATM   16  O   UNL     1      -9.472   2.890  64.334  1.00  0.00    -0.138 OA 
ENDBRANCH  12  13
ENDBRANCH  11  12
ENDBRANCH  10  11
ENDBRANCH   4  10
TORSDOF 4
ENDMDL
MODEL      244
REMARK 921   NORMALIZED FREE ENERGY PREDICTED BY IDOCK:   -1.82 KCAL/MOL
REMARK 922        TOTAL FREE ENERGY PREDICTED BY IDOCK:   -2.43 KCAL/MOL
REMARK 923 INTER-LIGAND FREE ENERGY PREDICTED BY IDOCK:   -2.13 KCAL/MOL
REMARK 924 INTRA-LIGAND FREE ENERGY PREDICTED BY IDOCK:   -0.29 KCAL/MOL
REMARK 927      BINDING AFFINITY PREDICTED BY RF-SCORE:    0.00 PKD
ROOT
HETATM    1  C   UNL     1      -7.950   3.056  66.927  1.00  0.00    -0.079 C  
HETATM    2  C   UNL     1      -8.709   2.839  65.637  1.00  0.00    -0.128 C  
HETATM    3  S   UNL     1     -10.016   4.085  65.570  1.00  0.00    -0.128 SA 
HETATM    4  C   UNL     1      -9.413   5.085  66.988  1.00  0.00    -0.142 C  
HETATM    5  C   UNL     1      -8.005   4.531  67.333  1.00  0.00    -0.100 C  
HETATM    6  O   UNL     1      -8.205   2.847  70.386  1.00  0.00    -0.045 OA 
HETATM    7  C   UNL     1      -8.132   3.182  69.220  1.00  0.00    -0.048 C  
HETATM    8  N   UNL     1      -7.726   4.424  68.746  1.00  0.00    -0.066 NA 
HETATM    9  N   UNL     1      -8.449   2.400  68.115  1.00  0.00    -0.070 NA 
ENDROOT
BRANCH   4  10
HETATM   10  C   UNL     1     -10.514   5.068  68.071  1.00  0.00    -0.026 C  
BRANCH  10  11
HETATM   11  C   UNL     1     -11.110   6.434  68.455  1.00  0.00    -0.374 C  
BRANCH  11  12
HETATM   12  C   UNL     1     -10.565   7.038  69.749  1.00  0.00    -0.253 C  
BRANCH  12  13
HETATM   13  C   UNL     1     -10.906   8.521  69.869  1.00  0.00    -0.205 C  
HETATM   14  C   UNL     1      -9.744   9.414  69.501  1.00  0.00    -0.183 C  
HETATM   15  O   UNL     1      -8.657   9.032  69.105  1.00  0.00    -0.128 OA 
HETATM   16  O   UNL     1     -10.052  10.724  69.648  1.00  0.00    -0.156 OA 
ENDBRANCH  12  13
ENDBRANCH  11  12
ENDBRANCH  10  11
ENDBRANCH   4  10
TORSDOF 4
ENDMDL
MODEL      245
REMARK 921   NORMALIZED FREE ENERGY PREDICTED BY IDOCK:   -1.51 KCAL/MOL
REMARK 922        TOTAL FREE ENERGY PREDICTED BY IDOCK:   -2.04 KCAL/MOL
REMARK 923 INTER-LIGAND FREE ENERGY PREDICTED BY IDOCK:   -1.79 KCAL/MOL
REMARK 924 INTRA-LIGAND FREE ENERGY PREDICTED BY IDOCK:   -0.25 KCAL/MOL
REMARK 927      BINDING AFFINITY PREDICTED BY RF-SCORE:    0.00 PKD
ROOT
HETATM    1  C   UNL     1      -7.994   2.907  66.979  1.00  0.00    -0.075 C  
HETATM    2  C   UNL     1      -9.215   3.227  66.146  1.00  0.00    -0.149 C  
HETATM    3  S   UNL     1      -9.195   5.006  65.827  1.00  0.00    -0.155 SA 
HETATM    4  C   UNL     1      -7.492   5.301  66.450  1.00  0.00    -0.087 C  
HETATM    5  C   UNL     1      -6.868   3.897  66.669  1.00  0.00    -0.058 C  
HETATM    6  O   UNL     1      -6.550   3.362  70.105  1.00  0.00    -0.032 OA 
HETATM    7  C   UNL     1      -6.873   3.380  68.935  1.00  0.00    -0.045 C  
HETATM    8  N   UNL     1      -6.071   3.769  67.867  1.00  0.00    -0.031 NA 
HETATM    9  N   UNL     1      -8.113   3.028  68.414  1.00  0.00    -0.064 NA 
ENDROOT
BRANCH   4  10
HETATM   10  C   UNL     1      -7.596   6.274  67.645  1.00  0.00    -0.097 C  
BRANCH  10  11
HETATM   11  C   UNL     1      -7.342   7.760  67.336  1.00  0.00    -0.092 C  
BRANCH  11  12
HETATM   12  C   UNL     1      -7.667   8.723  68.477  1.00  0.00    -0.099 C  
BRANCH  12  13
HETATM   13  C   UNL     1      -9.124   9.179  68.435  1.00  0.00    -0.132 C  
HETATM   14  C   UNL     1      -9.706   9.388  69.812  1.00  0.00    -0.199 C  
HETATM   15  O   UNL     1      -9.100   9.263  70.862  1.00  0.00    -0.241 OA 
HETATM   16  O   UNL     1     -11.008   9.756  69.757  1.00  0.00    -0.237 OA 
ENDBRANCH  12  13
ENDBRANCH  11  12
ENDBRANCH  10  11
ENDBRANCH   4  10
TORSDOF 4
ENDMDL
MODEL      246
REMARK 921   NORMALIZED FREE ENERGY PREDICTED BY IDOCK:   -1.25 KCAL/MOL
REMARK 922        TOTAL FREE ENERGY PREDICTED BY IDOCK:   -1.72 KCAL/MOL
REMARK 923 INTER-LIGAND FREE ENERGY PREDICTED BY IDOCK:   -2.09 KCAL/MOL
REMARK 924 INTRA-LIGAND FREE ENERGY PREDICTED BY IDOCK:    0.37 KCAL/MOL
REMARK 927      BINDING AFFINITY PREDICTED BY RF-SCORE:    0.00 PKD
ROOT
HETATM    1  C   UNL     1      -8.077   6.297  66.937  1.00  0.00    -0.109 C  
HETATM    2  C   UNL     1      -6.965   5.410  67.450  1.00  0.00    -0.065 C  
HETATM    3  S   UNL     1      -7.682   4.326  68.706  1.00  0.00    -0.066 SA 
HETATM    4  C   UNL     1      -9.436   4.749  68.359  1.00  0.00    -0.144 C  
HETATM    5  C   UNL     1      -9.423   5.576  67.046  1.00  0.00    -0.131 C  
HETATM    6  O   UNL     1     -10.217   8.886  67.824  1.00  0.00    -0.201 OA 
HETATM    7  C   UNL     1      -9.688   7.832  67.535  1.00  0.00    -0.158 C  
HETATM    8  N   UNL     1     -10.326   6.704  67.032  1.00  0.00    -0.231 NA 
HETATM    9  N   UNL     1      -8.338   7.525  67.654  1.00  0.00    -0.117 NA 
ENDROOT
BRANCH   4  10
HETATM   10  C   UNL     1     -10.024   5.381  69.641  1.00  0.00    -0.297 C  
BRANCH  10  11
HETATM   11  C   UNL     1      -9.925   4.534  70.922  1.00  0.00    -0.263 C  
BRANCH  11  12
HETATM   12  C   UNL     1      -8.886   5.012  71.936  1.00  0.00    -0.140 C  
BRANCH  12  13
HETATM   13  C   UNL     1      -7.571   4.248  71.802  1.00  0.00    -0.070 C  
HETATM   14  C   UNL     1      -6.403   4.993  72.404  1.00  0.00    -0.031 C  
HETATM   15  O   UNL     1      -6.471   6.064  72.980  1.00  0.00    -0.061 OA 
HETATM   16  O   UNL     1      -5.241   4.317  72.244  1.00  0.00    -0.003 OA 
ENDBRANCH  12  13
ENDBRANCH  11  12
ENDBRANCH  10  11
ENDBRANCH   4  10
TORSDOF 4
ENDMDL
